158

Mg 49.39700 46.26100 43.00200
C  46.37700 46.94900 41.43900
C  49.61400 43.26400 41.09700
C  52.67700 45.95300 43.76100
C  49.59400 49.76300 43.67900
N  48.11700 45.22400 41.41200
C  46.87300 45.69100 41.01800
C  46.19700 44.53500 40.18000
C  47.16500 43.34300 40.43800
C  48.41500 43.96800 40.95900
C  46.63400 42.23900 41.31600
C  45.88000 45.02300 38.74900
C  44.46800 44.67400 38.26700
H  44.37700 44.18400 36.78200
N  50.86600 44.73300 42.62000
C  50.78300 43.60200 41.80400
C  51.95200 42.78800 42.05700
C  52.79600 43.42500 42.93500
C  52.10800 44.75700 43.18900
C  52.14600 41.46600 41.47900
C  54.15200 42.91100 43.44800
O  54.51500 41.78000 43.19500
C  54.97500 43.62000 44.37400
N  50.88500 47.71900 43.56900
C  52.14200 47.24900 43.89700
C  53.00300 48.35400 44.65000
C  52.07900 49.62500 44.50300
C  50.75700 49.06600 43.90600
C  53.34400 48.11700 46.17900
C  52.61400 50.75200 43.66800
C  52.22600 52.15300 44.14000
N  48.12500 47.88900 42.91300
C  48.32100 49.28200 43.20500
C  47.09900 49.95900 43.07400
C  46.28800 49.08000 42.38700
C  47.02300 47.85600 42.24700
C  46.80000 51.31000 43.42700
C  45.00200 48.97900 41.81000
O  44.07000 49.74600 41.90400
C  45.01500 47.58700 41.04100
C  43.89200 46.71200 41.44900
O  43.83300 45.97000 42.44300
O  42.89300 46.93400 40.57200
C  41.59900 46.29900 40.89800
H  49.57000 42.20000 40.85400
H  53.62900 45.85300 44.28700
H  49.65600 50.81700 43.95700
H  45.24300 44.32500 40.66400
H  47.49600 42.90400 39.49700
H  47.40000 41.46400 41.30400
H  45.68000 41.85400 40.95600
H  46.63100 42.53100 42.36600
H  46.62200 44.69100 38.02200
H  46.00900 46.10400 38.78500
H  43.87900 45.58900 38.20000
H  43.92700 43.94600 38.87200
H  52.66000 41.65000 40.53600
H  51.18900 40.98700 41.27000
H  52.63700 40.79200 42.18100
H  55.41700 44.51100 43.92700
H  55.71800 42.95900 44.82200
H  54.25600 43.90400 45.14300
H  53.91800 48.44700 44.06400
H  51.87900 50.11100 45.45800
H  52.74900 48.65700 46.91600
H  54.36200 48.47900 46.32600
H  53.44300 47.04300 46.33100
H  52.07400 50.65500 42.72600
H  53.66400 50.58200 43.43000
H  52.93400 52.96500 43.97400
H  52.00300 52.18900 45.20600
H  51.31800 52.41400 43.59700
H  47.18000 51.95200 42.63300
H  47.38700 51.57100 44.30700
H  45.76700 51.63200 43.56000
H  44.96500 47.77200 39.96800
H  41.12500 46.62300 41.82500
H  41.66300 45.21300 40.84400
H  40.92300 46.53000 40.07500
Mg 42.04100 41.97800 27.42100
C  40.80600 44.04600 30.09300
C  43.00800 39.76200 29.90400
C  43.39000 40.14500 25.01100
C  41.24100 44.49700 25.18500
N  41.95600 41.96100 29.76900
C  41.36700 42.89700 30.59100
C  41.57000 42.55000 32.06100
C  42.40100 41.22900 31.97000
C  42.45100 40.90100 30.46600
C  43.77700 41.32200 32.69200
C  40.24800 42.41000 32.90300
C  40.16700 43.15000 34.24700
H  39.65800 42.24100 35.36200
N  42.97400 40.14800 27.45700
C  43.28300 39.41600 28.58100
C  43.97700 38.24800 28.12500
C  43.86200 38.18900 26.72800
C  43.44500 39.58400 26.34600
C  44.54300 37.25900 29.13200
C  44.07100 37.01600 25.85600
O  43.97000 37.08400 24.63600
C  44.49200 35.57700 26.28600
N  42.29200 42.29500 25.38900
C  42.86900 41.31800 24.60300
C  42.80500 41.75300 23.16200
C  41.87600 42.97800 23.12500
C  41.76300 43.30900 24.64600
C  44.18100 41.97200 22.47600
C  40.47100 42.76400 22.46400
C  39.43400 41.83000 23.05300
N  41.28900 43.94200 27.57700
C  41.01100 44.82700 26.55200
C  40.48800 46.04000 27.11700
C  40.33900 45.74000 28.48800
C  40.85600 44.45900 28.73300
C  39.98200 47.21300 26.45600
C  39.93400 46.32400 29.72400
O  39.49300 47.47000 29.99300
C  40.34300 45.27300 30.83100
C  41.39100 45.91100 31.60900
O  42.54200 46.03400 31.31000
O  40.88700 46.18300 32.88800
C  41.86100 46.90600 33.83600
H  43.46000 39.20100 30.72400
H  43.65500 39.46000 24.20300
H  41.04800 45.26400 24.43300
H  42.18900 43.37300 32.41900
H  41.87300 40.45700 32.52900
H  44.61100 41.18100 32.00500
H  43.79800 40.58500 33.49500
H  43.77100 42.32700 33.11400
H  39.98700 41.35600 32.99000
H  39.41700 42.82000 32.32800
H  39.71800 44.14200 34.20800
H  41.25300 43.22400 34.31600
H  45.08200 37.82400 29.89200
H  45.22500 36.51300 28.72500
H  43.68300 36.73300 29.54700
H  43.80500 35.36800 27.10600
H  45.54300 35.59800 26.57500
H  44.44200 34.93600 25.40500
H  42.37300 40.93700 22.58200
H  42.32800 43.90700 22.78000
H  44.93400 41.77500 23.23900
H  44.42700 42.95700 22.08000
H  44.31000 41.16700 21.75300
H  40.72500 42.32400 21.49900
H  39.87400 43.67300 22.38700
H  38.98100 41.16200 22.32000
H  38.60900 42.42400 23.44700
H  39.86600 41.25500 23.87200
H  38.92100 47.18900 26.20800
H  40.58900 47.56600 25.62300
H  40.22300 48.09400 27.05000
H  39.51000 45.03100 31.49200
H  41.31200 47.77600 34.19800
H  42.79100 47.18800 33.34100
H  42.09100 46.23500 34.66300

