158

Mg 24.80600 -7.50900 48.55200
C  27.24200 -5.26700 46.91900
C  22.56600 -6.28100 46.24700
C  22.81000 -9.72000 49.83000
C  27.57900 -9.08000 50.07600
N  24.94300 -5.85700 46.77200
C  25.98500 -5.03500 46.39700
C  25.49600 -4.02800 45.32900
C  23.93400 -4.39200 45.25800
C  23.73500 -5.50800 46.24500
C  23.07200 -3.09100 45.40400
C  26.22700 -4.06800 43.94300
C  26.64600 -2.70700 43.34900
H  26.53900 -2.51000 41.86800
N  22.94500 -7.93300 48.12800
C  22.26700 -7.32000 47.08500
C  20.95100 -7.96700 47.09900
C  20.92600 -8.88200 48.20000
C  22.23800 -8.83600 48.81600
C  19.75600 -7.62100 46.11000
C  19.78800 -9.78600 48.55100
O  18.63700 -9.62200 48.07100
C  19.93100 -10.90500 49.54500
N  25.17300 -9.19100 49.76200
C  24.12600 -9.91800 50.21600
C  24.57200 -10.97600 51.18700
C  26.11500 -10.87900 51.14200
C  26.28800 -9.62600 50.29300
C  24.04500 -10.88600 52.67300
C  26.90900 -12.08300 50.56800
C  28.04600 -12.69200 51.47500
N  26.96600 -7.26800 48.62000
C  27.93300 -7.93800 49.35000
C  29.21200 -7.40000 49.10300
C  28.99300 -6.26200 48.34700
C  27.57000 -6.31600 47.91500
C  30.50300 -8.03800 49.62600
C  29.70500 -5.13900 47.67600
O  30.85800 -4.83100 47.71500
C  28.49800 -4.39200 46.74800
C  28.26800 -3.02200 47.26600
O  27.86500 -2.65500 48.36400
O  28.64600 -2.15700 46.35700
C  28.21600 -0.80700 46.56100
H  21.77200 -5.93300 45.58300
H  22.24600 -10.54300 50.27500
H  28.34300 -9.69600 50.55600
H  25.63100 -3.02400 45.73100
H  23.50200 -4.79000 44.34000
H  22.73700 -2.85700 46.41400
H  22.13900 -3.32300 44.88900
H  23.51100 -2.24700 44.87200
H  25.49500 -4.43100 43.22200
H  27.09600 -4.72600 43.91800
H  27.67000 -2.45200 43.62300
H  25.95300 -1.96800 43.75400
H  19.88800 -8.22100 45.21000
H  19.82400 -6.60000 45.73500
H  18.76200 -7.87300 46.47800
H  20.57700 -11.63400 49.05500
H  18.95000 -11.33700 49.74100
H  20.29500 -10.57300 50.51800
H  24.21500 -11.97200 50.92500
H  26.52700 -10.69000 52.13400
H  23.99500 -9.86100 53.04100
H  24.68500 -11.50300 53.30400
H  23.05100 -11.32300 52.76100
H  27.35500 -11.89300 49.59100
H  26.22000 -12.92700 50.56800
H  29.06500 -12.61700 51.09500
H  27.79900 -13.72600 51.71500
H  27.92300 -12.18200 52.43100
H  30.31800 -9.09300 49.42700
H  30.46500 -7.89700 50.70700
H  31.42400 -7.65700 49.18600
H  28.81700 -4.26700 45.71300
H  28.65200 -0.29300 47.41700
H  27.13000 -0.71500 46.53500
H  28.45500 -0.23800 45.66300
Mg 47.74300 45.22700 43.17200
C  44.27500 44.93900 43.18400
C  47.90700 41.78200 43.02600
C  51.00400 45.49200 42.48000
C  47.33900 48.73100 42.73300
N  46.25100 43.58100 42.90800
C  44.86600 43.69700 43.10800
C  44.23200 42.26700 43.19000
C  45.45900 41.34400 43.47900
C  46.59600 42.28000 43.11800
C  45.57900 40.90000 44.94700
C  43.46500 41.85000 41.91500
C  43.47200 42.79500 40.71700
H  42.84800 42.36800 39.35800
N  49.20200 43.85900 42.70400
C  49.08800 42.51000 42.76800
C  50.40500 41.90500 42.47900
C  51.35000 42.92000 42.30100
C  50.53500 44.17600 42.48900
C  50.55000 40.41000 42.26500
C  52.87000 42.74800 41.90300
O  53.36500 41.64000 41.96300
C  53.70200 43.94200 41.58200
N  48.94300 46.84100 42.49800
C  50.26600 46.65000 42.47500
C  50.95200 47.98600 42.71000
C  49.83500 49.06900 42.55100
C  48.58700 48.18200 42.61400
C  51.70200 48.08100 44.10200
C  49.97400 49.80700 41.17300
C  49.74000 51.31000 41.29400
N  46.24600 46.60800 43.02100
C  46.20300 47.99600 42.92700
C  44.81000 48.44500 43.01900
C  44.05800 47.27000 43.05100
C  44.92200 46.20900 43.12600
C  44.41500 49.86400 43.05400
C  42.67900 46.79700 43.22400
O  41.63200 47.44000 43.20300
C  42.77900 45.28600 43.25200
C  42.21800 44.88400 44.53900
O  42.59100 45.26500 45.62100
O  41.20200 43.90500 44.37800
C  40.59600 43.47200 45.59800
H  48.02700 40.73100 43.29700
H  52.07700 45.69000 42.43900
H  47.21900 49.79600 42.52600
H  43.63900 42.22400 44.10400
H  45.45500 40.53400 42.75000
H  44.69900 40.29100 45.15700
H  45.54000 41.74900 45.62900
H  46.59000 40.49600 45.00300
H  42.42800 41.73600 42.22900
H  43.90300 40.90900 41.58100
H  44.47100 43.10700 40.41100
H  42.90200 43.67500 41.01300
H  50.65200 40.34200 41.18200
H  49.77400 39.73300 42.62300
H  51.53200 40.04900 42.57000
H  53.23900 44.43100 40.72500
H  54.73200 43.61200 41.44400
H  53.66100 44.56100 42.47900
H  51.69600 48.05500 41.91600
H  49.83000 49.77200 43.38400
H  51.51300 48.90300 44.79300
H  52.72100 48.09800 43.71700
H  51.59700 47.12500 44.61500
H  49.22300 49.36900 40.51500
H  50.96200 49.72200 40.71900
H  48.79000 51.48100 40.78700
H  50.51700 51.77000 40.68400
H  49.68600 51.53700 42.35900
H  45.06700 50.41800 43.72900
H  43.40100 50.03300 43.41600
H  44.54200 50.23900 42.03800
H  42.19700 44.96500 42.38900
H  40.04200 44.32500 45.98900
H  41.26100 43.13500 46.39400
H  40.01600 42.60800 45.27200

