158

Mg 54.08600 24.39200 44.89700
C  51.44600 26.68300 44.16900
C  51.85100 21.86000 44.03100
C  56.75300 22.46400 44.84700
C  56.12400 27.18600 45.47400
N  51.89200 24.24600 44.27100
C  51.09300 25.33700 43.92700
C  49.73200 24.78300 43.29700
C  49.72500 23.32500 43.97300
C  51.20800 23.09100 44.21000
C  48.86500 23.27400 45.26400
C  49.66400 24.80500 41.71000
C  48.23700 25.10900 41.21500
H  48.13700 25.28300 39.77100
N  54.34300 22.45700 44.38000
C  53.28500 21.58800 44.03700
C  53.89000 20.33600 43.83200
C  55.29400 20.39000 44.12400
C  55.56800 21.79400 44.41800
C  53.00100 19.13200 43.48000
C  56.31900 19.25000 43.92700
O  55.87800 18.15700 43.62200
C  57.76200 19.40600 44.13900
N  56.21000 24.86000 44.89600
C  56.99200 23.85000 45.09300
C  58.40900 24.36700 45.35400
C  58.23400 25.92100 45.54900
C  56.76200 26.03700 45.28300
C  59.21100 23.57500 46.41900
C  58.96100 26.75000 44.50700
C  59.26200 28.27800 44.98500
N  53.81600 26.48400 44.96100
C  54.76000 27.43300 45.34600
C  54.03900 28.68400 45.52500
C  52.74100 28.42200 44.97400
C  52.69600 27.10600 44.63000
C  54.50500 29.96200 46.06200
C  51.48300 28.94200 44.75700
O  51.19000 30.06700 44.98200
C  50.52600 27.88900 44.22200
C  50.14200 28.30800 42.88300
O  50.96000 28.55200 41.98100
O  48.76000 28.53200 42.83300
C  48.42400 29.22600 41.57200
H  51.12700 21.04800 43.93400
H  57.63200 21.81700 44.88200
H  56.69500 28.08200 45.72700
H  48.93700 25.43400 43.66200
H  49.39600 22.64900 43.18300
H  48.29800 22.37200 45.03400
H  48.27100 24.18400 45.34800
H  49.56900 23.00600 46.05200
H  49.98600 23.82300 41.36200
H  50.40300 25.46000 41.24900
H  47.80600 25.95800 41.74500
H  47.60400 24.24400 41.41400
H  53.52800 18.19000 43.32600
H  52.41900 19.45400 42.61700
H  52.33400 18.91900 44.31600
H  58.00700 20.22600 43.46400
H  58.15800 18.49900 43.68100
H  58.01400 19.43100 45.19900
H  58.79200 24.12900 44.36200
H  58.44800 26.15000 46.59200
H  59.41500 24.16300 47.31300
H  60.09500 23.12300 45.97000
H  58.52200 22.78900 46.72900
H  58.26900 26.72600 43.66500
H  59.93000 26.38700 44.16300
H  60.33000 28.26000 45.20400
H  58.76100 28.48400 45.93100
H  58.94700 28.94600 44.18400
H  55.47500 30.18600 45.61700
H  54.57300 29.79800 47.13700
H  53.73500 30.72200 45.93200
H  49.68500 27.75800 44.90300
H  49.07700 30.08500 41.41700
H  47.44000 29.69100 41.62200
H  48.48500 28.44300 40.81500
Mg 47.78700 25.80100 29.18200
C  48.67000 28.06300 31.77400
C  46.53000 23.69700 31.37200
C  47.37100 23.50400 26.63000
C  49.24300 27.89700 26.89500
N  47.70700 25.81800 31.35500
C  47.95500 26.94900 32.24900
C  47.35300 26.69500 33.65000
C  46.85600 25.20300 33.51300
C  46.95900 24.88900 31.96000
C  47.84400 24.23000 34.24600
C  46.13800 27.70300 33.85500
C  46.41300 28.71300 34.93500
H  45.51400 28.82100 36.20400
N  46.94300 23.87700 29.02500
C  46.49500 23.21700 30.05400
C  45.88100 21.99600 29.61200
C  46.31000 21.81000 28.28000
C  46.84500 23.10200 27.86900
C  45.19400 20.98700 30.50600
C  46.23000 20.62100 27.29300
O  46.70000 20.68800 26.14800
C  45.62000 19.27600 27.65600
N  48.30400 25.65800 27.03700
C  48.01300 24.67500 26.23400
C  48.39600 25.02400 24.75100
C  48.95300 26.41100 24.92900
C  48.85600 26.67000 26.38300
C  49.33100 24.06500 23.98600
C  48.19200 27.61200 24.25000
C  48.95600 28.79800 23.62200
N  48.73300 27.61300 29.26000
C  49.35700 28.33300 28.20600
C  49.99600 29.53000 28.70100
C  49.67900 29.48200 30.08400
C  49.01000 28.26700 30.36800
C  50.69600 30.69300 27.96700
C  49.70500 30.20800 31.31700
O  50.15800 31.32500 31.53400
C  49.01300 29.36500 32.42100
C  50.02800 29.17800 33.54000
O  51.00600 28.47900 33.54500
O  49.69400 30.00600 34.59700
C  50.31600 29.75600 35.89700
H  46.14500 23.02700 32.14300
H  47.19200 22.89900 25.73800
H  49.71500 28.62800 26.23600
H  48.13900 26.76400 34.40100
H  45.83400 25.14200 33.88700
H  47.41100 23.88500 35.18500
H  48.80000 24.70800 34.46000
H  48.14100 23.33500 33.69900
H  45.18700 27.25700 34.14700
H  45.91400 28.24100 32.93400
H  46.42800 29.71700 34.51000
H  47.43000 28.57600 35.30300
H  45.95800 20.22400 30.65200
H  44.38400 20.52100 29.94400
H  44.89000 21.33400 31.49300
H  45.65900 19.07200 28.72600
H  46.19200 18.50200 27.14500
H  44.55200 19.32300 27.44100
H  47.44600 25.22700 24.25800
H  50.01000 26.55900 24.70900
H  49.76600 23.43100 24.75800
H  50.09300 24.55400 23.37900
H  48.81100 23.52200 23.19700
H  47.52000 28.07000 24.97500
H  47.55100 27.23000 23.45600
H  48.50000 29.74700 23.90400
H  48.90300 28.82800 22.53400
H  50.00100 28.80300 23.93300
H  51.14300 31.33700 28.72500
H  49.94700 31.25000 27.40400
H  51.44200 30.37000 27.24100
H  48.20400 29.92000 32.89600
H  49.50600 29.47100 36.56900
H  50.77600 30.62600 36.36300
H  50.97200 28.88700 35.94100

