158

Mg 25.75000 0.43700 29.15800
C  27.64000 -0.17200 32.04800
C  23.04400 1.11600 31.19500
C  24.03800 0.83200 26.39900
C  28.41500 -0.90100 27.25000
N  25.46600 0.74900 31.39300
C  26.39500 0.48600 32.36200
C  25.77200 0.54500 33.80100
C  24.25800 0.66600 33.45900
C  24.22100 0.98000 31.91000
C  23.38100 -0.51200 33.92500
C  26.32500 1.59500 34.79700
C  26.87100 1.00300 36.11100
H  26.74000 1.91400 37.30500
N  23.80700 0.91900 28.82100
C  22.81800 1.10000 29.81600
C  21.52500 1.23200 29.07700
C  21.81000 1.30000 27.65500
C  23.27800 1.06100 27.53900
C  20.21200 1.27300 29.75900
C  20.88900 1.41000 26.39700
O  21.24400 1.18800 25.21900
C  19.46300 1.79700 26.58400
N  26.22400 0.08900 27.12800
C  25.36400 0.38400 26.16000
C  26.01900 0.52300 24.78800
C  27.34800 -0.33600 24.93300
C  27.41700 -0.31200 26.55100
C  25.10500 0.03000 23.66500
C  28.54900 0.31500 24.27500
C  29.40300 1.47200 24.95200
N  27.64900 -0.19300 29.49500
C  28.61900 -0.78400 28.64900
C  29.69500 -1.29100 29.40100
C  29.33700 -1.01200 30.69700
C  28.09800 -0.43800 30.73700
C  30.95000 -1.99700 28.78500
C  29.86700 -1.12600 32.02700
O  30.97300 -1.63600 32.37000
C  28.75000 -0.62600 32.98700
C  28.43000 -1.65100 33.98600
O  27.54100 -2.41700 33.87700
O  29.26200 -1.61400 35.05100
C  29.01900 -2.45700 36.17500
H  22.12100 1.30300 31.74800
H  23.61500 0.99400 25.40500
H  29.27200 -1.22600 26.65600
H  25.95200 -0.44400 34.22300
H  23.81200 1.54800 33.91900
H  23.32600 -1.26200 33.13700
H  22.40700 -0.11500 34.21000
H  23.73400 -1.11900 34.75900
H  25.70900 2.45600 35.05500
H  27.18000 1.98400 34.24500
H  27.86700 0.62100 35.88600
H  26.37400 0.08200 36.41800
H  19.51200 0.48400 29.48500
H  19.75800 2.18700 29.37600
H  20.23400 1.17000 30.84400
H  18.86200 2.04500 25.70900
H  19.23800 2.63200 27.24700
H  18.95300 0.91300 26.96800
H  26.36700 1.54600 24.63800
H  27.17800 -1.37900 24.66700
H  24.33900 -0.61300 24.09800
H  25.66300 -0.39600 22.83100
H  24.40300 0.76400 23.27100
H  28.25400 0.62900 23.27300
H  29.23400 -0.52200 24.13200
H  28.94600 1.90700 25.84100
H  29.44500 2.27100 24.21200
H  30.43900 1.16000 25.09000
H  31.56700 -1.26400 28.26700
H  30.52000 -2.61200 27.99400
H  31.52000 -2.57400 29.51300
H  29.20600 0.19900 33.53400
H  28.88500 -3.44900 35.74500
H  28.09100 -2.15600 36.66200
H  29.85600 -2.51300 36.87100
Mg -2.01900 34.44800 27.13700
C  -3.39700 32.61600 29.87400
C  -0.48500 36.57400 29.30800
C  -1.05500 36.30800 24.34200
C  -3.88700 32.40800 25.05800
N  -2.06200 34.60800 29.34500
C  -2.63400 33.75300 30.29900
C  -2.20200 34.16600 31.71400
C  -1.34500 35.46900 31.47900
C  -1.24600 35.58300 29.92300
C  -1.87900 36.75700 32.22100
C  -1.56900 33.03300 32.49800
C  -2.33300 32.58000 33.77600
H  -1.64700 32.28900 35.05600
N  -0.70000 36.11100 26.84400
C  -0.22000 36.86400 27.89200
C  0.57500 37.92700 27.27900
C  0.32900 37.90500 25.88200
C  -0.49000 36.70600 25.62300
C  1.37000 38.92600 28.19400
C  0.82300 38.75700 24.77700
O  0.60400 38.66300 23.59600
C  1.70600 39.86400 25.15600
N  -2.42300 34.41500 25.01100
C  -1.85100 35.16200 24.06000
C  -2.46600 34.87900 22.69600
C  -2.99200 33.44800 22.94700
C  -3.07600 33.33800 24.42300
C  -3.60700 35.92400 22.29500
C  -2.02100 32.29300 22.44900
C  -0.62400 32.10900 23.01200
N  -3.27100 32.80300 27.33000
C  -4.00800 32.12600 26.37800
C  -4.69900 31.06800 26.96100
C  -4.52400 31.22400 28.33900
C  -3.65900 32.27100 28.51700
C  -5.70000 30.03200 26.37900
C  -4.85100 30.72900 29.57800
O  -5.58400 29.78600 29.84800
C  -4.12500 31.56100 30.69700
C  -5.22000 32.08000 31.61500
O  -6.06500 32.92200 31.25900
O  -5.21700 31.45900 32.84300
C  -6.07900 32.14000 33.82600
H  0.02600 37.23100 30.01400
H  -0.88800 36.87300 23.42300
H  -4.31300 31.74700 24.30100
H  -3.10200 34.50200 32.22800
H  -0.34800 35.30000 31.88500
H  -2.38200 36.40900 33.12300
H  -2.70100 37.18200 31.64400
H  -1.07000 37.42000 32.52800
H  -0.54000 33.27700 32.76500
H  -1.56500 32.12500 31.89500
H  -2.90000 31.69100 33.49800
H  -3.03200 33.37000 34.05200
H  0.87800 39.88900 28.06100
H  2.39600 38.87600 27.82700
H  1.35600 38.59400 29.23200
H  1.25000 40.36900 26.00800
H  1.71500 40.67700 24.43000
H  2.74900 39.62800 25.36600
H  -1.67000 34.91400 21.95200
H  -3.93900 33.33600 22.41900
H  -3.65000 36.64800 23.10800
H  -4.60000 35.48800 22.18700
H  -3.31400 36.44800 21.38500
H  -2.00200 32.47500 21.37500
H  -2.48200 31.31700 22.60400
H  -0.17000 33.01900 23.40400
H  -0.05300 31.71000 22.17400
H  -0.66700 31.46500 23.89000
H  -5.43400 28.97600 26.43800
H  -5.97800 30.24500 25.34700
H  -6.54900 30.23300 27.03300
H  -3.45700 30.93300 31.28700
H  -5.98300 31.60900 34.77300
H  -7.08100 32.09500 33.39900
H  -5.76100 33.17400 33.95900

