158

Mg 23.78700 -5.26900 45.95200
C  26.05800 -2.93900 44.45500
C  21.48400 -4.26800 43.65000
C  21.96100 -7.88300 46.89100
C  26.63700 -6.66900 47.64300
N  23.80100 -3.74300 44.36000
C  24.79800 -2.88500 43.84700
C  24.31100 -2.19600 42.54100
C  22.80800 -2.43800 42.54300
C  22.65800 -3.56800 43.62500
C  21.96800 -1.15800 42.86400
C  25.04600 -2.74200 41.26000
C  25.89900 -1.88000 40.33500
H  25.62700 -1.81200 38.82000
N  21.88000 -5.96400 45.34800
C  21.06800 -5.32100 44.46500
C  19.77900 -6.01400 44.49500
C  19.91200 -7.08000 45.50200
C  21.28000 -7.04300 45.98200
C  18.57400 -5.61200 43.76300
C  18.73000 -8.00800 45.90200
O  17.60600 -7.97400 45.36900
C  18.86100 -9.02300 46.98700
N  24.15500 -6.92400 47.18400
C  23.20500 -7.88900 47.40100
C  23.77500 -9.01900 48.32700
C  25.28300 -8.58400 48.57200
C  25.33200 -7.27700 47.81700
C  22.90200 -9.32500 49.60000
C  26.37400 -9.66700 48.20100
C  27.59600 -9.46400 49.06200
N  25.84500 -4.83500 46.20600
C  26.83300 -5.47700 46.96800
C  28.08700 -4.80900 46.73400
C  27.87000 -3.83100 45.80500
C  26.49300 -3.84300 45.47200
C  29.31100 -5.21600 47.39600
C  28.46000 -2.81900 45.02300
O  29.60100 -2.32900 45.03300
C  27.33600 -2.21100 44.08200
C  27.27300 -0.74400 44.09200
O  26.80400 -0.09100 45.01600
O  27.76900 -0.24000 42.90600
C  27.78800 1.24000 42.80500
H  20.69500 -3.87100 43.00800
H  21.29400 -8.69200 47.19500
H  27.53500 -7.09100 48.09800
H  24.52200 -1.13500 42.67500
H  22.41700 -2.78400 41.58600
H  21.61800 -1.36900 43.87500
H  21.23300 -1.10800 42.06100
H  22.54700 -0.27000 43.12000
H  24.32900 -3.43200 40.81600
H  25.76700 -3.46900 41.63500
H  26.89600 -2.31800 40.36300
H  25.82800 -0.85300 40.69500
H  17.77400 -5.26100 44.41400
H  18.16200 -6.47300 43.23600
H  18.85800 -4.82100 43.06900
H  19.30500 -8.57500 47.87600
H  19.38600 -9.91300 46.63900
H  17.87500 -9.34600 47.32000
H  23.66000 -9.95000 47.77200
H  25.37800 -8.22400 49.59600
H  21.95400 -8.83300 49.37900
H  23.33000 -8.96800 50.53700
H  22.73200 -10.40100 49.62300
H  26.68700 -9.65300 47.15700
H  25.99000 -10.63700 48.51600
H  27.63100 -10.14500 49.91200
H  27.58300 -8.49600 49.56200
H  28.52800 -9.60900 48.51500
H  29.17400 -5.37200 48.46600
H  30.09900 -4.46300 47.36100
H  29.59500 -6.13000 46.87500
H  27.70900 -2.50200 43.10100
H  28.66600 1.62800 42.28900
H  27.75900 1.67900 43.80200
H  26.98700 1.57900 42.14700
Mg 50.15400 45.32100 40.57000
C  46.74200 45.34400 39.43200
C  50.34500 42.08800 40.07200
C  53.38600 45.58000 41.24700
C  49.82300 48.95800 40.51600
N  48.67500 43.94800 39.77300
C  47.33500 44.09800 39.45900
C  46.81200 42.74300 38.99800
C  47.80800 41.70200 39.69800
C  49.03200 42.61100 39.82600
C  47.35700 41.17700 41.08600
C  46.75500 42.68200 37.43300
C  45.40600 42.29100 36.80700
H  45.09800 42.86000 35.42000
N  51.63600 43.97800 40.79500
C  51.48800 42.66200 40.62800
C  52.76100 41.94900 40.82600
C  53.63400 42.91800 41.37400
C  52.94000 44.27100 41.17200
C  52.99100 40.45700 40.65000
C  55.01100 42.67000 41.96700
O  55.52200 41.56300 41.99400
C  55.76900 43.86800 42.67600
N  51.39000 47.00300 40.90400
C  52.75100 46.83400 41.26100
C  53.37800 48.31100 41.45400
C  52.27100 49.31400 41.03700
C  51.09300 48.39400 40.72900
C  53.96900 48.46700 42.86200
C  52.56400 50.23300 39.80200
C  52.47800 51.75200 40.11500
N  48.61900 46.88500 40.20500
C  48.65700 48.28800 40.19300
C  47.33100 48.77900 39.74400
C  46.45700 47.72500 39.62900
C  47.37300 46.56100 39.79900
C  46.98000 50.18400 39.74000
C  45.08500 47.23600 39.43900
O  44.01900 47.83900 39.47200
C  45.24600 45.65400 39.33800
C  44.45500 44.99900 40.40300
O  44.84900 44.68200 41.54600
O  43.12600 45.05400 40.01600
C  42.14700 44.95400 41.11700
H  50.44000 41.01200 39.91100
H  54.46100 45.70300 41.39100
H  49.72400 50.03900 40.40400
H  45.84200 42.47100 39.41300
H  48.05700 40.86300 39.04900
H  46.26800 41.20400 41.12800
H  47.77300 41.79000 41.88500
H  47.67100 40.13500 41.14700
H  47.49700 42.07500 36.91500
H  46.95300 43.71000 37.13100
H  44.61100 42.41100 37.54300
H  45.50900 41.21600 36.66000
H  53.96400 40.04500 40.91400
H  52.72400 40.18300 39.62900
H  52.30800 39.93600 41.32100
H  55.14000 44.38300 43.40200
H  56.11700 44.48900 41.85000
H  56.65400 43.43400 43.14000
H  54.21400 48.42100 40.76300
H  52.02000 49.93100 41.90000
H  54.08300 47.48200 43.31400
H  53.30200 49.08300 43.46600
H  54.88600 49.04500 42.75000
H  51.90700 49.95800 38.97600
H  53.61700 50.06700 39.57300
H  52.03900 52.19200 39.22000
H  53.46700 52.10100 40.41000
H  51.84200 52.09500 40.93200
H  46.94100 50.58400 40.75300
H  46.02500 50.30600 39.22700
H  47.72700 50.69100 39.13000
H  44.82800 45.37800 38.37000
H  41.10600 45.06500 40.81200
H  42.37400 45.74500 41.83100
H  42.23700 43.99900 41.63400

