158

Mg 54.40500 24.30000 45.99400
C  51.54200 26.26100 45.10800
C  52.67500 21.53200 45.08900
C  57.26300 22.71700 45.85400
C  56.10600 27.38300 46.60900
N  52.45100 23.96100 44.87000
C  51.43900 24.87300 44.72100
C  50.18300 24.20500 44.28100
C  50.43600 22.68800 44.65100
C  51.94000 22.71500 44.93200
C  49.60100 22.46900 45.94800
C  49.91200 24.46200 42.77900
C  48.40000 24.90700 42.48000
H  47.53100 23.90300 41.81600
N  54.95100 22.32300 45.56800
C  54.06900 21.33000 45.24600
C  54.78600 20.10700 45.07800
C  56.12400 20.44600 45.16700
C  56.18600 21.86700 45.52700
C  54.22200 18.74100 44.57900
C  57.32100 19.49900 45.08700
O  57.07600 18.32300 44.89600
C  58.77500 19.85600 45.24000
N  56.38400 24.94200 46.27500
C  57.43400 24.06400 46.22700
C  58.78300 24.68400 46.52800
C  58.45700 26.22000 46.69900
C  56.86700 26.19500 46.50300
C  59.49500 24.03200 47.76100
C  59.12900 27.24200 45.65000
C  59.53300 28.58600 46.30500
N  53.96000 26.39700 46.06600
C  54.73700 27.44200 46.37200
C  53.82800 28.64200 46.36600
C  52.62400 28.18800 45.98100
C  52.76900 26.80800 45.74900
C  54.14300 30.12000 46.54600
C  51.27300 28.60700 45.55300
O  50.77600 29.69100 45.54000
C  50.52000 27.38400 44.96000
C  50.16900 27.73200 43.60000
O  50.98600 28.00700 42.74400
O  48.80100 27.91700 43.55200
C  48.32400 28.56800 42.33400
H  52.11200 20.61900 44.88500
H  58.22900 22.25800 45.63100
H  56.70000 28.28800 46.74900
H  49.45200 24.78600 44.84300
H  50.25900 21.96400 43.85500
H  50.21300 22.14400 46.79000
H  48.84700 21.75900 45.60700
H  49.18200 23.40700 46.31200
H  49.87900 23.53400 42.20900
H  50.61200 25.18200 42.35500
H  48.46500 25.73700 41.77600
H  47.82700 25.23600 43.34600
H  54.12600 17.99400 45.36700
H  54.94300 18.35800 43.85700
H  53.27500 18.78800 44.04100
H  59.05300 20.49400 44.40100
H  59.33100 18.92800 45.10900
H  59.04400 20.24100 46.22300
H  59.53700 24.63500 45.74300
H  58.50000 26.35600 47.78000
H  58.93300 23.09900 47.80200
H  59.42000 24.55000 48.71700
H  60.50500 23.80200 47.42300
H  58.48200 27.41700 44.79100
H  60.00300 26.84500 45.13400
H  60.52000 28.98800 46.07500
H  59.38700 28.66900 47.38200
H  58.86800 29.37200 45.94700
H  53.70100 30.83800 45.85600
H  55.22900 30.21800 46.52400
H  54.04000 30.52400 47.55300
H  49.63100 27.15800 45.54800
H  47.24900 28.74400 42.31300
H  48.46700 28.08700 41.36700
H  48.79500 29.54700 42.25100
Mg 35.74000 48.56600 25.01200
C  35.70100 47.22600 28.28100
C  34.92700 51.58700 26.42100
C  35.34600 49.77600 21.92300
C  36.74000 45.46900 23.87000
N  35.26800 49.30700 27.18400
C  35.31300 48.59200 28.35200
C  35.23800 49.48800 29.61100
C  34.78500 50.90000 28.93600
C  34.97700 50.58600 27.38800
C  33.47500 51.50900 29.26900
C  36.59500 49.41700 30.37300
C  36.48900 48.93100 31.81700
H  35.18500 49.30000 32.59000
N  35.23600 50.40300 24.25800
C  34.85600 51.56100 25.03100
C  34.50700 52.65300 24.13700
C  34.84500 52.18900 22.82400
C  35.08100 50.68400 22.96600
C  33.82600 54.00100 24.67700
C  34.91600 52.95500 21.51600
O  35.31000 52.47700 20.47200
C  34.63000 54.42500 21.52500
N  35.66200 47.69500 23.13100
C  35.82000 48.50600 21.99500
C  36.26000 47.70100 20.85800
C  37.14200 46.58300 21.57900
C  36.45300 46.52800 22.92500
C  35.19400 47.11100 19.87300
C  38.67400 46.89700 21.81500
C  39.57900 46.82400 20.58900
N  36.12300 46.68900 25.82600
C  36.44300 45.52100 25.20400
C  36.52400 44.49100 26.19400
C  36.23900 45.13400 27.41000
C  36.02100 46.46800 27.11400
C  36.82400 43.08900 25.82600
C  36.12600 44.90900 28.75300
O  36.26900 43.87600 29.37100
C  35.78200 46.24200 29.39000
C  34.52100 46.10300 30.22700
O  33.40200 46.46600 29.96200
O  34.81600 45.35600 31.34700
C  33.71300 45.10300 32.31000
H  34.62300 52.49500 26.94500
H  35.36300 50.28400 20.95600
H  37.17200 44.55100 23.46700
H  34.39400 49.17300 30.22500
H  35.47900 51.73100 29.06400
H  32.94100 50.70700 29.77800
H  32.92600 51.69600 28.34600
H  33.52700 52.44700 29.82300
H  36.98300 50.43300 30.44300
H  37.22900 48.68700 29.86900
H  37.35300 49.38300 32.30500
H  36.53700 47.84300 31.83400
H  33.32200 53.68000 25.58800
H  33.06400 54.54200 24.11500
H  34.68500 54.60600 24.96500
H  33.54700 54.51800 21.44500
H  35.14100 54.78000 20.63000
H  35.06100 54.77100 22.46400
H  36.88100 48.42900 20.33500
H  37.03500 45.64000 21.04300
H  35.22000 47.85700 19.07900
H  34.22300 46.84600 20.29400
H  35.54000 46.28700 19.25000
H  39.11700 46.22700 22.55200
H  38.80300 47.92700 22.14800
H  38.93800 47.04700 19.73600
H  39.94100 45.79600 20.62300
H  40.45700 47.46500 20.66900
H  37.33900 43.09400 24.86500
H  35.96800 42.41400 25.80900
H  37.59600 42.62400 26.44000
H  36.57000 46.71300 29.97700
H  33.33000 44.08700 32.40400
H  32.88600 45.81400 32.33000
H  34.21300 45.34100 33.24900

