158

Mg 0.72900 6.70300 25.06700
C  1.27100 8.91600 27.67100
C  1.17700 4.20300 27.35800
C  0.11900 4.64600 22.64600
C  0.78300 9.43200 22.86000
N  0.87600 6.61300 27.33700
C  1.03700 7.58700 28.10700
C  0.94400 7.10300 29.57400
C  1.22200 5.59000 29.45500
C  1.12200 5.47200 27.96500
C  2.52600 4.91200 30.11700
C  -0.35700 7.47200 30.23000
C  -0.42400 7.42700 31.73400
H  0.75900 6.78200 32.47000
N  0.63000 4.76800 25.03500
C  0.90300 3.82800 26.07900
C  0.76000 2.54900 25.54200
C  0.31800 2.60200 24.18400
C  0.33800 4.05100 23.88000
C  1.15800 1.28900 26.39800
C  -0.00800 1.47500 23.24600
O  -0.40200 1.64400 22.10500
C  0.05000 0.03600 23.72400
N  0.16300 7.08600 23.02600
C  0.10400 6.01000 22.23300
C  0.03000 6.53300 20.76000
C  0.12300 8.09900 20.86700
C  0.42300 8.27300 22.33400
C  0.99600 5.88000 19.77800
C  -1.11500 9.00700 20.49000
C  -0.82100 10.41200 20.01000
N  1.15400 8.75800 25.17400
C  1.10600 9.74500 24.20000
C  1.55800 11.02900 24.77000
C  1.70400 10.69100 26.11200
C  1.35400 9.33300 26.30300
C  1.77000 12.36000 24.00900
C  2.03700 11.29500 27.45500
O  2.43400 12.44200 27.76300
C  1.71800 10.11100 28.51100
C  2.89400 9.86000 29.25100
O  3.97800 9.47300 28.84500
O  2.63300 10.15700 30.51600
C  3.75700 9.85700 31.39700
H  1.54200 3.54200 28.14700
H  -0.17900 3.93100 21.87600
H  0.92100 10.27900 22.18500
H  1.66700 7.63400 30.19300
H  0.38200 4.97200 29.77200
H  2.96000 5.56900 30.87100
H  3.29300 4.76500 29.35700
H  2.30600 3.94100 30.56000
H  -1.22000 6.97800 29.78400
H  -0.52900 8.51600 29.96600
H  -1.43300 7.10700 31.99700
H  -0.42200 8.43300 32.15400
H  1.69000 0.59400 25.74800
H  0.18600 0.88500 26.68100
H  1.64800 1.55600 27.33500
H  -0.69500 -0.29300 24.44800
H  1.08400 -0.08600 24.04800
H  -0.17700 -0.53800 22.82500
H  -0.94700 6.13800 20.48200
H  0.99900 8.52400 20.37800
H  1.73400 6.61100 19.44800
H  0.52500 5.47100 18.88500
H  1.46300 5.03600 20.28400
H  -1.81400 9.05200 21.32600
H  -1.66400 8.47200 19.71600
H  0.25200 10.60400 19.96600
H  -1.32200 11.16100 20.62400
H  -1.11900 10.49700 18.96500
H  1.11700 12.63000 23.17900
H  2.80900 12.29700 23.68400
H  1.72100 13.06200 24.84100
H  0.92800 10.56200 29.11200
H  4.11900 8.83000 31.36200
H  3.51200 9.91800 32.45700
H  4.52800 10.62200 31.30700
Mg -6.10100 24.99800 25.56400
C  -4.16700 26.43700 28.24700
C  -7.80100 23.17300 27.85700
C  -7.74700 23.74300 23.04300
C  -4.10100 26.89000 23.43600
N  -5.93600 24.77400 27.77200
C  -5.17200 25.53200 28.67700
C  -5.62200 25.14500 30.08300
C  -6.47100 23.85700 29.95500
C  -6.77000 23.95000 28.45600
C  -5.84500 22.45700 30.33200
C  -6.21700 26.34300 30.79700
C  -6.05200 26.46600 32.38000
H  -5.58700 25.17000 33.07600
N  -7.56900 23.61800 25.50800
C  -8.16700 23.00000 26.50500
C  -9.20200 22.15000 26.04400
C  -9.20300 22.29300 24.60000
C  -8.18100 23.27300 24.31600
C  -10.06200 21.31700 27.01500
C  -10.20700 21.63200 23.55300
O  -10.36200 21.99400 22.35600
C  -11.34200 20.66300 24.02500
N  -5.84100 25.18200 23.44900
C  -6.64900 24.50700 22.63700
C  -6.18800 24.73800 21.16500
C  -5.26200 26.03900 21.29200
C  -5.05300 26.12700 22.81700
C  -5.56500 23.52300 20.45900
C  -5.94500 27.21300 20.56400
C  -5.12000 28.04900 19.62700
N  -4.41000 26.35000 25.72100
C  -3.74300 27.03800 24.79100
C  -2.72600 27.85400 25.38500
C  -2.83600 27.62600 26.76800
C  -3.89700 26.73200 26.87800
C  -1.80700 28.77700 24.68700
C  -2.36700 27.95600 28.05900
O  -1.44200 28.70400 28.34200
C  -3.21300 27.25000 29.09800
C  -2.28300 26.47900 29.98800
O  -1.46200 25.66400 29.69200
O  -2.55400 26.89900 31.27800
C  -1.81400 26.37900 32.38600
H  -8.34500 22.70100 28.67800
H  -8.10200 23.15500 22.19400
H  -3.45700 27.58400 22.89200
H  -4.66000 24.80900 30.47000
H  -7.29400 24.05000 30.64300
H  -5.75700 21.85800 29.42600
H  -6.57400 22.05400 31.03400
H  -4.85700 22.45400 30.79400
H  -7.27000 26.40600 30.52500
H  -5.74200 27.25700 30.43900
H  -7.08500 26.70800 32.63000
H  -5.47400 27.35700 32.62600
H  -11.09300 21.45500 26.69000
H  -9.93800 21.66500 28.04100
H  -9.64300 20.31300 27.08000
H  -11.95600 20.36100 23.17700
H  -11.88000 20.97800 24.91900
H  -10.68700 19.86900 24.38300
H  -7.11000 24.99300 20.64100
H  -4.28500 25.77700 20.88500
H  -6.20800 23.23800 19.62600
H  -5.27100 22.72400 21.13900
H  -4.58800 23.77300 20.04500
H  -6.19000 27.93300 21.34500
H  -6.82800 26.82500 20.05700
H  -5.70900 28.24800 18.73100
H  -4.26300 27.50600 19.22800
H  -4.90500 29.04700 20.00800
H  -1.02900 28.29600 24.09400
H  -1.21100 29.28400 25.44600
H  -2.29200 29.51500 24.04800
H  -3.70800 28.01800 29.69300
H  -0.79900 26.71200 32.16600
H  -1.76900 25.29000 32.38900
H  -2.17800 26.79300 33.32600

