158

Mg 41.38000 8.85400 29.82400
C  43.56900 9.98900 32.36800
C  39.43700 7.51000 32.47200
C  39.60100 7.26800 27.57400
C  43.81900 9.64600 27.54600
N  41.49400 8.68300 32.18700
C  42.46700 9.30000 32.90500
C  42.05700 9.25000 34.43400
C  40.97800 8.20400 34.46300
C  40.60300 8.08500 32.93800
C  41.28500 6.90000 35.24400
C  41.63800 10.65800 34.96900
C  42.34300 10.94200 36.34100
H  41.63000 11.80800 37.39000
N  39.70300 7.62400 29.97600
C  38.99600 7.28900 31.15900
C  37.74600 6.69500 30.70000
C  37.74200 6.56800 29.27000
C  39.05400 7.15000 28.86400
C  36.53800 6.23100 31.65300
C  36.79400 6.02100 28.30600
O  36.88300 6.09100 27.09900
C  35.60000 5.43400 28.90300
N  41.74100 8.34500 27.89200
C  40.85200 7.69800 27.14500
C  41.21600 7.80000 25.67600
C  42.50900 8.56400 25.61500
C  42.70800 8.92000 27.14100
C  41.19800 6.52900 24.88600
C  42.36000 9.83100 24.64200
C  41.67900 11.13100 25.12900
N  43.29500 9.72500 29.84100
C  44.16900 9.98300 28.85600
C  45.29600 10.72000 29.31700
C  45.13200 10.74600 30.73900
C  43.90300 10.07300 30.99300
C  46.47400 11.06400 28.53500
C  45.81600 11.19900 31.99200
O  46.80800 11.86600 32.16500
C  44.73300 10.76400 33.05900
C  45.40800 9.99700 34.14600
O  45.56100 8.79900 34.16600
O  45.71700 10.83100 35.18900
C  46.27200 10.19000 36.38200
H  38.82300 7.15800 33.30400
H  38.97200 6.92700 26.74800
H  44.64500 9.86800 26.86700
H  42.91300 8.95000 35.03900
H  40.07300 8.57000 34.94800
H  41.03100 6.07800 34.57500
H  40.67300 6.89000 36.14600
H  42.35500 6.89600 35.45200
H  40.57600 10.86900 35.09700
H  41.99800 11.37000 34.22600
H  43.28000 11.40700 36.03400
H  42.63300 9.96200 36.72000
H  36.54700 5.15300 31.48600
H  35.56000 6.64500 31.40900
H  36.90300 6.54800 32.62900
H  35.82100 4.56000 29.51600
H  35.00200 5.12400 28.04600
H  34.89500 6.14200 29.33700
H  40.46400 8.46100 25.24600
H  43.38300 7.97000 25.34900
H  40.42800 6.36500 24.13200
H  41.14300 5.69900 25.59000
H  42.06900 6.30500 24.27000
H  41.89600 9.45000 23.73200
H  43.37700 10.15200 24.41300
H  40.90300 11.17800 24.36500
H  42.37200 11.95000 24.93300
H  41.22600 11.16200 26.11900
H  46.26700 11.93000 27.90700
H  46.67400 10.28800 27.79600
H  47.38100 11.12900 29.13600
H  44.24700 11.59100 33.57600
H  46.77700 9.24300 36.19200
H  45.37700 10.00800 36.97800
H  46.91800 10.89100 36.91000
Mg 5.57800 54.15600 40.87900
C  5.74900 50.65600 40.97900
C  8.71100 54.18600 39.52300
C  5.19100 57.40600 40.55900
C  2.30400 53.86500 42.17500
N  7.05800 52.57000 40.28000
C  6.96000 51.20400 40.47700
C  8.17100 50.49500 39.90400
C  9.25100 51.67600 39.80000
C  8.26700 52.87600 39.80400
C  10.20100 51.71600 41.09600
C  7.95000 49.71300 38.57100
C  7.04800 50.25600 37.39400
H  6.35100 49.22800 36.46900
N  6.68000 55.56200 40.10200
C  7.96300 55.39200 39.61000
C  8.62200 56.61500 39.36500
C  7.66300 57.68900 39.59300
C  6.44300 56.96900 40.14300
C  10.06400 56.86200 38.88600
C  7.82200 59.20700 39.27500
O  8.82500 59.64000 38.77700
C  6.76100 60.27800 39.44800
N  3.84700 55.48700 41.20500
C  3.98200 56.76500 41.00200
C  2.75300 57.53000 41.58600
C  1.71700 56.35200 41.87500
C  2.68400 55.16700 41.84600
C  2.89700 58.47500 42.80800
C  0.45700 56.36400 40.99600
C  -0.84700 56.48200 41.80200
N  4.31200 52.63300 41.40800
C  3.00200 52.61800 41.95200
C  2.57200 51.30000 42.27800
C  3.67600 50.57200 41.90100
C  4.66600 51.35400 41.38600
C  1.34600 50.84600 43.04800
C  4.17400 49.20300 41.97600
O  3.58500 48.20300 42.40200
C  5.49100 49.15800 41.35700
C  5.42200 48.24900 40.30100
O  4.82200 48.44000 39.24000
O  6.14500 47.19400 40.59300
C  6.15900 46.12400 39.61600
H  9.72400 54.24300 39.12100
H  5.12000 58.49300 40.48500
H  1.28900 53.69000 42.53800
H  8.57300 49.75400 40.59400
H  9.90800 51.64600 38.93100
H  10.25700 50.77600 41.64500
H  9.83800 52.51600 41.74200
H  11.23000 51.92300 40.80400
H  7.74900 48.65400 38.73300
H  8.89600 49.66500 38.03100
H  7.66700 50.95400 36.83000
H  6.26600 50.83400 37.88600
H  10.15700 56.98000 37.80600
H  10.82800 56.20200 39.29600
H  10.22000 57.85900 39.29800
H  5.86500 59.83300 39.01500
H  7.21800 61.14400 38.97000
H  6.61400 60.46200 40.51200
H  2.39800 58.19200 40.79600
H  1.29500 56.48300 42.87100
H  2.07400 59.18100 42.69900
H  3.87400 58.93200 42.96600
H  2.50400 58.01700 43.71600
H  0.44900 55.42400 40.44500
H  0.61500 57.16900 40.27900
H  -0.76900 56.86400 42.82000
H  -1.25500 55.47200 41.76800
H  -1.48400 57.04400 41.11900
H  0.54100 51.57400 43.14500
H  1.64400 50.74100 44.09100
H  0.90200 49.95200 42.61000
H  6.26700 48.87700 42.07000
H  5.17200 45.65900 39.62200
H  6.93800 45.39600 39.84300
H  6.42800 46.40300 38.59800

