158

Mg -12.04200 37.94000 42.79800
C  -10.55300 35.05200 41.90500
C  -9.72700 39.74400 41.22700
C  -14.12300 40.56100 43.03100
C  -14.72400 35.95600 44.21100
N  -10.28000 37.43900 41.84800
C  -9.89500 36.19000 41.38400
C  -8.75100 36.19500 40.29300
C  -8.32000 37.68400 40.45700
C  -9.47400 38.37500 41.24400
C  -6.89600 37.86900 41.15500
C  -9.36300 36.00600 38.90300
C  -8.33100 35.55500 37.83700
H  -7.73500 36.61200 36.91300
N  -11.97300 39.88700 42.08700
C  -10.86000 40.50700 41.57100
C  -11.12900 41.84000 41.37200
C  -12.46900 42.15700 41.80800
C  -12.91300 40.82500 42.37900
C  -10.20400 42.66000 40.64300
C  -13.30700 43.45300 41.63700
O  -12.75100 44.34900 41.08500
C  -14.69800 43.60300 42.03500
N  -14.19200 38.26700 43.56900
C  -14.78400 39.43000 43.58800
C  -16.03100 39.44500 44.48900
C  -16.39800 37.88100 44.55000
C  -15.00400 37.35100 44.14400
C  -15.84700 40.02100 45.86900
C  -17.65600 37.58900 43.59800
C  -18.30000 36.30800 43.84100
N  -12.49100 35.90900 43.13800
C  -13.55000 35.26700 43.78300
C  -13.20300 33.83500 43.89800
C  -11.99000 33.66900 43.19600
C  -11.76000 35.01200 42.66300
C  -13.96200 32.71200 44.62900
C  -10.96600 32.79400 42.78700
O  -10.80800 31.62100 42.93400
C  -10.09200 33.61900 41.72700
C  -8.61300 33.39400 42.03400
O  -7.85400 32.76000 41.32000
O  -8.15500 34.29800 42.97500
C  -6.76200 34.25100 43.37600
H  -8.91200 40.30700 40.76800
H  -14.67900 41.46400 43.29000
H  -15.50300 35.39900 44.73600
H  -8.00400 35.46700 40.61000
H  -8.25900 38.12200 39.46000
H  -6.96600 37.76000 42.23700
H  -6.49800 38.85600 40.91700
H  -6.16700 37.17900 40.73100
H  -9.82200 36.93200 38.55900
H  -10.20500 35.31800 38.97200
H  -8.74500 34.64200 37.41100
H  -7.43500 35.25000 38.37900
H  -9.19100 42.25900 40.63600
H  -10.19500 43.55000 41.27300
H  -10.57700 43.09200 39.71500
H  -15.25300 42.75900 41.62600
H  -15.12700 44.56700 41.76300
H  -14.57000 43.59600 43.11800
H  -16.85000 40.03700 44.08100
H  -16.65600 37.58700 45.56700
H  -16.57700 39.81000 46.65000
H  -15.95500 41.10500 45.83500
H  -14.87800 39.72300 46.27000
H  -17.31400 37.61000 42.56300
H  -18.34200 38.43300 43.53100
H  -19.33300 36.32500 43.49400
H  -18.24100 35.98300 44.88000
H  -17.85700 35.48600 43.27900
H  -14.62000 32.17100 43.94800
H  -14.61700 33.13400 45.39200
H  -13.43800 31.91400 45.15400
H  -10.42300 33.27000 40.75000
H  -6.17800 34.88900 42.71300
H  -6.39500 33.22500 43.39400
H  -6.58500 34.72500 44.34100
Mg 1.45200 42.11900 26.30100
C  2.78300 42.34400 29.60500
C  -1.54500 41.14600 27.73800
C  0.23800 41.42800 23.18500
C  4.50200 43.01400 24.97500
N  0.71300 41.92900 28.45800
C  1.47800 42.00100 29.62300
C  0.52000 42.04600 30.87000
C  -0.82200 41.69400 30.26700
C  -0.59900 41.59000 28.69900
C  -1.58400 40.55200 30.91000
C  0.55100 43.41800 31.58100
C  1.22800 43.45900 33.00700
H  0.19400 43.40800 34.11100
N  -0.38700 41.27100 25.53400
C  -1.46000 40.97400 26.33800
C  -2.48400 40.36500 25.53700
C  -1.98600 40.40400 24.20700
C  -0.70500 41.08300 24.23100
C  -3.81800 39.87600 26.11300
C  -2.68000 40.04300 22.90400
O  -2.09800 40.00100 21.80200
C  -4.16200 39.62000 23.00700
N  2.22100 42.30600 24.37700
C  1.55200 41.99000 23.23300
C  2.50700 42.19800 21.96700
C  3.60300 43.04100 22.66300
C  3.42900 42.80200 24.09800
C  3.00400 40.85600 21.35000
C  3.50900 44.46200 22.37800
C  3.60500 44.72800 20.82100
N  3.35200 42.54700 27.11200
C  4.48800 42.90900 26.41200
C  5.52000 43.08400 27.38200
C  4.88500 42.92200 28.64300
C  3.58300 42.50600 28.40800
C  6.95300 43.43000 26.96800
C  5.14800 42.85000 30.07500
O  6.10900 42.88600 30.74500
C  3.70800 42.52400 30.75200
C  3.83500 41.17400 31.49700
O  3.89700 40.07800 30.94500
O  4.01100 41.34700 32.87000
C  4.12400 40.10200 33.59500
H  -2.56600 41.00700 28.10100
H  -0.10900 41.11800 22.19700
H  5.41400 43.44200 24.55200
H  0.95800 41.26500 31.49100
H  -1.37200 42.62800 30.37900
H  -2.06000 40.85900 31.84100
H  -1.12300 39.60800 31.20000
H  -2.32800 40.23700 30.17800
H  -0.45300 43.83900 31.64700
H  1.17000 44.12600 31.02900
H  1.81300 44.37500 33.09100
H  1.88900 42.60100 33.12900
H  -4.09000 40.21900 27.11100
H  -3.95200 38.79500 26.14600
H  -4.59400 40.19000 25.41600
H  -4.50300 39.27800 22.03000
H  -4.61200 40.54200 23.37500
H  -4.12100 38.81700 23.74400
H  1.95600 42.69900 21.17100
H  4.57100 42.74500 22.26000
H  2.52300 40.05400 21.90900
H  4.08700 40.80400 21.46300
H  2.72700 40.90700 20.29700
H  4.30900 45.03100 22.85100
H  2.62200 44.96000 22.76800
H  2.71600 45.21800 20.42500
H  3.76800 43.80000 20.27300
H  4.49000 45.35100 20.68800
H  7.20800 44.49000 26.96900
H  7.03600 42.99200 25.97300
H  7.68700 42.95700 27.62000
H  3.44500 43.28000 31.49300
H  5.06300 39.72200 33.19200
H  3.27700 39.45300 33.37200
H  4.19000 40.23400 34.67500

