158

Mg 24.78400 -4.25400 45.79700
C  26.78400 -1.84100 44.24900
C  22.05100 -3.05300 43.71500
C  23.15200 -7.24500 46.07800
C  27.64200 -5.65800 47.32600
N  24.39000 -2.60000 44.15300
C  25.50900 -1.82600 43.69600
C  24.98900 -0.81300 42.69600
C  23.36700 -0.92900 42.83700
C  23.21100 -2.30800 43.56900
C  22.70000 0.24600 43.67800
C  25.68000 -1.07400 41.33000
C  24.75000 -1.26500 40.08800
H  25.41000 -1.32300 38.71300
N  22.78300 -4.99900 45.17700
C  21.88200 -4.37200 44.31200
C  20.68100 -5.19000 44.23700
C  20.93300 -6.36900 45.02700
C  22.34500 -6.28200 45.40900
C  19.55400 -4.95500 43.33300
C  19.97500 -7.43600 45.28800
O  18.86400 -7.36900 44.80700
C  20.34600 -8.59000 46.18300
N  25.22300 -6.10700 46.71500
C  24.36500 -7.18000 46.67400
C  25.10300 -8.42200 47.25900
C  26.54400 -7.98500 47.56400
C  26.48900 -6.51600 47.17900
C  24.35900 -9.06900 48.48200
C  27.62000 -8.89100 46.81000
C  28.72300 -9.54100 47.64300
N  26.76000 -3.68500 45.98000
C  27.80600 -4.36200 46.68800
C  29.01500 -3.56500 46.52400
C  28.70200 -2.59100 45.61000
C  27.32200 -2.73300 45.23700
C  30.34000 -3.83600 47.15800
C  29.17100 -1.45200 44.81300
O  30.24300 -0.88300 44.79700
C  27.94000 -1.00400 43.87000
C  27.56600 0.42300 43.94700
O  27.09000 0.91100 44.93700
O  27.87100 1.09900 42.77900
C  27.52400 2.53100 42.89400
H  21.16900 -2.55500 43.30700
H  22.66900 -8.21200 46.23300
H  28.50100 -6.03700 47.88300
H  25.19000 0.18100 43.09400
H  22.84000 -1.08500 41.89600
H  22.38300 0.89800 42.86400
H  23.39100 0.88100 44.23300
H  21.84900 0.04400 44.32800
H  26.39700 -1.89500 41.34600
H  26.28800 -0.18700 41.15400
H  23.95700 -0.51900 40.13100
H  24.30900 -2.24100 40.29100
H  18.66600 -4.77700 43.93900
H  19.41000 -5.67700 42.52900
H  19.66300 -4.05100 42.73300
H  19.41900 -9.09900 46.44900
H  20.90500 -8.48100 47.11300
H  20.64500 -9.42300 45.54600
H  25.02600 -9.11800 46.42300
H  26.74800 -7.97900 48.63400
H  24.79300 -8.93700 49.47300
H  24.30700 -10.15200 48.37100
H  23.32700 -8.73800 48.60000
H  28.06100 -8.24500 46.05100
H  27.15100 -9.62700 46.15600
H  28.94300 -8.92300 48.51400
H  29.60800 -9.73600 47.03900
H  28.51800 -10.53400 48.04400
H  31.06800 -3.92200 46.35100
H  30.40400 -4.71900 47.79400
H  30.48000 -3.00000 47.84300
H  28.18000 -1.26500 42.84000
H  28.08700 3.07700 42.13800
H  28.11300 2.89600 43.73500
H  26.43800 2.60500 42.95100
Mg 39.62500 9.88900 30.51500
C  41.67600 11.16000 33.18000
C  37.53100 8.73300 32.89500
C  38.01700 8.48500 28.03800
C  42.34000 10.75000 28.27800
N  39.63700 9.97400 32.78900
C  40.52300 10.54900 33.68000
C  40.03300 10.52000 35.19700
C  38.84900 9.47700 35.01600
C  38.59300 9.44100 33.42600
C  39.10100 8.07400 35.55000
C  39.63300 11.88600 35.85100
C  40.40400 12.22500 37.11500
H  39.57600 12.67400 38.28500
N  38.05300 8.67400 30.43700
C  37.29100 8.38700 31.52500
C  36.15100 7.63900 31.09900
C  36.28000 7.55600 29.68000
C  37.52400 8.20500 29.34300
C  34.98000 7.05500 31.96400
C  35.44100 6.75000 28.71500
O  35.74600 6.58100 27.53300
C  34.20900 6.16100 29.17700
N  40.12900 9.61800 28.39000
C  39.16800 9.15500 27.65700
C  39.65700 9.21600 26.10000
C  41.13000 9.75200 26.22000
C  41.22200 10.10100 27.72000
C  39.46000 7.92600 25.29400
C  41.51900 10.97700 25.16300
C  40.78500 12.25500 25.37900
N  41.45700 10.90400 30.59800
C  42.45100 11.11600 29.66400
C  43.55800 11.86300 30.25100
C  43.22100 11.92000 31.58900
C  41.99300 11.27500 31.81200
C  44.61400 12.49200 29.39900
C  43.66700 12.48100 32.91500
O  44.61700 13.15400 33.17900
C  42.60900 11.96200 33.99500
C  43.50700 11.19600 34.88100
O  43.82800 10.02300 34.77200
O  43.77200 11.92400 35.97200
C  44.76900 11.31400 36.93400
H  36.82000 8.43500 33.66900
H  37.41100 8.15000 27.19400
H  43.18100 11.03100 27.64000
H  40.92500 10.15300 35.70600
H  37.94400 9.87300 35.47700
H  38.98400 8.10900 36.63300
H  40.13400 7.74600 35.43500
H  38.36200 7.37600 35.15600
H  38.55200 11.89500 35.99500
H  39.76300 12.69200 35.12800
H  40.98300 13.12100 36.89000
H  41.12800 11.45400 37.37800
H  35.05400 7.49900 32.95700
H  35.10100 5.98300 32.11800
H  33.99900 7.36700 31.60600
H  33.83400 5.55400 28.35300
H  33.39200 6.85900 29.36100
H  34.44700 5.49300 30.00600
H  39.08600 9.99300 25.59300
H  41.86100 8.95600 26.08000
H  39.23200 7.07800 25.94000
H  40.30700 7.66400 24.66100
H  38.64200 7.87300 24.57600
H  41.22900 10.62600 24.17200
H  42.59300 11.16100 25.17100
H  40.02400 12.28400 26.15900
H  40.35300 12.67500 24.47100
H  41.54100 12.99900 25.62800
H  45.02000 13.37600 29.89000
H  44.34900 12.72000 28.36600
H  45.44200 11.79200 29.50300
H  42.26700 12.82400 34.56800
H  45.68200 11.15500 36.35900
H  44.44800 10.37500 37.38500
H  45.04200 12.07000 37.67000

