158

Mg 0.16800 7.99800 26.55900
C  0.81900 10.16700 29.32900
C  0.20900 5.30400 29.08600
C  -0.05200 5.71200 24.23600
C  0.63300 10.53400 24.36000
N  0.55400 7.78600 28.94900
C  0.60800 8.85200 29.76300
C  0.38600 8.46100 31.23600
C  0.35200 6.85400 31.16500
C  0.44000 6.59600 29.62600
C  1.36400 6.11500 32.02300
C  -0.92400 9.04800 31.92000
C  -0.77500 9.20000 33.49000
H  -1.46400 8.14900 34.35700
N  0.03300 5.86300 26.65800
C  0.05600 4.96600 27.68400
C  -0.10500 3.68500 27.16900
C  -0.14000 3.70800 25.76700
C  -0.08400 5.15300 25.51100
C  -0.23700 2.44100 27.99300
C  -0.15900 2.57500 24.68700
O  -0.08200 2.78400 23.47000
C  -0.29500 1.23700 25.13300
N  0.40000 8.11400 24.55900
C  0.07200 7.04200 23.85300
C  -0.00400 7.45700 22.32700
C  -0.14400 8.99700 22.41300
C  0.30300 9.29300 23.86600
C  1.27800 6.99800 21.55200
C  -1.49400 9.61800 22.14400
C  -1.53600 10.43100 20.87800
N  0.80400 9.91100 26.69400
C  0.88700 10.83600 25.70200
C  1.24900 12.16600 26.25600
C  1.12500 11.92500 27.65000
C  0.86100 10.55500 27.90500
C  1.46600 13.41600 25.55500
C  1.11400 12.58300 28.90300
O  1.27800 13.76100 29.21900
C  0.89800 11.50400 30.02800
C  2.00400 11.56500 31.05200
O  3.12800 11.20600 30.86500
O  1.48300 11.94300 32.22600
C  2.48300 12.37100 33.28500
H  0.24400 4.47600 29.79700
H  0.01200 5.02700 23.38700
H  0.65100 11.33900 23.62200
H  1.34300 8.75500 31.66700
H  -0.63600 6.66000 31.58200
H  1.67800 6.74300 32.85600
H  2.20700 5.85500 31.38400
H  0.79800 5.27200 32.42000
H  -1.73800 8.35600 31.70900
H  -1.12000 9.98200 31.39300
H  -1.20400 10.15100 33.80500
H  0.29600 9.10800 33.67300
H  -1.08400 1.83700 27.66700
H  -0.60100 2.69200 28.98900
H  0.68700 1.86400 27.95700
H  0.65200 0.95700 25.59400
H  -0.42700 0.64300 24.22900
H  -1.25400 1.07800 25.62500
H  -0.83700 6.94800 21.84300
H  0.54900 9.41900 21.68500
H  1.11700 6.15900 20.87400
H  2.17500 6.82300 22.14600
H  1.48500 7.78200 20.82400
H  -1.76900 10.18000 23.03700
H  -2.27700 8.87900 21.97800
H  -1.26700 9.93100 19.94800
H  -1.01000 11.37900 20.99300
H  -2.55800 10.73300 20.64800
H  2.30800 13.93400 26.01500
H  0.52500 13.94900 25.68600
H  1.69500 13.32100 24.49400
H  -0.01100 11.75400 30.57500
H  2.94000 11.54300 33.82700
H  2.17000 12.97400 34.13800
H  3.28400 12.83900 32.71300
Mg 49.08300 46.82800 42.81000
C  45.70000 47.03600 42.15500
C  49.10100 43.50600 42.10400
C  52.47800 46.85400 43.12800
C  49.11200 50.33300 43.29900
N  47.63100 45.55300 41.99600
C  46.25700 45.80300 41.84000
C  45.57300 44.56800 41.25200
C  46.61400 43.41800 41.42000
C  47.85500 44.24100 41.91000
C  46.29000 42.33700 42.47500
C  45.09700 44.93000 39.80400
C  43.86500 44.10500 39.19200
H  44.17700 43.04100 38.07600
N  50.62800 45.37500 42.53400
C  50.43900 44.03200 42.18900
C  51.70900 43.38600 41.97200
C  52.72900 44.31500 42.37700
C  51.98400 45.61700 42.67500
C  51.88500 41.86500 41.58000
C  54.19400 44.04300 42.47100
O  54.58300 42.87500 42.28700
C  55.33300 45.09200 42.78300
N  50.58200 48.43000 43.00300
C  51.86600 48.15100 43.30200
C  52.69900 49.47700 43.59900
C  51.61900 50.61400 43.54400
C  50.39400 49.76500 43.26700
C  53.46800 49.53600 44.95000
C  51.89400 51.75400 42.56900
C  51.81400 51.47800 41.01000
N  47.73900 48.39700 42.79200
C  47.87200 49.74500 43.08100
C  46.54800 50.38500 43.11100
C  45.67000 49.35500 42.72000
C  46.40200 48.20800 42.58200
C  46.31700 51.89600 43.39100
C  44.29200 49.05600 42.42000
O  43.35400 49.84100 42.51200
C  44.18000 47.52400 42.02900
C  43.30600 46.84600 43.04200
O  43.63000 46.56300 44.18600
O  42.04000 46.66000 42.50100
C  41.18300 45.96200 43.50600
H  49.09500 42.42200 41.97100
H  53.56700 46.87900 43.19700
H  49.03900 51.41500 43.42900
H  44.62500 44.39900 41.76400
H  46.73400 42.81700 40.51900
H  46.59800 41.30000 42.34100
H  45.21000 42.21800 42.56100
H  46.80300 42.62900 43.39100
H  45.97200 44.96500 39.15500
H  44.80900 45.98100 39.81400
H  43.15800 44.84300 38.81100
H  43.35500 43.52500 39.96100
H  50.98900 41.31800 41.87300
H  52.69300 41.42300 42.16200
H  52.20900 41.73700 40.54700
H  55.15100 45.87200 42.04400
H  56.35300 44.70900 42.77300
H  55.10200 45.50800 43.76400
H  53.50700 49.67200 42.89300
H  51.50100 51.06300 44.53000
H  53.12100 48.71800 45.58100
H  53.44100 50.47300 45.50500
H  54.52500 49.42600 44.70800
H  52.93400 52.03800 42.73200
H  51.37500 52.61400 42.99200
H  51.55000 50.43500 40.83400
H  52.75000 51.86800 40.61000
H  51.04300 52.08500 40.53500
H  45.24700 51.99200 43.57700
H  46.59000 52.40500 42.46700
H  46.81000 52.23000 44.30400
H  43.67700 47.42300 41.06700
H  41.67000 45.03400 43.80700
H  40.22900 45.66000 43.07300
H  41.02400 46.58700 44.38400

