158

Mg 24.22100 -7.14500 47.95100
C  26.59800 -5.06800 46.74700
C  22.14400 -5.98100 45.32400
C  21.91700 -9.44600 48.88900
C  26.53300 -8.59700 50.12100
N  24.33900 -5.53000 46.40500
C  25.40700 -4.80400 46.06100
C  25.22900 -3.86900 44.81200
C  23.64800 -3.92900 44.74400
C  23.36200 -5.26200 45.48900
C  22.89000 -2.71300 45.38000
C  25.88300 -4.34000 43.57500
C  26.65500 -3.20000 42.81500
H  26.02600 -2.82300 41.43500
N  22.36300 -7.57900 47.22600
C  21.67100 -7.02300 46.14000
C  20.47000 -7.81000 45.92500
C  20.35400 -8.74900 46.95800
C  21.51400 -8.53700 47.79200
C  19.51800 -7.57300 44.77900
C  19.07600 -9.67300 47.12900
O  18.23200 -9.76000 46.22700
C  18.82600 -10.44100 48.42900
N  24.22900 -8.82300 49.31400
C  23.13100 -9.60000 49.54500
C  23.54500 -10.75300 50.51700
C  24.83900 -10.20300 51.20200
C  25.22000 -9.12400 50.14400
C  22.42600 -11.19800 51.53700
C  25.95100 -11.28800 51.33300
C  26.50900 -11.87900 50.10100
N  26.18400 -7.00000 48.35500
C  27.03000 -7.57900 49.29000
C  28.34700 -7.02900 49.18300
C  28.20400 -5.99100 48.15200
C  26.89600 -6.01300 47.72900
C  29.50700 -7.24600 50.12200
C  28.86100 -4.93400 47.45200
O  30.03800 -4.65600 47.44100
C  27.90400 -4.41100 46.44600
C  27.92400 -2.92500 46.59000
O  27.23400 -2.27300 47.37000
O  28.79900 -2.45900 45.65900
C  28.83000 -1.01200 45.52900
H  21.53000 -5.53800 44.53800
H  21.20500 -10.23300 49.14800
H  27.33500 -8.85200 50.81800
H  25.42800 -2.82100 45.03500
H  23.23500 -4.09700 43.74900
H  22.09500 -3.10200 46.01600
H  22.39500 -2.12300 44.60800
H  23.54100 -2.05300 45.95400
H  25.08800 -4.82300 43.00600
H  26.60800 -5.12100 43.79900
H  27.65900 -3.57700 42.61700
H  26.78400 -2.42000 43.56500
H  19.31900 -8.50300 44.24600
H  19.94400 -6.86600 44.06800
H  18.58000 -7.23100 45.21600
H  17.75300 -10.61800 48.36000
H  18.86600 -9.77800 49.29300
H  19.31000 -11.39900 48.61600
H  23.75900 -11.59100 49.85400
H  24.59700 -9.86100 52.20800
H  21.54700 -10.63400 51.22700
H  22.73300 -10.96400 52.55600
H  22.23200 -12.25500 51.35500
H  25.36500 -12.03100 51.87400
H  26.66300 -10.99600 52.10400
H  26.15600 -11.36200 49.20800
H  26.35600 -12.94700 49.94900
H  27.59800 -11.88700 50.13600
H  29.11500 -6.92400 51.08700
H  30.27000 -6.62800 49.64900
H  29.64900 -8.32500 50.06500
H  28.23100 -4.62900 45.43000
H  29.62600 -0.60900 46.15500
H  27.94500 -0.54600 45.96300
H  28.94700 -0.73500 44.48200
Mg 47.37000 16.16800 28.19200
C  45.22700 16.16100 31.09900
C  49.57300 18.01300 30.09100
C  48.98500 16.73500 25.34300
C  44.76100 14.73100 26.50000
N  47.28900 17.06900 30.23500
C  46.44700 16.79100 31.27100
C  47.00900 17.16800 32.64400
C  48.35200 17.88800 32.31900
C  48.43000 17.68800 30.75200
C  48.48100 19.30200 32.82300
C  47.15600 16.00600 33.66500
C  46.51300 16.17500 35.11200
H  46.18600 17.54700 35.58200
N  49.13400 17.07200 27.80100
C  49.89000 17.76600 28.69800
C  51.03100 18.39300 28.04300
C  50.90600 17.95500 26.64100
C  49.69100 17.15500 26.56300
C  52.01800 19.26500 28.66100
C  51.84000 18.23800 25.48900
O  51.60600 18.01500 24.30900
C  53.17200 18.77600 25.78100
N  47.01700 15.71700 26.20000
C  47.74500 16.13200 25.13500
C  47.11100 15.68000 23.82100
C  45.95300 14.72600 24.28400
C  45.90200 15.06100 25.76000
C  46.63300 16.81200 22.91500
C  46.16300 13.18700 23.90900
C  45.21800 12.57300 22.88000
N  45.39500 15.47500 28.65500
C  44.54900 14.87900 27.86200
C  43.36500 14.40300 28.69100
C  43.56200 14.88400 29.94700
C  44.84600 15.48500 29.89100
C  42.11500 13.78300 28.26300
C  43.08200 14.98200 31.33800
O  42.12800 14.48500 31.89600
C  44.14700 15.84300 32.13800
C  43.45700 16.95800 32.81100
O  43.34200 18.11300 32.37600
O  42.86200 16.44200 33.94800
C  41.93200 17.36900 34.62500
H  50.37700 18.45600 30.68200
H  49.47700 17.02000 24.41100
H  44.10000 14.04800 25.96200
H  46.29400 17.91700 32.98700
H  49.21600 17.39200 32.76300
H  49.27600 19.35900 33.56700
H  47.50200 19.60800 33.19100
H  48.76000 19.96800 32.00700
H  48.23200 15.91100 33.81100
H  46.76000 15.11700 33.17400
H  47.30700 15.76600 35.73600
H  45.72200 15.42500 35.12100
H  52.21400 20.24900 28.23400
H  52.98600 18.76600 28.62300
H  51.83900 19.47800 29.71500
H  53.04000 19.62000 26.45800
H  53.58400 19.10100 24.82600
H  53.88100 18.01600 26.11000
H  47.92300 15.25200 23.23400
H  45.08900 15.10900 23.74100
H  45.75200 16.68200 22.28700
H  47.28100 16.80400 22.03900
H  46.55800 17.74700 23.47100
H  46.08500 12.52700 24.77300
H  47.14000 13.07500 23.43800
H  44.32600 13.17900 22.71700
H  44.74000 11.67800 23.27900
H  45.64200 12.27600 21.92100
H  41.86600 14.14600 27.26600
H  41.28100 14.10800 28.88400
H  42.26100 12.70300 28.25000
H  44.45100 15.11600 32.89200
H  42.16400 17.45900 35.68600
H  40.90700 17.02400 34.48600
H  41.85300 18.32800 34.11300

