158

Mg 9.08300 3.15000 27.62200
C  9.92800 1.40400 30.59200
C  6.85600 5.03200 29.47500
C  8.01300 4.54500 24.75700
C  10.75400 0.68600 25.78900
N  8.64600 3.34000 29.79600
C  9.12500 2.52200 30.77900
C  8.61100 2.97400 32.13200
C  7.48300 4.06900 31.72900
C  7.67400 4.19000 30.23300
C  6.00600 3.69500 32.19100
C  9.69100 3.54700 33.10200
C  9.08000 4.37100 34.19200
H  9.61400 3.96300 35.57000
N  7.58100 4.56800 27.21500
C  6.79400 5.30900 28.08600
C  5.96700 6.28800 27.33000
C  6.38900 6.14400 25.93800
C  7.35500 5.02400 25.93300
C  4.99100 7.17400 28.00800
C  5.90400 6.91000 24.73100
O  6.18200 6.69100 23.57100
C  4.87400 7.86800 25.02900
N  9.30900 2.69300 25.55800
C  8.82600 3.43600 24.55500
C  9.20700 2.93600 23.11500
C  9.95900 1.62100 23.50900
C  10.03400 1.62200 25.05800
C  8.05600 2.61400 22.15800
C  11.35500 1.57000 22.84000
C  11.58300 0.53300 21.72200
N  10.16800 1.40700 28.03900
C  10.75600 0.49700 27.15300
C  11.30400 -0.53400 27.98800
C  11.13600 -0.11600 29.36500
C  10.35500 0.98200 29.32200
C  11.94400 -1.77400 27.50500
C  11.44100 -0.53100 30.67100
O  12.10200 -1.45000 31.03700
C  10.66100 0.47100 31.57800
C  9.78600 -0.38300 32.39800
O  8.65800 -0.82600 32.10000
O  10.38300 -0.49300 33.68100
C  9.53200 -1.10600 34.73300
H  6.22100 5.70700 30.05200
H  7.75700 5.07100 23.83400
H  11.07300 -0.06100 25.06000
H  8.21700 2.07700 32.61000
H  7.69100 5.04300 32.17200
H  6.10000 2.75900 32.74200
H  5.21600 3.50800 31.46300
H  5.52600 4.39100 32.87800
H  10.51200 3.96600 32.52000
H  10.12100 2.66100 33.56800
H  8.02800 4.13500 34.34700
H  9.33800 5.43000 34.16200
H  5.42200 8.17500 27.99000
H  4.90900 7.09500 29.09200
H  4.02300 7.16200 27.50800
H  3.97500 7.29200 25.25100
H  4.76100 8.44500 24.11100
H  5.29400 8.46100 25.84100
H  9.86500 3.72000 22.74100
H  9.26300 0.80100 23.33200
H  7.12000 2.73300 22.70400
H  8.14700 1.59500 21.78200
H  8.03700 3.28800 21.30100
H  12.10000 1.44100 23.62600
H  11.64500 2.54000 22.43800
H  10.65600 0.42000 21.16100
H  11.92200 -0.43200 22.10000
H  12.37500 0.94800 21.09800
H  12.29500 -2.42900 28.30200
H  12.89700 -1.44100 27.09300
H  11.42400 -2.39300 26.77400
H  11.16500 1.03800 32.36100
H  10.15300 -1.81900 35.27400
H  8.76300 -1.61000 34.14600
H  8.96400 -0.31900 35.22900
Mg 8.48100 47.46600 28.01000
C  6.95500 46.72900 30.99700
C  11.42300 47.72100 29.83100
C  9.86800 48.82000 25.28100
C  5.29400 47.71200 26.41200
N  9.05600 47.43500 30.22300
C  8.31300 46.93400 31.19900
C  8.99800 47.00800 32.57300
C  10.44900 47.52100 32.15700
C  10.30000 47.57300 30.64400
C  11.07000 48.78300 32.75200
C  8.85200 45.70200 33.41900
C  9.92800 45.51800 34.50000
H  9.80200 44.44100 35.59100
N  10.47100 48.06100 27.55600
C  11.49800 48.11800 28.46000
C  12.71500 48.29200 27.66600
C  12.31300 48.61400 26.34000
C  10.82100 48.54200 26.29600
C  14.15900 48.33400 28.26900
C  13.09900 48.94900 25.13300
O  12.50200 49.20700 24.05100
C  14.51900 48.94300 25.17800
N  7.74300 47.93700 26.05900
C  8.50900 48.66200 25.21900
C  7.65400 49.32200 24.10700
C  6.32500 48.49300 24.27400
C  6.43500 47.97400 25.61400
C  7.44600 50.86100 24.26900
C  5.99000 47.49300 23.20700
C  7.02000 46.38500 22.93400
N  6.58100 47.20900 28.51600
C  5.31300 47.33500 27.82400
C  4.21000 47.00300 28.70300
C  4.83700 46.79900 29.88700
C  6.23500 46.87900 29.73300
C  2.78700 47.13200 28.39600
C  4.54100 46.60100 31.30300
O  3.46200 46.52000 31.88200
C  5.85100 46.47900 32.07300
C  5.85900 45.11400 32.71800
O  6.25300 44.06700 32.27200
O  5.52000 45.37200 34.00300
C  5.54800 44.20500 34.84800
H  12.41200 47.63000 30.28500
H  10.14700 49.43400 24.42200
H  4.29600 47.68700 25.96800
H  8.38100 47.77400 33.04300
H  11.13800 46.73900 32.47500
H  12.01900 48.33900 33.05500
H  10.46900 49.07200 33.61400
H  11.29800 49.62900 32.10400
H  8.73400 44.83000 32.77700
H  7.92900 45.83600 33.98300
H  10.15100 46.49600 34.92700
H  10.81800 45.14000 33.99700
H  14.89600 49.07100 27.95000
H  14.62700 47.38800 27.99600
H  14.18100 48.38700 29.35700
H  14.98200 49.59200 25.92100
H  14.91700 49.18200 24.19200
H  14.82700 47.95100 25.50600
H  8.04600 49.16800 23.10100
H  5.46000 49.15200 24.35100
H  6.46500 51.17200 24.62900
H  7.68500 51.33300 23.31600
H  8.06800 51.33600 25.02700
H  5.89800 48.01300 22.25400
H  5.11000 46.91300 23.48500
H  7.39700 46.43900 21.91300
H  6.63000 45.37200 23.03500
H  7.83600 46.55100 23.63700
H  2.33600 47.84700 29.08400
H  2.26600 46.17500 28.42400
H  2.64400 47.42700 27.35600
H  5.90400 47.34000 32.74000
H  4.90900 44.39000 35.71100
H  6.55200 43.98400 35.20900
H  5.04900 43.31600 34.46200

