158

Mg 25.11500 1.69800 29.68700
C  27.21600 1.55200 32.49500
C  22.43600 1.68600 31.89800
C  23.15900 1.39400 27.04200
C  27.93400 0.95600 27.65000
N  24.83000 1.79200 31.88900
C  25.89400 1.82500 32.83200
C  25.39400 2.07100 34.20500
C  23.81700 1.91600 34.03400
C  23.63000 1.77200 32.50100
C  23.14500 0.81600 34.93800
C  25.83000 3.41700 34.80800
C  26.66000 3.35900 36.08600
H  26.23500 4.34100 37.29100
N  23.08900 1.66300 29.47800
C  22.20000 1.65700 30.47600
C  20.89800 1.69400 29.86800
C  21.01200 1.53100 28.50100
C  22.44700 1.55600 28.30300
C  19.68900 1.72100 30.76400
C  19.97500 1.19400 27.48800
O  20.25600 0.96400 26.32600
C  18.55400 1.05700 27.76000
N  25.53100 1.09600 27.71800
C  24.50700 1.16300 26.76500
C  25.06500 1.09600 25.32600
C  26.58500 0.87600 25.44900
C  26.71400 1.03600 27.00800
C  24.49700 0.09900 24.26100
C  27.45200 2.01400 24.78600
C  27.29300 3.44400 25.30600
N  27.10600 1.36700 29.94100
C  28.07700 1.12500 29.02100
C  29.35300 1.03500 29.67800
C  29.06100 1.27100 31.06300
C  27.65300 1.35100 31.16200
C  30.66000 0.73900 29.04400
C  29.65900 1.22900 32.41700
O  30.83700 1.00300 32.77700
C  28.45900 1.54100 33.43800
C  28.37700 0.52900 34.52700
O  28.10300 -0.63000 34.31600
O  28.81100 1.06200 35.68500
C  28.77100 0.12400 36.80700
H  21.69200 1.73400 32.69600
H  22.51900 1.43800 26.15900
H  28.77000 0.75000 26.97900
H  25.84300 1.31900 34.85500
H  23.32300 2.82900 34.36700
H  22.82700 0.11600 34.16500
H  22.23000 1.21000 35.38000
H  23.75500 0.33500 35.70300
H  24.94000 3.98100 35.08600
H  26.46600 3.97700 34.12300
H  27.65700 3.68600 35.78800
H  26.72700 2.37700 36.55300
H  19.10700 0.80700 30.64400
H  19.03500 2.55200 30.50200
H  19.89700 1.95500 31.80800
H  18.38600 0.22800 28.44900
H  18.08800 0.75800 26.82100
H  18.11700 1.94000 28.22600
H  24.90400 2.11800 24.98400
H  26.88900 -0.12900 25.15900
H  24.44900 0.65400 23.32400
H  23.49500 -0.27200 24.47700
H  25.11700 -0.79600 24.21000
H  27.01100 2.05800 23.79000
H  28.49100 1.69100 24.71700
H  28.29200 3.81200 25.54000
H  26.63100 3.37900 26.16900
H  26.80100 4.03400 24.53300
H  30.80500 -0.30900 28.78200
H  31.33700 1.07200 29.83100
H  30.91000 1.37300 28.19400
H  28.61200 2.54400 33.83600
H  29.72400 -0.39000 36.93400
H  28.04300 -0.68500 36.75800
H  28.60900 0.69300 37.72200
Mg 40.36000 10.69600 30.28600
C  42.29400 12.08900 32.80700
C  38.29300 9.35400 32.71000
C  38.90000 8.94400 27.84500
C  43.19800 11.05300 28.10900
N  40.27900 10.72100 32.48700
C  41.10700 11.50400 33.31700
C  40.56500 11.39500 34.77200
C  39.26700 10.52100 34.68300
C  39.31900 10.08400 33.22200
C  39.19700 9.24900 35.60800
C  40.26400 12.80200 35.32800
C  40.61200 12.92900 36.83700
H  39.61700 13.83700 37.71400
N  38.76100 9.44200 30.31600
C  37.96800 9.05500 31.34600
C  36.84100 8.35500 30.86100
C  37.02300 8.17200 29.44700
C  38.27300 8.89700 29.09400
C  35.79300 7.82300 31.82300
C  36.17300 7.28500 28.46300
O  36.54300 7.02800 27.33500
C  35.01900 6.58400 28.95600
N  41.01700 10.07500 28.29100
C  40.15300 9.36100 27.43900
C  40.59600 9.24400 26.01400
C  41.97000 10.05800 26.08400
C  42.06400 10.41900 27.56400
C  40.73900 7.74800 25.44000
C  42.07400 11.27500 25.11100
C  41.90600 12.69100 25.74300
N  42.23800 11.64100 30.29000
C  43.30600 11.55100 29.41800
C  44.43500 12.28500 29.96300
C  44.06000 12.49800 31.33200
C  42.76000 12.07100 31.47800
C  45.79500 12.44400 29.34900
C  44.53300 13.04800 32.55600
O  45.46800 13.70200 32.96100
C  43.40800 12.68300 33.62800
C  44.00400 11.70500 34.58500
O  44.33100 10.54400 34.49100
O  44.13700 12.41900 35.79400
C  44.69500 11.69600 36.96700
H  37.66200 8.94400 33.50100
H  38.44400 8.44100 26.99000
H  44.09200 11.06300 27.48100
H  41.26800 10.82900 35.38400
H  38.33100 11.04700 34.87000
H  38.23500 8.76100 35.76000
H  39.51500 9.65500 36.56800
H  39.82300 8.38100 35.40200
H  39.18100 12.90000 35.39600
H  40.50800 13.58900 34.61400
H  41.55500 13.47000 36.91500
H  40.71500 11.95800 37.32200
H  35.96400 6.74700 31.77800
H  34.73700 7.96500 31.59200
H  36.03700 8.07600 32.85500
H  35.55600 5.96000 29.67100
H  34.57100 5.98100 28.16500
H  34.38100 7.39000 29.31800
H  39.93900 9.73600 25.29600
H  42.82300 9.44600 25.79100
H  41.73100 7.32300 25.59300
H  40.47700 7.70900 24.38200
H  40.08900 7.03800 25.95100
H  41.35500 11.06200 24.32000
H  43.04400 11.19200 24.62100
H  42.13300 12.76600 26.80600
H  40.86300 12.96700 25.58900
H  42.55600 13.42600 25.26800
H  46.07400 11.63400 28.67600
H  46.49600 12.56600 30.17400
H  45.79500 13.25100 28.61600
H  43.11500 13.57600 34.18100
H  43.96400 11.14800 37.56200
H  45.22600 12.44500 37.55400
H  45.32600 10.87100 36.63800

