158

Mg 2.37900 -1.91300 43.84100
C  5.75500 -1.47600 43.38300
C  1.78200 0.58800 41.54400
C  -0.90500 -2.89400 43.77500
C  3.19900 -4.97700 45.37300
N  3.68800 -0.80300 42.31300
C  5.03800 -0.64100 42.48900
C  5.53900 0.38100 41.46900
C  4.26700 1.03100 40.85500
C  3.16100 0.21100 41.63400
C  4.13900 2.58000 40.97200
C  6.42100 -0.44800 40.45200
C  7.77500 0.26500 40.14100
H  8.13600 0.53500 38.68100
N  0.62500 -1.12300 42.93900
C  0.62900 -0.12100 42.05600
C  -0.75300 0.18900 41.82800
C  -1.53000 -0.70000 42.55500
C  -0.60000 -1.62100 43.16700
C  -1.13600 1.30000 40.92000
C  -3.07200 -0.68900 42.59700
O  -3.74000 -0.09800 41.75700
C  -3.83700 -1.38800 43.70400
N  1.22400 -3.73100 44.37200
C  -0.11100 -3.80900 44.40800
C  -0.57300 -5.05000 45.12000
C  0.78000 -5.78700 45.36600
C  1.80100 -4.75600 45.10300
C  -1.42500 -4.58600 46.40800
C  1.11600 -7.03400 44.47400
C  1.65800 -8.25500 45.18100
N  4.03200 -2.98000 44.41000
C  4.25300 -4.11000 45.18800
C  5.64300 -4.18900 45.55800
C  6.22500 -3.09600 44.91400
C  5.25600 -2.47700 44.15300
C  6.32800 -5.23500 46.46900
C  7.49800 -2.39400 44.77000
O  8.57100 -2.56100 45.37500
C  7.23600 -1.35000 43.71500
C  7.51100 0.07300 44.13000
O  7.14700 0.57400 45.12700
O  8.25800 0.64700 43.12200
C  8.69800 2.01900 43.43400
H  1.63000 1.42800 40.86300
H  -1.93700 -3.23200 43.65400
H  3.38500 -5.86800 45.97700
H  6.05300 1.20100 41.97100
H  4.16000 0.79400 39.79700
H  3.67900 2.84000 41.92600
H  3.54100 2.94000 40.13500
H  5.15600 2.95800 40.87200
H  5.89900 -0.58000 39.50500
H  6.55200 -1.46200 40.82900
H  8.62900 -0.28200 40.54000
H  7.92200 1.22300 40.64100
H  -0.96800 0.84400 39.94400
H  -0.45800 2.14300 41.04900
H  -2.15900 1.66300 41.01300
H  -4.75800 -0.83500 43.88900
H  -3.26500 -1.19500 44.61200
H  -4.01300 -2.40600 43.35600
H  -1.23000 -5.64800 44.48700
H  0.67200 -6.05800 46.41600
H  -2.42200 -5.02400 46.35400
H  -1.49600 -3.49800 46.41900
H  -0.93600 -4.69600 47.37600
H  1.68800 -6.69600 43.61000
H  0.23100 -7.31400 43.90300
H  1.67400 -8.00600 46.24200
H  2.70900 -8.38100 44.92500
H  1.01400 -9.07600 44.86500
H  6.89500 -5.93900 45.86100
H  5.59600 -5.80400 47.04300
H  7.00400 -4.73300 47.16100
H  7.85800 -1.70900 42.89500
H  7.84000 2.63100 43.15400
H  9.55500 2.37900 42.86400
H  8.95900 2.02600 44.49200
Mg 6.69400 54.32700 41.97800
C  5.89200 50.97600 41.67300
C  9.85600 53.66400 40.71500
C  7.33100 57.65300 41.45500
C  3.40300 55.02300 42.88900
N  7.70000 52.57300 41.12600
C  7.23000 51.27000 41.25800
C  8.32900 50.22900 40.85600
C  9.65500 51.06700 41.01900
C  9.06800 52.52700 40.93700
C  10.55900 50.80000 42.32400
C  8.11400 49.62300 39.40900
C  7.78800 50.56000 38.21900
H  6.60200 50.21500 37.32500
N  8.36000 55.54400 41.12400
C  9.56000 55.03700 40.69700
C  10.44900 56.13000 40.36100
C  9.72700 57.33400 40.49500
C  8.41100 56.85000 41.01900
C  11.80700 55.97300 39.84700
C  10.31100 58.65800 40.09600
O  11.29500 58.76000 39.37700
C  9.57800 59.99800 40.48500
N  5.47000 56.01800 41.94600
C  6.00600 57.30700 41.93900
C  5.11400 58.34100 42.52900
C  3.77300 57.51900 42.71000
C  4.23000 56.06600 42.57100
C  5.62300 58.91600 43.89700
C  2.62100 57.98500 41.76800
C  1.42900 58.69900 42.43900
N  4.92100 53.31000 42.24200
C  3.72500 53.69400 42.61600
C  2.90300 52.49000 42.82500
C  3.69400 51.44100 42.48400
C  4.93900 51.96100 42.10600
C  1.41500 52.58500 43.27000
C  3.73400 50.00900 42.36200
O  2.80600 49.23300 42.42400
C  5.10200 49.64800 41.86900
C  4.89800 48.92300 40.63700
O  4.29700 49.32000 39.68100
O  5.46600 47.69500 40.75100
C  5.24900 46.68700 39.64500
H  10.88200 53.36400 40.49000
H  7.51200 58.71800 41.30000
H  2.38600 55.20400 43.24500
H  8.44500 49.41500 41.57200
H  10.32300 50.88400 40.17800
H  10.53200 51.63300 43.02800
H  11.60700 50.64600 42.06600
H  10.19700 49.92100 42.85700
H  7.38000 48.81800 39.45300
H  9.10600 49.24500 39.16000
H  8.72600 50.56200 37.66500
H  7.73800 51.62300 38.45800
H  11.76700 55.06500 39.24500
H  12.45200 55.77600 40.70300
H  12.42400 56.60300 39.20600
H  8.69900 60.05200 39.84200
H  10.27200 60.80600 40.25800
H  9.36600 59.90800 41.55000
H  5.02500 59.02000 41.68100
H  3.27300 57.62500 43.67300
H  6.51500 58.32900 44.11500
H  4.87200 58.81300 44.67900
H  5.94600 59.95700 43.92800
H  2.13900 57.08000 41.39800
H  3.03600 58.49800 40.90000
H  1.69800 59.02700 43.44300
H  0.53000 58.10600 42.26400
H  1.33000 59.61700 41.86000
H  0.76400 53.01700 42.51100
H  1.22800 52.97600 44.27100
H  1.06400 51.55500 43.34300
H  5.60000 49.05500 42.63600
H  4.21100 46.38600 39.50600
H  5.70400 45.71900 39.85500
H  5.74300 47.18200 38.80900

