158

Mg 3.47600 1.06200 44.35200
C  6.22600 3.25800 43.84700
C  1.53200 3.50200 42.71100
C  1.15700 -1.22200 43.80600
C  5.84900 -1.39100 45.26100
N  3.88500 3.03000 43.26000
C  5.00100 3.71500 43.36900
C  4.81500 5.11200 42.74300
C  3.31700 5.26900 42.80600
C  2.85800 3.86100 42.85700
C  2.74800 6.11300 43.97300
C  5.35500 5.25500 41.34200
C  5.42400 3.96700 40.51300
H  5.67000 4.10400 39.01400
N  1.59200 1.16000 43.52700
C  0.94400 2.25000 42.99900
C  -0.44700 1.93100 42.85600
C  -0.58400 0.54400 43.17200
C  0.75600 0.07400 43.57300
C  -1.43600 2.91800 42.29900
C  -1.90300 -0.26500 43.15100
O  -2.94900 0.22000 42.77400
C  -1.95900 -1.67600 43.41600
N  3.59100 -1.03100 44.38900
C  2.44600 -1.78500 44.16600
C  2.57600 -3.30900 44.57400
C  3.99400 -3.26300 45.23700
C  4.60300 -1.87600 44.90300
C  1.44100 -3.80100 45.50500
C  4.82400 -4.50300 44.86100
C  5.43200 -5.25100 45.99800
N  5.66100 0.95000 44.56500
C  6.44300 -0.13000 44.99300
C  7.82300 0.32900 44.94500
C  7.72100 1.69400 44.58200
C  6.43400 2.00900 44.30700
C  9.08400 -0.43800 45.44800
C  8.52600 2.87100 44.39800
O  9.76200 3.02400 44.44900
C  7.57600 3.92100 43.83800
C  7.63300 5.21900 44.58600
O  8.12200 6.27600 44.25600
O  6.94000 4.95300 45.79000
C  6.57500 6.20700 46.52500
H  0.85600 4.28000 42.34800
H  0.45700 -2.04000 43.62300
H  6.52100 -2.16900 45.62900
H  5.33200 5.90900 43.27700
H  2.81000 5.69300 41.93900
H  2.54900 7.15100 43.70700
H  3.38500 6.29400 44.83900
H  1.82100 5.76100 44.42500
H  6.31300 5.75500 41.48900
H  4.75100 5.94200 40.74900
H  4.45600 3.46700 40.55600
H  6.24600 3.31700 40.81200
H  -1.43100 2.98800 41.21100
H  -1.19100 3.91800 42.65700
H  -2.47900 2.70500 42.53400
H  -1.74100 -2.10700 44.39300
H  -1.40600 -2.11200 42.58300
H  -2.96400 -2.08900 43.32300
H  2.63400 -3.91000 43.66600
H  3.87100 -3.09100 46.30700
H  0.54200 -4.09400 44.96300
H  1.16000 -2.99200 46.18000
H  1.70000 -4.66700 46.11400
H  5.65300 -4.15300 44.24600
H  4.25600 -5.16200 44.20500
H  5.30300 -6.26600 45.62200
H  4.96800 -5.10100 46.97300
H  6.51900 -5.18800 46.04400
H  9.76100 -0.74400 44.65000
H  8.80100 -1.31800 46.02600
H  9.59900 0.12700 46.22500
H  8.06600 4.11200 42.88400
H  5.69400 5.92800 47.10300
H  6.43100 7.00700 45.79900
H  7.34200 6.40500 47.27400
Mg 41.03200 7.83100 28.92200
C  42.80500 9.44400 31.35700
C  38.85500 6.61800 31.22000
C  39.41500 6.27300 26.38100
C  43.46100 8.85600 26.63300
N  41.02700 7.79000 31.13700
C  41.77000 8.64600 31.84700
C  41.20000 8.62200 33.34200
C  40.02300 7.58300 33.32200
C  39.98900 7.24700 31.81100
C  40.30400 6.27200 34.18000
C  40.80100 10.02000 33.81500
C  40.24200 10.12100 35.19500
H  41.01700 10.69100 36.41100
N  39.40300 6.70100 28.80500
C  38.60400 6.31300 29.81400
C  37.42900 5.65900 29.29200
C  37.53300 5.65500 27.88800
C  38.77400 6.27700 27.61300
C  36.26900 5.11800 30.16900
C  36.59000 5.07100 26.88000
O  36.87200 5.03200 25.66200
C  35.20800 4.64000 27.24200
N  41.50100 7.36600 26.81300
C  40.68400 6.73800 26.05000
C  41.30300 6.61900 24.65500
C  42.27700 7.73700 24.63800
C  42.46900 7.99600 26.15600
C  41.90900 5.19700 24.28500
C  41.79200 9.07300 23.92100
C  40.61000 9.84700 24.67600
N  42.88300 8.86000 28.95200
C  43.71900 9.32700 27.96700
C  44.70600 10.25200 28.52900
C  44.39500 10.30600 29.89700
C  43.27700 9.45600 30.07500
C  45.99700 10.75200 27.83400
C  44.87100 10.77300 31.15300
O  45.91800 11.32000 31.42800
C  43.77200 10.36000 32.15300
C  44.44000 9.59700 33.19100
O  45.13200 8.59500 33.12400
O  44.28700 10.27900 34.44200
C  45.21000 9.81900 35.49200
H  38.02800 6.24800 31.83000
H  39.04200 5.71900 25.51700
H  44.17700 9.23200 25.89900
H  41.97700 8.37300 34.06400
H  39.13500 8.10000 33.68600
H  41.32400 6.30400 34.56400
H  40.15800 5.34700 33.62200
H  39.61100 6.12300 35.00800
H  39.96300 10.41000 33.23700
H  41.62200 10.73500 33.83100
H  40.07300 9.10300 35.54500
H  39.28200 10.63500 35.21900
H  36.40900 5.09300 31.24900
H  35.95200 4.20100 29.67200
H  35.53500 5.90700 30.00300
H  34.72500 5.34100 27.92400
H  35.23300 3.64400 27.68400
H  34.72300 4.59600 26.26700
H  40.49200 6.85400 23.96600
H  43.26400 7.51200 24.23500
H  42.87400 5.30800 23.79100
H  41.35000 4.57100 23.58900
H  42.03300 4.67500 25.23300
H  41.44800 8.79800 22.92400
H  42.67600 9.70000 23.80600
H  40.95100 10.87000 24.83800
H  40.16100 9.30500 25.50800
H  39.77600 10.10600 24.02300
H  46.38600 11.74100 28.07600
H  45.77800 10.73900 26.76600
H  46.81400 10.04400 27.97500
H  43.30900 11.24800 32.58300
H  45.13700 10.45300 36.37600
H  46.25800 9.98300 35.23900
H  44.93100 8.83000 35.85700

