158

Mg 47.74000 24.50900 28.08600
C  48.41600 26.80900 30.55600
C  46.62100 22.28600 30.45900
C  47.25800 22.35700 25.64800
C  49.12400 26.84000 25.69700
N  47.64000 24.62800 30.33000
C  47.84600 25.68100 31.12400
C  47.54100 25.36600 32.55000
C  47.02600 23.86400 32.50600
C  47.14300 23.52100 31.01100
C  47.92700 22.81000 33.30300
C  46.55700 26.32200 33.27300
C  45.82900 25.69600 34.49000
H  45.54100 26.60400 35.66400
N  46.99200 22.56800 28.06300
C  46.50900 21.85400 29.15100
C  46.04000 20.57500 28.63000
C  46.12200 20.57800 27.15700
C  46.80600 21.84200 26.88500
C  45.53100 19.47500 29.50200
C  45.52300 19.63000 26.13600
O  45.41100 19.85800 24.98800
C  44.79400 18.44000 26.67500
N  48.09200 24.60600 25.98700
C  47.85200 23.57300 25.18100
C  48.17200 23.87900 23.68600
C  48.54000 25.45700 23.66700
C  48.68800 25.62800 25.17100
C  49.26200 22.94600 23.06300
C  47.58800 26.43000 23.02800
C  47.78000 26.67300 21.51100
N  48.43300 26.51200 28.02500
C  48.98900 27.29300 27.02200
C  49.41900 28.52100 27.55700
C  49.24200 28.38100 28.98300
C  48.61100 27.13500 29.13100
C  50.21600 29.54800 26.85700
C  49.55800 28.99100 30.21100
O  50.11700 30.02900 30.55300
C  48.88300 28.07400 31.31400
C  49.77000 27.78200 32.55100
O  50.73300 27.04800 32.47200
O  49.37900 28.42300 33.69000
C  50.30800 28.28000 34.82800
H  46.31200 21.52700 31.18000
H  46.96600 21.64400 24.87400
H  49.49300 27.46900 24.88400
H  48.47700 25.29200 33.10400
H  46.00500 23.76500 32.87400
H  47.36700 22.27600 34.07100
H  48.81700 23.29400 33.70400
H  48.34200 22.13000 32.55900
H  45.82400 26.61800 32.52300
H  47.18500 27.14100 33.62400
H  46.45100 24.84400 34.76400
H  44.88000 25.44800 34.01400
H  44.54400 19.10100 29.23300
H  45.52600 19.86500 30.52000
H  46.30000 18.71300 29.37300
H  45.42800 17.99300 27.44100
H  44.79400 17.78600 25.80200
H  43.79000 18.74100 26.97100
H  47.26700 23.77000 23.09000
H  49.56900 25.56800 23.32400
H  49.85000 22.40000 23.80000
H  49.91400 23.48200 22.37300
H  48.91900 22.12700 22.43100
H  47.62700 27.36500 23.58700
H  46.55500 26.10200 23.14400
H  46.77900 26.61300 21.08400
H  48.49100 25.95600 21.09900
H  48.20900 27.67100 21.41900
H  50.04000 29.82800 25.81900
H  51.25100 29.22700 26.97400
H  50.23500 30.41700 27.51500
H  48.00800 28.56200 31.74300
H  50.04200 27.48500 35.52500
H  50.27300 29.17700 35.44600
H  51.33600 28.21600 34.47100
Mg -5.19600 25.78400 26.98000
C  -3.66400 27.08200 29.88100
C  -6.70100 23.29400 28.74800
C  -5.86400 24.29500 24.05500
C  -2.82000 27.89600 25.09800
N  -5.01400 25.24800 29.04400
C  -4.54400 26.04700 30.11200
C  -5.11300 25.47200 31.43900
C  -6.04500 24.31800 31.04100
C  -5.82500 24.20800 29.47400
C  -5.85100 23.04300 31.83000
C  -5.60200 26.61900 32.41000
C  -6.72300 26.27700 33.44200
H  -6.39300 25.36400 34.69500
N  -6.25200 24.08600 26.44800
C  -6.87500 23.23300 27.34400
C  -7.70400 22.31200 26.63200
C  -7.49100 22.49900 25.21900
C  -6.51800 23.67700 25.19900
C  -8.76400 21.53200 27.34200
C  -8.03400 21.78900 24.05100
O  -7.78000 22.11200 22.86800
C  -9.07700 20.73600 24.05400
N  -4.50000 26.06200 24.92400
C  -4.97600 25.31800 23.89400
C  -4.57200 25.79700 22.52300
C  -3.50300 26.87000 22.93400
C  -3.61200 26.97400 24.38900
C  -4.01000 24.65500 21.56300
C  -3.70000 28.21400 22.18800
C  -3.68100 28.31900 20.66500
N  -3.61500 27.27200 27.36100
C  -2.76900 27.97900 26.51300
C  -2.09100 28.90900 27.31400
C  -2.27800 28.50500 28.65400
C  -3.28600 27.56900 28.60100
C  -1.12700 30.01300 26.82600
C  -1.91500 28.86100 29.97800
O  -1.10300 29.60600 30.48500
C  -2.81100 28.02600 30.86500
C  -2.00800 27.21900 31.85600
O  -1.21000 26.36200 31.56600
O  -2.14600 27.74100 33.13300
C  -1.10100 27.37500 34.06800
H  -7.11800 22.46500 29.32300
H  -6.16000 23.77800 23.14000
H  -2.16300 28.59100 24.57100
H  -4.37000 24.96600 32.05600
H  -7.09300 24.61700 31.01900
H  -6.71500 22.85500 32.46800
H  -5.02200 23.02300 32.53700
H  -5.64400 22.18900 31.18600
H  -5.99600 27.35900 31.71300
H  -4.86800 27.15400 33.01200
H  -7.54400 25.87400 32.84800
H  -7.11300 27.18700 33.89800
H  -8.83400 20.52700 26.92600
H  -9.70700 22.02500 27.10500
H  -8.61400 21.56400 28.42100
H  -8.55700 19.78300 24.14700
H  -9.77300 20.81500 23.21900
H  -9.63400 20.98000 24.95900
H  -5.46500 26.17400 22.02400
H  -2.59200 26.42000 22.54000
H  -4.71300 24.34700 20.78800
H  -3.86600 23.75600 22.16100
H  -3.06000 24.91900 21.09900
H  -2.91800 28.88900 22.53700
H  -4.68800 28.61500 22.41700
H  -4.70900 28.33000 20.30400
H  -3.30800 27.34200 20.35800
H  -3.11500 29.16400 20.27300
H  -0.27100 29.90600 27.49100
H  -1.70700 30.93600 26.84100
H  -0.77800 29.78900 25.81800
H  -3.36300 28.81500 31.37600
H  -1.17500 26.28700 34.09800
H  -1.23200 27.86800 35.03100
H  -0.19600 27.78800 33.62200

