158

Mg 25.37400 1.07700 29.53700
C  27.33800 0.90500 32.46300
C  22.64700 1.63600 31.45500
C  23.75900 1.28400 26.60300
C  28.20900 0.11400 27.84700
N  25.09300 1.22400 31.74400
C  26.02600 1.29900 32.74800
C  25.40400 1.58200 34.19800
C  23.87400 1.46400 33.86200
C  23.78500 1.32700 32.26200
C  23.13900 0.32200 34.59200
C  25.92700 2.88600 34.77700
C  26.41600 2.72400 36.33200
H  25.85900 3.73700 37.31700
N  23.43300 1.22000 29.09100
C  22.49300 1.59700 30.00400
C  21.23600 1.86900 29.22800
C  21.50200 1.61600 27.89300
C  22.95100 1.33300 27.79600
C  19.96200 2.43100 29.88300
C  20.56200 1.68500 26.66600
O  20.83900 1.20400 25.52500
C  19.24000 2.14300 26.88200
N  25.91900 0.61900 27.45400
C  25.12900 1.03500 26.48400
C  25.81300 0.83700 25.12300
C  27.27000 0.59700 25.54400
C  27.16000 0.34400 27.04200
C  25.24200 -0.33900 24.29400
C  28.26300 1.72700 25.14700
C  29.23900 1.34900 23.94800
N  27.33600 0.37200 30.03600
C  28.34400 0.14600 29.22600
C  29.59600 -0.04700 29.99200
C  29.20300 0.18500 31.33800
C  27.83500 0.51300 31.27800
C  30.90400 -0.47900 29.45400
C  29.67900 0.25100 32.71900
O  30.77300 0.01500 33.17400
C  28.45500 0.76300 33.50500
C  28.25200 -0.20500 34.56900
O  27.67500 -1.27400 34.42700
O  28.90900 0.20400 35.71700
C  28.79300 -0.78000 36.87000
H  21.72600 1.68800 32.04000
H  23.19700 1.29200 25.66700
H  29.03000 -0.11900 27.16600
H  25.66200 0.85300 34.96700
H  23.39500 2.38200 34.20400
H  22.34800 0.64100 35.27000
H  23.81500 -0.30600 35.17300
H  22.67300 -0.33300 33.85500
H  25.38300 3.78200 34.47600
H  26.82000 2.93600 34.15400
H  27.48600 2.92000 36.26000
H  26.26900 1.71900 36.72600
H  19.78300 3.29200 29.23900
H  20.13600 2.87600 30.86300
H  19.13300 1.72600 29.93100
H  19.31400 3.20200 27.13200
H  18.62700 1.56800 27.57600
H  18.64500 2.07400 25.97200
H  25.77100 1.71200 24.47500
H  27.54800 -0.30000 24.99100
H  25.17800 -1.19200 24.96800
H  25.99600 -0.50100 23.52300
H  24.22800 -0.10200 23.97200
H  28.81900 2.05700 26.02500
H  27.69200 2.55600 24.72900
H  28.87300 0.53800 23.31800
H  30.20700 1.02100 24.32700
H  29.33000 2.29600 23.41600
H  31.38200 -1.08600 30.22300
H  31.60900 0.34800 29.37000
H  30.84700 -1.02800 28.51400
H  28.68000 1.74100 33.93200
H  28.95800 -1.82000 36.58900
H  27.85900 -0.64200 37.41500
H  29.65700 -0.46800 37.45600
Mg 1.19000 42.94000 26.05000
C  3.50800 42.75600 28.61400
C  -1.21100 41.99900 28.22900
C  -0.87100 42.27400 23.42500
C  3.82500 43.22400 23.77600
N  1.30400 42.28300 28.15600
C  2.25200 42.49600 29.10300
C  1.73900 42.32700 30.57400
C  0.36700 41.71300 30.26400
C  0.15200 42.07900 28.80200
C  0.11700 40.24300 30.67800
C  1.67200 43.70700 31.38400
C  1.93500 43.64500 32.94100
H  1.59500 42.28300 33.65100
N  -0.81400 42.35400 25.88800
C  -1.66700 42.14300 26.94600
C  -2.95100 41.85000 26.43400
C  -2.84400 41.83200 25.02400
C  -1.38400 42.13800 24.71900
C  -4.12300 41.45900 27.31800
C  -3.97400 41.58600 24.05400
O  -3.79700 41.73700 22.85800
C  -5.37300 41.26100 24.47800
N  1.44500 42.82000 23.87300
C  0.41700 42.58600 23.05600
C  0.88300 42.56100 21.59300
C  2.36400 42.78300 21.70300
C  2.59500 43.01600 23.18100
C  0.27700 41.29700 20.85100
C  2.90000 44.03900 20.91500
C  2.72200 45.41700 21.54600
N  3.26800 43.15100 26.09300
C  4.26900 43.15900 25.11000
C  5.57900 43.18300 25.67500
C  5.31000 43.10600 27.08000
C  3.92800 42.98700 27.28800
C  6.89200 43.27200 24.97200
C  5.91900 42.99500 28.38100
O  7.09600 43.07300 28.68800
C  4.76200 42.96500 29.45200
C  5.02800 41.86900 30.41300
O  5.04000 40.68500 30.16200
O  5.26000 42.45500 31.68300
C  5.76000 41.59600 32.72700
H  -1.90200 41.86300 29.06400
H  -1.57900 42.04000 22.62800
H  4.75200 43.37700 23.21900
H  2.38700 41.64000 31.11900
H  -0.45100 42.18400 30.80800
H  -0.81000 40.24000 31.25100
H  0.92400 39.86300 31.30500
H  0.03000 39.65600 29.76400
H  0.66900 44.11000 31.24000
H  2.32600 44.36700 30.81500
H  1.29700 44.38700 33.42100
H  2.99200 43.86100 33.10200
H  -3.89600 41.58000 28.37800
H  -4.41400 40.42400 27.14000
H  -4.96400 42.13600 27.16400
H  -5.77000 42.06600 25.09700
H  -5.25900 40.27300 24.92500
H  -6.10200 41.31200 23.66900
H  0.62700 43.53500 21.17600
H  2.95100 41.88000 21.53500
H  -0.47800 40.69800 21.36000
H  1.07800 40.60200 20.60300
H  -0.14400 41.59800 19.89100
H  2.40300 44.01400 19.94500
H  3.96300 43.83700 20.78300
H  2.02000 45.41600 22.38000
H  2.22000 46.01100 20.78200
H  3.61400 45.89200 21.95300
H  6.85500 42.66300 24.06800
H  7.65700 42.82200 25.60400
H  7.30000 44.25100 24.71900
H  4.74500 43.96200 29.89400
H  4.99300 41.05100 33.27700
H  6.47200 42.07700 33.39800
H  6.28700 40.78900 32.21800

