158

Mg 1.63700 8.89200 27.13100
C  2.21500 11.17500 29.70900
C  1.68900 6.40000 29.36400
C  1.20500 6.92200 24.64800
C  1.65100 11.69600 24.86900
N  1.89600 8.78700 29.20500
C  2.07600 9.84000 30.07400
C  1.89300 9.36200 31.60800
C  2.20900 7.80700 31.42500
C  1.85900 7.62400 29.91800
C  3.65200 7.43500 31.81400
C  0.45000 9.59100 32.17900
C  0.13200 8.99000 33.58200
H  1.30600 8.58100 34.60500
N  1.55600 6.94000 26.97800
C  1.52500 6.04200 28.02600
C  1.24600 4.72300 27.46000
C  1.27000 4.85000 26.06700
C  1.18600 6.27700 25.83600
C  1.09000 3.52200 28.26800
C  1.33100 3.82400 25.05100
O  1.25800 4.06200 23.86200
C  1.45600 2.42200 25.47400
N  1.40200 9.27100 25.02300
C  1.25400 8.26000 24.22600
C  1.10000 8.73900 22.76800
C  0.76900 10.28800 22.85300
C  1.29100 10.43200 24.30200
C  2.37700 8.32400 21.98300
C  -0.72300 10.69200 22.77900
C  -1.42300 10.74200 21.43500
N  2.01100 10.98500 27.24700
C  1.94600 11.98300 26.26000
C  2.27000 13.30800 26.83400
C  2.42900 12.99200 28.25600
C  2.20200 11.60500 28.41200
C  2.37900 14.65900 26.09000
C  2.64500 13.58100 29.60200
O  3.02800 14.66200 29.93000
C  2.32400 12.41000 30.66000
C  3.51200 12.29000 31.62000
O  4.57900 11.70700 31.45700
O  3.07800 12.79300 32.81900
C  4.08800 12.64800 33.89200
H  1.68300 5.52700 30.02000
H  1.25500 6.30200 23.75000
H  1.60700 12.58500 24.23600
H  2.64800 9.99000 32.08100
H  1.64200 7.07400 31.99900
H  4.27700 6.84300 31.14600
H  3.58600 6.91100 32.76700
H  4.28200 8.31500 31.94400
H  -0.31400 9.05800 31.61300
H  0.23200 10.65800 32.17400
H  -0.29600 8.01900 33.33300
H  -0.51900 9.65700 34.14800
H  0.66900 3.66600 29.26300
H  2.02200 2.97400 28.40600
H  0.26700 2.92400 27.87700
H  0.55700 2.06600 25.97700
H  2.38200 2.41500 26.05000
H  1.69800 1.77900 24.62800
H  0.22000 8.27300 22.32500
H  1.42000 10.88900 22.21700
H  2.83700 7.50400 22.53400
H  3.14500 9.07700 21.80500
H  2.18200 7.92500 20.98800
H  -0.78000 11.67100 23.25500
H  -1.18700 9.91700 23.38800
H  -1.04200 10.08800 20.65000
H  -1.31600 11.79100 21.15800
H  -2.48000 10.58200 21.64700
H  1.68200 15.33200 26.59000
H  2.05700 14.53900 25.05500
H  3.41300 14.98300 26.20300
H  1.34100 12.57400 31.10000
H  3.53200 12.28000 34.75400
H  4.37700 13.67800 34.10300
H  4.93700 11.98000 33.74800
Mg 26.36400 49.89600 27.11600
C  24.29500 51.18200 29.62700
C  28.59800 49.29700 29.66800
C  28.55100 48.82200 24.84700
C  24.30200 51.08300 24.62500
N  26.37800 50.09600 29.38600
C  25.43500 50.63400 30.17000
C  25.68500 50.36000 31.65300
C  27.21100 50.12600 31.56800
C  27.41300 49.68700 30.09400
C  28.06900 51.34400 32.02300
C  24.99100 49.25100 32.41000
C  24.42100 49.41200 33.82600
H  25.45000 49.89300 34.91600
N  28.32300 49.25600 27.19900
C  29.02100 48.94000 28.35000
C  30.35900 48.55000 27.99000
C  30.38700 48.36300 26.58300
C  29.06600 48.79400 26.11700
C  31.45900 48.38600 28.97500
C  31.52100 47.82200 25.69400
O  31.44100 47.76000 24.45900
C  32.85300 47.39600 26.28900
N  26.45200 50.06600 25.01700
C  27.35500 49.31700 24.32200
C  27.02200 49.20400 22.82300
C  25.52300 49.70900 22.81100
C  25.34200 50.25000 24.28700
C  27.88800 50.15700 22.00800
C  24.38200 48.57800 22.56000
C  23.20400 48.97500 21.68000
N  24.57500 50.98100 27.04700
C  23.81000 51.44100 25.94800
C  22.62500 52.16700 26.49000
C  22.84600 52.12000 27.90200
C  23.99100 51.37500 28.23100
C  21.54800 52.90400 25.65200
C  22.24600 52.46300 29.20600
O  21.21700 53.09000 29.42900
C  23.15300 51.86100 30.40700
C  23.68400 53.02000 31.20200
O  24.70900 53.65400 30.90100
O  22.97100 53.18000 32.33300
C  23.51700 54.13900 33.33000
H  29.41100 49.19600 30.38900
H  29.17300 48.58400 23.98200
H  23.57600 51.46500 23.90400
H  25.50800 51.24700 32.26100
H  27.53100 49.24400 32.12300
H  27.40100 52.07900 32.47300
H  28.48600 51.82100 31.13600
H  28.84600 51.09800 32.74700
H  25.68100 48.40800 32.42900
H  24.10800 48.96700 31.83900
H  23.99500 48.47800 34.19100
H  23.84900 50.33500 33.91700
H  31.78900 47.35700 29.11800
H  31.27500 48.73900 29.99000
H  32.29800 48.95300 28.57300
H  33.39300 48.21000 26.77200
H  33.53400 47.09500 25.49200
H  32.67600 46.47500 26.84400
H  27.03800 48.20400 22.39000
H  25.38700 50.44900 22.02300
H  28.78300 50.47200 22.54600
H  27.44200 51.10900 21.72200
H  28.17100 49.69500 21.06300
H  24.04400 48.26000 23.54700
H  24.82600 47.71400 22.06600
H  23.37500 49.91800 21.16100
H  22.33700 49.05000 22.33700
H  23.13700 48.10000 21.03400
H  21.79100 53.08300 24.60400
H  21.64900 53.89500 26.09500
H  20.64100 52.30500 25.57900
H  22.68100 51.08200 31.00600
H  24.39900 53.62100 33.70800
H  22.66700 54.35300 33.97700
H  23.90400 55.02300 32.82200

