158

Mg 9.05700 3.15700 27.57700
C  10.33200 1.62000 30.42000
C  7.26000 5.33600 29.52100
C  7.79800 4.45900 24.76600
C  10.63600 0.61000 25.69100
N  8.64000 3.22400 29.78400
C  9.42200 2.67300 30.74400
C  9.07400 3.33100 32.10500
C  7.89400 4.35600 31.77300
C  7.93900 4.31900 30.31100
C  6.48800 3.94500 32.34800
C  10.25300 3.95100 32.81400
C  9.91900 4.51600 34.18800
H  10.46300 3.72800 35.39900
N  7.74500 4.67400 27.23800
C  7.15200 5.45000 28.15700
C  6.36300 6.49000 27.45700
C  6.52600 6.25100 26.03300
C  7.38100 5.10100 25.96500
C  5.55200 7.45100 28.23800
C  6.01100 7.03000 24.87700
O  6.40700 6.85200 23.75800
C  5.08500 8.13900 25.11500
N  9.18300 2.61600 25.53800
C  8.59700 3.40100 24.57300
C  8.89300 2.84400 23.21100
C  9.82500 1.60400 23.47500
C  9.90800 1.60300 24.97800
C  7.75800 2.46600 22.28900
C  11.20000 1.73500 22.72900
C  11.33000 0.97400 21.43800
N  10.28300 1.41500 27.91700
C  10.80300 0.51100 27.03600
C  11.57600 -0.42900 27.79000
C  11.50000 -0.03800 29.13800
C  10.66100 1.10100 29.12800
C  12.27700 -1.73600 27.32600
C  11.98500 -0.24300 30.48100
O  12.80400 -0.98200 30.96600
C  11.12600 0.74400 31.36900
C  10.28200 0.00300 32.34800
O  9.19300 -0.51100 32.12900
O  10.97600 -0.00100 33.52000
C  10.19100 -0.63700 34.65300
H  6.72300 6.07600 30.11800
H  7.48500 4.96900 23.85300
H  11.02100 -0.22500 25.10100
H  8.66900 2.56800 32.76900
H  8.18700 5.32100 32.18600
H  6.32700 4.45500 33.29800
H  6.57300 2.87900 32.55400
H  5.67400 4.05600 31.63200
H  10.65900 4.73300 32.17100
H  11.00300 3.16100 32.77500
H  8.88100 4.79800 34.35900
H  10.54700 5.40600 34.20300
H  5.59800 8.44700 27.79900
H  5.84200 7.57500 29.28100
H  4.48600 7.22700 28.23800
H  4.74500 8.58900 24.18300
H  5.49800 8.87300 25.80700
H  4.16700 7.70200 25.50900
H  9.35500 3.57200 22.54500
H  9.27400 0.70100 23.21300
H  6.93000 2.39700 22.99500
H  7.88000 1.52900 21.74600
H  7.53700 3.30000 21.62300
H  11.97400 1.38600 23.41200
H  11.39300 2.79500 22.56100
H  11.99500 1.64400 20.89200
H  10.38400 0.92100 20.90000
H  11.77500 0.00300 21.65400
H  13.03000 -2.05100 28.04800
H  12.80500 -1.52700 26.39500
H  11.54100 -2.52900 27.19800
H  11.84800 1.30600 31.96000
H  10.06000 -1.69500 34.42700
H  9.20600 -0.23200 34.88400
H  10.66900 -0.50600 35.62400
Mg -11.07400 40.51800 40.92600
C  -10.11700 37.14600 40.13500
C  -8.02800 41.46800 39.95400
C  -12.35000 43.59400 40.93900
C  -14.35700 39.16500 41.42300
N  -9.35100 39.35100 40.07200
C  -9.14700 38.03700 39.84500
C  -7.76400 37.74200 39.26500
C  -7.03200 39.11900 39.48400
C  -8.15400 40.03800 39.95200
C  -5.80600 39.17100 40.47800
C  -7.70700 37.26300 37.81800
C  -7.15200 35.87200 37.55800
H  -6.31500 35.78900 36.24600
N  -10.24100 42.38000 40.59900
C  -8.97500 42.51900 40.15900
C  -8.66400 43.96400 40.17000
C  -9.98600 44.59900 40.33600
C  -10.97100 43.50200 40.66400
C  -7.28000 44.59400 39.83200
C  -10.23400 46.11100 40.18000
O  -9.27500 46.71300 39.78100
C  -11.54300 46.76300 40.23200
N  -12.97900 41.22200 41.21100
C  -13.22500 42.59800 41.34800
C  -14.70800 42.91300 41.65400
C  -15.29000 41.45900 41.83800
C  -14.16900 40.54800 41.36800
C  -14.82000 43.83300 42.92000
C  -16.67700 41.27600 41.04500
C  -17.86600 40.74300 41.87900
N  -12.01400 38.56800 41.00000
C  -13.34500 38.17700 41.22400
C  -13.47600 36.74000 41.21600
C  -12.19300 36.30200 40.79700
C  -11.38100 37.41300 40.67400
C  -14.80900 35.92700 41.48500
C  -11.42400 35.15800 40.49000
O  -11.71200 33.95300 40.53000
C  -10.10600 35.68500 40.00700
C  -9.11400 34.86400 40.96000
O  -8.85700 35.03400 42.14400
O  -8.59400 33.82600 40.19200
C  -7.84600 32.86300 40.95600
H  -6.97400 41.72200 39.82200
H  -12.92200 44.52400 40.92900
H  -15.38300 38.87500 41.65800
H  -7.36100 37.02900 39.98400
H  -6.77100 39.40200 38.46400
H  -5.96000 39.89200 41.28000
H  -4.87300 39.46900 40.00000
H  -5.61700 38.19100 40.91800
H  -7.16200 37.97400 37.19700
H  -8.75000 37.26200 37.50200
H  -7.88300 35.07300 37.43800
H  -6.44000 35.65500 38.35400
H  -7.27700 44.93100 38.79600
H  -6.47800 43.89500 40.06500
H  -7.29300 45.53000 40.39100
H  -12.02500 46.48400 41.17000
H  -12.17300 46.74100 39.34300
H  -11.26200 47.79200 40.45800
H  -14.97400 43.39400 40.71200
H  -15.40000 41.07900 42.85300
H  -15.11200 43.36000 43.85700
H  -15.42900 44.72100 42.75100
H  -13.83100 44.26900 43.06400
H  -16.50500 40.61900 40.19300
H  -16.93900 42.20100 40.53100
H  -17.61200 40.17100 42.77100
H  -18.47700 40.19500 41.16100
H  -18.55000 41.54600 42.15200
H  -14.59600 34.91200 41.81900
H  -15.26800 35.65200 40.53600
H  -15.53800 36.40500 42.13900
H  -10.00500 35.36800 38.96900
H  -8.41900 32.57200 41.83600
H  -6.87800 33.25400 41.27000
H  -7.64500 32.00800 40.31000

