158

Mg 35.36600 2.12700 30.22600
C  33.12400 3.25500 32.64500
C  37.91900 2.15900 32.44600
C  37.51000 1.21100 27.69200
C  32.99700 2.71400 27.84700
N  35.47000 2.73300 32.24500
C  34.43200 3.05900 33.11600
C  34.83300 2.84000 34.55400
C  36.38200 2.91900 34.41400
C  36.66600 2.62400 32.90100
C  37.04100 4.30900 34.82400
C  34.23100 1.48600 35.10700
C  33.81700 1.55800 36.58400
H  34.61300 2.48400 37.57300
N  37.38600 1.61500 30.08100
C  38.24500 1.67600 31.12100
C  39.56600 1.20700 30.81600
C  39.49400 1.00000 29.41600
C  38.10100 1.23600 28.99700
C  40.69900 1.05200 31.83800
C  40.61500 0.68700 28.44000
O  40.41700 0.54900 27.24200
C  42.01300 0.45400 29.00900
N  35.35400 1.98100 28.06900
C  36.32700 1.61400 27.19600
C  35.84900 1.49000 25.72500
C  34.36700 1.97500 25.81600
C  34.22000 2.29100 27.32400
C  36.63300 2.43100 24.78500
C  33.33500 0.85600 25.34100
C  33.16700 0.54700 23.81600
N  33.48800 2.78400 30.14800
C  32.66800 3.03500 29.11200
C  31.32400 3.26600 29.61000
C  31.42500 3.39400 31.01500
C  32.80900 3.12400 31.28400
C  30.11000 3.49500 28.79200
C  30.67200 3.70200 32.27000
O  29.52600 4.07300 32.51600
C  31.85100 3.66200 33.36200
C  31.89100 4.92800 34.09200
O  32.23300 6.04300 33.74700
O  31.56500 4.48300 35.39300
C  32.04700 5.47800 36.36900
H  38.67300 2.33800 33.21500
H  38.06700 0.96400 26.78600
H  32.19300 2.79400 27.11200
H  34.54300 3.72900 35.11400
H  36.83000 2.17400 35.07200
H  36.33200 5.03200 35.22600
H  37.55800 4.76600 33.98000
H  37.66700 3.99500 35.65900
H  34.88900 0.61700 35.08400
H  33.39000 1.21900 34.46800
H  33.77900 0.57200 37.04700
H  32.75400 1.79500 36.54900
H  40.78400 -0.02400 31.98900
H  40.43000 1.61000 32.73400
H  41.48800 1.51200 31.24300
H  42.11500 -0.11900 29.93100
H  42.53400 1.40300 29.13700
H  42.51500 -0.11800 28.22800
H  35.79200 0.43800 25.44800
H  34.18300 2.89300 25.25700
H  37.34300 3.04200 25.34200
H  35.97500 3.00000 24.12800
H  37.23800 1.86200 24.07900
H  32.35300 0.97800 25.79800
H  33.67100 -0.12800 25.66600
H  33.76700 -0.33400 23.58800
H  33.61300 1.37700 23.26700
H  32.11800 0.32700 23.62100
H  29.39000 3.92100 29.49100
H  29.73100 2.57400 28.34900
H  30.37600 4.11700 27.93800
H  31.56100 2.80500 33.96900
H  32.03300 4.96200 37.32900
H  31.39900 6.35400 36.34600
H  33.08900 5.76500 36.22900
Mg 9.35400 47.69600 26.23500
C  7.51800 47.75700 29.27100
C  11.88600 49.24900 28.01900
C  11.05000 48.00700 23.43400
C  6.50100 46.91500 24.59300
N  9.75100 48.18500 28.53900
C  8.86900 48.09400 29.52200
C  9.47500 48.47900 30.84000
C  10.78000 49.26700 30.41500
C  10.80800 48.95600 28.86900
C  10.78700 50.81600 30.74400
C  9.78200 47.29100 31.79100
C  9.29300 47.40500 33.26100
H  9.29300 46.01400 34.02600
N  11.22400 48.35300 25.77100
C  12.18900 48.82400 26.68200
C  13.49900 48.72300 26.06300
C  13.23200 48.28300 24.71800
C  11.79600 48.23900 24.56300
C  14.78700 49.10400 26.81100
C  14.20200 47.90700 23.68000
O  14.00500 47.61600 22.48600
C  15.70200 47.78300 24.16400
N  8.78000 47.78200 24.32500
C  9.70300 47.85200 23.35300
C  9.01100 47.68700 22.00500
C  7.47200 47.59300 22.38300
C  7.61700 47.29000 23.85400
C  9.27700 48.78000 20.89400
C  6.77500 46.46300 21.61200
C  7.05800 46.27300 20.10400
N  7.33000 47.30000 26.79500
C  6.29100 47.02300 26.00200
C  5.12900 46.99400 26.82300
C  5.55600 47.23900 28.11600
C  6.95700 47.37900 28.07800
C  3.69300 47.03300 26.43200
C  5.09800 47.32700 29.46900
O  3.96800 47.28400 29.97300
C  6.40900 47.54400 30.32700
C  6.58000 46.35800 31.11900
O  7.15500 45.31200 30.79800
O  5.97800 46.58000 32.33100
C  6.07900 45.51400 33.38200
H  12.67000 49.76700 28.57500
H  11.58900 48.09100 22.48800
H  5.63700 46.73400 23.95100
H  8.87700 49.21100 31.38300
H  11.72400 48.89100 30.80800
H  9.76200 51.15600 30.89400
H  11.24600 51.23600 29.84900
H  11.34100 51.03900 31.65500
H  10.86200 47.14300 31.77600
H  9.40700 46.35500 31.37800
H  8.29600 47.84400 33.31000
H  10.04200 47.94400 33.84200
H  15.47500 48.26400 26.91300
H  14.49800 49.44900 27.80400
H  15.26300 49.85100 26.17600
H  15.90700 47.25100 25.09300
H  16.12600 48.78700 24.14700
H  16.37900 47.29600 23.46100
H  9.24700 46.67300 21.68300
H  7.06200 48.58900 22.21900
H  8.39600 49.12300 20.35100
H  10.09900 48.39700 20.28900
H  9.79900 49.62100 21.35000
H  5.70600 46.67100 21.65800
H  6.85400 45.52500 22.16100
H  6.32000 45.61400 19.64700
H  8.09700 46.00300 19.91200
H  6.87400 47.20000 19.56100
H  3.61700 47.22700 25.36200
H  3.21400 47.71500 27.13500
H  3.29000 46.05700 26.70400
H  6.31500 48.45900 30.91200
H  6.33000 46.05700 34.29400
H  6.83300 44.79400 33.06200
H  5.10400 45.02800 33.41100

