158

Mg -1.16000 17.45600 25.93200
C  -1.67900 15.04600 28.54900
C  -1.48800 19.96100 28.23100
C  -1.06900 19.51600 23.43300
C  -1.47400 14.68400 23.67000
N  -1.59000 17.46900 28.13100
C  -1.56700 16.39100 28.97500
C  -1.45600 16.91000 30.41500
C  -1.88200 18.37600 30.29000
C  -1.61200 18.64800 28.83000
C  -3.38700 18.60100 30.69000
C  -0.09200 16.65800 31.12500
C  -0.03800 15.83400 32.40600
H  0.81500 16.09500 33.63200
N  -1.24400 19.49700 25.82300
C  -1.36300 20.33100 26.89600
C  -1.39000 21.74400 26.32700
C  -1.13700 21.60000 24.92900
C  -1.27600 20.16700 24.65400
C  -1.68900 22.93500 27.10800
C  -1.03500 22.65600 23.89900
O  -1.21500 22.43800 22.70300
C  -0.80600 24.06300 24.32000
N  -1.42700 17.19500 23.83000
C  -1.22500 18.14300 23.01200
C  -1.40500 17.79300 21.55100
C  -1.17900 16.21500 21.61800
C  -1.33800 15.97100 23.10200
C  -2.78100 18.21200 20.90400
C  0.08200 15.77100 20.84600
C  1.43400 16.38800 21.26900
N  -1.35000 15.31900 26.05000
C  -1.55100 14.35300 25.02400
C  -1.66500 13.07900 25.63500
C  -1.77500 13.29900 26.96400
C  -1.56700 14.67800 27.21100
C  -1.79100 11.80100 24.87500
C  -1.93800 12.67600 28.29400
O  -2.00700 11.52000 28.57100
C  -2.00700 13.80100 29.32100
C  -1.04600 13.38600 30.40900
O  0.16700 13.29700 30.36600
O  -1.78300 13.10800 31.45600
C  -1.19500 12.43700 32.60900
H  -1.59700 20.74900 28.97800
H  -0.82900 20.20600 22.62100
H  -1.41500 13.85200 22.96500
H  -2.27300 16.38300 30.90900
H  -1.28400 19.04100 30.91300
H  -3.46700 19.15300 31.62700
H  -3.93200 17.67100 30.85700
H  -3.93100 19.04400 29.85600
H  0.42900 17.58800 31.35500
H  0.52400 16.12700 30.39900
H  0.24400 14.80200 32.19800
H  -1.01100 15.97300 32.87700
H  -2.53200 23.37800 26.57800
H  -0.83800 23.61200 27.03100
H  -2.05400 22.74700 28.11800
H  -1.64800 24.47800 24.87400
H  -0.49300 24.74000 23.52500
H  0.08000 24.09600 24.95300
H  -0.72500 18.30800 20.87200
H  -2.08800 15.68300 21.34000
H  -3.18700 18.70400 21.78800
H  -3.44400 17.43800 20.51600
H  -2.57300 18.98600 20.16600
H  -0.08000 16.08100 19.81400
H  0.13900 14.68300 20.83700
H  1.80900 16.88200 20.37200
H  2.12900 15.74300 21.80600
H  1.16700 17.16200 21.98900
H  -1.06100 11.12600 25.32200
H  -1.74400 11.83800 23.78700
H  -2.75500 11.33100 25.07100
H  -3.02800 13.76700 29.70100
H  -1.03300 11.42300 32.24200
H  -1.88400 12.57800 33.44200
H  -0.26800 12.92100 32.91600
Mg 1.77300 8.12400 25.29700
C  2.44700 9.93400 28.10800
C  1.66900 5.32300 27.05800
C  1.58800 6.48800 22.38600
C  1.75800 11.20300 23.37600
N  2.21900 7.66200 27.35400
C  2.25000 8.54500 28.38900
C  2.15000 7.90500 29.80200
C  2.08100 6.40800 29.34300
C  1.98000 6.43800 27.81600
C  3.22300 5.51100 29.83500
C  0.83200 8.36000 30.63100
C  0.93400 8.42500 32.21400
H  2.02400 7.59000 32.86800
N  1.63400 6.17800 24.77300
C  1.52800 5.17300 25.66900
C  1.26300 3.91700 24.92800
C  1.30800 4.22400 23.58600
C  1.58600 5.70000 23.54900
C  0.90400 2.60800 25.66300
C  1.00700 3.39600 22.41100
O  0.85700 3.80200 21.22200
C  0.94600 1.87200 22.55800
N  1.71300 8.75800 23.16100
C  1.65300 7.83500 22.18800
C  1.52400 8.49100 20.78600
C  1.36600 9.97900 21.15200
C  1.65900 10.00600 22.65400
C  2.74400 8.19000 19.86100
C  -0.05200 10.60500 20.81900
C  0.02300 11.50500 19.58400
N  1.97900 10.18900 25.59100
C  2.03400 11.31500 24.72400
C  2.22100 12.51600 25.57800
C  2.43100 11.99400 26.86100
C  2.32400 10.59300 26.85400
C  2.18500 13.94200 25.06900
C  2.73000 12.36600 28.27700
O  3.01800 13.44800 28.76000
C  2.72400 11.00700 29.10600
C  3.92500 10.91100 29.94500
O  4.99900 10.42500 29.54800
O  3.67500 11.32900 31.27000
C  4.86400 11.47500 32.15600
H  1.61900 4.40400 27.64600
H  1.64400 5.91800 21.45600
H  1.84300 12.15300 22.84400
H  3.04500 8.03100 30.41200
H  1.15900 5.96500 29.71900
H  2.98300 4.54500 30.28000
H  3.75300 6.02500 30.63600
H  3.93700 5.44000 29.01400
H  -0.00000 7.67900 30.45300
H  0.50300 9.29500 30.17800
H  -0.02500 8.07400 32.59400
H  1.15500 9.46700 32.44500
H  -0.14400 2.44300 25.41000
H  0.76300 2.63700 26.74400
H  1.54000 1.80700 25.28800
H  1.77400 1.37400 23.06400
H  0.91400 1.34200 21.60700
H  0.05400 1.53200 23.08400
H  0.64800 8.11400 20.25800
H  2.17900 10.55500 20.71100
H  2.58000 7.35400 19.18100
H  3.64700 8.03300 20.45100
H  2.88900 9.02000 19.16900
H  -0.29000 11.20500 21.69700
H  -0.87000 9.92700 20.57600
H  0.89700 11.42800 18.93700
H  0.02800 12.49500 20.03900
H  -0.88800 11.48000 18.98600
H  1.49700 13.97600 24.22500
H  3.16900 14.22200 24.69200
H  1.80400 14.64600 25.81000
H  1.78400 11.10900 29.64900
H  4.69200 12.32600 32.81400
H  5.81800 11.58000 31.63900
H  4.92900 10.55000 32.73000

