158

Mg 1.45100 8.60200 27.23700
C  2.15400 10.60400 30.11500
C  1.40200 5.81700 29.17000
C  1.09600 6.94500 24.39800
C  1.96700 11.51400 25.36800
N  1.82600 8.21000 29.46700
C  1.90600 9.22500 30.46800
C  1.76700 8.53600 31.82400
C  1.78200 6.95600 31.45900
C  1.71400 6.94700 29.92600
C  2.92400 6.08500 32.05900
C  0.43600 9.00100 32.57700
C  0.34600 8.98000 34.06900
H  1.45200 8.31800 34.94400
N  1.11900 6.63700 26.84500
C  1.09900 5.60600 27.77200
C  0.68900 4.42800 27.10100
C  0.58900 4.71600 25.70600
C  0.99800 6.14000 25.57200
C  0.51900 3.09300 27.85200
C  0.07300 3.82400 24.61100
O  0.08300 4.30300 23.46000
C  -0.70100 2.47700 24.80000
N  1.60800 9.15100 25.23200
C  1.44200 8.25800 24.18500
C  1.74900 8.95000 22.85200
C  1.41100 10.44600 23.19400
C  1.67900 10.37400 24.67700
C  3.15000 8.82300 22.25800
C  -0.08400 10.71100 23.08800
C  -0.61900 12.02200 22.54100
N  2.09400 10.60800 27.62800
C  2.25200 11.62700 26.74600
C  2.63500 12.87800 27.42100
C  2.57800 12.49100 28.77700
C  2.24200 11.15100 28.82100
C  2.72800 14.27400 26.81200
C  2.74500 12.99900 30.08800
O  2.91700 14.16400 30.45300
C  2.42000 11.76000 31.01500
C  3.63200 11.57500 31.87400
O  4.67400 11.04500 31.61200
O  3.29000 12.03100 33.14300
C  4.13900 11.80200 34.30600
H  1.39200 4.86800 29.71100
H  0.78800 6.46500 23.46700
H  1.94000 12.41200 24.74700
H  2.49500 8.88200 32.55900
H  0.83900 6.54500 31.82000
H  2.46400 5.19900 32.49700
H  3.55300 6.51200 32.83900
H  3.66100 5.77100 31.32100
H  -0.30900 8.34100 32.13500
H  0.02700 9.89000 32.09900
H  -0.54900 8.46300 34.41600
H  0.17800 10.01500 34.36700
H  1.13400 3.08600 28.75200
H  0.83600 2.30100 27.17300
H  -0.55600 2.95600 27.96800
H  -0.03100 1.75800 25.27200
H  -0.92500 2.15800 23.78200
H  -1.58100 2.82200 25.34400
H  1.04100 8.61000 22.09700
H  1.97000 11.25300 22.72200
H  3.37500 9.73100 21.69800
H  3.17300 8.02600 21.51500
H  3.86800 8.73000 23.07300
H  -0.52600 10.44300 24.04800
H  -0.53700 9.94400 22.46100
H  -0.28000 12.88400 23.11700
H  -1.70700 11.97800 22.58100
H  -0.41400 12.12400 21.47500
H  1.74300 14.68600 26.59400
H  3.31600 14.12200 25.90700
H  3.09300 15.08000 27.44800
H  1.52100 12.05700 31.55500
H  3.43500 11.40700 35.03900
H  4.54400 12.68800 34.79400
H  4.94000 11.09500 34.09100
Mg -0.18800 44.20100 24.98700
C  1.71900 44.45000 28.06600
C  -2.85200 43.24900 26.77200
C  -1.84500 43.45500 22.07800
C  2.77200 44.35200 23.26000
N  -0.43900 43.81600 27.21600
C  0.35500 44.17000 28.33700
C  -0.42500 43.90200 29.61200
C  -1.90700 43.52400 29.12500
C  -1.69400 43.49300 27.59000
C  -2.54100 42.25200 29.82000
C  -0.43800 45.18500 30.49600
C  0.07400 44.88100 31.95900
H  -0.22700 43.41700 32.51700
N  -2.18800 43.57700 24.48600
C  -3.08900 43.23600 25.42700
C  -4.34900 42.91800 24.76000
C  -4.14600 43.12200 23.34900
C  -2.68500 43.32200 23.21700
C  -5.57000 42.41700 25.65500
C  -5.11800 43.06600 22.16300
O  -4.76000 43.30800 21.02300
C  -6.66100 42.97400 22.58100
N  0.38600 44.02500 23.02500
C  -0.46800 43.76700 22.01100
C  0.23500 43.81900 20.66100
C  1.57800 44.38500 21.06000
C  1.54000 44.27400 22.50800
C  0.31000 42.42300 20.04100
C  1.86300 45.89700 20.52000
C  1.66800 47.03000 21.45500
N  1.81800 44.40900 25.46600
C  2.93400 44.45800 24.65400
C  4.12100 44.63800 25.45000
C  3.68500 44.62400 26.81400
C  2.29400 44.52400 26.81500
C  5.51900 44.88100 25.02600
C  4.14600 44.68900 28.23900
O  5.27700 44.78100 28.68100
C  2.81700 44.70300 29.06300
C  2.90700 43.68200 30.20500
O  2.42400 42.55000 30.16500
O  3.69900 44.17300 31.18700
C  4.05300 43.13100 32.15000
H  -3.74000 43.04300 27.37300
H  -2.44200 43.46300 21.16400
H  3.68500 44.37500 22.66200
H  0.11400 43.08700 30.09600
H  -2.56900 44.36700 29.32100
H  -3.49000 42.58300 30.24300
H  -1.79200 41.79400 30.46700
H  -2.62900 41.56200 28.98100
H  -1.47600 45.50700 30.58700
H  0.24700 45.97300 30.18300
H  -0.24700 45.67000 32.63900
H  1.16000 44.89200 31.87000
H  -6.11000 41.63400 25.12200
H  -6.25400 43.24500 25.83800
H  -5.19800 41.92200 26.55200
H  -6.98800 41.95300 22.78200
H  -7.25700 43.38200 21.76600
H  -7.00900 43.46500 23.49000
H  -0.30200 44.52100 20.02300
H  2.36400 43.67700 20.79700
H  1.23100 42.42100 19.45800
H  -0.50300 42.13500 19.37400
H  0.28500 41.72200 20.87600
H  1.21800 46.10300 19.66500
H  2.81600 46.10400 20.03400
H  1.03800 47.81300 21.03400
H  2.62800 47.48500 21.70200
H  1.07300 46.76900 22.33000
H  5.74300 45.16200 23.99700
H  6.07900 43.97600 25.25900
H  5.74700 45.74600 25.64900
H  2.70700 45.62400 29.63400
H  4.96300 42.61200 31.84900
H  3.31500 42.33000 32.20600
H  4.25000 43.54800 33.13700

