158

Mg -2.23500 16.36500 26.60500
C  -2.52900 13.76900 29.08300
C  -2.80400 18.65600 28.91200
C  -2.71100 18.58400 24.14800
C  -2.50600 13.66000 24.27200
N  -2.64200 16.16100 28.75400
C  -2.69800 15.10600 29.60500
C  -2.96500 15.55300 31.08200
C  -3.00200 17.11700 30.99300
C  -2.84600 17.38000 29.42900
C  -4.28000 17.85800 31.58800
C  -2.01500 14.90000 32.17700
C  -1.56500 15.76800 33.33300
H  -0.75400 15.16100 34.49300
N  -2.47000 18.34300 26.51900
C  -2.64500 19.14200 27.61200
C  -2.70000 20.56100 27.16600
C  -2.62600 20.57600 25.76000
C  -2.57500 19.11300 25.37600
C  -2.85400 21.66600 28.09800
C  -2.44600 21.76000 24.77800
O  -2.25300 21.60400 23.59800
C  -2.48300 23.13500 25.34200
N  -2.70700 16.12200 24.56100
C  -2.85700 17.23800 23.74000
C  -3.20100 16.87700 22.28900
C  -2.95900 15.29400 22.29900
C  -2.73500 14.99000 23.80400
C  -4.62800 17.43100 21.91200
C  -1.97200 14.75300 21.28600
C  -0.51100 15.13000 21.49200
N  -2.28400 14.13500 26.61400
C  -2.38600 13.24100 25.59900
C  -2.38200 11.89400 26.13200
C  -2.41200 12.05200 27.52600
C  -2.44300 13.46900 27.74300
C  -2.70400 10.66900 25.37500
C  -2.57900 11.35800 28.73700
O  -2.71400 10.15900 28.96100
C  -2.74500 12.44000 29.76500
C  -1.84400 12.04800 30.95500
O  -0.58600 12.06300 30.99200
O  -2.69300 11.65500 31.91900
C  -2.07600 11.22600 33.25800
H  -2.79600 19.43400 29.67800
H  -2.93200 19.34500 23.39700
H  -2.58100 12.93700 23.45700
H  -3.95300 15.15400 31.31300
H  -2.14200 17.58300 31.47500
H  -5.01100 17.14400 31.96800
H  -4.76600 18.54000 30.89000
H  -4.00500 18.46100 32.45300
H  -1.14800 14.40100 31.74400
H  -2.63400 14.15900 32.68300
H  -2.43300 16.20900 33.82200
H  -0.91800 16.53100 32.90000
H  -3.83500 22.02300 27.78600
H  -1.99500 22.28000 27.82600
H  -2.71700 21.40100 29.14700
H  -3.38200 23.34100 25.92200
H  -2.54900 23.83100 24.50500
H  -1.63900 23.15300 26.03100
H  -2.52900 17.31500 21.55000
H  -3.90600 14.80700 22.06700
H  -5.05900 17.68900 22.88000
H  -5.22600 16.62200 21.49200
H  -4.60300 18.30200 21.25700
H  -2.33100 15.19000 20.35400
H  -2.04100 13.66600 21.31600
H  -0.17300 15.75500 20.66600
H  -0.01000 14.18400 21.69800
H  -0.45900 15.70600 22.41600
H  -3.24100 10.83000 24.44000
H  -3.32100 10.08500 26.05700
H  -1.75800 10.19000 25.12400
H  -3.79700 12.41500 30.04800
H  -2.01100 10.13900 33.29300
H  -2.73200 11.57200 34.05700
H  -1.13000 11.74000 33.43000
Mg -10.09900 39.34100 42.59800
C  -8.72000 36.38600 41.52600
C  -7.33100 41.03100 41.28600
C  -11.68700 42.43300 43.14700
C  -13.08000 37.75600 43.42400
N  -8.22400 38.70400 41.36500
C  -7.82800 37.41800 41.24100
C  -6.38200 37.36200 40.68600
C  -5.96800 38.87700 40.85600
C  -7.20600 39.63100 41.21600
C  -4.86600 39.19800 41.93800
C  -6.45400 36.87200 39.15900
C  -5.60400 35.71000 38.89900
H  -4.86500 35.61100 37.57300
N  -9.68600 41.35100 42.23000
C  -8.46700 41.78700 41.72600
C  -8.46700 43.25300 41.64500
C  -9.70700 43.68100 42.20700
C  -10.43600 42.47900 42.56600
C  -7.40400 44.24100 41.03000
C  -10.13100 45.14000 42.22200
O  -9.28700 46.06400 42.06000
C  -11.54200 45.61700 42.34400
N  -12.01900 39.98200 43.30500
C  -12.41700 41.29400 43.45100
C  -13.99100 41.48200 43.77600
C  -14.36400 39.90900 43.98200
C  -13.13400 39.15200 43.46700
C  -14.27000 42.48800 44.95500
C  -15.67600 39.51400 43.35500
C  -16.82800 39.18600 44.33800
N  -10.76600 37.49900 42.60000
C  -11.96100 36.97900 43.06900
C  -11.94600 35.51000 42.85700
C  -10.69700 35.27000 42.23300
C  -10.02400 36.49100 42.13000
C  -13.07600 34.65200 43.13800
C  -9.88000 34.18300 41.77500
O  -10.12000 32.96500 41.73800
C  -8.45700 34.91400 41.36900
C  -7.41600 34.45500 42.31700
O  -7.43000 34.56800 43.54200
O  -6.48800 33.77400 41.60700
C  -5.62100 32.83500 42.36900
H  -6.40600 41.57400 41.07900
H  -12.16300 43.38400 43.39500
H  -13.98000 37.19100 43.67600
H  -5.68000 36.72300 41.22300
H  -5.68900 39.16800 39.84300
H  -4.07800 39.81300 41.50100
H  -4.48100 38.28600 42.39300
H  -5.28400 39.74700 42.78200
H  -5.98200 37.71100 38.64700
H  -7.47700 36.80800 38.78800
H  -6.14900 34.81000 39.18500
H  -4.73500 35.79500 39.55200
H  -6.91200 44.92400 41.72300
H  -7.88900 44.92900 40.33800
H  -6.65200 43.63600 40.52300
H  -11.75400 46.13200 43.28100
H  -12.39900 44.95700 42.20500
H  -11.64700 46.57800 41.84100
H  -14.34000 41.87600 42.82100
H  -14.33200 39.75800 45.06100
H  -13.30900 42.62600 45.44900
H  -15.00800 42.00000 45.59200
H  -14.54300 43.43500 44.49000
H  -15.61900 38.59500 42.77100
H  -15.95400 40.29300 42.64500
H  -17.74800 39.69600 44.05100
H  -16.62300 39.53500 45.35000
H  -17.05700 38.12100 44.28900
H  -13.82100 34.81000 42.35800
H  -13.58000 34.88300 44.07600
H  -12.84400 33.59600 43.00000
H  -8.12700 34.76700 40.34100
H  -5.26100 33.24000 43.31400
H  -4.69500 32.74200 41.80100
H  -6.14100 31.89000 42.52600

