158

Mg 1.14200 7.74900 26.76400
C  1.65200 9.81700 29.67700
C  1.40000 5.02900 28.85200
C  1.42500 5.77700 24.10100
C  1.16400 10.55600 24.78700
N  1.45400 7.50200 29.00100
C  1.49600 8.48200 30.03900
C  1.38400 7.83700 31.45300
C  1.57400 6.35200 31.08800
C  1.50300 6.27100 29.55800
C  2.81700 5.61500 31.67100
C  0.03600 8.23100 32.18800
C  0.14600 8.41700 33.69600
H  1.34600 7.80100 34.52700
N  1.18300 5.70700 26.50800
C  1.30400 4.76000 27.47100
C  1.43200 3.42300 26.85100
C  1.32100 3.62300 25.46300
C  1.25900 5.04400 25.25600
C  1.72200 2.09900 27.56900
C  1.20000 2.53500 24.36700
O  0.98900 2.88800 23.21800
C  1.14500 1.05000 24.59500
N  1.09800 8.12600 24.69600
C  1.26300 7.12800 23.81900
C  1.39600 7.72800 22.40300
C  0.84100 9.23600 22.51900
C  1.06300 9.37600 24.05700
C  2.72400 7.48900 21.64800
C  -0.69400 9.37100 22.30000
C  -1.14700 10.49200 21.31800
N  1.41700 9.78700 27.08800
C  1.40900 10.85000 26.14400
C  1.68300 12.09100 26.86200
C  1.74100 11.72000 28.20900
C  1.57000 10.31100 28.34600
C  1.86600 13.46700 26.26100
C  2.08900 12.25300 29.53500
O  2.55600 13.36600 29.83900
C  1.87000 11.03400 30.55300
C  3.00200 11.00700 31.47500
O  3.96300 10.22700 31.31400
O  2.83500 11.89300 32.48000
C  3.73900 11.62400 33.63200
H  1.51700 4.18200 29.53200
H  1.53000 5.21700 23.17000
H  1.15500 11.52000 24.27400
H  2.21300 8.32500 31.96500
H  0.72700 5.84000 31.54500
H  2.34700 4.82700 32.26000
H  3.35300 6.39700 32.20900
H  3.36600 5.13600 30.86100
H  -0.59400 7.34900 32.07100
H  -0.37600 9.15100 31.77600
H  -0.72700 8.16700 34.29900
H  0.25300 9.48800 33.86600
H  0.76200 1.72100 27.92100
H  2.18800 2.29800 28.53400
H  2.41100 1.47200 27.00500
H  2.15200 0.67800 24.78400
H  0.79600 0.46700 23.74300
H  0.54200 0.88900 25.48800
H  0.69600 7.23700 21.72800
H  1.43700 9.92200 21.91700
H  3.16700 8.30000 21.07100
H  2.60000 6.64100 20.97300
H  3.46000 7.04600 22.31900
H  -1.25500 9.58200 23.21000
H  -1.11500 8.45300 21.88900
H  -2.06100 10.22600 20.78600
H  -0.39300 10.74500 20.57300
H  -1.37600 11.40000 21.87500
H  1.63100 13.33800 25.20400
H  2.87300 13.86900 26.37600
H  1.15200 14.13200 26.74600
H  0.86800 11.14900 30.96800
H  3.35200 12.40000 34.29300
H  4.74300 11.86600 33.28200
H  3.73400 10.57400 33.92200
Mg 26.72700 50.31600 26.42400
C  24.85200 51.69100 29.06800
C  29.19800 49.41500 28.79000
C  28.53300 49.01800 23.96700
C  24.43000 51.69300 24.29500
N  26.99400 50.57000 28.64600
C  26.04700 51.04500 29.51400
C  26.54700 50.90300 31.02500
C  27.97600 50.29500 30.86400
C  28.07700 50.07900 29.33100
C  29.14600 50.97900 31.54100
C  25.51900 50.19100 31.78800
C  25.62100 50.09700 33.28600
H  26.47100 51.06700 34.12600
N  28.63100 49.42700 26.37400
C  29.39700 49.13100 27.41000
C  30.57500 48.34600 26.99600
C  30.44400 48.16900 25.56300
C  29.15900 48.81400 25.25400
C  31.83900 48.01600 27.87000
C  31.31900 47.54300 24.53100
O  31.10700 47.57800 23.35900
C  32.53600 46.85900 24.92700
N  26.55200 50.39200 24.44200
C  27.36000 49.68100 23.59100
C  26.77700 49.76200 22.13700
C  25.32100 50.32100 22.28600
C  25.42700 50.86500 23.74600
C  27.73400 50.61000 21.24100
C  24.22300 49.31200 22.21200
C  22.90200 49.75200 21.78900
N  24.92100 51.46700 26.56500
C  24.15200 52.01400 25.62200
C  23.10600 52.82200 26.15800
C  23.35000 52.77300 27.56300
C  24.46400 51.88300 27.73100
C  22.21500 53.68600 25.37000
C  22.83200 53.18500 28.83700
O  21.87800 53.93100 29.04500
C  23.80100 52.48900 29.90000
C  24.42600 53.55600 30.72500
O  25.51900 54.05100 30.49700
O  23.63400 53.78600 31.82800
C  24.30100 54.52100 32.92000
H  29.88800 49.10000 29.57600
H  29.03700 48.47900 23.16300
H  23.64700 51.98300 23.59000
H  26.59200 51.92500 31.40200
H  27.90400 49.28900 31.27700
H  28.76400 51.84500 32.08300
H  29.79500 51.26200 30.71200
H  29.55700 50.16700 32.14100
H  25.45400 49.22600 31.28600
H  24.66500 50.85300 31.64500
H  26.08200 49.18400 33.66400
H  24.61200 50.15900 33.69500
H  31.92200 46.97500 28.18100
H  31.91400 48.65900 28.74700
H  32.66700 48.33800 27.23900
H  32.48700 46.30300 25.86400
H  33.27800 47.64700 24.80800
H  32.60200 46.15600 24.09700
H  26.72900 48.73800 21.76800
H  25.22200 51.17100 21.61100
H  28.07300 50.09900 20.34000
H  28.70000 50.80800 21.70500
H  27.22400 51.53000 20.95600
H  24.00300 48.85200 23.17500
H  24.55300 48.46500 21.61200
H  22.69900 50.81500 21.66000
H  22.25800 49.43800 22.61000
H  22.54300 49.42200 20.81400
H  22.65400 54.09100 24.45900
H  21.88900 54.43200 26.09500
H  21.35000 53.06600 25.13600
H  23.18100 51.96200 30.62600
H  23.56500 55.05900 33.51700
H  25.11600 55.20300 32.68000
H  24.64200 53.68400 33.52900

