158

Mg 1.76300 -0.95800 43.97700
C  5.07400 -0.39900 43.12500
C  1.00000 2.00300 42.46300
C  -1.51300 -1.90000 44.08700
C  2.72000 -4.16900 44.87800
N  2.94000 0.50800 42.89500
C  4.24000 0.60700 42.60400
C  4.71600 1.85200 41.88100
C  3.41500 2.66900 42.00100
C  2.41300 1.69000 42.55800
C  3.51800 4.01100 42.74500
C  5.25200 1.54100 40.38400
C  6.47400 2.44200 40.03500
H  6.28500 3.38900 38.87700
N  0.01400 -0.12000 43.34800
C  -0.11800 1.15900 42.77600
C  -1.46200 1.53000 42.61400
C  -2.19000 0.42700 43.09200
C  -1.22500 -0.61500 43.51600
C  -1.96300 2.81600 41.93000
C  -3.71500 0.39100 43.13400
O  -4.43900 1.34900 42.82300
C  -4.50500 -0.86200 43.52600
N  0.77600 -2.76200 44.48000
C  -0.55700 -2.86900 44.49600
C  -1.03200 -4.31400 44.95600
C  0.26800 -5.04500 45.08900
C  1.31100 -3.98700 44.73300
C  -1.92900 -4.29700 46.26000
C  0.30400 -6.39000 44.18600
C  0.60000 -7.68100 44.98900
N  3.57500 -2.04300 44.17800
C  3.75000 -3.30400 44.69000
C  5.17200 -3.62500 44.68000
C  5.76400 -2.48500 44.10700
C  4.74200 -1.60000 43.74700
C  5.83100 -4.99400 45.18500
C  7.00700 -1.86400 43.71800
O  8.19100 -2.12300 43.84800
C  6.61400 -0.44900 43.00500
C  7.33300 0.50600 43.77200
O  7.05200 0.92400 44.87400
O  8.47000 0.75100 43.07100
C  9.20600 1.97900 43.48800
H  0.73500 3.02100 42.16800
H  -2.58200 -2.11600 44.03100
H  2.99000 -5.19600 45.13300
H  5.56300 2.32500 42.37800
H  2.98600 3.01300 41.06000
H  2.91900 4.04400 43.65600
H  3.08600 4.76800 42.09000
H  4.48900 4.22700 43.19000
H  4.48500 1.84300 39.67200
H  5.40700 0.46400 40.32500
H  7.34400 1.81400 39.84000
H  6.70400 3.05300 40.90700
H  -3.00500 3.03600 42.15900
H  -1.89100 2.83900 40.84300
H  -1.29600 3.59200 42.30400
H  -5.56900 -0.65000 43.41900
H  -4.31000 -0.93700 44.59600
H  -4.24700 -1.75400 42.95600
H  -1.69700 -4.70300 44.18400
H  0.35800 -5.19900 46.16400
H  -1.55100 -4.96000 47.03800
H  -2.84100 -4.77600 45.90400
H  -2.18100 -3.30100 46.62400
H  1.02500 -6.17600 43.39700
H  -0.66700 -6.54300 43.71500
H  1.43800 -8.23100 44.56300
H  -0.26300 -8.33300 45.12900
H  0.86700 -7.27500 45.96500
H  6.91400 -4.87500 45.18500
H  5.60700 -5.68200 44.37000
H  5.52700 -5.36000 46.16600
H  6.92700 -0.40900 41.96200
H  10.14100 1.66400 43.95000
H  8.68300 2.47800 44.30500
H  9.47000 2.71800 42.73200
Mg 25.68100 -0.75900 29.16400
C  27.61900 -1.12900 32.05100
C  23.02400 -0.02900 31.21000
C  23.74100 -0.83500 26.40800
C  28.44500 -1.60400 27.29300
N  25.44100 -0.45700 31.33300
C  26.37600 -0.61600 32.33100
C  25.80300 -0.27400 33.73900
C  24.32100 0.06400 33.43900
C  24.18600 -0.21200 31.90100
C  23.42800 -0.79200 34.40900
C  26.58400 0.88300 34.48100
C  27.08800 0.53500 35.91000
H  26.45200 1.29400 37.06100
N  23.73800 -0.39800 28.86900
C  22.78100 -0.04100 29.80300
C  21.52500 0.21900 29.13400
C  21.67900 0.05500 27.70900
C  23.10600 -0.47600 27.60800
C  20.26100 0.50100 29.88600
C  20.65500 0.19300 26.55900
O  20.96400 -0.01500 25.42300
C  19.29100 0.80900 26.76900
N  26.00900 -1.30300 27.16200
C  25.09500 -1.08600 26.22900
C  25.62200 -1.68300 24.93500
C  27.13700 -1.63300 25.10000
C  27.20600 -1.48000 26.62000
C  25.08900 -3.13100 24.51500
C  27.90700 -0.59000 24.32000
C  29.03800 -1.03900 23.43200
N  27.65000 -1.31700 29.53200
C  28.65900 -1.62700 28.68400
C  29.85300 -1.96700 29.45000
C  29.46300 -1.74200 30.77800
C  28.13200 -1.33100 30.77700
C  31.16600 -2.34800 29.00100
C  29.94900 -1.70900 32.16600
O  31.06000 -1.82000 32.70600
C  28.78300 -1.29300 33.03800
C  28.51800 -2.35100 34.03900
O  27.93300 -3.37100 33.76700
O  29.00400 -2.02000 35.30400
C  28.69700 -2.98200 36.39800
H  22.27400 0.31800 31.92500
H  23.12400 -1.07300 25.53900
H  29.29500 -1.79100 26.63300
H  25.94800 -1.23400 34.23600
H  24.10700 1.12200 33.59300
H  23.95900 -0.88500 35.35600
H  23.16900 -1.71800 33.89600
H  22.53500 -0.20700 34.62400
H  25.90600 1.73600 34.51300
H  27.37800 1.31900 33.87300
H  28.09400 0.94000 35.80200
H  26.96500 -0.54000 36.03900
H  20.34500 0.61300 30.96700
H  19.52700 -0.27300 29.66400
H  19.78700 1.38700 29.46300
H  19.40400 1.86100 27.03100
H  18.69000 0.26000 27.49400
H  18.76100 0.62000 25.83600
H  25.33500 -1.01700 24.12200
H  27.53000 -2.61100 24.82000
H  25.79700 -3.78900 25.02000
H  25.04900 -3.32100 23.44200
H  24.12800 -3.32200 24.99100
H  28.28000 0.08600 25.09000
H  27.20200 -0.00900 23.72600
H  29.17200 -0.49500 22.49600
H  28.81000 -2.07600 23.18500
H  29.99500 -1.14000 23.94300
H  31.62900 -3.04300 29.70200
H  31.69000 -1.39300 29.03400
H  31.21500 -2.76400 27.99500
H  29.07200 -0.38100 33.56000
H  27.88100 -2.69900 37.06400
H  29.54400 -2.93700 37.08200
H  28.60700 -4.02900 36.10600

