158

Mg -0.41900 7.28300 27.27200
C  0.57700 9.36400 29.99000
C  -0.40100 4.64500 29.33100
C  -0.62900 5.31000 24.55400
C  0.28600 10.08200 25.24400
N  0.16500 7.05000 29.37700
C  0.27500 8.03700 30.31900
C  0.07400 7.44200 31.75800
C  0.09600 5.91200 31.49500
C  -0.01900 5.82500 29.96200
C  1.31600 5.13100 32.11500
C  -1.18800 8.10500 32.37600
C  -1.10700 8.50000 33.83600
H  -0.21800 7.64100 34.80700
N  -0.62700 5.25000 27.06100
C  -0.62500 4.32300 28.00500
C  -1.04800 3.02300 27.50900
C  -1.17800 3.22300 26.04800
C  -0.73300 4.61300 25.84300
C  -1.44900 1.79100 28.36300
C  -1.52700 2.26700 25.03600
O  -1.49100 2.55900 23.82000
C  -1.98100 0.96800 25.44900
N  -0.49400 7.65600 25.12400
C  -0.52200 6.68900 24.22100
C  -0.49900 7.23100 22.77500
C  -0.37100 8.80600 23.09500
C  -0.15300 8.86900 24.59100
C  0.49200 6.70400 21.73300
C  -1.68600 9.57400 22.68600
C  -1.69700 11.11900 22.79300
N  0.20400 9.34900 27.49900
C  0.47200 10.34800 26.61200
C  0.74200 11.62200 27.25800
C  0.79500 11.21800 28.58700
C  0.52700 9.82200 28.69300
C  0.84100 12.93100 26.55800
C  1.12500 11.77800 29.94500
O  1.55200 12.88800 30.23400
C  0.84100 10.57700 30.91000
C  2.03000 10.39700 31.81900
O  3.02000 9.90400 31.35400
O  1.90900 11.00400 33.03100
C  3.03300 10.73200 33.92700
H  -0.44100 3.76300 29.97300
H  -0.88000 4.73300 23.66200
H  0.49100 10.93900 24.59900
H  0.96700 7.62200 32.35600
H  -0.75400 5.37700 31.92100
H  0.89400 4.19700 32.48600
H  1.76000 5.72200 32.91500
H  2.09500 4.84200 31.40900
H  -1.99000 7.36900 32.31700
H  -1.42600 9.03700 31.86400
H  -2.12100 8.42000 34.22900
H  -0.85500 9.56000 33.88600
H  -2.52800 1.66600 28.27600
H  -1.35700 1.91700 29.44200
H  -0.99600 0.87300 27.99000
H  -1.21500 0.31800 25.87100
H  -2.27400 0.58000 24.47400
H  -2.87200 0.99000 26.07800
H  -1.44800 6.98400 22.29900
H  0.46200 9.34600 22.64400
H  0.95200 7.58800 21.29100
H  0.01700 6.03700 21.01300
H  1.29000 6.15800 22.23600
H  -2.48100 9.40800 23.41300
H  -1.99800 9.22100 21.70300
H  -2.14200 11.51100 23.70700
H  -2.22100 11.49200 21.91300
H  -0.68100 11.43600 22.55600
H  0.23900 12.97800 25.65100
H  1.84700 13.25500 26.29000
H  0.37200 13.67200 27.20700
H  -0.00800 10.94900 31.48300
H  3.37500 11.65700 34.39200
H  3.87000 10.19900 33.47600
H  2.63000 10.07000 34.69400
Mg 46.88000 17.38200 27.70500
C  45.15800 17.24700 30.79200
C  49.55500 18.89500 29.39800
C  48.60600 17.72500 24.83600
C  44.18800 15.95300 26.15500
N  47.13300 18.15300 29.82400
C  46.41800 17.92600 30.94000
C  47.12800 18.35100 32.20400
C  48.35400 19.17100 31.64300
C  48.39200 18.74000 30.12800
C  48.09200 20.72800 31.82700
C  47.50700 17.18000 33.06600
C  47.22100 17.22800 34.60000
H  46.79700 18.64800 35.19300
N  48.69900 18.35500 27.14900
C  49.63200 18.88900 27.96500
C  50.80600 19.37600 27.17900
C  50.49200 19.02700 25.85900
C  49.22400 18.41500 25.86800
C  52.06600 19.78000 27.85400
C  51.28000 19.35000 24.49700
O  51.05200 18.87100 23.37200
C  52.36100 20.40500 24.44300
N  46.40200 17.00500 25.80500
C  47.38100 17.04600 24.79600
C  46.88300 16.36900 23.51100
C  45.61700 15.49100 24.05800
C  45.34700 16.24200 25.38000
C  46.59300 17.36500 22.34300
C  45.93700 14.01200 24.18600
C  44.75700 13.10100 24.24800
N  45.00300 16.90500 28.20200
C  44.01600 16.21500 27.54600
C  42.98400 15.74100 28.41900
C  43.44800 16.18000 29.67800
C  44.66900 16.87700 29.55300
C  41.68000 14.94300 28.13500
C  43.04600 16.02400 31.08900
O  42.10200 15.50700 31.66700
C  44.25800 16.77900 31.84100
C  43.56100 17.70000 32.77700
O  43.21200 18.81600 32.48300
O  43.23600 17.01600 33.92400
C  42.49500 17.76200 34.94700
H  50.42600 19.29500 29.92200
H  49.17400 17.65000 23.90700
H  43.34000 15.39300 25.75400
H  46.44900 19.03300 32.71600
H  49.28200 18.90100 32.14800
H  47.08300 21.12800 31.92900
H  48.61600 21.13500 30.96200
H  48.60200 21.08800 32.72000
H  48.54800 16.87200 32.96900
H  46.89000 16.34300 32.74200
H  48.16800 16.93400 35.05200
H  46.40900 16.52500 34.78600
H  52.11200 20.77300 28.30100
H  53.01400 19.72200 27.32000
H  52.33600 19.03500 28.60300
H  52.05900 21.41700 24.71100
H  52.66000 20.39000 23.39500
H  53.26100 20.18400 25.01700
H  47.61400 15.58700 23.30800
H  44.72400 15.69100 23.46700
H  46.48900 18.38800 22.70400
H  45.66300 17.09100 21.84500
H  47.46100 17.37600 21.68300
H  46.54900 13.88400 25.07900
H  46.54000 13.70600 23.33000
H  44.75700 12.39800 23.41500
H  43.85100 13.64900 23.98900
H  44.69700 12.59900 25.21300
H  41.71600 13.86500 27.98000
H  41.30700 15.49400 27.27100
H  41.01300 15.07500 28.98700
H  44.74100 15.93400 32.33200
H  43.23900 18.04800 35.69100
H  41.77700 17.17100 35.51700
H  42.13000 18.75600 34.69100

