158

Mg 0.60300 7.64200 26.75200
C  1.42900 9.76900 29.55300
C  0.67100 5.03100 29.04100
C  -0.23100 5.58600 24.31100
C  1.13100 10.29100 24.63200
N  1.01900 7.45400 29.06100
C  1.21700 8.42300 29.94600
C  1.11700 7.93700 31.47600
C  1.24000 6.40900 31.21500
C  0.86500 6.26300 29.69500
C  2.66100 5.77200 31.55100
C  -0.28500 8.42400 32.01900
C  -0.47700 8.33900 33.54300
H  0.60500 7.62700 34.32100
N  0.18200 5.52800 26.63200
C  0.26200 4.65500 27.67000
C  0.06100 3.29100 27.20600
C  -0.27400 3.42700 25.84400
C  -0.18700 4.85500 25.53500
C  0.09200 2.04300 28.07800
C  -0.34000 2.41200 24.71700
O  -0.52500 2.68700 23.49900
C  -0.19300 0.95200 25.15400
N  0.54900 7.89700 24.77500
C  0.09800 6.89800 23.97200
C  0.12300 7.41100 22.52000
C  0.35200 8.96900 22.58600
C  0.76200 9.13400 24.06500
C  1.04900 6.71900 21.55100
C  -0.93900 9.79500 22.22300
C  -0.78900 11.23800 21.71700
N  1.22400 9.55900 26.95200
C  1.31600 10.52500 26.02400
C  1.59500 11.76800 26.68400
C  1.67400 11.47800 28.02400
C  1.43000 10.15000 28.17600
C  1.64000 13.07200 25.95900
C  2.00900 12.05600 29.33500
O  2.44700 13.16900 29.66500
C  1.69400 10.92000 30.38700
C  2.84400 10.90600 31.31000
O  3.86500 10.28000 31.17800
O  2.59700 11.73700 32.34000
C  3.42800 11.77200 33.51500
H  0.67900 4.20000 29.74900
H  -0.60100 5.14400 23.38400
H  1.32400 11.18600 24.03700
H  2.03800 8.28500 31.94400
H  0.49400 5.94900 31.86400
H  3.35700 6.43100 32.07000
H  3.09400 5.49400 30.59000
H  2.68600 4.77700 31.99400
H  -1.06100 7.74100 31.67300
H  -0.56600 9.40200 31.62700
H  -1.42400 7.81600 33.67100
H  -0.51400 9.31900 34.01900
H  -0.83000 1.46500 28.01000
H  0.32000 2.24200 29.12500
H  0.89100 1.36900 27.76700
H  -0.92300 0.67400 25.91300
H  0.83900 0.83000 25.48200
H  -0.12400 0.23400 24.33600
H  -0.87600 7.15200 22.17100
H  1.18600 9.19900 21.92300
H  1.86800 7.34900 21.20400
H  0.57900 6.10900 20.78000
H  1.62500 5.95800 22.07800
H  -1.56100 9.82000 23.11900
H  -1.35200 9.22400 21.39200
H  -0.94600 11.28100 20.64000
H  0.24200 11.53200 21.91500
H  -1.48400 11.79600 22.34400
H  1.27400 12.96000 24.93800
H  2.63400 13.51900 25.96700
H  0.91000 13.67400 26.49900
H  0.78900 11.07400 30.97600
H  4.19500 12.51800 33.30600
H  3.80100 10.78000 33.77100
H  2.68900 12.01700 34.27800
Mg 8.33900 3.39500 27.36900
C  9.95000 1.81900 30.13500
C  6.66900 5.42400 29.49900
C  6.56400 4.44800 24.76600
C  9.80900 0.82300 25.31900
N  8.37300 3.61200 29.59600
C  9.12800 2.86900 30.51300
C  8.75700 3.38000 31.89100
C  7.54400 4.37300 31.65700
C  7.53700 4.46500 30.15400
C  6.14600 3.92700 32.07800
C  10.02400 3.98400 32.63900
C  10.40000 3.49800 34.04700
H  10.61500 4.46800 35.21000
N  6.83800 4.76900 27.15200
C  6.34300 5.51800 28.12000
C  5.35600 6.40100 27.53500
C  5.40300 6.29700 26.05600
C  6.34100 5.15500 25.90800
C  4.50000 7.36500 28.31900
C  4.67400 7.14300 24.91200
O  4.65500 6.84600 23.73900
C  4.04300 8.42800 25.27300
N  8.18000 2.66200 25.36200
C  7.40300 3.34400 24.51000
C  7.55400 2.81900 23.12200
C  8.68400 1.70800 23.24400
C  8.93400 1.69600 24.72800
C  6.23400 2.29200 22.43500
C  10.01700 2.08200 22.52500
C  10.93000 3.14300 23.16300
N  9.63200 1.69700 27.57200
C  10.03200 0.76300 26.67800
C  10.92500 -0.22300 27.36900
C  10.89300 0.16800 28.75300
C  10.15000 1.38400 28.80000
C  11.82400 -1.22200 26.84000
C  11.31900 -0.20800 30.11000
O  12.01800 -1.16500 30.47600
C  10.79000 0.87800 31.00100
C  9.95400 0.17100 32.03900
O  8.94700 -0.45100 31.67000
O  10.31000 0.30400 33.41600
C  9.34500 -0.06100 34.46900
H  6.39400 6.31300 30.07100
H  6.18500 4.84000 23.82000
H  10.24600 0.00500 24.74400
H  8.33700 2.51500 32.40500
H  7.89100 5.28600 32.14200
H  5.43000 4.09600 31.27400
H  5.79600 4.57500 32.88100
H  5.98800 2.87800 32.32900
H  9.89700 5.06700 32.66000
H  10.94200 3.86500 32.06400
H  11.30900 2.89700 34.02600
H  9.63400 2.77900 34.34100
H  4.49000 8.40100 27.98100
H  4.79500 7.51700 29.35700
H  3.48300 7.01800 28.13400
H  3.75400 9.03800 24.41800
H  4.85500 8.99700 25.72600
H  3.32500 8.30400 26.08500
H  7.88200 3.66200 22.51300
H  8.28900 0.78300 22.82400
H  6.06800 2.94400 21.57700
H  5.38100 2.49000 23.08300
H  6.11200 1.22300 22.25900
H  9.78400 2.39100 21.50600
H  10.64800 1.19500 22.55600
H  11.23600 3.80500 22.35300
H  11.83700 2.66600 23.53300
H  10.50000 3.79600 23.92200
H  12.24500 -1.04500 25.85100
H  11.32600 -2.19000 26.89300
H  12.63800 -1.27700 27.56400
H  11.61500 1.44100 31.43700
H  8.33800 0.29500 34.25300
H  9.70200 0.32300 35.42500
H  9.27500 -1.14800 34.48100

