158

Mg 10.27400 47.67900 26.66100
C  8.11300 47.95900 29.49300
C  12.89700 48.61300 28.47900
C  12.01900 47.43600 23.88300
C  7.21900 47.19900 24.79500
N  10.40800 48.31600 28.66800
C  9.48000 48.31100 29.69200
C  10.14600 48.55300 31.03700
C  11.50300 49.22100 30.60900
C  11.62800 48.70800 29.17000
C  11.70700 50.76500 30.72400
C  10.32200 47.26800 31.85600
C  10.27000 47.47800 33.36700
H  10.20700 46.22500 34.31500
N  12.24500 47.96400 26.24600
C  13.22600 48.26100 27.16800
C  14.50900 48.08300 26.46800
C  14.22200 47.78200 25.13900
C  12.76300 47.72900 25.02200
C  15.77100 48.27500 27.10700
C  15.14600 47.55400 24.05400
O  14.73300 47.40700 22.88300
C  16.65600 47.63100 24.18200
N  9.64400 47.55700 24.55200
C  10.61000 47.32500 23.62500
C  9.95000 47.03100 22.32000
C  8.44300 46.86500 22.60600
C  8.37100 47.14000 24.09500
C  10.29100 48.01600 21.16000
C  7.81100 45.52300 22.26700
C  6.30800 45.64100 21.92400
N  8.05400 47.58300 26.98800
C  6.99900 47.33800 26.19100
C  5.71700 47.32600 26.97500
C  6.13300 47.59800 28.23700
C  7.57000 47.62100 28.22000
C  4.30900 47.02500 26.39500
C  5.67600 47.87600 29.62800
O  4.56900 47.92900 30.17700
C  6.99700 47.82900 30.44000
C  7.15000 46.50800 31.10800
O  7.59300 45.48800 30.58700
O  6.72300 46.63500 32.38700
C  6.63700 45.39400 32.97700
H  13.76500 48.87600 29.08700
H  12.60800 47.18000 23.00000
H  6.32000 47.25500 24.17700
H  9.63300 49.24800 31.70300
H  12.30500 48.92900 31.28700
H  11.58800 51.22100 29.74100
H  12.65400 50.91700 31.24400
H  10.88300 51.17100 31.31100
H  11.32800 46.88600 31.68100
H  9.63100 46.48300 31.54800
H  9.31600 47.97500 33.54700
H  11.15100 48.07200 33.60900
H  15.81800 48.24400 28.19600
H  15.98500 49.33000 26.93800
H  16.59100 47.61800 26.81700
H  17.07100 47.66500 23.17400
H  16.84400 46.70800 24.73100
H  16.86300 48.55600 24.71800
H  10.36500 46.05700 22.06100
H  7.99700 47.77100 22.19700
H  10.75400 48.92600 21.53900
H  9.36900 48.32500 20.66600
H  10.91300 47.43300 20.48100
H  7.84300 44.74700 23.03100
H  8.32900 45.08500 21.41400
H  6.00900 46.66300 22.15700
H  5.70300 44.92900 22.48500
H  6.15500 45.54500 20.84900
H  3.87200 47.95700 26.03500
H  3.73300 46.49000 27.15000
H  4.47400 46.34700 25.55800
H  6.85000 48.51400 31.27500
H  6.27600 45.57700 33.98800
H  7.58800 44.86100 32.98300
H  5.82300 44.88200 32.46300
Mg -6.38700 25.92500 25.69600
C  -4.37700 26.98100 28.31200
C  -7.76800 23.59300 27.85500
C  -7.87700 24.25500 22.96900
C  -4.73100 28.01300 23.62500
N  -6.03600 25.30000 27.81500
C  -5.29200 26.02800 28.74800
C  -5.45400 25.41900 30.12800
C  -6.31300 24.16200 29.80200
C  -6.82500 24.48900 28.41900
C  -5.48100 22.91600 29.85500
C  -6.15000 26.51000 30.98400
C  -5.63200 26.59000 32.43300
H  -4.91600 25.41900 33.12800
N  -7.81900 24.26000 25.49800
C  -8.27800 23.49400 26.53700
C  -9.29900 22.52000 26.06000
C  -9.30500 22.65200 24.60700
C  -8.26400 23.76300 24.29700
C  -10.02500 21.67900 27.02700
C  -10.18400 21.98300 23.50900
O  -10.05500 22.09700 22.31100
C  -11.31700 21.07500 24.02800
N  -6.35900 26.05300 23.64400
C  -6.97200 25.25700 22.70200
C  -6.89800 25.82300 21.27800
C  -5.78200 26.92000 21.51200
C  -5.64300 27.05000 23.01500
C  -6.40100 24.68500 20.20100
C  -6.11100 28.35600 20.87200
C  -5.18100 28.90300 19.76200
N  -4.86000 27.33300 25.86900
C  -4.36900 28.15000 24.94200
C  -3.49900 29.08300 25.61300
C  -3.42000 28.65900 26.92300
C  -4.29300 27.57900 27.04100
C  -2.84500 30.24700 24.93700
C  -2.83400 28.84300 28.22700
O  -1.97900 29.62700 28.66700
C  -3.46400 27.81200 29.18400
C  -2.32400 27.05200 29.73100
O  -1.67700 26.21200 29.13900
O  -2.13700 27.47400 31.03500
C  -1.11800 26.77100 31.81000
H  -8.31600 23.04900 28.62700
H  -8.38000 23.84400 22.09100
H  -4.06700 28.52800 22.92800
H  -4.51000 25.08100 30.55400
H  -7.23600 24.05400 30.37100
H  -5.37500 22.36300 28.92200
H  -5.81600 22.12900 30.53000
H  -4.46300 23.11700 30.19100
H  -7.20700 26.24900 31.03300
H  -6.11200 27.53600 30.61800
H  -6.49300 26.88900 33.03100
H  -4.93400 27.42100 32.53200
H  -9.56200 20.70400 27.17500
H  -11.06200 21.45700 26.77600
H  -10.04900 22.07500 28.04300
H  -11.75600 20.60500 23.14800
H  -11.96700 21.78100 24.54400
H  -10.98800 20.25300 24.66400
H  -7.84900 26.29000 21.01900
H  -4.90200 26.52400 21.00500
H  -5.48600 24.25500 20.60800
H  -6.18200 25.14500 19.23800
H  -7.15000 23.89400 20.14300
H  -6.03200 29.04100 21.71600
H  -7.13900 28.31400 20.51300
H  -4.76900 29.87700 20.02300
H  -5.73700 29.09300 18.84400
H  -4.33100 28.26300 19.52700
H  -2.29200 30.70400 25.75800
H  -3.47700 31.04400 24.54600
H  -2.10500 29.87400 24.22800
H  -4.09600 28.38800 29.86000
H  -0.34700 27.45000 32.17400
H  -0.68000 25.94900 31.24400
H  -1.61800 26.41000 32.70800

