158

Mg 45.56000 5.09500 48.24900
C  43.41700 7.75100 47.46600
C  42.96000 2.89900 47.92600
C  47.84500 2.69900 48.49900
C  48.28100 7.44400 47.87000
N  43.41900 5.27400 47.77400
C  42.75700 6.52000 47.52100
C  41.24800 6.22900 47.40600
C  41.07800 4.74200 47.86600
C  42.57300 4.26500 47.85700
C  40.36100 4.50000 49.24900
C  40.51600 6.56900 46.06400
C  39.49300 7.71600 46.13600
H  38.68700 7.86400 44.85400
N  45.43700 3.00900 48.15000
C  44.24800 2.29200 48.05200
C  44.55100 0.91100 48.28300
C  45.95100 0.79200 48.35900
C  46.49100 2.19700 48.35000
C  43.46900 -0.15300 48.33400
C  46.68200 -0.53800 48.49000
O  46.17600 -1.67500 48.56000
C  48.13600 -0.55500 48.58900
N  47.80200 5.12100 48.01300
C  48.43500 3.96000 48.33900
C  49.96200 4.13200 48.40900
C  50.13500 5.64600 48.19700
C  48.67100 6.14100 48.01800
C  50.43700 3.58500 49.80000
C  51.08000 6.04800 46.96500
C  52.41800 6.72500 47.30200
N  45.84400 7.16000 47.89100
C  46.97100 7.93700 47.82700
C  46.57900 9.27800 47.42200
C  45.21000 9.28100 47.40100
C  44.79000 7.93600 47.60700
C  47.53100 10.43400 47.28200
C  44.00800 10.05700 47.13600
O  43.90000 11.26000 46.88900
C  42.78000 9.09100 47.14900
C  41.89700 9.58500 48.25200
O  41.76000 9.10500 49.38600
O  41.05900 10.54800 47.72100
C  39.98100 11.10900 48.66800
H  42.06900 2.27500 47.83100
H  48.60700 1.93400 48.65800
H  49.20600 8.00000 48.04000
H  40.81700 6.78800 48.23700
H  40.49900 4.19900 47.11800
H  39.91100 5.39000 49.68800
H  41.14200 4.20800 49.95000
H  39.64200 3.68900 49.13200
H  40.16500 5.69300 45.51900
H  41.20400 7.06700 45.38000
H  39.90900 8.67800 46.43500
H  38.71700 7.34700 46.80700
H  43.56100 -0.84700 47.49900
H  42.46400 0.26000 48.42100
H  43.63400 -0.70900 49.25700
H  48.45600 -0.13200 47.63700
H  48.34400 -1.62300 48.52200
H  48.58200 -0.06800 49.45600
H  50.37500 3.50300 47.62000
H  50.56700 6.13100 49.07200
H  50.51300 2.49700 49.77900
H  49.74800 3.81900 50.61100
H  51.39900 4.02500 50.06200
H  50.55200 6.78400 46.35800
H  51.22600 5.19500 46.30200
H  52.64000 6.68100 48.36900
H  52.33900 7.76800 46.99600
H  53.23300 6.20500 46.80000
H  48.32400 10.22400 46.56500
H  47.94100 10.55300 48.28500
H  46.79200 11.19600 47.03400
H  42.24000 9.00200 46.20600
H  39.86000 12.17700 48.49000
H  40.28600 11.01500 49.71000
H  39.02800 10.58100 48.63400
Mg 40.16500 8.85200 30.11300
C  42.07100 10.17200 32.70600
C  37.75400 8.02900 32.37800
C  38.56200 7.25800 27.69300
C  42.72700 9.58800 27.91100
N  39.98900 9.10400 32.25500
C  40.87200 9.69100 33.11700
C  40.30500 9.80800 34.54800
C  39.00500 9.01100 34.42000
C  38.90300 8.64400 32.92300
C  38.95100 7.75300 35.34700
C  39.96000 11.34800 34.87400
C  39.59800 11.62800 36.33700
H  40.34500 12.60100 37.28400
N  38.41300 7.70600 30.02600
C  37.56800 7.47400 31.08200
C  36.43300 6.79500 30.59500
C  36.52200 6.73800 29.22000
C  37.88600 7.20600 28.90100
C  35.31700 6.30800 31.55300
C  35.54100 6.17800 28.24200
O  35.84000 6.05100 27.02100
C  34.17300 5.87200 28.68900
N  40.53300 8.48700 28.07700
C  39.80100 7.73800 27.31400
C  40.25000 7.68200 25.83800
C  41.52200 8.49900 25.85500
C  41.61600 8.89100 27.42200
C  40.46400 6.19300 25.41000
C  41.61700 9.70800 24.94800
C  40.81900 11.02900 25.32300
N  42.03300 9.71400 30.19600
C  42.95300 10.03400 29.18800
C  44.07800 10.71200 29.74600
C  43.75000 10.78500 31.13300
C  42.52000 10.16900 31.36100
C  45.29900 11.20400 28.99300
C  44.23600 11.17200 32.39000
O  45.30000 11.68900 32.67100
C  43.24000 10.73200 33.48700
C  43.94800 9.80300 34.44300
O  44.07200 8.56700 34.34900
O  44.36500 10.55400 35.47100
C  45.14000 9.83000 36.50000
H  36.95100 7.91500 33.11000
H  38.13800 6.83000 26.78200
H  43.58200 9.85000 27.28500
H  41.13200 9.44400 35.15900
H  38.14700 9.59900 34.74400
H  39.53200 7.93200 36.25100
H  39.32900 6.92900 34.74100
H  37.89200 7.58000 35.54100
H  39.09100 11.50100 34.23400
H  40.77200 11.97900 34.51200
H  39.42800 10.70300 36.88700
H  38.57200 11.99400 36.38600
H  35.56900 6.72400 32.52900
H  35.19400 5.22600 31.49400
H  34.33500 6.67700 31.25800
H  33.72000 5.40700 27.81400
H  33.62800 6.79400 28.89500
H  34.27200 5.20700 29.54700
H  39.54600 8.19800 25.18500
H  42.45200 7.93900 25.75100
H  40.09300 5.61800 26.25900
H  41.49100 5.84900 25.28400
H  39.78800 6.06500 24.56600
H  41.23100 9.32000 24.00500
H  42.67500 9.94800 24.84700
H  41.41200 11.93500 25.19500
H  40.39800 10.97000 26.32700
H  39.98800 11.14200 24.62700
H  45.27600 10.83100 27.96900
H  46.23300 10.81800 29.40100
H  45.32600 12.28600 29.12300
H  42.97400 11.62900 34.04600
H  44.91600 10.40100 37.40100
H  46.20100 9.89000 36.26100
H  44.85000 8.78700 36.62100

