158

Mg 3.30700 -0.21500 43.78200
C  6.31000 1.52200 43.69700
C  1.67900 2.72700 42.63700
C  0.41500 -1.94900 43.60300
C  5.09600 -3.05800 44.87400
N  3.99200 1.87800 43.26200
C  5.25600 2.31300 43.27800
C  5.23900 3.85400 42.89000
C  3.72700 4.17400 42.72200
C  3.04800 2.85300 42.93700
C  3.18300 5.31100 43.62800
C  6.04000 4.14900 41.52200
C  5.77200 3.28300 40.21500
H  6.07600 4.00300 38.84900
N  1.34800 0.27500 43.09800
C  0.86600 1.51700 42.76600
C  -0.50000 1.50600 42.51000
C  -0.90500 0.11600 42.61800
C  0.25900 -0.60300 43.13800
C  -1.23400 2.67000 41.87500
C  -2.27800 -0.48700 42.23200
O  -3.12500 0.30200 41.86800
C  -2.66800 -1.93600 42.30700
N  2.84500 -2.27500 44.24700
C  1.52800 -2.77500 44.06800
C  1.43800 -4.28700 44.53900
C  3.01900 -4.56600 44.86400
C  3.75400 -3.22600 44.58500
C  0.51300 -4.57600 45.77000
C  3.67000 -5.71600 43.99600
C  3.89100 -7.06300 44.75500
N  5.24200 -0.74800 44.19800
C  5.90400 -1.89400 44.59000
C  7.34800 -1.71700 44.72000
C  7.49700 -0.37000 44.35400
C  6.21600 0.12200 44.06900
C  8.37100 -2.69100 45.27200
C  8.60500 0.59600 44.26100
O  9.81400 0.55400 44.57600
C  7.76100 1.98400 43.81800
C  7.91700 2.99000 44.94800
O  8.38000 4.11000 44.87200
O  7.25500 2.52100 46.06600
C  7.09000 3.32100 47.20600
H  1.17400 3.64100 42.31600
H  -0.50900 -2.53200 43.62000
H  5.67200 -3.91200 45.23600
H  5.60000 4.52300 43.67200
H  3.45100 4.62600 41.77000
H  2.98300 6.13100 42.93700
H  3.96700 5.50300 44.36100
H  2.31500 5.11900 44.25800
H  7.10500 4.24600 41.73300
H  5.79800 5.18700 41.29400
H  4.78700 2.81700 40.19200
H  6.38500 2.43200 40.51100
H  -0.88300 2.77900 40.84900
H  -1.02800 3.59500 42.41400
H  -2.30400 2.49200 41.98300
H  -2.64400 -2.23300 43.35600
H  -1.98900 -2.48600 41.65600
H  -3.64100 -2.14800 41.86300
H  1.11400 -4.78300 43.62300
H  3.15400 -4.76800 45.92700
H  -0.03000 -3.68300 46.07900
H  0.96800 -4.77900 46.73900
H  -0.13200 -5.42000 45.52500
H  4.50400 -5.44700 43.34800
H  2.98800 -5.94300 43.17700
H  3.27700 -7.84800 44.31200
H  3.60400 -6.96700 45.80200
H  4.95600 -7.27700 44.66400
H  9.31600 -2.21100 45.52500
H  8.48900 -3.41800 44.46800
H  8.03800 -3.10500 46.22300
H  8.17600 2.36300 42.88500
H  7.63400 4.26200 47.12400
H  7.56900 2.73100 47.98700
H  6.03200 3.47600 47.41900
Mg 30.14800 59.09700 40.87600
C  27.23100 57.50300 39.73200
C  32.02500 56.54200 39.94000
C  32.90300 61.07900 41.28200
C  28.20700 61.93200 41.66300
N  29.69200 57.24300 39.82100
C  28.40400 56.82300 39.41900
C  28.53000 55.46000 38.71300
C  30.02300 54.97200 39.03200
C  30.64100 56.27300 39.59800
C  30.06500 53.81300 40.15300
C  28.29900 55.40600 37.17500
C  27.29200 54.37400 36.75700
H  26.28800 54.73400 35.59400
N  32.14000 58.78400 40.75800
C  32.74000 57.60700 40.48800
C  34.12400 57.64200 40.76400
C  34.42200 58.90900 41.22400
C  33.11400 59.66900 41.11800
C  35.06100 56.55300 40.25900
C  35.77900 59.40400 41.61500
O  36.78100 58.72100 41.38500
C  35.94000 60.75800 42.16300
N  30.54300 61.17900 41.47800
C  31.74800 61.80700 41.39500
C  31.73700 63.37300 41.45900
C  30.24000 63.56800 41.90200
C  29.58200 62.16000 41.70400
C  32.90000 64.00900 42.36500
C  29.51900 64.78100 41.24100
C  29.31600 66.05200 42.07600
N  28.13000 59.59200 40.90200
C  27.48600 60.76500 41.26300
C  26.05300 60.64300 40.93500
C  25.87500 59.35400 40.39500
C  27.17100 58.78300 40.42700
C  25.04000 61.69700 41.27600
C  24.94100 58.40500 39.82900
O  23.73000 58.50900 39.69300
C  25.74400 57.16800 39.49700
C  25.45300 56.06700 40.36900
O  25.84400 55.95300 41.51400
O  24.55500 55.22500 39.72400
C  23.92400 54.22500 40.61800
H  32.63200 55.65200 39.76300
H  33.85200 61.60800 41.39100
H  27.68200 62.86800 41.86800
H  27.89200 54.74900 39.23800
H  30.48200 54.52200 38.15200
H  30.50700 54.16900 41.08300
H  30.71300 53.07800 39.67600
H  29.11900 53.31900 40.37600
H  29.20700 55.27900 36.58600
H  27.85700 56.39100 37.02700
H  26.70800 54.04200 37.61600
H  27.89100 53.53600 36.40100
H  34.65000 55.84400 39.54000
H  35.27200 55.93700 41.13300
H  35.95100 56.90500 39.73900
H  36.86600 60.75100 42.73600
H  35.19500 61.16400 42.84800
H  36.09500 61.51000 41.38900
H  31.85800 63.69000 40.42400
H  30.24500 63.69100 42.98500
H  33.54800 64.52600 41.65700
H  33.48400 63.28900 42.93800
H  32.51000 64.70900 43.10400
H  28.57700 64.52100 40.75800
H  30.12100 65.08900 40.38700
H  29.54300 65.94100 43.13700
H  28.31900 66.48000 41.97200
H  30.05400 66.77400 41.72400
H  24.14700 61.09700 41.45000
H  24.86900 62.35300 40.42200
H  25.25700 62.38700 42.09100
H  25.66700 56.91100 38.44000
H  24.70300 53.54200 40.95600
H  23.21800 53.53500 40.15600
H  23.40900 54.69300 41.45700

