158

Mg 35.72900 0.73300 29.29600
C  33.31600 2.23700 31.49400
C  37.97500 0.87800 31.87200
C  38.14800 -0.06100 27.18300
C  33.55900 1.17800 26.59700
N  35.66800 1.64700 31.39400
C  34.56700 1.98300 32.13000
C  34.92600 2.32100 33.57000
C  36.53500 2.18500 33.56300
C  36.77100 1.58000 32.15400
C  37.40000 3.56100 33.82800
C  34.20500 1.37700 34.56300
C  33.90300 2.04900 35.90000
H  34.81400 3.17200 36.38700
N  37.77100 0.31500 29.51900
C  38.50600 0.28800 30.67500
C  39.82200 -0.21000 30.45200
C  39.78700 -0.58900 29.05800
C  38.51900 -0.11900 28.53500
C  40.84200 -0.31200 31.50400
C  40.86700 -1.27300 28.29500
O  40.76600 -1.60600 27.12000
C  42.04900 -1.65800 29.06000
N  35.77500 0.42000 27.17600
C  36.94500 0.19900 26.57300
C  36.77300 0.27800 25.00900
C  35.24800 0.70800 24.86600
C  34.79000 0.69400 26.27800
C  37.63500 1.14300 24.08100
C  34.31500 -0.15700 23.94200
C  33.32400 0.54800 22.97700
N  33.75400 1.42700 29.10100
C  33.03100 1.54200 27.92600
C  31.69400 2.14500 28.31600
C  31.77500 2.45500 29.70600
C  33.02000 2.04800 30.12300
C  30.50400 2.27900 27.34000
C  31.10200 3.10300 30.84400
O  29.93600 3.56700 30.91800
C  32.09500 2.94200 32.05100
C  32.30400 4.23100 32.77000
O  32.73500 5.24200 32.30500
O  31.80800 4.10200 34.05700
C  31.75900 5.34000 34.86000
H  38.73900 0.82100 32.65000
H  38.85000 -0.30800 26.38300
H  33.05200 1.51500 25.69000
H  34.60100 3.33600 33.79900
H  36.99600 1.47400 34.24900
H  38.35100 3.23600 34.25000
H  36.83000 4.18600 34.51600
H  37.61600 4.04500 32.87600
H  34.93100 0.57400 34.69100
H  33.32200 0.93300 34.10200
H  33.92200 1.31000 36.70100
H  32.89600 2.42000 36.09100
H  41.22000 -1.31800 31.68700
H  40.48200 -0.18400 32.52500
H  41.64900 0.38600 31.27800
H  42.65300 -2.31200 28.43100
H  41.88400 -2.24700 29.96200
H  42.70200 -0.82100 29.30300
H  36.88400 -0.73600 24.62600
H  35.16400 1.74300 24.53300
H  37.19600 2.12300 23.89400
H  37.66200 0.58600 23.14500
H  38.62500 1.22300 24.53000
H  33.80500 -0.89000 24.56600
H  34.93500 -0.75900 23.27700
H  33.41900 1.63300 23.03000
H  32.28600 0.25200 23.12500
H  33.61400 0.31900 21.95100
H  29.70100 2.75200 27.90700
H  30.23700 1.31900 26.90100
H  30.92000 2.87000 26.52400
H  31.64700 2.30500 32.81400
H  30.75200 5.75600 34.82200
H  32.57200 5.99700 34.54900
H  31.98700 4.99500 35.86800
Mg 47.03600 34.57700 27.90400
C  45.23800 32.59800 30.34600
C  47.15300 37.08500 30.33500
C  48.05900 36.75000 25.50300
C  46.18000 32.19600 25.49700
N  46.36800 34.75900 30.10200
C  45.74800 33.80300 30.89300
C  45.86200 34.34500 32.37200
C  45.95600 35.88900 32.20900
C  46.51300 35.93000 30.81000
C  44.54600 36.63100 32.41400
C  47.16000 33.75200 33.04700
C  47.08000 33.46500 34.58900
H  46.01800 34.28900 35.39600
N  47.54300 36.59700 27.93200
C  47.60200 37.40200 29.00500
C  48.21800 38.61100 28.63500
C  48.64200 38.48700 27.28900
C  48.10000 37.21100 26.83600
C  48.43400 39.76900 29.58900
C  49.37400 39.51600 26.29700
O  49.76200 39.30000 25.17200
C  49.71800 40.86100 26.77000
N  47.04100 34.49300 25.71400
C  47.48800 35.52500 25.00000
C  47.40800 35.09500 23.49400
C  47.19500 33.56100 23.55900
C  46.69500 33.39300 24.99400
C  46.33700 35.81700 22.62700
C  48.55000 32.78600 23.39900
C  48.48700 31.66200 22.33900
N  46.14300 32.71600 27.94200
C  45.84400 31.89600 26.85200
C  45.24100 30.60300 27.38100
C  44.97300 30.91200 28.72700
C  45.48600 32.23700 29.03400
C  44.83600 29.30800 26.60100
C  44.38000 30.39200 29.87100
O  43.98800 29.22400 30.11300
C  44.45500 31.41300 30.95900
C  44.74500 30.95100 32.34500
O  45.88800 30.63100 32.65300
O  43.62400 31.10900 33.12500
C  43.86900 30.79800 34.56200
H  47.29000 37.84100 31.11100
H  48.41100 37.44800 24.74100
H  46.10900 31.44200 24.71000
H  44.90100 34.07900 32.81200
H  46.72000 36.23200 32.90600
H  44.56700 37.32300 33.25500
H  43.77700 35.86500 32.51800
H  44.41400 37.21700 31.50500
H  47.96400 34.47500 32.90200
H  47.29700 32.80400 32.52700
H  48.05200 33.64600 35.04600
H  46.92700 32.40300 34.77700
H  48.37400 39.40800 30.61500
H  47.53300 40.36800 29.45400
H  49.28200 40.45200 29.53000
H  50.56100 40.77700 27.45600
H  48.90500 41.32400 27.32900
H  50.03000 41.62800 26.06100
H  48.39200 35.34300 23.09700
H  46.42700 33.20000 22.87500
H  45.69200 36.35700 23.32000
H  45.79800 35.09700 22.01200
H  46.84100 36.53300 21.97700
H  48.86300 32.29000 24.31800
H  49.36000 33.47500 23.15900
H  49.39100 31.54900 21.73900
H  47.56200 31.64400 21.76300
H  48.45200 30.81700 23.02600
H  45.61100 29.10400 25.86200
H  43.94600 29.34500 25.97300
H  44.75700 28.52700 27.35800
H  43.42100 31.75500 30.99300
H  43.01700 30.32600 35.05300
H  44.10700 31.76300 35.00800
H  44.69500 30.08900 34.62000

