158

Mg 9.72400 47.70000 25.30700
C  7.56100 47.86900 28.07300
C  12.08900 49.28700 27.34500
C  11.89700 47.47000 22.77800
C  7.07500 47.15000 23.30900
N  9.79900 48.27900 27.52800
C  8.80000 48.28500 28.48400
C  9.23500 48.76900 29.84300
C  10.47300 49.64800 29.41300
C  10.83200 49.05000 28.03100
C  10.21300 51.11700 29.28500
C  9.73700 47.62800 30.87100
C  9.46400 47.95600 32.35800
H  9.43600 46.83300 33.44700
N  11.70300 48.14900 25.18300
C  12.52800 48.72800 26.11800
C  13.89400 48.65700 25.57400
C  13.87300 48.14600 24.28700
C  12.50100 47.86600 24.01200
C  15.06400 48.98000 26.47000
C  15.00300 47.93700 23.30800
O  14.82400 47.45400 22.17100
C  16.43700 48.26700 23.64600
N  9.53500 47.46400 23.38000
C  10.53900 47.35100 22.46700
C  10.07900 46.80200 21.04500
C  8.54100 46.76000 21.28400
C  8.32700 47.11100 22.74900
C  10.62800 47.55700 19.76600
C  7.86900 45.46600 20.75900
C  6.76600 45.65100 19.69100
N  7.65900 47.45900 25.58700
C  6.73900 47.29500 24.66500
C  5.40700 47.33800 25.23100
C  5.68000 47.42500 26.56500
C  7.13300 47.56200 26.75200
C  4.09000 47.20100 24.46400
C  5.06400 47.41400 27.89500
O  3.88300 47.26700 28.15700
C  6.22000 47.91700 28.86100
C  6.13900 47.14100 30.17700
O  6.79900 46.15400 30.53700
O  5.40800 47.93900 31.01300
C  5.16500 47.40400 32.36300
H  12.74000 50.03100 27.80900
H  12.53400 47.30000 21.90700
H  6.26200 46.97100 22.60200
H  8.48400 49.39600 30.32300
H  11.36400 49.53400 30.03000
H  9.27600 51.36200 29.78500
H  10.06600 51.35000 28.23000
H  11.01100 51.67700 29.77300
H  10.75900 47.25000 30.86000
H  9.23400 46.66200 30.83600
H  8.39900 48.18200 32.32200
H  10.04000 48.80500 32.72600
H  14.62200 49.29800 27.41400
H  15.67800 49.85500 26.25600
H  15.68600 48.10800 26.67300
H  16.79600 49.08100 23.01700
H  17.06100 47.38700 23.48800
H  16.69400 48.48800 24.68200
H  10.51300 45.80700 20.95100
H  8.09000 47.59000 20.73900
H  10.59700 46.87600 18.91600
H  11.64400 47.89100 19.97500
H  9.96600 48.41300 19.63100
H  7.32600 44.87400 21.49600
H  8.65900 44.80700 20.39800
H  5.90800 44.98700 19.80200
H  7.18300 45.47700 18.69900
H  6.39400 46.66900 19.80400
H  3.22100 47.75300 24.82300
H  3.78900 46.15500 24.41300
H  4.24500 47.55600 23.44600
H  6.02900 48.96100 29.10900
H  4.76400 46.39400 32.28600
H  4.46700 48.07000 32.87100
H  6.08000 47.45500 32.95300
Mg 1.07400 42.80800 25.93700
C  3.13600 43.14100 28.72900
C  -1.62200 42.33600 27.96500
C  -0.73400 42.11700 23.12400
C  3.83900 43.23100 23.90100
N  0.81800 42.73200 28.13300
C  1.81600 42.91900 29.09800
C  1.17700 43.04200 30.48700
C  -0.31700 42.56300 30.19400
C  -0.45500 42.60700 28.70500
C  -0.73300 41.21100 30.80700
C  1.32600 44.42600 31.20100
C  1.36400 44.52500 32.74000
H  0.89500 43.23700 33.53000
N  -0.87000 42.27400 25.58500
C  -1.84500 42.29100 26.51800
C  -3.13300 42.24700 25.81900
C  -2.89600 42.12600 24.41600
C  -1.42900 42.16800 24.33100
C  -4.47700 42.36000 26.48700
C  -3.87200 41.97200 23.20800
O  -3.51200 41.78200 22.10500
C  -5.29700 42.14200 23.44900
N  1.51700 42.59100 23.81300
C  0.59800 42.33800 22.87000
C  1.21500 42.40900 21.47800
C  2.70700 42.85600 21.73400
C  2.69800 42.88000 23.27900
C  1.10800 41.15500 20.61400
C  2.92000 44.33300 21.18300
C  2.19100 45.53300 21.87200
N  3.08400 43.10400 26.17900
C  4.09900 43.29100 25.23700
C  5.34100 43.52500 25.94800
C  5.00600 43.38100 27.30800
C  3.60100 43.27100 27.39400
C  6.66000 43.92700 25.29000
C  5.52000 43.41800 28.67200
O  6.67000 43.57200 29.03300
C  4.32900 43.34100 29.60300
C  4.53800 42.18100 30.49900
O  4.81000 41.04500 30.17100
O  4.52200 42.65400 31.78200
C  5.00200 41.75700 32.85800
H  -2.52500 42.19500 28.56300
H  -1.32900 41.92800 22.22800
H  4.69400 43.52500 23.28800
H  1.61400 42.26600 31.11600
H  -0.97300 43.27100 30.70000
H  -1.43300 41.47300 31.60000
H  0.14500 40.65700 31.13900
H  -1.24300 40.54400 30.11200
H  0.40200 44.94500 30.94400
H  2.18000 45.02000 30.87500
H  0.85000 45.43700 33.04400
H  2.41400 44.71100 32.96500
H  -4.87100 43.23800 25.97400
H  -4.43600 42.62400 27.54400
H  -5.15400 41.55600 26.19800
H  -5.63500 41.41300 24.18500
H  -5.87800 41.99200 22.53900
H  -5.39700 43.13100 23.89500
H  0.69900 43.25600 21.02700
H  3.44900 42.14600 21.37000
H  2.08500 40.78200 20.30800
H  0.56400 41.44000 19.71300
H  0.59600 40.31700 21.08800
H  2.57800 44.47500 20.15800
H  4.00100 44.45200 21.24900
H  1.74600 45.29500 22.83800
H  1.47000 45.93800 21.16300
H  2.82700 46.40800 22.00500
H  7.03400 43.08400 24.70900
H  7.45400 44.36600 25.89500
H  6.49700 44.68600 24.52500
H  4.28900 44.32700 30.06600
H  4.60900 42.15200 33.79500
H  6.09100 41.77200 32.81500
H  4.67800 40.71800 32.80300

