158

Mg 47.77800 16.80800 27.61500
C  45.60400 16.86700 30.51900
C  49.96600 18.71300 29.16000
C  49.41700 16.81700 24.82000
C  44.91400 15.28800 25.95700
N  47.66200 17.81000 29.55800
C  46.82400 17.53200 30.64600
C  47.49400 18.05000 31.96300
C  48.78000 18.84300 31.44400
C  48.83700 18.46100 29.94500
C  48.77200 20.36300 31.64400
C  47.91500 16.87000 32.85800
C  47.90100 17.18000 34.42300
H  47.60700 18.61500 35.05500
N  49.42800 17.68700 27.10600
C  50.29400 18.38400 27.87500
C  51.44900 18.86200 27.18500
C  51.32400 18.30000 25.87700
C  50.05700 17.52500 25.89000
C  52.52200 19.80900 27.74700
C  52.23400 18.49800 24.69200
O  51.96000 17.97400 23.60900
C  53.46200 19.32700 24.71500
N  47.28200 15.98200 25.65000
C  48.24000 16.06800 24.70100
C  47.62000 15.61200 23.27400
C  46.14200 15.22600 23.60000
C  46.06800 15.55300 25.15500
C  47.85500 16.60300 22.10500
C  45.74500 13.69100 23.23900
C  45.98800 13.20400 21.84600
N  45.70100 16.28800 28.06600
C  44.72700 15.60700 27.32900
C  43.52800 15.26100 28.16000
C  43.83000 15.76800 29.42500
C  45.13800 16.37800 29.32700
C  42.26200 14.47600 27.72500
C  43.31300 15.95800 30.76500
O  42.22300 15.80000 31.24100
C  44.49800 16.60100 31.54600
C  44.01500 17.76600 32.33600
O  43.77300 18.87500 31.92100
O  43.67700 17.32600 33.57300
C  43.04700 18.21800 34.57100
H  50.65800 19.30800 29.76000
H  49.90700 16.92000 23.85000
H  44.06100 14.78200 25.50000
H  46.83500 18.75000 32.47700
H  49.72700 18.55300 31.89900
H  49.70900 20.62500 32.13500
H  47.92500 20.71400 32.23300
H  48.58900 20.91100 30.72000
H  48.93600 16.55600 32.64200
H  47.30100 16.00200 32.61700
H  48.89100 16.84300 34.72700
H  47.20400 16.52400 34.94400
H  52.47100 19.82200 28.83600
H  52.21900 20.77800 27.35200
H  53.54700 19.48100 27.57300
H  53.20900 20.33600 25.04100
H  53.83100 19.47900 23.70100
H  54.18100 18.93400 25.43400
H  48.19800 14.74800 22.94500
H  45.40900 15.86300 23.10600
H  48.18400 17.55600 22.52100
H  46.92800 16.71100 21.54300
H  48.59400 16.23100 21.39500
H  44.67500 13.63800 23.44200
H  46.26600 13.07100 23.96900
H  46.56200 13.95800 21.30600
H  45.02700 13.17500 21.33400
H  46.58200 12.29100 21.81000
H  41.55200 15.19200 27.31000
H  41.83700 14.00300 28.61000
H  42.47000 13.71400 26.97400
H  44.90600 15.88400 32.25900
H  42.27300 17.81400 35.22300
H  42.60600 19.04800 34.01900
H  43.93500 18.62200 35.05700
Mg -1.93600 34.53600 27.05300
C  -3.50300 32.56900 29.67800
C  -0.58000 36.42500 29.51100
C  -0.23100 36.03600 24.76600
C  -3.67200 32.49100 24.83400
N  -2.37700 34.66900 29.30200
C  -2.86100 33.69400 30.15200
C  -2.67700 34.09900 31.63000
C  -1.75800 35.34000 31.46500
C  -1.55300 35.57000 29.96700
C  -2.16100 36.56200 32.23500
C  -1.90700 32.89700 32.34900
C  -1.23800 33.16100 33.73700
H  -1.74700 32.31000 34.90600
N  -0.49500 36.02200 27.13500
C  -0.09300 36.73000 28.18800
C  1.03600 37.59300 27.86200
C  1.14600 37.54300 26.47900
C  0.08900 36.57900 26.05600
C  1.83000 38.41000 28.83400
C  1.98900 38.37100 25.49800
O  1.94600 38.18100 24.25300
C  3.00300 39.42600 25.95000
N  -2.09500 34.44700 25.06800
C  -1.13500 35.07400 24.33700
C  -1.32400 34.77700 22.88400
C  -2.57400 33.80600 22.79500
C  -2.85000 33.52500 24.29300
C  -1.51300 35.98300 21.85000
C  -2.46400 32.51000 21.89800
C  -1.22000 31.64400 22.24000
N  -3.34400 32.87800 27.19600
C  -3.88000 32.10700 26.15700
C  -4.69600 31.03900 26.72400
C  -4.52300 31.14500 28.09500
C  -3.67400 32.25800 28.32900
C  -5.56900 30.03600 26.01400
C  -4.90400 30.54400 29.38400
O  -5.54300 29.54700 29.62100
C  -4.30700 31.50100 30.48400
C  -5.41800 32.08600 31.31800
O  -5.98900 33.15800 31.08300
O  -5.49600 31.35100 32.43200
C  -6.20800 31.95000 33.59800
H  -0.08300 36.88500 30.36800
H  0.42900 36.50700 24.03500
H  -4.16400 31.87900 24.07500
H  -3.62700 34.34800 32.10200
H  -0.82700 35.07700 31.96600
H  -2.81600 37.04200 31.50800
H  -1.28000 37.15200 32.48800
H  -2.72300 36.37200 33.14900
H  -1.14100 32.48300 31.69200
H  -2.64000 32.15800 32.67100
H  -1.34300 34.23200 33.90800
H  -0.20600 32.83700 33.60200
H  2.83900 38.02000 28.70100
H  1.39500 38.15800 29.80100
H  1.75200 39.48800 28.69800
H  3.56300 39.67700 25.04900
H  3.61400 38.89300 26.67800
H  2.49800 40.17500 26.55900
H  -0.49900 34.14100 22.56200
H  -3.47400 34.29900 22.42700
H  -0.71500 35.95800 21.10900
H  -1.38900 36.93900 22.35800
H  -2.46800 35.87500 21.33400
H  -2.38900 32.82000 20.85600
H  -3.42900 32.00400 21.93300
H  -1.00600 31.71700 23.30600
H  -0.32300 32.03000 21.75500
H  -1.32500 30.56800 22.09700
H  -5.46500 30.15800 24.93500
H  -6.55400 30.43800 26.25100
H  -5.52600 28.98400 26.29700
H  -3.63400 30.93000 31.12400
H  -6.78500 32.83700 33.33300
H  -5.43500 32.31700 34.27400
H  -6.91700 31.28400 34.09000

