158

Mg 45.18200 4.11100 46.29400
C  43.43000 7.12200 46.28500
C  42.06100 2.50400 45.80200
C  46.69100 1.23600 45.48900
C  48.18000 5.90600 46.06900
N  42.99500 4.74800 45.95700
C  42.56000 6.06600 45.94500
C  41.03900 6.09400 45.81800
C  40.60600 4.60400 46.08900
C  41.92300 3.87600 45.97500
C  40.00000 4.35500 47.51300
C  40.50500 6.48100 44.48300
C  39.76800 7.81400 44.28900
H  40.29000 8.77000 43.22800
N  44.52000 2.15900 45.83700
C  43.19500 1.72100 45.66200
C  43.08000 0.24400 45.38100
C  44.44100 -0.15900 45.38100
C  45.33500 1.06700 45.56200
C  41.81600 -0.55200 45.07300
C  44.96200 -1.48600 45.04000
O  44.22100 -2.40500 44.68000
C  46.40600 -1.85500 44.91700
N  47.12600 3.69400 45.84500
C  47.51000 2.41100 45.65100
C  49.09400 2.29700 45.47200
C  49.55700 3.78900 45.57900
C  48.18300 4.53600 45.79800
C  49.84100 1.36800 46.51000
C  50.36700 4.41200 44.38200
C  51.61600 5.19300 44.75900
N  45.73000 6.12500 46.27100
C  46.98900 6.70700 46.22300
C  46.83600 8.14700 46.36900
C  45.44300 8.36900 46.43400
C  44.81400 7.10800 46.37500
C  47.87600 9.21800 46.41900
C  44.42100 9.40000 46.50400
O  44.47000 10.63100 46.59600
C  43.09500 8.59900 46.38500
C  42.35400 8.85700 47.63800
O  42.27400 8.07800 48.56200
O  41.62500 9.98800 47.45800
C  40.57000 10.31100 48.40700
H  41.11700 1.95600 45.75800
H  47.38400 0.43900 45.20900
H  49.19900 6.29600 46.01100
H  40.60600 6.73700 46.58400
H  39.83900 4.30700 45.37500
H  40.31200 5.17200 48.16300
H  40.30200 3.40600 47.95700
H  38.91300 4.27700 47.49000
H  39.89600 5.76900 43.92600
H  41.39400 6.73700 43.90800
H  39.81000 8.40400 45.20400
H  38.71200 7.57600 44.15900
H  40.95600 0.09500 45.25000
H  41.78200 -1.39200 45.76700
H  41.88300 -0.86800 44.03200
H  46.56500 -1.33600 43.97200
H  46.50800 -2.94000 44.94000
H  47.04700 -1.50300 45.72500
H  49.27800 1.96800 44.44900
H  50.10100 4.03100 46.49200
H  50.36600 0.61600 45.92200
H  49.10400 0.96600 47.20500
H  50.58400 2.00300 46.99300
H  49.65800 5.07300 43.88400
H  50.58500 3.67600 43.60900
H  51.87900 5.26600 45.81500
H  51.37400 6.11200 44.22500
H  52.52600 4.79300 44.31200
H  47.62400 10.21200 46.78800
H  48.38700 9.28100 45.45800
H  48.64000 8.86400 47.11100
H  42.52200 9.00400 45.55100
H  40.60200 9.92000 49.42400
H  39.73300 9.82800 47.90200
H  40.31500 11.35700 48.57100
Mg 10.20100 48.68300 26.44800
C  8.34900 48.44000 29.43200
C  12.77300 50.12500 28.21800
C  11.84900 48.66600 23.51000
C  7.20200 47.66400 24.65900
N  10.48200 49.28500 28.56800
C  9.67200 48.91900 29.61700
C  10.28000 49.42700 30.95300
C  11.53200 50.28200 30.54100
C  11.60800 49.93600 29.03500
C  11.37800 51.84700 30.90100
C  10.62900 48.21200 31.91600
C  9.78500 48.12500 33.22900
H  10.21600 49.01200 34.47600
N  12.15400 49.34100 25.99100
C  13.03400 49.84900 26.84100
C  14.20100 50.09900 26.04600
C  14.04600 49.53700 24.70900
C  12.64600 49.12600 24.69900
C  15.43200 50.80400 26.59400
C  14.93800 49.47700 23.43200
O  14.58400 49.05200 22.33800
C  16.33300 49.94600 23.51500
N  9.49800 48.36400 24.30400
C  10.47200 48.38100 23.35700
C  9.87500 47.93600 21.99000
C  8.51400 47.37900 22.45700
C  8.35900 47.83300 23.83900
C  9.82800 49.01200 20.86700
C  8.42900 45.90100 22.25100
C  9.53000 45.09700 23.03400
N  8.21700 48.27400 26.89200
C  7.12000 47.89100 26.08700
C  5.99700 47.60400 26.89500
C  6.42000 47.81100 28.18000
C  7.76300 48.16700 28.15400
C  4.62600 47.21400 26.45600
C  5.96600 47.78500 29.53100
O  4.81300 47.46700 29.93700
C  7.22800 48.19700 30.46200
C  7.51100 47.01200 31.33700
O  8.17500 46.05300 31.04000
O  6.78400 47.11000 32.51500
C  6.95100 46.05300 33.54400
H  13.67800 50.50600 28.69700
H  12.26000 48.55300 22.50500
H  6.35700 47.14700 24.20000
H  9.54100 50.07900 31.41900
H  12.42300 49.82400 30.97000
H  11.42500 52.46200 30.00200
H  12.30300 52.09600 31.42100
H  10.63400 52.15000 31.63800
H  11.68300 48.27900 32.18900
H  10.47000 47.28200 31.37100
H  9.75900 47.07100 33.50400
H  8.75600 48.40500 33.00500
H  16.26500 50.10100 26.57900
H  15.33500 51.10200 27.63800
H  15.67700 51.71900 26.05500
H  16.70200 50.05100 24.53500
H  16.28800 50.88200 22.95800
H  16.88700 49.13200 23.04800
H  10.52400 47.15800 21.58800
H  7.67700 47.79200 21.89400
H  8.88500 49.54500 20.74400
H  10.14700 48.60700 19.90700
H  10.66900 49.68600 21.03300
H  8.50800 45.70500 21.18200
H  7.47000 45.50100 22.57800
H  10.19100 45.64300 23.70700
H  10.04300 44.47000 22.30400
H  8.97900 44.52200 23.77800
H  3.89400 47.38800 27.24400
H  4.63900 46.16300 26.16700
H  4.32400 47.80900 25.59400
H  7.13100 49.10100 31.06300
H  7.70700 45.28400 33.38800
H  6.06800 45.46200 33.29800
H  6.92700 46.43800 34.56300

