158

Mg 27.64900 49.70800 26.91200
C  25.48600 50.72800 29.67100
C  29.99000 48.90500 29.17100
C  29.67100 49.30400 24.35600
C  25.08100 50.88800 24.72100
N  27.68400 49.77400 29.27200
C  26.69200 50.16300 30.12000
C  27.12500 49.85500 31.51400
C  28.67600 49.39200 31.37600
C  28.80400 49.30700 29.86200
C  29.78300 50.26100 32.03600
C  26.13900 48.87200 32.21800
C  25.38900 49.27700 33.50400
H  26.15900 49.86100 34.73200
N  29.53300 49.22000 26.79900
C  30.37300 48.85900 27.84800
C  31.68300 48.41800 27.31800
C  31.56300 48.53800 25.90000
C  30.19700 48.98900 25.61600
C  32.91100 48.05700 28.15000
C  32.62700 48.29700 24.79900
O  32.45800 48.50600 23.57700
C  33.95600 47.65600 25.24300
N  27.43800 50.13600 24.83300
C  28.44700 49.80600 23.96100
C  27.99500 49.99600 22.45100
C  26.42100 50.18500 22.62100
C  26.24900 50.31200 24.10100
C  28.82200 51.12800 21.74000
C  25.62300 49.02000 22.01100
C  24.48500 49.45600 21.10700
N  25.78500 50.66500 27.08200
C  24.87900 51.04100 26.10100
C  23.72900 51.62400 26.73000
C  23.95600 51.52700 28.14200
C  25.18300 50.90000 28.28100
C  22.62900 52.27000 25.91500
C  23.36800 51.78100 29.43200
O  22.32400 52.39900 29.75700
C  24.35300 51.24300 30.51100
C  24.74100 52.37600 31.41000
O  25.65100 53.17400 31.30800
O  23.85000 52.34000 32.47200
C  24.06900 53.31800 33.56500
H  30.77900 48.70400 29.90000
H  30.21200 48.97000 23.46800
H  24.18000 51.12700 24.15300
H  27.06100 50.80200 32.04800
H  28.69400 48.34400 31.67800
H  30.08300 49.72500 32.93600
H  29.55700 51.31000 32.22500
H  30.70700 50.25200 31.45800
H  26.69300 48.07800 32.72000
H  25.38900 48.35200 31.62100
H  24.93300 48.32000 33.76000
H  24.56900 49.92700 33.19800
H  33.62600 48.81400 27.82700
H  33.31200 47.07100 27.91800
H  32.78100 48.13400 29.22900
H  33.79200 46.76900 25.85400
H  34.49800 48.47300 25.72100
H  34.54700 47.40100 24.36300
H  28.32800 49.15700 21.84000
H  26.09600 51.17500 22.30300
H  29.41700 51.60500 22.51900
H  28.12600 51.70900 21.13500
H  29.51000 50.66000 21.03600
H  25.24000 48.46900 22.87000
H  26.41400 48.62400 21.37500
H  24.59800 50.46600 20.71400
H  23.62300 49.46900 21.77400
H  24.35700 48.64900 20.38600
H  23.00600 52.98800 25.18700
H  22.06300 52.81700 26.66900
H  22.08500 51.44300 25.45800
H  23.86300 50.48800 31.12600
H  23.47600 52.96800 34.41000
H  23.70500 54.34100 33.47700
H  25.11500 53.49200 33.81500
Mg 7.04900 53.43700 41.91900
C  6.22700 50.00300 41.18500
C  10.28300 52.79900 40.68900
C  7.73700 56.69500 41.87600
C  3.60700 54.01800 42.32300
N  8.11100 51.61800 40.85000
C  7.57300 50.34500 40.91100
C  8.71300 49.34300 40.35700
C  10.01700 50.17200 40.46800
C  9.45100 51.62500 40.71600
C  11.00900 49.67100 41.56100
C  8.31600 48.78400 38.94100
C  7.42400 49.66000 38.05900
H  7.15900 49.14900 36.71200
N  8.80900 54.60100 41.38200
C  10.02000 54.18200 40.96300
C  10.96000 55.24000 40.92000
C  10.13600 56.36600 41.17900
C  8.79200 55.93400 41.49300
C  12.44400 55.01200 40.44400
C  10.63200 57.78300 41.04100
O  11.81500 58.02400 40.78900
C  9.73500 59.00100 41.08400
N  5.81200 55.11300 41.96900
C  6.40600 56.40200 42.13800
C  5.29900 57.37900 42.43800
C  4.04500 56.52600 42.62400
C  4.47900 55.13700 42.26700
C  5.52300 58.49200 43.50300
C  2.80800 57.05700 41.77600
C  1.40700 56.94400 42.41900
N  5.33200 52.30000 41.90100
C  3.97500 52.68200 42.09000
C  3.11900 51.51600 42.05800
C  4.05200 50.41500 41.84500
C  5.31100 50.99900 41.59300
C  1.62300 51.48000 42.33400
C  4.12500 49.01000 41.82700
O  3.26600 48.20700 42.13800
C  5.56700 48.61500 41.33300
C  5.39400 47.68400 40.11800
O  4.93000 47.99800 39.03100
O  5.59400 46.42300 40.54700
C  5.18900 45.31100 39.62300
H  11.33800 52.56400 40.53300
H  7.72100 57.78500 41.82200
H  2.52500 54.15000 42.39000
H  8.66200 48.53700 41.08900
H  10.56400 50.15300 39.52500
H  11.96900 49.30900 41.19500
H  10.57300 48.81100 42.07000
H  11.26700 50.41500 42.31500
H  7.76100 47.86300 39.12000
H  9.17800 48.42800 38.37700
H  7.98200 50.59400 37.99300
H  6.48400 49.93800 38.53800
H  12.41500 54.41700 39.53000
H  12.90900 54.39800 41.21500
H  13.10400 55.87600 40.36900
H  10.36800 59.88700 41.03700
H  9.40500 59.03000 42.12300
H  9.00700 58.99300 40.27300
H  5.24400 57.85200 41.45800
H  3.86900 56.44500 43.69600
H  5.55300 59.50300 43.09700
H  6.43900 58.36600 44.08000
H  4.67500 58.51600 44.18800
H  2.80400 56.66200 40.76100
H  3.02400 58.08400 41.48100
H  0.73100 56.44100 41.72700
H  1.01400 57.94300 42.61000
H  1.43900 56.40300 43.36500
H  1.48400 51.93400 43.31500
H  1.21800 50.46800 42.33500
H  1.14400 52.25700 41.73800
H  5.99200 48.03300 42.15100
H  5.68400 44.35600 39.79900
H  5.43700 45.64300 38.61500
H  4.11100 45.15000 39.66600

