158

Mg 47.20200 16.20800 28.54700
C  44.88700 16.13800 31.23500
C  49.16400 18.37200 30.53300
C  48.92200 17.02300 25.84400
C  44.61600 15.14800 26.56800
N  47.04300 17.06300 30.71100
C  46.07100 16.79800 31.60100
C  46.37100 17.41100 32.97000
C  47.67900 18.21400 32.67700
C  48.05600 17.87300 31.21900
C  47.53000 19.82300 32.85000
C  46.52600 16.22600 34.03900
C  46.03900 16.49800 35.46900
H  45.80500 18.01400 35.90700
N  48.97900 17.30300 28.28600
C  49.58800 18.13700 29.23400
C  50.73200 18.72000 28.53300
C  50.74400 18.32600 27.21000
C  49.48800 17.49300 27.03200
C  51.98100 19.47900 29.29400
C  51.70300 18.69000 26.03300
O  51.54400 18.19600 24.85300
C  52.65600 19.71900 26.28200
N  46.76700 16.23600 26.52400
C  47.70400 16.39500 25.59200
C  47.22500 16.14900 24.16100
C  45.97000 15.34200 24.47000
C  45.74200 15.61600 25.89100
C  46.99600 17.46300 23.33400
C  45.97800 13.92100 23.91800
C  46.77500 12.86000 24.72700
N  45.25800 15.37800 28.80200
C  44.27300 15.09900 27.89300
C  43.13200 14.49600 28.60100
C  43.30600 14.98200 29.87600
C  44.61400 15.57600 29.96900
C  41.81000 13.95300 28.16000
C  42.66600 15.04800 31.18700
O  41.53800 14.68200 31.56600
C  43.64800 15.74400 32.12200
C  42.92200 17.00300 32.74600
O  42.86400 18.03800 32.12400
O  42.50800 16.82000 34.05000
C  41.76700 17.95900 34.61200
H  49.84800 19.05400 31.04300
H  49.49200 17.18100 24.92600
H  43.79300 14.67000 26.03200
H  45.54400 18.06200 33.25300
H  48.57000 17.94500 33.24400
H  46.59400 20.01800 33.37400
H  47.33100 20.24100 31.86300
H  48.47900 20.08800 33.31500
H  47.57500 15.93100 34.06100
H  46.00400 15.36400 33.62300
H  46.79800 16.06800 36.12200
H  45.09200 15.97100 35.59300
H  51.82800 19.21300 30.34000
H  52.09900 20.54300 29.08900
H  52.87800 18.97800 28.92900
H  52.02600 20.54000 26.62300
H  53.02400 19.95600 25.28300
H  53.48200 19.37100 26.90100
H  47.99600 15.54400 23.68400
H  45.16300 15.81400 23.90900
H  47.84800 17.65200 22.68100
H  46.94300 18.32300 24.00100
H  46.06300 17.47400 22.77100
H  46.31100 14.00800 22.88400
H  44.95300 13.55100 23.88900
H  47.15200 13.33700 25.63100
H  47.55100 12.42800 24.09500
H  46.09700 12.05200 25.00200
H  41.84100 12.89800 28.43100
H  41.55600 14.19200 27.12700
H  41.03100 14.46000 28.72900
H  43.96200 15.06400 32.91400
H  40.86700 18.02300 34.00000
H  42.30300 18.90800 34.63800
H  41.33900 17.63400 35.56000
Mg -6.44700 25.80700 25.57500
C  -4.45400 27.04600 28.11200
C  -7.65000 23.47500 27.77400
C  -8.03400 24.37200 22.95900
C  -4.80500 28.03100 23.31000
N  -6.14100 25.41300 27.68700
C  -5.30300 26.08500 28.54200
C  -5.56100 25.56000 29.98400
C  -6.26100 24.16300 29.80400
C  -6.74700 24.34000 28.33600
C  -5.36000 22.87300 29.98400
C  -6.41000 26.60600 30.79300
C  -6.28300 26.53500 32.37400
H  -5.67900 25.30400 33.09200
N  -7.77100 24.15000 25.39700
C  -8.10900 23.32800 26.43900
C  -9.03800 22.30700 25.94300
C  -9.17200 22.54700 24.51800
C  -8.25600 23.66400 24.20800
C  -9.78600 21.40300 26.91100
C  -9.98900 21.88000 23.41800
O  -10.03100 22.21500 22.24100
C  -10.96800 20.72900 23.78900
N  -6.32400 26.11600 23.47600
C  -7.20100 25.45200 22.59900
C  -6.85900 25.83000 21.15900
C  -6.20000 27.20500 21.32800
C  -5.72400 27.14300 22.79900
C  -6.00900 24.73700 20.31500
C  -7.28200 28.39700 21.27400
C  -7.50500 29.03300 19.88500
N  -4.91100 27.19800 25.66200
C  -4.36000 28.07500 24.67000
C  -3.37900 28.94200 25.30400
C  -3.40100 28.53800 26.62200
C  -4.32100 27.48400 26.79000
C  -2.62300 30.02100 24.64800
C  -2.78500 28.84600 27.92700
O  -1.86900 29.61800 28.13800
C  -3.52100 27.94100 29.00000
C  -2.56900 27.23800 29.84800
O  -1.74400 26.48900 29.34900
O  -2.74500 27.55400 31.11200
C  -1.89700 26.81800 32.01600
H  -7.82000 22.72500 28.54900
H  -8.46400 23.96500 22.04100
H  -4.63000 28.85000 22.60900
H  -4.66200 25.37400 30.57200
H  -7.00000 24.22200 30.60300
H  -5.22300 22.52100 28.96100
H  -6.04500 22.20200 30.50200
H  -4.40400 23.07000 30.47000
H  -7.40800 26.34000 30.44600
H  -6.23700 27.62300 30.44100
H  -7.31100 26.51700 32.73500
H  -5.94700 27.46300 32.83700
H  -9.21400 21.35500 27.83700
H  -10.04300 20.46600 26.41600
H  -10.76000 21.87500 27.03700
H  -11.64900 20.66100 22.94000
H  -11.46300 21.04100 24.70800
H  -10.45100 19.80800 24.05800
H  -7.75200 25.89000 20.53600
H  -5.46300 27.34600 20.53700
H  -5.11500 25.22500 19.92600
H  -6.46600 24.35200 19.40300
H  -5.84900 23.78500 20.82100
H  -6.86000 29.21300 21.86100
H  -8.27100 28.14200 21.65500
H  -6.88200 29.91300 19.72500
H  -8.55500 29.32600 19.85800
H  -7.41300 28.34200 19.04700
H  -3.29000 30.77200 24.22400
H  -2.24800 29.45800 23.79300
H  -1.81500 30.44300 25.24500
H  -4.12400 28.66500 29.54700
H  -2.33000 25.95600 32.52300
H  -1.81400 27.48900 32.87100
H  -0.86300 26.61900 31.73400

