158

Mg 50.07700 45.19600 41.67900
C  46.86500 45.95000 40.61700
C  49.68100 41.99900 40.60300
C  53.41600 44.71500 41.94700
C  50.72300 48.76000 42.04100
N  48.42700 44.11800 40.70700
C  47.21000 44.63000 40.30000
C  46.34500 43.59900 39.58000
C  47.23400 42.33000 39.63100
C  48.53700 42.80300 40.36700
C  46.57000 41.17500 40.40200
C  46.11700 44.08900 38.04500
C  44.74900 44.06600 37.51300
H  44.57000 43.43000 36.10400
N  51.36600 43.50600 41.43100
C  51.00600 42.30000 40.99600
C  52.09800 41.44100 41.10800
C  53.18200 42.18900 41.57800
C  52.72200 43.50200 41.57400
C  51.91400 40.03000 40.67400
C  54.63800 41.73500 41.82700
O  54.88800 40.54700 41.77000
C  55.82700 42.60600 42.12200
N  51.74000 46.52300 41.97600
C  53.01900 46.00900 42.05000
C  54.03800 47.01900 42.64100
C  53.29300 48.38000 42.20600
C  51.82200 47.87900 42.19700
C  54.30600 46.90600 44.19100
C  53.84800 48.84900 40.86500
C  55.04700 49.81400 40.90200
N  49.01100 47.03400 41.53000
C  49.37400 48.33500 41.75100
C  48.15900 49.11800 41.69600
C  47.18600 48.21100 41.26700
C  47.77800 46.94800 41.13000
C  48.02400 50.62000 41.93300
C  45.80600 48.14900 40.83000
O  44.95900 48.99800 40.79200
C  45.58200 46.75300 40.34900
C  44.35000 46.13400 40.91300
O  44.22600 45.74900 42.04700
O  43.36700 46.03900 39.92200
C  42.18000 45.23700 40.34800
H  49.39400 40.97600 40.35100
H  54.41800 44.58600 42.36300
H  50.90800 49.83600 42.02400
H  45.41200 43.56500 40.14300
H  47.42200 41.90000 38.64800
H  45.54400 41.34000 40.73200
H  47.12900 40.94000 41.30800
H  46.58400 40.24700 39.83100
H  46.73700 43.41500 37.45400
H  46.50000 45.10600 37.96100
H  44.39900 45.09100 37.38500
H  44.04100 43.64900 38.22800
H  50.93500 39.65100 40.96500
H  52.65700 39.39600 41.15800
H  52.14200 39.87000 39.62000
H  55.66300 43.14000 43.05800
H  55.81600 43.37100 41.34600
H  56.74600 42.01900 42.11300
H  54.97700 47.03700 42.08800
H  53.47000 49.14100 42.96500
H  55.30100 47.22200 44.50200
H  54.35700 45.91700 44.64500
H  53.52200 47.47100 44.69600
H  53.09600 49.17000 40.14300
H  54.12400 47.97700 40.27200
H  54.97000 50.51100 40.06700
H  55.93500 49.18200 40.89100
H  55.08400 50.37400 41.83600
H  48.48200 51.34100 41.25500
H  48.31600 50.88900 42.94800
H  46.95000 50.80100 41.89600
H  45.42700 46.91900 39.28300
H  41.29800 45.59900 39.81900
H  41.94400 45.23100 41.41200
H  42.36000 44.18400 40.13200
Mg 6.80600 54.44900 40.23600
C  6.28300 51.04400 39.85400
C  10.11900 53.94600 39.14000
C  6.99100 57.73300 39.40500
C  3.26600 54.84000 40.39600
N  8.03700 52.76200 39.54500
C  7.58500 51.42600 39.58000
C  8.75200 50.48200 39.12600
C  9.98900 51.37600 39.29900
C  9.35100 52.83000 39.22200
C  10.66200 51.32200 40.69500
C  8.66400 49.92500 37.68700
C  8.23100 50.85600 36.57900
H  6.89900 50.60800 35.84500
N  8.36000 55.66400 39.38400
C  9.68600 55.31600 39.19200
C  10.49000 56.48400 38.92100
C  9.61700 57.59500 39.06700
C  8.25400 57.04200 39.24200
C  11.93300 56.43400 38.48900
C  10.06600 59.12900 39.04100
O  11.20600 59.46400 38.79200
C  9.05400 60.21000 39.29300
N  5.31600 56.07300 39.91300
C  5.71300 57.28900 39.65900
C  4.54700 58.25800 39.98700
C  3.38100 57.34500 40.32500
C  4.04200 56.01600 40.15300
C  4.89400 59.38800 41.04700
C  2.12200 57.54500 39.37400
C  0.74200 57.37900 40.04400
N  5.04000 53.16200 40.35200
C  3.71600 53.47600 40.40100
C  2.95900 52.26000 40.50400
C  3.96500 51.25600 40.33000
C  5.18600 51.90200 40.12700
C  1.43400 52.21800 40.69800
C  4.17000 49.81700 40.29400
O  3.39700 48.90400 40.37000
C  5.64300 49.63800 39.86700
C  5.59700 48.92800 38.62700
O  5.01300 49.30300 37.63400
O  6.32200 47.73500 38.69200
C  6.14300 46.83100 37.47900
H  11.17800 53.70800 39.01700
H  6.96200 58.82500 39.39300
H  2.22000 55.07500 40.60500
H  8.67000 49.68100 39.86000
H  10.84100 51.22400 38.63600
H  10.89200 52.31200 41.08800
H  11.64700 50.86600 40.59800
H  10.06400 50.68000 41.34000
H  7.99800 49.06300 37.65500
H  9.59700 49.51400 37.30400
H  8.90500 50.81800 35.72300
H  8.17600 51.85900 37.00100
H  12.13200 56.99100 37.57400
H  12.21500 55.43700 38.14900
H  12.56700 56.83300 39.28000
H  9.52300 61.19300 39.27600
H  8.50800 59.88300 40.17800
H  8.35900 60.35600 38.46600
H  4.28600 58.84000 39.10300
H  3.03100 57.48400 41.34700
H  5.88800 59.37900 41.49300
H  4.25600 59.28200 41.92400
H  4.69300 60.40100 40.69700
H  2.17500 56.81200 38.56900
H  1.98500 58.55600 38.99000
H  0.38100 56.38100 39.79400
H  0.10800 58.17400 39.65300
H  0.62000 57.44700 41.12500
H  1.04600 52.32800 39.68500
H  1.14900 53.13200 41.21900
H  1.06800 51.30700 41.17000
H  6.12700 48.99200 40.60000
H  5.16600 46.35600 37.39300
H  6.85800 46.06100 37.76800
H  6.35700 47.28500 36.51200

