158

Mg -2.38000 17.15800 26.24700
C  -2.75400 15.12900 29.15900
C  -2.72500 19.88300 28.15100
C  -2.70500 19.16300 23.39500
C  -2.51600 14.28000 24.24600
N  -2.65700 17.41300 28.37900
C  -2.70400 16.52200 29.42000
C  -2.89400 17.18600 30.80800
C  -2.85800 18.68600 30.35600
C  -2.69100 18.67700 28.87100
C  -4.05600 19.46600 31.02200
C  -1.87700 16.77700 31.89600
C  -1.74800 17.85900 32.97100
H  -1.26200 17.27000 34.31100
N  -2.55900 19.29500 25.90100
C  -2.71700 20.21700 26.84100
C  -2.79900 21.55700 26.27000
C  -2.75800 21.37200 24.88800
C  -2.64700 19.89500 24.67400
C  -2.83300 22.77200 27.09200
C  -2.80500 22.39500 23.74600
O  -2.67800 21.96300 22.55300
C  -2.90100 23.88300 23.96600
N  -2.67700 16.75200 24.14400
C  -2.65300 17.77400 23.17400
C  -2.59200 17.12800 21.70100
C  -2.43700 15.61000 22.05000
C  -2.54000 15.51000 23.58800
C  -3.71800 17.48200 20.73500
C  -1.11200 14.92500 21.45100
C  -1.26000 14.01800 20.22100
N  -2.48100 15.06500 26.57200
C  -2.58600 14.03700 25.67000
C  -2.68200 12.81000 26.43300
C  -2.85600 13.18300 27.76500
C  -2.65800 14.58400 27.82900
C  -2.73400 11.38300 25.83500
C  -3.03700 12.74200 29.17700
O  -3.02800 11.62100 29.64000
C  -2.99300 13.99600 30.08400
C  -1.89800 13.75700 31.03600
O  -0.75700 14.12000 30.83100
O  -2.32000 13.16100 32.17300
C  -1.37500 13.01000 33.26000
H  -2.79600 20.75600 28.80200
H  -2.95600 19.72700 22.49400
H  -2.48200 13.37600 23.63500
H  -3.94900 16.99400 31.00700
H  -1.94800 19.17400 30.70600
H  -4.56800 20.18600 30.38300
H  -3.68200 20.04400 31.86700
H  -4.82600 18.84100 31.47400
H  -0.94900 16.49500 31.39800
H  -2.30200 15.92700 32.42900
H  -2.65100 18.45800 33.08900
H  -0.95400 18.46000 32.52700
H  -2.14900 22.58700 27.92100
H  -3.82400 22.85800 27.53900
H  -2.49400 23.63600 26.52100
H  -3.66700 23.98900 24.73400
H  -3.05600 24.42400 23.03300
H  -1.99900 24.33700 24.37700
H  -1.68600 17.46000 21.19300
H  -3.37400 15.09500 21.83800
H  -4.10200 16.61100 20.20500
H  -3.47300 18.24100 19.99200
H  -4.55900 17.90400 21.28600
H  -0.94100 14.15800 22.20700
H  -0.34100 15.66700 21.24400
H  -1.10000 14.64800 19.34600
H  -2.25600 13.57600 20.19800
H  -0.43700 13.30400 20.20900
H  -1.77300 10.91600 26.04900
H  -2.91900 11.36200 24.76100
H  -3.63100 11.01000 26.32900
H  -3.91800 14.13400 30.64400
H  -1.55300 12.00500 33.64400
H  -1.53100 13.71300 34.07900
H  -0.35800 13.01800 32.87000
Mg -11.70100 16.68300 41.30500
C  -8.86600 14.86800 40.83900
C  -10.28300 19.38200 39.73700
C  -14.79200 18.17000 41.27600
C  -13.40200 13.73300 42.26100
N  -9.88200 16.92300 40.09700
C  -8.76300 16.13800 40.27800
C  -7.47600 16.76600 39.70000
C  -8.02200 18.18300 39.26500
C  -9.50500 18.23400 39.82400
C  -7.09500 19.41300 39.76600
C  -6.87000 15.98400 38.45600
C  -5.44800 16.36200 38.20400
H  -5.18400 16.81300 36.79400
N  -12.37900 18.63100 40.75900
C  -11.66000 19.53600 40.08800
C  -12.46600 20.69900 39.78800
C  -13.74500 20.49500 40.43200
C  -13.72500 19.05000 40.87300
C  -11.98500 21.90900 38.91200
C  -14.84300 21.49900 40.41400
O  -14.72100 22.59400 39.86200
C  -16.26500 21.22600 41.02100
N  -13.78400 16.04700 41.51200
C  -14.89600 16.86600 41.47200
C  -16.16600 16.12300 41.76600
C  -15.75400 14.69000 42.13200
C  -14.21600 14.79500 41.99700
C  -17.17200 16.82800 42.70700
C  -16.47600 13.57000 41.40800
C  -17.44100 12.54900 42.21900
N  -11.23300 14.63400 41.55200
C  -12.00000 13.61700 42.08500
C  -11.09800 12.49400 42.24500
C  -9.87800 12.94900 41.80800
C  -9.99800 14.26000 41.35900
C  -11.54100 11.10900 42.65900
C  -8.47100 12.49900 41.54600
O  -7.94200 11.40600 41.61100
C  -7.75700 13.77400 40.97000
C  -6.79200 14.20100 42.05700
O  -7.06300 14.80400 43.04600
O  -5.46600 13.92000 41.76300
C  -4.56900 14.05200 42.86400
H  -9.79400 20.15600 39.14200
H  -15.76800 18.64400 41.40100
H  -13.80800 12.77900 42.60500
H  -6.73200 16.93400 40.47900
H  -7.99500 18.39500 38.19600
H  -7.18300 20.18200 38.99800
H  -6.11100 18.98300 39.95200
H  -7.54800 19.98000 40.58000
H  -7.55600 16.24200 37.64900
H  -7.01300 14.91300 38.59600
H  -4.87600 15.45200 38.38800
H  -5.11300 17.09900 38.93300
H  -12.19400 22.85400 39.41300
H  -12.62300 21.85900 38.03000
H  -10.90700 21.98000 38.76700
H  -16.78200 22.18400 40.97200
H  -16.13000 20.93100 42.06200
H  -16.81000 20.47500 40.44800
H  -16.59400 16.10500 40.76400
H  -16.00600 14.52000 43.17900
H  -16.78500 17.79600 43.02700
H  -17.59800 16.18000 43.47300
H  -18.12700 17.02000 42.21900
H  -15.75600 13.20000 40.67800
H  -17.20200 14.08400 40.77800
H  -18.48300 12.70500 41.93800
H  -17.18500 12.59500 43.27700
H  -17.13700 11.57500 41.83500
H  -11.89100 10.64400 41.73700
H  -12.28000 11.01200 43.45400
H  -10.66700 10.65400 43.12500
H  -7.18800 13.42800 40.10600
H  -4.44900 15.12800 42.98800
H  -3.57200 13.73200 42.56100
H  -4.85900 13.55300 43.78800

