158

Mg 2.30600 -0.65400 44.35100
C  5.86400 -0.24900 43.64500
C  1.87200 2.21800 42.40600
C  -0.98900 -1.29100 44.35000
C  2.97200 -3.58600 46.05700
N  3.72900 0.94800 43.32000
C  5.10100 0.72900 42.97300
C  5.65100 1.85600 42.07600
C  4.41500 2.85500 42.04200
C  3.23500 2.02000 42.63600
C  4.59200 4.12200 42.81800
C  5.92900 1.29700 40.68300
C  7.29900 1.73000 40.08500
H  7.20600 2.68600 38.92500
N  0.69500 0.33800 43.57200
C  0.75400 1.50800 42.86000
C  -0.63100 2.00600 42.53800
C  -1.52500 0.88900 42.88700
C  -0.62500 -0.09900 43.56900
C  -0.93200 3.30800 41.84600
C  -2.95700 0.89300 42.51600
O  -3.47300 1.86400 42.00800
C  -3.75900 -0.32800 42.81500
N  1.14700 -2.27500 45.02500
C  -0.21200 -2.31600 44.99100
C  -0.82200 -3.53100 45.71400
C  0.49800 -4.12500 46.35600
C  1.66500 -3.28800 45.77900
C  -1.96700 -3.21500 46.70900
C  0.59600 -5.71600 46.03400
C  1.24400 -6.59500 47.24900
N  4.00100 -1.76200 44.79000
C  4.15600 -2.90100 45.57300
C  5.52600 -3.22000 45.73700
C  6.18200 -2.21400 45.04600
C  5.26300 -1.31000 44.42700
C  6.11100 -4.39100 46.50200
C  7.43200 -1.68600 44.74000
O  8.53200 -2.16500 45.05700
C  7.32700 -0.37100 43.75900
C  7.88600 0.75500 44.46800
O  7.60100 1.06800 45.64100
O  8.82000 1.49400 43.71100
C  9.22100 2.76800 44.31200
H  1.67600 3.18800 41.94500
H  -2.07400 -1.41200 44.39200
H  3.15000 -4.47600 46.66500
H  6.51800 2.25200 42.60500
H  4.17800 3.15700 41.02200
H  4.11000 3.99700 43.78700
H  4.19400 5.01000 42.32700
H  5.61300 4.47700 42.96100
H  5.18800 1.77400 40.04100
H  5.87300 0.21400 40.79100
H  7.85600 0.87600 39.70100
H  7.91700 2.09500 40.90600
H  -1.87700 3.64300 42.27300
H  -0.91700 3.19300 40.76200
H  -0.19000 4.08500 42.03000
H  -4.70100 -0.34900 42.26700
H  -3.79400 -0.49400 43.89100
H  -3.07000 -1.10200 42.47700
H  -1.22400 -4.26400 45.01500
H  0.47400 -4.07200 47.44500
H  -1.72200 -3.65600 47.67500
H  -2.78100 -3.85100 46.36100
H  -2.30800 -2.18300 46.79500
H  0.90500 -5.98800 45.02500
H  -0.44600 -6.01700 45.92400
H  2.05700 -7.24900 46.93300
H  0.46000 -7.27200 47.58700
H  1.43100 -5.93700 48.09800
H  5.46300 -5.26400 46.42100
H  6.46000 -4.22200 47.52100
H  6.97200 -4.78700 45.96400
H  7.88900 -0.53700 42.84000
H  10.11200 2.59500 44.91500
H  8.44300 3.13200 44.98400
H  9.44600 3.55300 43.59000
Mg 47.71500 44.00700 42.38500
C  44.35500 43.07200 42.58800
C  48.46200 40.62500 41.84000
C  50.86000 44.92500 41.52300
C  46.66400 47.43200 42.19500
N  46.45400 42.02900 42.19700
C  45.08800 41.89400 42.34900
C  44.70600 40.41000 42.18700
C  46.10600 39.66500 42.18100
C  47.10900 40.82700 42.12200
C  46.22200 38.77800 43.39200
C  43.72200 39.98300 41.12900
C  43.76100 40.61600 39.68100
H  44.13700 39.69500 38.49400
N  49.45100 42.88900 41.79400
C  49.55700 41.51200 41.67300
C  50.89300 41.16700 41.43100
C  51.54300 42.40500 41.20900
C  50.60200 43.51600 41.45600
C  51.30700 39.72600 41.30000
C  52.98500 42.46100 40.88500
O  53.71800 41.47600 40.63900
C  53.76800 43.76800 40.76200
N  48.64900 45.91500 42.06100
C  49.94800 46.01300 41.80100
C  50.35200 47.52800 41.79500
C  48.96600 48.21900 41.45600
C  48.02600 47.16400 42.05100
C  51.06700 48.18600 42.92500
C  48.65500 48.44200 39.86900
C  48.19900 49.84700 39.49200
N  45.95700 45.07300 42.52900
C  45.64700 46.48500 42.43000
C  44.27200 46.67100 42.64200
C  43.74100 45.39500 42.69100
C  44.76800 44.46600 42.62100
C  43.63400 48.03200 42.76600
C  42.50100 44.65900 42.86300
O  41.38700 45.12300 42.96600
C  42.87000 43.12600 42.87900
C  42.50700 42.59600 44.23100
O  42.07500 41.43400 44.44000
O  42.96300 43.42800 45.18900
C  42.95100 42.96300 46.61100
H  48.60300 39.55400 41.67900
H  51.85200 45.15000 41.12600
H  46.44100 48.49400 42.31400
H  44.22300 40.16500 43.13300
H  46.29000 39.04200 41.30500
H  47.14700 38.21500 43.26200
H  45.25300 38.30700 43.55600
H  46.37500 39.44800 44.23800
H  42.70700 40.22300 41.44700
H  43.80600 38.90000 41.04700
H  44.38000 41.51100 39.61700
H  42.75100 40.98100 39.49500
H  51.99400 39.56100 40.47100
H  50.52300 39.02100 41.02300
H  51.75800 39.26700 42.18000
H  53.53300 44.24900 39.81300
H  54.79700 43.41600 40.83300
H  53.66200 44.34700 41.68000
H  51.02000 47.68600 40.94800
H  48.73900 49.09100 42.06900
H  52.09600 48.39800 42.63500
H  50.93700 47.56900 43.81400
H  50.75900 49.22700 43.02900
H  47.78100 47.82900 39.64900
H  49.41600 48.03200 39.20500
H  47.57500 50.42100 40.17800
H  47.48700 49.78100 38.66900
H  49.01300 50.54600 39.30100
H  43.82400 48.49400 41.79800
H  44.07500 48.58400 43.59600
H  42.56500 47.83900 42.84900
H  42.26700 42.54700 42.17800
H  42.51100 42.01300 46.91600
H  42.30100 43.66900 47.12700
H  43.96000 42.94600 47.02400

