158

Mg 47.19000 24.61200 27.84000
C  48.37000 26.65700 30.53800
C  46.58500 22.04300 30.14000
C  46.85500 22.56800 25.26200
C  48.81500 26.85100 25.73600
N  47.54100 24.35400 30.17000
C  47.72300 25.44900 31.00400
C  47.32900 25.10600 32.46600
C  46.86600 23.55600 32.30800
C  47.06200 23.27400 30.82000
C  47.43900 22.49500 33.26600
C  46.29100 25.98500 33.16600
C  46.66500 26.58000 34.49700
H  45.61400 26.93500 35.54800
N  46.62900 22.56900 27.73100
C  46.44700 21.71900 28.77200
C  46.09900 20.47900 28.21700
C  46.15100 20.54200 26.79800
C  46.52800 21.96800 26.54600
C  45.78500 19.26200 29.09300
C  45.85200 19.52500 25.64800
O  45.87700 19.79300 24.46800
C  45.52200 18.15900 26.02800
N  47.91100 24.61200 25.80000
C  47.48000 23.72800 24.91800
C  47.79100 24.10200 23.46400
C  48.16600 25.60400 23.60300
C  48.33500 25.73400 25.10300
C  48.85000 23.15100 22.73200
C  47.08300 26.62900 23.00800
C  47.70000 27.70400 22.05800
N  48.21200 26.48500 27.99300
C  48.80900 27.21500 27.10500
C  49.43500 28.36200 27.71300
C  49.10500 28.25600 29.04600
C  48.46100 27.05800 29.16100
C  50.09800 29.46100 27.00900
C  49.37300 28.82600 30.30000
O  49.98100 29.82100 30.54400
C  48.67600 27.89200 31.34500
C  49.62100 27.59700 32.47400
O  50.42200 26.72300 32.51600
O  49.48400 28.51500 33.45700
C  50.29400 28.29200 34.70500
H  46.16600 21.30500 30.82700
H  46.57200 21.97600 24.38900
H  49.32800 27.55100 25.07200
H  48.25300 25.13800 33.04200
H  45.80300 23.59400 32.54100
H  48.04600 22.90300 34.07500
H  48.14100 21.87500 32.70900
H  46.73200 21.80900 33.73300
H  45.36300 25.46300 33.40000
H  45.87300 26.80300 32.58000
H  47.12300 27.53700 34.24500
H  47.33900 25.99500 35.12200
H  46.26300 19.35000 30.06800
H  46.16400 18.31700 28.70500
H  44.71300 19.13200 29.23900
H  46.24900 17.74400 26.72600
H  45.47700 17.52400 25.14400
H  44.59100 18.09800 26.59200
H  46.83400 24.02700 22.94800
H  49.16600 25.85200 23.24600
H  48.47700 22.84200 21.75600
H  48.91100 22.22600 23.30500
H  49.83900 23.58900 22.59700
H  46.55400 27.11100 23.83100
H  46.34400 26.10500 22.40200
H  47.40100 27.57100 21.01800
H  48.78500 27.59800 22.04600
H  47.38400 28.71300 22.32200
H  49.49200 30.14300 26.41200
H  50.91000 29.09000 26.38400
H  50.60300 29.99300 27.81500
H  47.81700 28.53100 31.55200
H  51.18500 28.87600 34.47400
H  50.59800 27.28200 34.98000
H  49.93500 28.68600 35.65600
Mg 42.18700 41.09800 27.05300
C  41.36300 43.35000 29.45300
C  43.00800 38.71300 29.12200
C  42.91500 38.99300 24.34600
C  41.29500 43.52300 24.58500
N  42.40000 41.15900 29.11900
C  41.93700 42.12900 29.95800
C  41.96200 41.70600 31.45300
C  42.58300 40.17800 31.31100
C  42.64500 39.96600 29.77200
C  43.86900 39.81500 32.00400
C  40.58600 41.88600 32.22000
C  40.58200 42.71800 33.56100
H  39.85400 42.12400 34.78400
N  42.97200 39.15500 26.79800
C  43.21700 38.31500 27.83300
C  43.65900 37.01700 27.32100
C  43.80900 37.11100 25.94800
C  43.25000 38.51100 25.63500
C  43.90100 35.85200 28.29000
C  44.34800 36.21000 24.89900
O  44.69200 36.56300 23.76300
C  44.67600 34.85000 25.24600
N  42.14400 41.26500 24.76600
C  42.29300 40.19200 23.97400
C  42.04900 40.54300 22.46500
C  41.51900 42.04100 22.54000
C  41.60700 42.30800 24.06200
C  43.34700 40.43400 21.46300
C  40.11200 42.24800 21.91700
C  40.11400 42.25400 20.41900
N  41.62200 43.07300 26.97400
C  41.22900 43.86000 25.88500
C  40.68900 45.11600 26.40600
C  40.71400 44.95600 27.78900
C  41.33000 43.73100 28.10200
C  40.10700 46.27200 25.60500
C  40.38700 45.59300 28.98400
O  39.88600 46.73000 29.23800
C  40.77900 44.55700 30.18400
C  41.71600 45.07200 31.16100
O  42.89200 45.18500 31.01800
O  41.08100 45.47700 32.27400
C  41.88300 46.22600 33.22600
H  43.08000 37.88300 29.82800
H  42.91700 38.23400 23.56100
H  40.79400 44.23500 23.92600
H  42.80400 42.19500 31.94300
H  41.89500 39.37700 31.58300
H  43.94900 40.44100 32.89300
H  44.73800 39.86000 31.34900
H  43.87600 38.76900 32.31000
H  40.23900 40.87900 32.45200
H  39.88500 42.36600 31.53600
H  39.97100 43.61900 33.50400
H  41.57600 43.04900 33.86200
H  43.41200 34.96800 27.88000
H  43.62600 36.02400 29.33100
H  44.97400 35.69100 28.39200
H  45.07900 34.81500 26.25800
H  45.39400 34.31800 24.62200
H  43.68100 34.40900 25.29500
H  41.33800 39.79000 22.12600
H  42.11500 42.72800 21.94000
H  44.29600 40.40400 21.99800
H  43.41000 41.31200 20.82000
H  43.23600 39.52200 20.87600
H  39.78200 43.19400 22.34800
H  39.40700 41.49100 22.26100
H  39.50200 43.08300 20.06600
H  39.62600 41.37300 20.00000
H  41.05700 42.38500 19.88900
H  39.22000 45.97900 25.04300
H  40.77400 46.55300 24.79000
H  40.03900 47.17200 26.21500
H  39.82000 44.24800 30.60100
H  41.19900 46.73700 33.90300
H  42.44000 46.98700 32.68000
H  42.44500 45.42700 33.70900

