158

Mg 43.51100 3.79700 48.59500
C  41.28000 6.27500 47.67700
C  41.06300 1.47100 48.13100
C  45.93200 1.34800 48.28300
C  46.17600 6.24100 48.41500
N  41.45400 3.91800 47.81200
C  40.71900 5.06600 47.59200
C  39.22100 4.69100 47.31000
C  39.16100 3.20400 47.84800
C  40.67400 2.83100 47.93300
C  38.55400 3.01400 49.28600
C  38.93400 4.69500 45.76000
C  37.75300 5.47600 45.19800
H  37.91500 6.46200 44.07200
N  43.49400 1.69200 48.50200
C  42.33300 0.95400 48.23700
C  42.66500 -0.42900 48.28800
C  44.09200 -0.55700 48.37700
C  44.60200 0.83400 48.40300
C  41.59000 -1.53800 48.27400
C  44.85000 -1.83000 48.45000
O  44.31900 -2.89800 48.32300
C  46.33900 -1.87500 48.71700
N  45.69500 3.79500 48.36600
C  46.45200 2.67100 48.29100
C  47.95300 2.93200 48.21700
C  48.03500 4.47100 48.41800
C  46.53600 4.89300 48.46400
C  48.77900 2.10500 49.23400
C  48.85500 5.27700 47.32800
C  49.88300 6.22900 47.93700
N  43.70700 5.81200 48.21300
C  44.86000 6.61300 48.17500
C  44.43100 7.94900 48.03400
C  43.02800 7.88300 47.82000
C  42.65900 6.53400 47.90700
C  45.28600 9.22400 48.00300
C  41.76000 8.67600 47.53900
O  41.54800 9.90600 47.45700
C  40.56600 7.59700 47.44200
C  39.60400 7.93700 48.46200
O  39.54700 7.56100 49.64700
O  38.60800 8.59500 47.85500
C  37.40400 8.81100 48.55900
H  40.27900 0.73400 48.31700
H  46.66300 0.55200 48.13000
H  46.95900 6.99700 48.50400
H  38.61400 5.36600 47.91400
H  38.67900 2.48300 47.18800
H  39.30400 3.23500 50.04600
H  38.12400 2.01200 49.29000
H  37.77200 3.73800 49.51800
H  38.80200 3.63100 45.56100
H  39.78700 5.05500 45.18500
H  37.38100 6.05000 46.04600
H  37.02000 4.76400 44.81800
H  41.84100 -2.13100 47.39500
H  40.55100 -1.25200 48.43900
H  41.81900 -2.11800 49.16800
H  46.75200 -1.55400 47.76100
H  46.64000 -2.92100 48.77800
H  46.44700 -1.35800 49.67100
H  48.23400 2.62800 47.20900
H  48.30700 4.82100 49.41300
H  48.10700 1.71400 49.99800
H  49.45100 2.71900 49.83400
H  49.35700 1.30400 48.77300
H  48.18300 5.93900 46.78000
H  49.40700 4.50100 46.79700
H  49.53500 7.25300 47.80900
H  50.78000 6.14700 47.32200
H  50.09300 6.14600 49.00300
H  45.61800 9.42400 46.98400
H  46.18300 9.24300 48.62200
H  44.60300 9.99900 48.35000
H  40.16000 7.64200 46.43100
H  36.66800 9.14300 47.82700
H  37.41200 9.56400 49.34700
H  36.87200 7.92600 48.90800
Mg -11.57800 16.94300 42.56700
C  -8.17400 17.26200 42.60100
C  -11.77000 20.39200 41.92300
C  -14.87000 16.65800 41.95600
C  -11.14200 13.43900 42.35600
N  -10.07800 18.66200 42.32400
C  -8.76000 18.50900 42.43500
C  -8.11300 19.93400 42.23700
C  -9.26500 20.86800 42.27700
C  -10.48400 19.95300 42.21700
C  -9.35900 21.83000 43.49200
C  -7.25000 19.93200 40.96100
C  -5.90100 20.64100 41.10000
H  -5.40400 21.44000 39.88100
N  -13.05200 18.32000 42.18000
C  -12.94000 19.68400 42.02500
C  -14.26300 20.28900 41.82400
C  -15.18000 19.22400 41.87000
C  -14.38100 17.99500 42.05400
C  -14.58800 21.75800 41.78000
C  -16.70500 19.41500 41.85300
O  -17.26200 20.48300 41.63100
C  -17.57400 18.21900 41.95300
N  -12.81700 15.22100 42.20300
C  -14.16900 15.41500 42.08800
C  -14.87800 14.07100 42.13100
C  -13.67000 13.09400 41.95900
C  -12.44800 13.96400 42.22200
C  -16.00400 13.86200 43.29100
C  -13.57700 12.43900 40.50700
C  -13.73500 10.88700 40.48100
N  -10.05700 15.60100 42.56400
C  -10.03600 14.20900 42.50200
C  -8.62100 13.73300 42.70200
C  -7.90900 14.97900 42.73900
C  -8.83300 16.00600 42.66700
C  -8.21000 12.35300 42.62400
C  -6.53100 15.43200 42.87000
O  -5.44500 14.88600 43.02000
C  -6.71000 17.01400 42.95100
C  -6.33800 17.49200 44.35600
O  -6.98900 17.32100 45.38500
O  -5.08100 18.17100 44.27000
C  -4.61800 18.91100 45.44300
H  -11.89500 21.44900 41.67800
H  -15.89900 16.53400 41.61200
H  -10.90700 12.37300 42.37600
H  -7.38500 20.00700 43.04500
H  -9.27500 21.50500 41.39300
H  -9.95500 22.69500 43.20000
H  -8.35300 22.11600 43.79900
H  -9.95600 21.39000 44.29100
H  -7.88500 20.33000 40.17000
H  -6.94100 18.89700 40.81700
H  -5.10800 19.92800 41.32400
H  -5.81500 21.38900 41.88900
H  -15.22200 21.94900 40.91400
H  -13.72900 22.34800 41.46300
H  -14.94700 22.10700 42.74800
H  -18.59400 18.60200 41.93400
H  -17.43800 17.72000 42.91300
H  -17.52700 17.60300 41.05500
H  -15.53800 14.09600 41.26400
H  -13.59200 12.31400 42.71600
H  -16.31700 14.84400 43.64600
H  -15.61900 13.26800 44.12000
H  -16.84600 13.26900 42.93400
H  -12.60700 12.79400 40.16000
H  -14.40700 12.84000 39.92500
H  -14.28700 10.43200 41.30200
H  -12.88500 10.24800 40.23800
H  -14.33900 10.58400 39.62600
H  -8.80100 11.79100 41.90100
H  -8.21700 11.84100 43.58600
H  -7.22900 12.38000 42.15100
H  -5.94700 17.34500 42.24800
H  -5.11400 18.42500 46.28300
H  -4.76000 19.99100 45.46100
H  -3.55300 18.79000 45.64000

