158

Mg 25.73600 -6.31900 48.41100
C  27.33800 -3.65900 46.82600
C  23.22300 -6.17300 46.08400
C  24.55300 -9.13200 49.59200
C  28.75300 -6.80600 50.17500
N  25.39600 -5.08700 46.61100
C  26.12200 -4.03600 46.19000
C  25.65500 -3.53500 44.82800
C  24.24200 -4.16000 44.74900
C  24.25700 -5.23400 45.89500
C  23.12500 -3.08500 44.93400
C  26.63500 -3.92000 43.68600
C  26.97000 -2.85900 42.64000
H  25.95600 -2.71500 41.47300
N  24.10500 -7.49600 47.92500
C  23.14300 -7.20700 47.01500
C  22.06500 -8.16900 47.08600
C  22.44800 -9.12200 48.05200
C  23.70800 -8.58500 48.60300
C  20.78600 -8.17000 46.32800
C  21.71300 -10.43000 48.32400
O  20.89200 -10.89700 47.50200
C  22.20200 -11.43600 49.35000
N  26.49400 -7.61500 49.83300
C  25.85400 -8.76700 50.06500
C  26.67400 -9.83600 50.92500
C  28.07700 -9.06300 51.02000
C  27.77700 -7.77900 50.28200
C  26.08100 -10.19200 52.31000
C  29.19100 -9.88500 50.30800
C  29.41700 -11.39300 50.78300
N  27.64000 -5.37600 48.58300
C  28.71800 -5.65900 49.42000
C  29.76100 -4.66700 49.15900
C  29.27100 -3.83900 48.17300
C  27.97600 -4.35200 47.83300
C  31.12200 -4.66400 49.75100
C  29.46200 -2.62600 47.38600
O  30.34400 -1.83400 47.41300
C  28.30300 -2.60600 46.37500
C  27.76800 -1.23900 46.44300
O  27.73000 -0.43900 45.48000
O  27.39300 -0.98400 47.76300
C  27.21600 0.34600 48.20900
H  22.33200 -6.12200 45.45500
H  24.16000 -10.04800 50.03800
H  29.74400 -6.92000 50.62100
H  25.60000 -2.45000 44.73200
H  24.09400 -4.66000 43.79200
H  22.90000 -2.44500 44.08100
H  23.57800 -2.52100 45.74900
H  22.18400 -3.56800 45.19700
H  26.18600 -4.74700 43.13700
H  27.59200 -4.26500 44.07700
H  27.93600 -3.04400 42.17000
H  26.94200 -1.88500 43.12800
H  20.47300 -7.26300 45.81000
H  19.91500 -8.55000 46.86200
H  20.80800 -8.89500 45.51400
H  23.08700 -11.92400 48.94200
H  21.50000 -12.26900 49.38200
H  22.36200 -11.05000 50.35700
H  26.79800 -10.78200 50.39800
H  28.26800 -8.91600 52.08400
H  25.67100 -11.20200 52.33200
H  25.32000 -9.44100 52.52400
H  26.87700 -10.17700 53.05400
H  30.15600 -9.39500 50.43100
H  29.06700 -9.82100 49.22600
H  30.48800 -11.50900 50.95000
H  29.23400 -12.14000 50.01100
H  28.87500 -11.57200 51.71200
H  31.88400 -4.14000 49.17400
H  31.42400 -5.67800 50.01400
H  31.05500 -4.03500 50.63900
H  28.81000 -2.73100 45.41800
H  27.33700 1.03700 47.37600
H  28.04100 0.55700 48.89000
H  26.23900 0.50400 48.66700
Mg 36.80400 49.29400 25.00700
C  36.73600 47.29300 27.84800
C  35.40100 51.85800 26.96700
C  36.13400 51.08300 22.28200
C  37.71800 46.59800 23.12100
N  36.14900 49.45300 27.13700
C  36.23700 48.56200 28.18300
C  36.01400 49.13600 29.53200
C  35.47900 50.56400 29.14000
C  35.65600 50.64100 27.61600
C  34.04600 50.95000 29.60400
C  37.29700 49.23500 30.47200
C  37.00700 48.72000 31.88000
H  35.68500 49.09400 32.54300
N  36.01000 51.27700 24.65200
C  35.54400 52.12800 25.58400
C  35.06300 53.34400 24.88500
C  35.32600 53.17300 23.48100
C  35.81500 51.82300 23.44000
C  34.42700 54.47400 25.61800
C  35.08800 54.17000 22.38200
O  35.35600 53.98600 21.18500
C  34.51500 55.58800 22.65900
N  36.75200 48.83700 22.99900
C  36.56900 49.77500 22.04900
C  37.01300 49.38900 20.67100
C  37.70800 48.00400 20.99000
C  37.37200 47.79900 22.48700
C  35.75400 49.17200 19.75800
C  39.17900 47.88600 20.59300
C  39.62900 46.59700 19.90400
N  37.07000 47.32200 25.32500
C  37.47000 46.32900 24.45700
C  37.65400 45.03800 25.27300
C  37.42800 45.46400 26.55600
C  37.08900 46.79600 26.55500
C  38.13000 43.72200 24.76600
C  37.41300 44.94300 27.91300
O  37.75800 43.88900 28.40000
C  36.93900 46.13600 28.79700
C  35.78000 45.70800 29.62900
O  34.62800 45.48800 29.28500
O  36.21000 45.46400 30.88900
C  35.19100 45.03500 31.80200
H  34.94100 52.62500 27.59400
H  36.25700 51.73400 21.41400
H  38.05900 45.70000 22.60100
H  35.24100 48.53000 30.00500
H  36.08900 51.40200 29.47700
H  34.15200 51.71200 30.37600
H  33.62800 50.03000 30.01200
H  33.45100 51.45700 28.84400
H  37.75000 50.22400 30.55400
H  38.05400 48.58200 30.03800
H  37.85400 49.05300 32.47900
H  37.11900 47.64500 31.74200
H  35.00300 55.39300 25.72900
H  34.36200 54.21400 26.67400
H  33.44200 54.65400 25.18500
H  33.51500 55.38800 23.04500
H  34.36000 56.14500 21.73500
H  35.17400 56.07800 23.37600
H  37.71500 50.15300 20.33800
H  37.13500 47.20400 20.52000
H  34.87300 49.34300 20.37600
H  35.69500 48.18800 19.29200
H  35.88400 50.01500 19.07900
H  39.83700 47.97700 21.45700
H  39.51800 48.64900 19.89300
H  39.86600 46.84500 18.87000
H  38.95400 45.74100 19.90000
H  40.54200 46.26600 20.39900
H  37.35400 43.15700 24.25000
H  38.47400 43.14500 25.62500
H  38.97100 43.80200 24.07800
H  37.76800 46.14100 29.50400
H  35.59500 44.83300 32.79400
H  34.82800 44.14300 31.29000
H  34.51000 45.87900 31.91200

