158

Mg 49.94600 44.42500 43.45800
C  46.81100 45.21300 41.96900
C  49.55100 41.21300 42.59700
C  53.09900 43.88000 44.44500
C  50.37200 47.87800 43.94100
N  48.30700 43.32400 42.47000
C  47.23000 43.83800 41.74000
C  46.35000 42.66200 41.19000
C  47.24600 41.42300 41.42200
C  48.44200 41.97000 42.20200
C  46.59000 40.07300 42.06800
C  45.77300 42.71700 39.69900
C  46.30400 43.64300 38.57700
H  46.64100 42.96500 37.23800
N  51.14600 42.82300 43.52900
C  50.81700 41.54800 43.16400
C  51.91100 40.62600 43.28000
C  52.98700 41.37900 43.78300
C  52.39900 42.74900 44.02400
C  51.88200 39.23200 42.85500
C  54.45800 40.89000 43.87300
O  54.73000 39.75600 43.52800
C  55.65400 41.72600 44.33200
N  51.49500 45.70300 44.24100
C  52.75200 45.21000 44.49200
C  53.79300 46.35900 44.77400
C  52.90400 47.65500 44.60600
C  51.49100 47.08700 44.23000
C  54.53600 46.19700 46.10500
C  53.38500 48.69200 43.55400
C  53.95200 50.06100 44.12900
N  48.81100 46.18400 43.24100
C  49.11800 47.46700 43.50500
C  48.00900 48.39100 43.11300
C  47.06800 47.51400 42.61400
C  47.59400 46.21100 42.61700
C  48.05500 49.83700 43.21600
C  45.76400 47.47200 42.01700
O  44.96800 48.39200 41.80400
C  45.58300 45.99600 41.48500
C  44.33600 45.32200 41.84900
O  43.44900 45.07000 40.98000
O  44.33800 45.19600 43.21300
C  42.99900 44.69500 43.71600
H  49.50800 40.20500 42.18000
H  54.11700 43.64000 44.75800
H  50.54300 48.95200 44.04300
H  45.56600 42.59300 41.94400
H  47.75700 41.32200 40.46500
H  46.47300 39.29400 41.31500
H  45.63700 40.33700 42.52700
H  47.25900 39.73100 42.85700
H  44.71600 42.90300 39.88900
H  45.90700 41.71100 39.30000
H  47.17600 44.17100 38.96100
H  45.56100 44.42600 38.42900
H  51.81200 39.04600 41.78300
H  50.95400 38.76200 43.18000
H  52.70500 38.59200 43.17500
H  55.76600 42.54100 43.61800
H  56.55700 41.13100 44.19900
H  55.41300 42.14100 45.31100
H  54.62700 46.30500 44.07400
H  52.75900 47.98100 45.63600
H  54.81000 45.18400 46.40000
H  53.73400 46.48000 46.78700
H  55.36400 46.90000 46.19800
H  52.63800 48.83700 42.77400
H  54.16600 48.30800 42.89700
H  54.93800 50.21000 43.68900
H  54.14400 50.03600 45.20100
H  53.30000 50.91600 43.95300
H  48.19900 50.09100 44.26600
H  47.09300 50.22500 42.88300
H  48.93800 50.21600 42.70000
H  45.58600 46.08400 40.39900
H  42.39800 45.38900 44.30300
H  43.28300 43.96800 44.47700
H  42.35200 44.28900 42.93900
Mg 10.21500 47.82400 25.81800
C  8.23700 48.10000 28.70100
C  12.95400 48.95300 27.62100
C  12.13300 47.23300 23.10800
C  7.30200 47.49900 23.92800
N  10.59100 48.34500 27.99300
C  9.61400 48.33300 28.98100
C  10.16800 48.86200 30.31500
C  11.50200 49.58800 29.78000
C  11.76500 48.93500 28.37300
C  11.46500 51.16400 29.71800
C  10.45800 47.72100 31.36900
C  9.69000 47.95100 32.66700
H  9.57100 46.77600 33.66700
N  12.29600 48.02800 25.43800
C  13.25400 48.49000 26.32200
C  14.54300 48.41400 25.64500
C  14.33600 47.80000 24.35000
C  12.85500 47.65600 24.25000
C  15.83300 48.93200 26.20000
C  15.29400 47.28300 23.28200
O  14.92000 46.51200 22.40900
C  16.74600 47.56700 23.43500
N  9.75400 47.54300 23.79400
C  10.74900 47.14200 22.91200
C  10.24000 46.55800 21.58600
C  8.69100 46.83500 21.78700
C  8.50800 47.28000 23.26100
C  10.63200 47.34200 20.29300
C  7.90200 45.53900 21.43200
C  7.79400 44.41500 22.50000
N  8.16100 47.72600 26.20500
C  7.10000 47.61800 25.31700
C  5.84900 47.63000 26.06000
C  6.23700 47.80600 27.40700
C  7.62100 47.88100 27.46000
C  4.52000 47.32400 25.43600
C  5.81300 47.94200 28.71800
O  4.68400 47.70700 29.14900
C  7.03800 48.12200 29.63800
C  7.03800 46.95500 30.66100
O  7.83000 46.01200 30.57500
O  6.16400 47.18700 31.73700
C  5.93200 46.03700 32.65900
H  13.78200 49.46200 28.11900
H  12.71800 46.82600 22.28100
H  6.48700 47.35000 23.21700
H  9.54900 49.64600 30.75100
H  12.33300 49.37900 30.45400
H  10.46100 51.49300 29.98800
H  11.49600 51.45300 28.66800
H  12.28100 51.54100 30.33600
H  11.51400 47.72700 31.63900
H  10.28600 46.73000 30.94800
H  8.68700 48.34600 32.50600
H  10.24800 48.73400 33.18100
H  15.72400 49.35700 27.19800
H  16.37900 49.70700 25.66200
H  16.56000 48.12900 26.32300
H  16.90100 48.63700 23.57700
H  17.28100 47.27500 22.53100
H  16.93000 46.98400 24.33700
H  10.55000 45.51300 21.57200
H  8.34300 47.72600 21.26400
H  9.76700 47.63500 19.69800
H  11.24700 46.65300 19.71500
H  11.18600 48.23700 20.57800
H  8.21500 45.11400 20.47900
H  6.86100 45.79400 21.23200
H  7.99200 43.48800 21.96200
H  6.78000 44.45500 22.89900
H  8.63600 44.46000 23.19000
H  4.15000 46.45000 25.97200
H  4.53900 47.26000 24.34800
H  3.82600 48.13700 25.65000
H  7.05500 49.03700 30.23000
H  6.18500 46.28600 33.69000
H  6.39300 45.09300 32.36700
H  4.86500 45.83900 32.75200

