158

Mg 46.16400 44.93000 43.81500
C  42.73600 44.70800 43.17500
C  46.45400 41.54300 43.14200
C  49.51700 45.29200 43.52100
C  45.89700 48.48900 43.74700
N  44.76300 43.38900 43.08700
C  43.37300 43.46800 42.94500
C  42.79600 42.11400 42.75700
C  43.97600 41.15400 43.04200
C  45.13600 42.07300 43.19400
C  43.71600 40.31200 44.33500
C  41.95500 41.88800 41.37600
C  42.31900 42.61500 40.06900
H  42.48800 41.80200 38.84700
N  47.78900 43.55200 43.40200
C  47.69100 42.19900 43.10300
C  48.94700 41.59300 42.96200
C  49.88000 42.62800 43.15200
C  49.11300 43.88800 43.38800
C  49.18400 40.12600 42.65700
C  51.33200 42.48600 42.98400
O  51.84000 41.46200 42.63000
C  52.18600 43.73800 43.16700
N  47.55200 46.60100 43.93100
C  48.85900 46.45200 43.74100
C  49.66800 47.76900 43.70300
C  48.51300 48.82500 43.80200
C  47.23100 47.94600 43.73300
C  50.83500 47.81100 44.72300
C  48.43200 50.00700 42.73000
C  48.34700 51.42800 43.29500
N  44.67300 46.29800 43.75600
C  44.70300 47.75900 43.72700
C  43.28400 48.20900 43.85000
C  42.58200 47.03100 43.63500
C  43.43400 45.92400 43.55000
C  42.84300 49.65200 43.85600
C  41.16300 46.59600 43.43300
O  40.19000 47.28000 43.30200
C  41.22500 45.03800 43.18000
C  40.42500 44.26500 44.23900
O  39.45000 43.58700 44.06300
O  41.21300 44.33700 45.36000
C  40.95900 43.27800 46.34800
H  46.55000 40.46700 42.98500
H  50.56500 45.52000 43.31300
H  45.78300 49.57400 43.78100
H  42.13400 42.16400 43.62200
H  44.23800 40.49200 42.21700
H  44.13900 39.31700 44.47000
H  42.63300 40.28800 44.45600
H  44.14500 40.85300 45.17900
H  40.87900 41.91200 41.54400
H  41.91400 40.81100 41.21400
H  43.30200 43.08300 40.11100
H  41.59700 43.40600 39.86500
H  50.19400 39.72500 42.57300
H  48.51000 39.58200 41.99600
H  49.13600 39.78600 43.69200
H  52.06900 44.17600 44.15800
H  52.02600 44.37500 42.29700
H  53.20900 43.37300 43.07800
H  50.18600 47.82700 42.74600
H  48.56100 49.27300 44.79400
H  50.61600 48.69800 45.31800
H  51.72100 47.79000 44.08800
H  50.86200 46.87700 45.28600
H  47.58300 49.79600 42.08000
H  49.40500 49.89600 42.25100
H  49.18700 52.00700 42.90900
H  48.41800 51.37400 44.38100
H  47.39800 51.89800 43.03500
H  41.77500 49.69800 43.64600
H  43.39000 50.31700 43.18700
H  42.99400 49.99100 44.88100
H  40.79500 44.76400 42.21700
H  40.09700 42.63700 46.16100
H  40.81000 43.67500 47.35200
H  41.80800 42.61900 46.53000
Mg 6.38000 57.25500 42.16800
C  5.22900 53.94200 42.25100
C  9.23600 56.17800 40.97300
C  7.16500 60.47900 41.78000
C  3.09300 58.34100 43.12900
N  6.94100 55.27600 41.39700
C  6.44600 54.08400 41.55000
C  7.36400 52.98400 40.86800
C  8.71600 53.69000 40.94300
C  8.26100 55.18200 41.13000
C  9.65100 53.24400 42.15100
C  6.89900 52.66000 39.45100
C  7.53700 51.41800 38.92600
H  6.63700 50.56100 38.02800
N  7.96900 58.18800 41.33400
C  9.15500 57.59500 40.94100
C  10.05000 58.60700 40.38800
C  9.43000 59.87100 40.59500
C  8.10100 59.53200 41.30700
C  11.35200 58.16800 39.76700
C  10.09800 61.17200 40.17200
O  11.18500 61.20300 39.61000
C  9.56500 62.57300 40.66400
N  5.26100 59.15600 42.33900
C  5.87500 60.31600 42.24500
C  4.94600 61.47200 42.61700
C  3.53600 60.82000 42.64900
C  3.97200 59.35100 42.71200
C  5.37700 62.33000 43.79000
C  2.64500 61.11100 41.40500
C  1.09900 61.05200 41.61300
N  4.47300 56.32600 42.62600
C  3.29800 56.86600 43.14200
C  2.39200 55.74300 43.41300
C  3.21900 54.59200 43.26100
C  4.37800 54.98000 42.62600
C  0.96300 55.83900 43.87700
C  3.14900 53.14100 43.31000
O  2.37100 52.30600 43.78900
C  4.55100 52.68900 42.70200
C  4.37600 51.58200 41.71100
O  3.87300 51.62500 40.61500
O  4.92900 50.49400 42.31000
C  4.91800 49.20800 41.60100
H  10.25900 55.86400 40.75600
H  7.35500 61.55400 41.80100
H  2.08600 58.56000 43.48900
H  7.19000 52.22500 41.63000
H  9.30200 53.57900 40.03000
H  9.30600 52.26000 42.46900
H  9.67900 53.90800 43.01500
H  10.64200 53.09600 41.72400
H  7.21600 53.54700 38.90300
H  5.81400 52.57300 39.51000
H  8.03200 50.86300 39.72200
H  8.49100 51.73900 38.50800
H  11.19800 57.81100 38.74900
H  11.80600 57.30300 40.25000
H  12.12200 58.94000 39.74100
H  8.58800 62.61700 40.18300
H  10.09200 63.45500 40.30000
H  9.43200 62.55900 41.74500
H  4.90100 62.08600 41.71800
H  3.03100 61.12400 43.56600
H  6.33700 61.98100 44.17000
H  4.67100 62.31600 44.62000
H  5.43200 63.36900 43.46300
H  2.98300 60.49300 40.57300
H  2.85800 62.13600 41.10300
H  0.57500 60.51000 40.82500
H  0.56200 61.99200 41.48400
H  0.83200 60.64400 42.58800
H  0.33400 56.16300 43.04800
H  0.92100 56.66100 44.59100
H  0.67200 54.93900 44.41900
H  5.24400 52.36000 43.47600
H  5.81000 49.18000 40.97500
H  4.10900 48.88400 40.94500
H  4.92000 48.41600 42.34900

