158

Mg 8.62600 3.54200 27.53600
C  9.93000 2.02600 30.45600
C  6.81600 5.42300 29.49000
C  7.24200 4.59700 24.65600
C  10.04300 0.70500 25.72100
N  8.30000 3.56500 29.82300
C  9.07000 3.06500 30.75100
C  8.75400 3.70100 32.10400
C  7.50900 4.62700 31.76700
C  7.49400 4.57100 30.29600
C  6.15000 4.29700 32.46700
C  10.08900 4.20300 32.80600
C  10.53500 3.51300 34.13100
H  10.97600 4.39000 35.27500
N  7.34700 4.91600 27.15600
C  6.68600 5.59400 28.12900
C  5.92800 6.55500 27.47200
C  5.92300 6.33000 26.06700
C  6.84100 5.24400 25.89700
C  5.20700 7.68300 28.29600
C  5.27000 7.15000 24.92700
O  5.42100 6.87300 23.73700
C  4.35800 8.28200 25.22600
N  8.62400 2.78500 25.47600
C  8.00500 3.46100 24.49700
C  8.24200 2.76400 23.08900
C  9.07800 1.48800 23.44600
C  9.34700 1.69500 24.95300
C  6.82400 2.44100 22.51900
C  10.36500 1.28600 22.60000
C  10.55500 -0.14200 21.93700
N  9.75000 1.78200 27.92500
C  10.27100 0.71700 27.11300
C  11.08300 -0.14700 27.94300
C  10.98600 0.34100 29.18100
C  10.15000 1.46500 29.16500
C  11.89900 -1.25600 27.37700
C  11.48600 0.15500 30.53200
O  12.36800 -0.61300 30.92600
C  10.71100 1.09800 31.37000
C  9.78300 0.28800 32.21400
O  8.59800 0.05300 32.02800
O  10.48300 -0.15400 33.35900
C  9.56900 -0.48100 34.48200
H  6.18100 6.10700 30.05600
H  6.59000 4.97200 23.86500
H  10.50000 -0.08400 25.12000
H  8.42200 2.89000 32.75200
H  7.80600 5.67300 31.84800
H  6.01000 5.09800 33.19300
H  6.12800 3.29400 32.89100
H  5.25800 4.29100 31.84000
H  9.91400 5.27000 32.93700
H  10.92100 4.06800 32.11500
H  11.38600 2.88600 33.86600
H  9.77900 2.79800 34.45600
H  5.16200 8.64600 27.78700
H  5.89200 7.88800 29.11800
H  4.22400 7.28400 28.54800
H  4.29500 8.77400 24.25500
H  4.90400 9.02500 25.80800
H  3.35500 8.05800 25.58900
H  8.79400 3.48500 22.48600
H  8.49700 0.58000 23.28200
H  5.99100 2.57900 23.20800
H  6.87600 1.44800 22.07100
H  6.57600 3.13200 21.71300
H  11.25400 1.48200 23.19900
H  10.30900 1.85400 21.67100
H  9.69700 -0.77500 22.16200
H  11.34700 -0.62000 22.51300
H  10.84700 -0.12900 20.88700
H  11.29000 -1.89300 26.73700
H  12.20700 -1.91100 28.19200
H  12.75200 -0.86600 26.82100
H  11.38400 1.51100 32.12200
H  9.40800 0.47300 34.98500
H  9.88000 -1.30000 35.13200
H  8.60200 -0.87800 34.17400
Mg 16.61200 52.59700 25.69600
C  18.44100 51.04600 28.25800
C  14.11800 53.11100 27.92500
C  14.82200 53.99000 23.14100
C  18.96200 51.41300 23.35200
N  16.38400 52.22400 27.83000
C  17.29200 51.74400 28.69200
C  16.83400 51.80400 30.14000
C  15.29700 52.15300 29.91400
C  15.25100 52.60200 28.50700
C  14.34500 50.94300 30.36700
C  17.55100 52.88500 30.95900
C  17.65700 52.75500 32.50500
H  16.78900 51.86100 33.29500
N  14.70700 53.53500 25.61600
C  13.86400 53.64800 26.63000
C  12.66000 54.31700 26.16900
C  12.75700 54.47500 24.77900
C  14.16400 54.06100 24.43800
C  11.52200 54.60800 27.03300
C  11.74600 54.94200 23.78400
O  12.05500 54.95100 22.60800
C  10.36200 55.44500 24.00900
N  16.84300 52.65900 23.60300
C  16.05900 53.42600 22.78200
C  16.67600 53.68400 21.36000
C  18.05200 53.00900 21.58200
C  17.92900 52.27100 22.91300
C  15.88000 53.26500 20.12200
C  19.27500 53.91700 21.52400
C  20.41900 53.56600 20.51700
N  18.30800 51.42800 25.67800
C  19.19100 51.03700 24.69300
C  20.22900 50.22100 25.26400
C  20.00500 50.15600 26.65300
C  18.84200 50.98100 26.87300
C  21.26500 49.64700 24.39700
C  20.46900 49.65000 27.91900
O  21.41900 48.89700 28.19400
C  19.45900 50.22600 28.99000
C  18.97500 49.07400 29.91600
O  18.41300 48.06900 29.59100
O  19.58000 49.15600 31.15400
C  19.47700 48.04200 32.13800
H  13.30700 53.28100 28.63600
H  14.23500 54.54600 22.40800
H  19.67800 51.11600 22.58200
H  16.90500 50.83100 30.62600
H  15.17700 53.05300 30.51800
H  13.69500 51.33600 31.14900
H  14.80700 50.07700 30.84000
H  13.69900 50.64400 29.54100
H  17.12600 53.85300 30.69400
H  18.57900 52.85000 30.59900
H  17.58500 53.73600 32.97400
H  18.70300 52.59700 32.76800
H  10.68800 53.90700 26.99300
H  11.10600 55.58000 26.77000
H  11.80600 54.76700 28.07300
H  9.82800 54.78600 24.69300
H  9.86800 55.41600 23.03800
H  10.37800 56.47900 24.35400
H  16.73900 54.75500 21.16800
H  18.19300 52.29200 20.77200
H  16.48500 53.00200 19.25400
H  15.11300 53.98200 19.82900
H  15.14800 52.49100 20.35300
H  19.80300 53.82200 22.47300
H  19.03500 54.92600 21.18800
H  20.49000 54.28600 19.70300
H  20.30700 52.62100 19.98500
H  21.37000 53.45900 21.04000
H  21.72600 50.42800 23.79100
H  20.67600 49.02500 23.72400
H  22.03500 49.09600 24.93700
H  20.10500 50.91400 29.53500
H  18.53700 47.49300 32.10300
H  19.79800 48.43000 33.10500
H  20.29400 47.41300 31.78300

