158

Mg 30.50000 57.98400 40.43800
C  27.79900 55.99900 39.18500
C  32.69400 55.49800 39.28400
C  33.03400 60.15000 40.87800
C  28.19200 60.57700 40.95000
N  30.23900 55.98300 39.31600
C  29.08300 55.36200 39.09200
C  29.38200 53.92400 38.46700
C  30.87700 53.72500 38.80400
C  31.33200 55.16400 39.19100
C  31.24500 52.73400 39.85100
C  29.12700 53.80500 36.86800
C  28.08700 52.92200 36.34700
H  27.06600 53.61400 35.43100
N  32.54100 57.87000 40.08900
C  33.29200 56.76600 39.64300
C  34.76400 57.10500 39.64400
C  34.83600 58.43600 40.18100
C  33.40100 58.90600 40.35600
C  35.89300 56.18800 39.24800
C  36.16700 59.16100 40.48600
O  37.17800 58.62600 40.13900
C  36.27100 60.31100 41.34500
N  30.62500 60.09900 40.91500
C  31.78900 60.71800 41.03800
C  31.61400 62.25100 41.27400
C  30.04200 62.37200 41.27600
C  29.58700 60.93300 41.10500
C  32.31300 62.76800 42.53200
C  29.43600 63.41300 40.22900
C  29.21900 64.80200 40.71400
N  28.38700 58.28200 40.21000
C  27.59400 59.40100 40.47800
C  26.17700 59.07200 40.25400
C  26.21000 57.75600 39.75100
C  27.58700 57.35500 39.72000
C  24.92800 59.86500 40.58000
C  25.39700 56.61600 39.34000
O  24.19400 56.48200 39.34100
C  26.37300 55.44100 39.07100
C  26.14800 54.30500 40.03300
O  26.45700 54.35500 41.24500
O  25.60800 53.23800 39.42700
C  25.37800 52.09400 40.35600
H  33.46900 54.73700 39.17500
H  33.77400 60.95200 40.90600
H  27.53200 61.44000 41.05600
H  28.70100 53.23400 38.96500
H  31.45800 53.45100 37.92400
H  30.30500 52.25700 40.12700
H  31.68500 53.06200 40.79300
H  31.91600 51.94000 39.52500
H  29.99800 53.30200 36.44700
H  29.05600 54.82700 36.49500
H  27.45500 52.52900 37.14400
H  28.53200 52.04400 35.87800
H  36.69600 55.98600 39.95600
H  36.33200 56.51400 38.30500
H  35.47900 55.19900 39.05400
H  35.40400 60.24600 42.00200
H  36.31300 61.22500 40.75300
H  37.10200 60.25700 42.04800
H  31.95200 62.84400 40.42400
H  29.72500 62.69800 42.26600
H  31.53900 63.21900 43.15200
H  33.20800 63.37800 42.40900
H  32.72500 61.89500 43.03900
H  28.48900 63.03700 39.84100
H  30.06800 63.46500 39.34300
H  30.03200 65.44100 40.37100
H  29.20400 64.87500 41.80100
H  28.39200 65.30900 40.21600
H  25.23000 60.65500 41.26700
H  24.11700 59.28300 41.01800
H  24.53900 60.39800 39.71200
H  26.14200 55.05700 38.07800
H  26.17300 51.91800 41.08100
H  25.38100 51.27700 39.63400
H  24.46600 52.14000 40.95100
Mg 16.86300 52.38000 26.00600
C  18.58800 50.98200 28.78600
C  14.38100 53.54800 28.09400
C  15.32400 53.70700 23.32000
C  19.29900 51.02300 23.95100
N  16.52000 52.12000 28.20200
C  17.38800 51.59700 29.20600
C  16.63700 51.65200 30.54300
C  15.29700 52.55800 30.27700
C  15.36300 52.70100 28.74000
C  13.90600 51.85200 30.72600
C  17.51100 52.25700 31.70000
C  17.47700 51.51500 33.08500
H  16.84500 52.26000 34.25200
N  15.08200 53.48000 25.71300
C  14.25200 53.87500 26.69200
C  13.16300 54.70800 26.18400
C  13.34300 54.61000 24.75400
C  14.59700 53.89700 24.53200
C  12.01900 55.36500 26.94700
C  12.36000 55.06100 23.60500
O  12.62100 54.92000 22.44300
C  11.07200 55.83400 23.95100
N  17.20500 52.28400 23.92600
C  16.39100 52.87800 23.02400
C  16.99800 52.81000 21.60100
C  18.25700 51.90200 21.80200
C  18.26100 51.76700 23.30500
C  16.03900 52.43900 20.45400
C  19.50200 52.58300 21.29400
C  19.99000 52.30300 19.93400
N  18.66900 51.26800 26.27000
C  19.53300 50.76400 25.36100
C  20.63200 50.02200 26.05600
C  20.31200 50.11600 27.37400
C  19.10600 50.91200 27.49500
C  21.83100 49.40200 25.34800
C  20.70700 49.78900 28.74800
O  21.61400 49.07300 29.15500
C  19.53000 50.26700 29.66300
C  18.99100 49.02800 30.27100
O  18.73100 48.02400 29.58200
O  18.92000 49.05100 31.66000
C  18.51500 47.73200 32.26000
H  13.61400 53.97800 28.74200
H  14.86900 54.06000 22.39200
H  19.97100 50.52500 23.24900
H  16.25700 50.67300 30.83400
H  15.44700 53.53900 30.72900
H  13.39500 51.49600 29.83200
H  13.30300 52.67600 31.10900
H  14.06300 51.02000 31.41200
H  17.02400 53.20000 31.94900
H  18.50600 52.49900 31.32700
H  18.52900 51.29300 33.26800
H  16.93400 50.57200 33.02100
H  12.24600 55.28600 28.01000
H  11.07900 54.84700 26.75900
H  11.92700 56.38600 26.57600
H  10.34000 55.36000 24.60400
H  10.65100 56.03000 22.96500
H  11.30000 56.83100 24.32800
H  17.29800 53.83300 21.37500
H  18.10800 50.94000 21.31200
H  16.51000 51.80500 19.70200
H  15.75600 53.37000 19.96400
H  15.18000 51.93200 20.89400
H  20.33100 52.31800 21.95000
H  19.46400 53.67200 21.25100
H  20.64800 51.43400 19.92200
H  20.54400 53.17800 19.59600
H  19.19600 52.16200 19.20100
H  22.69500 49.72600 25.92800
H  21.89800 49.88000 24.37100
H  21.82200 48.31500 25.26600
H  19.85100 50.87200 30.51200
H  18.07600 47.86600 33.24900
H  19.35300 47.08700 32.52300
H  17.72800 47.19900 31.72700

