158

Mg 9.35700 3.23900 27.23000
C  10.52800 1.69000 30.16000
C  7.33800 5.17300 29.28500
C  7.57000 4.04400 24.51300
C  10.82000 0.57300 25.46700
N  9.06000 3.43500 29.49700
C  9.62900 2.64500 30.48100
C  9.27700 3.14900 31.85600
C  8.07000 4.09600 31.57300
C  8.21400 4.31000 30.04500
C  6.69400 3.57100 31.92200
C  10.56000 3.81800 32.46900
C  10.37300 4.80100 33.66500
H  10.86500 4.15600 34.97700
N  7.84900 4.55000 26.96200
C  7.20000 5.33500 27.91000
C  6.24700 6.22600 27.28500
C  6.35200 5.96400 25.89800
C  7.29400 4.81000 25.69500
C  5.32400 7.13700 28.02100
C  5.66200 6.67000 24.74400
O  5.96600 6.36300 23.57900
C  4.51500 7.54400 24.97300
N  9.11200 2.42300 25.26900
C  8.32800 2.96100 24.28500
C  8.44700 2.20200 23.02600
C  9.73500 1.31400 23.28700
C  9.98300 1.46900 24.73300
C  7.28800 1.35200 22.50000
C  11.01100 1.67600 22.53200
C  11.67700 0.49500 21.89500
N  10.56700 1.59600 27.69300
C  11.07600 0.57700 26.86000
C  11.98100 -0.28700 27.60500
C  11.79800 0.14000 28.92500
C  10.92600 1.23000 28.88800
C  12.89100 -1.20800 27.06300
C  12.22000 -0.12600 30.25500
O  12.93100 -0.99900 30.71500
C  11.33400 0.82900 31.13900
C  10.44600 -0.03400 32.01300
O  9.37400 -0.55600 31.66500
O  11.06700 -0.14700 33.22700
C  10.28900 -0.72800 34.28700
H  6.66400 5.67200 29.98400
H  6.98300 4.24200 23.61400
H  11.25700 -0.29500 24.96900
H  9.12200 2.29400 32.51300
H  8.06700 5.01000 32.16700
H  6.80700 2.56400 32.32600
H  6.09100 3.44800 31.02200
H  6.19600 4.21800 32.64400
H  11.06400 4.31900 31.64300
H  11.09500 2.92400 32.79000
H  9.34200 5.14200 33.76100
H  10.98100 5.69100 33.50500
H  5.73500 8.14100 27.91300
H  5.33500 6.85500 29.07300
H  4.27800 7.05800 27.72700
H  3.70600 7.14000 25.58100
H  4.07700 7.55400 23.97500
H  4.85600 8.56500 25.14100
H  8.58900 2.90900 22.20800
H  9.44800 0.26400 23.24200
H  6.78900 0.95500 23.38400
H  7.83600 0.57300 21.97000
H  6.68900 1.98800 21.84800
H  11.75100 2.09300 23.21500
H  10.83400 2.32700 21.67600
H  11.93800 0.72700 20.86300
H  10.95700 -0.32100 21.84700
H  12.50600 0.11900 22.49500
H  12.28100 -1.96200 26.56600
H  13.61700 -1.59200 27.77900
H  13.34500 -0.54400 26.32700
H  12.09400 1.36000 31.71200
H  9.29400 -0.31100 34.44300
H  10.76800 -0.37600 35.20100
H  10.21600 -1.81500 34.31500
Mg 41.13500 8.12400 29.53500
C  42.52300 9.74000 32.21700
C  38.79600 6.88800 31.83300
C  39.85200 6.41300 27.02600
C  43.73200 9.36700 27.47200
N  40.77900 8.11200 31.79500
C  41.46600 8.99400 32.61000
C  40.90200 9.00500 33.99900
C  39.71300 7.99600 33.91600
C  39.62900 7.69900 32.42800
C  39.90000 6.67600 34.75900
C  40.44600 10.44500 34.51300
C  39.48700 10.48000 35.72100
H  39.96500 11.50000 36.79000
N  39.56300 6.93900 29.46500
C  38.70400 6.51300 30.47700
C  37.68200 5.68900 29.93600
C  37.95600 5.53700 28.58700
C  39.20200 6.26800 28.28900
C  36.73200 4.93300 30.87400
C  37.15500 4.83300 27.46000
O  37.52100 4.64200 26.30800
C  35.88100 4.15000 27.62700
N  41.66100 7.97500 27.53800
C  40.92700 7.19800 26.68800
C  41.63100 7.18300 25.33900
C  42.62900 8.37200 25.41400
C  42.65000 8.65300 26.90900
C  42.25100 5.76900 25.05600
C  42.32500 9.65400 24.68800
C  40.94100 10.22300 25.01000
N  42.84600 9.23600 29.73100
C  43.73600 9.68000 28.81600
C  44.63800 10.54900 29.44600
C  44.29100 10.58000 30.82600
C  43.14700 9.74100 30.94900
C  45.72500 11.35100 28.74200
C  44.54200 11.11700 32.06300
O  45.42300 11.89400 32.48100
C  43.36200 10.59900 33.05200
C  43.98500 9.92300 34.16300
O  44.61600 8.88600 34.11700
O  43.75400 10.53900 35.40300
C  44.18900 9.82900 36.61800
H  38.03500 6.56300 32.54600
H  39.48200 5.88600 26.14400
H  44.50700 9.77200 26.81800
H  41.68700 8.67700 34.68000
H  38.79300 8.49400 34.21900
H  40.24300 5.84600 34.14100
H  38.96900 6.36100 35.23000
H  40.62900 6.75200 35.56600
H  40.13700 10.91900 33.58100
H  41.33900 10.98700 34.82500
H  39.43800 9.47700 36.14300
H  38.54300 10.89800 35.37000
H  35.81400 4.66100 30.35300
H  36.36900 5.56300 31.68600
H  37.24100 4.09700 31.35300
H  35.15100 4.73300 28.18800
H  36.12300 3.22100 28.14400
H  35.44600 4.05900 26.63100
H  40.87500 7.38900 24.58200
H  43.61700 8.07900 25.05800
H  43.28800 5.88600 24.74100
H  41.58100 5.25300 24.36700
H  42.24100 5.11000 25.92400
H  42.21200 9.42800 23.62800
H  43.13600 10.36500 24.84600
H  41.08600 11.30100 25.08100
H  40.51000 9.93300 25.96900
H  40.31300 10.00600 24.14600
H  46.00600 12.23800 29.31000
H  45.46500 11.45000 27.68800
H  46.60900 10.71700 28.67100
H  42.99500 11.54700 33.44400
H  44.41500 8.77300 36.46700
H  43.48200 9.89000 37.44500
H  45.06000 10.34900 37.01800

