158

Mg 34.89700 2.96300 29.80000
C  32.69600 4.12400 32.31400
C  37.27500 2.59800 32.18700
C  37.13300 2.17400 27.39100
C  32.42800 3.60000 27.52600
N  34.94000 3.29200 32.07600
C  33.92900 3.73900 32.89200
C  34.39500 3.75300 34.36600
C  35.92900 3.55200 34.22500
C  36.13200 3.17800 32.71400
C  36.85400 4.76800 34.62900
C  33.60300 2.58400 35.15400
C  33.36900 2.70200 36.72300
H  33.89400 4.06100 37.38800
N  36.97400 2.37000 29.77500
C  37.71600 2.25300 30.86600
C  39.05000 1.69500 30.50300
C  39.04800 1.49300 29.05300
C  37.70300 2.06500 28.67200
C  40.09900 1.32700 31.44400
C  40.05800 0.91300 28.05500
O  39.79200 0.81900 26.86200
C  41.27100 0.24200 28.53500
N  34.82400 3.07400 27.72400
C  35.85700 2.60200 26.95100
C  35.45500 2.74000 25.45200
C  33.90200 2.96300 25.55400
C  33.70200 3.22400 27.05000
C  36.18500 3.88600 24.69200
C  32.96500 1.79400 25.00500
C  31.53900 2.22700 24.51700
N  32.93400 3.66900 29.89700
C  32.05700 3.81900 28.86600
C  30.78200 4.31100 29.28000
C  30.99800 4.46300 30.67500
C  32.33700 4.06500 31.02300
C  29.47900 4.33300 28.49400
C  30.38000 4.79700 31.94000
O  29.28900 5.22000 32.20200
C  31.38900 4.51900 33.10400
C  31.67100 5.82600 33.79600
O  32.29500 6.78400 33.37000
O  31.07600 5.83000 35.06100
C  31.30400 7.05200 35.82800
H  38.10700 2.46500 32.88100
H  37.95400 2.08500 26.67700
H  31.61600 3.78500 26.82000
H  34.17600 4.75200 34.74400
H  36.20500 2.72000 34.87300
H  37.36100 4.57400 35.57400
H  36.35700 5.72500 34.78800
H  37.68600 4.91100 33.93900
H  34.19900 1.69100 34.96400
H  32.59900 2.42800 34.75900
H  33.89300 1.90300 37.24800
H  32.32100 2.56200 36.98900
H  41.02700 1.86400 31.24400
H  40.22800 0.24500 31.41700
H  39.72400 1.50600 32.45100
H  40.97200 -0.37100 29.38600
H  41.92200 1.00000 28.97200
H  41.79800 -0.33600 27.77500
H  35.54700 1.77400 24.95600
H  33.62500 3.86200 25.00400
H  37.11400 4.21400 25.15800
H  35.56900 4.78400 24.65100
H  36.56800 3.62100 23.70600
H  33.02200 1.04600 25.79600
H  33.53100 1.46400 24.13400
H  31.30400 2.13700 23.45600
H  31.48300 3.31600 24.52200
H  30.81700 1.89700 25.26300
H  28.66300 4.52700 29.18900
H  29.20100 3.41200 27.98100
H  29.53100 5.04100 27.66600
H  31.11000 3.71800 33.78800
H  30.55700 7.83100 35.67400
H  32.27400 7.53400 35.71100
H  31.24400 6.60800 36.82200
Mg 29.28300 57.77600 39.87700
C  26.52300 55.91300 38.91700
C  31.34800 55.52800 38.36400
C  31.86900 60.03100 39.94800
C  27.12700 60.29100 40.80200
N  28.94600 55.96400 38.55100
C  27.71900 55.30700 38.50200
C  27.88600 53.88100 37.89300
C  29.47000 53.65900 38.05200
C  29.96600 55.15200 38.34900
C  29.83000 52.78000 39.22900
C  27.26000 53.67400 36.50100
C  26.75800 54.92500 35.65500
H  26.87700 54.72500 34.11200
N  31.42800 57.69800 39.34400
C  32.03100 56.64600 38.72100
C  33.36300 56.92900 38.48800
C  33.59900 58.26600 38.95200
C  32.26600 58.80200 39.43900
C  34.31600 55.94200 37.93200
C  34.91400 59.09400 38.85300
O  35.95800 58.59700 38.42300
C  35.21800 60.51400 39.17000
N  29.55000 59.81700 40.38000
C  30.68400 60.52300 40.42400
C  30.57700 61.90700 40.99000
C  29.02500 61.91200 41.44000
C  28.52800 60.56800 40.89800
C  31.45700 62.31200 42.20800
C  28.29200 63.23700 41.05700
C  27.39100 63.96200 42.14800
N  27.24800 58.11700 39.81800
C  26.54400 59.12600 40.31200
C  25.11400 58.78000 40.32800
C  25.07200 57.51500 39.82400
C  26.40100 57.15400 39.43700
C  23.89900 59.52700 40.87200
C  24.19200 56.42000 39.31700
O  22.97000 56.38200 39.27900
C  25.09600 55.27700 38.86200
C  24.88700 54.09700 39.61100
O  25.47400 53.68800 40.63500
O  23.92200 53.33700 38.91200
C  23.33900 52.18400 39.53800
H  32.02700 54.69000 38.19500
H  32.66000 60.78000 39.87400
H  26.44500 61.10700 41.05000
H  27.35700 53.19700 38.55700
H  29.97700 53.30900 37.15300
H  28.91400 52.30600 39.58400
H  30.19700 53.42200 40.02900
H  30.54500 52.07200 38.80900
H  26.38600 53.03300 36.61600
H  27.88300 53.05700 35.85300
H  27.34200 55.78200 35.99100
H  25.68700 55.03300 35.82500
H  33.98600 54.93500 38.18900
H  35.26400 56.07600 38.45300
H  34.44900 55.91200 36.85000
H  36.29600 60.66200 39.24200
H  34.80300 60.64400 40.17000
H  34.86200 61.24800 38.44800
H  30.80300 62.58100 40.16400
H  29.08400 61.83000 42.52500
H  32.03000 61.49400 42.64600
H  30.88400 62.87200 42.94700
H  32.19900 63.07300 41.96600
H  27.64400 63.06000 40.19900
H  29.18600 63.83300 40.87300
H  27.28200 63.27700 42.98800
H  26.39800 64.17000 41.74700
H  27.86300 64.84800 42.57300
H  23.95100 59.73100 41.94200
H  23.01900 58.93800 40.61200
H  23.82900 60.50500 40.39700
H  24.79000 55.00600 37.85100
H  22.32600 51.99900 39.17900
H  23.22000 52.49500 40.57600
H  23.89700 51.25900 39.39500

