158

Mg 46.06800 3.89900 47.65600
C  44.23300 6.77900 47.09800
C  43.32800 2.03600 46.51800
C  47.84100 1.08600 47.95800
C  48.81400 5.82500 48.23400
N  44.08700 4.35500 46.70400
C  43.53100 5.60600 46.63800
C  42.16300 5.58800 46.01900
C  41.83900 4.08300 46.10600
C  43.17600 3.43300 46.36400
C  40.71300 3.60100 47.03700
C  42.09100 6.12900 44.52600
C  41.21200 7.38800 44.50800
H  41.17000 8.25400 43.19800
N  45.69900 1.85000 47.29300
C  44.48100 1.28800 46.88000
C  44.52400 -0.10700 46.74600
C  45.87000 -0.43300 47.19700
C  46.56200 0.85200 47.51300
C  43.42500 -0.89700 46.01800
C  46.36900 -1.88000 47.17200
O  45.71200 -2.86200 46.71300
C  47.76700 -2.20100 47.48400
N  48.11000 3.45300 47.72800
C  48.63100 2.23500 48.06800
C  50.10300 2.30400 48.36900
C  50.34100 3.90100 48.33000
C  48.94000 4.41800 48.13800
C  50.40900 1.62000 49.78100
C  51.36500 4.36800 47.17700
C  52.58600 5.16800 47.72700
N  46.52500 5.92400 47.63300
C  47.64300 6.58400 47.96300
C  47.45500 7.97800 48.03400
C  46.15200 8.13800 47.66200
C  45.59800 6.83300 47.43500
C  48.44100 8.94900 48.14900
C  45.09000 9.02900 47.43300
O  45.06200 10.25000 47.34800
C  43.71200 8.21000 47.07600
C  42.74300 8.45200 48.18500
O  42.57100 7.83900 49.22000
O  41.93700 9.47400 47.72900
C  40.79600 9.89200 48.47700
H  42.44200 1.46400 46.23700
H  48.37300 0.17000 48.22500
H  49.79000 6.28700 48.39800
H  41.55200 6.22600 46.65700
H  41.46000 3.71700 45.15200
H  40.07500 4.38000 47.45300
H  41.28200 3.22600 47.88700
H  40.24000 2.74400 46.55600
H  41.82000 5.33800 43.82800
H  43.08800 6.42300 44.19700
H  41.43500 8.04600 45.34800
H  40.19000 7.06600 44.70900
H  43.68000 -1.92200 45.74900
H  43.01000 -0.39500 45.14400
H  42.54700 -0.96900 46.66000
H  47.97800 -3.19500 47.09000
H  47.89300 -2.33300 48.55900
H  48.49500 -1.51100 47.05700
H  50.70200 1.86200 47.57200
H  50.65400 4.36200 49.26700
H  50.67800 0.60300 49.49400
H  49.57300 1.74400 50.46900
H  51.18900 2.27200 50.17400
H  50.93400 5.02600 46.42200
H  51.82900 3.46600 46.77800
H  52.35600 6.16500 48.10300
H  53.37400 5.31600 46.98800
H  52.97000 4.68500 48.62600
H  48.57300 9.16900 47.09000
H  49.22600 8.46200 48.72800
H  48.20500 9.93000 48.56100
H  43.38400 8.49600 46.07600
H  40.82500 9.47300 49.48300
H  40.00000 9.50300 47.84300
H  40.69200 10.97500 48.54600
Mg 47.34700 16.25800 28.86800
C  45.32600 16.06400 31.86600
C  49.56500 18.07700 30.51900
C  48.77800 16.66300 26.01300
C  44.41900 14.76300 27.26600
N  47.32600 16.99700 30.84000
C  46.52700 16.71200 31.95600
C  47.12400 17.24700 33.29000
C  48.25700 18.17500 32.78900
C  48.41200 17.70600 31.28100
C  47.87800 19.68300 32.88300
C  47.58700 16.05900 34.20700
C  47.02700 16.18900 35.64000
H  46.79500 17.58300 36.35700
N  48.99000 17.15900 28.33900
C  49.86600 17.81700 29.11500
C  51.04100 18.18400 28.41900
C  50.92300 17.62300 27.08900
C  49.53300 17.11900 27.10200
C  52.11900 19.03700 29.04300
C  51.89400 17.59900 25.94800
O  51.66400 17.12700 24.85400
C  53.24000 18.17100 26.20400
N  46.68400 15.67300 26.86400
C  47.51900 16.04900 25.83500
C  46.82200 15.68400 24.48400
C  45.43900 15.04700 24.96700
C  45.47800 15.14200 26.42100
C  46.66200 16.95700 23.51900
C  45.31000 13.62900 24.53500
C  45.03300 13.49400 23.06900
N  45.34700 15.52800 29.38500
C  44.32000 14.95900 28.63100
C  43.25100 14.53900 29.51600
C  43.61300 14.99000 30.76400
C  44.84000 15.54100 30.65500
C  41.94700 13.82500 28.97500
C  43.11900 15.14600 32.10600
O  42.05800 14.84300 32.59600
C  44.25500 15.67800 32.90300
C  43.68700 16.86500 33.66200
O  43.56400 18.03100 33.23200
O  43.18300 16.41700 34.84500
C  42.55600 17.49000 35.69100
H  50.26700 18.67200 31.10600
H  49.19800 16.68300 25.00500
H  43.60500 14.17200 26.84100
H  46.31500 17.79700 33.77100
H  49.17200 18.08800 33.37400
H  47.89000 20.15900 31.90200
H  48.62500 20.24200 33.44700
H  47.00100 19.76000 33.52500
H  48.66700 15.92100 34.25500
H  47.16900 15.13600 33.80500
H  47.52500 15.49400 36.31600
H  46.05900 15.68900 35.64200
H  52.36500 19.86500 28.37900
H  53.05600 18.47900 29.04900
H  51.81900 19.40000 30.02600
H  53.90600 18.04400 25.35100
H  53.66400 17.77100 27.12600
H  53.07500 19.23500 26.37200
H  47.40600 14.94700 23.93400
H  44.56100 15.62700 24.68200
H  46.79400 16.61700 22.49200
H  47.38600 17.73600 23.75700
H  45.64800 17.34900 23.59100
H  44.50100 13.21200 25.13400
H  46.28300 13.15900 24.68400
H  45.84100 12.92500 22.60800
H  45.16600 14.43100 22.52800
H  44.13000 12.91300 22.88300
H  42.23500 12.81300 28.69100
H  41.53600 14.31000 28.08900
H  41.29100 13.74900 29.84200
H  44.51900 14.90700 33.62800
H  41.75700 17.92200 35.08900
H  43.21800 18.33400 35.88800
H  42.14600 17.07700 36.61300

