158

Mg 48.33100 35.29400 27.68800
C  46.10700 33.57700 29.81500
C  48.62800 37.79200 30.10400
C  50.20700 36.94300 25.52300
C  47.97900 32.50800 25.42200
N  47.35500 35.68500 29.71900
C  46.68300 34.71300 30.47300
C  46.84200 35.05800 31.97400
C  47.25600 36.58100 31.92900
C  47.81300 36.74600 30.48700
C  46.08100 37.55800 32.30500
C  47.90600 34.16900 32.59200
C  47.97900 34.08700 34.09000
H  47.07200 34.94800 34.94100
N  49.23600 37.14200 27.77600
C  49.27900 38.05100 28.86500
C  50.16300 39.11000 28.46800
C  50.59400 38.91100 27.10900
C  49.95700 37.62900 26.77400
C  50.39600 40.30700 29.39700
C  51.36100 39.78300 26.25100
O  51.60000 39.49400 25.06800
C  51.78700 41.15200 26.72000
N  48.76300 34.91500 25.58600
C  49.75000 35.72100 25.05800
C  50.19700 35.12500 23.71600
C  49.70000 33.61600 23.81100
C  48.70900 33.64800 24.98200
C  49.68200 35.86400 22.45200
C  50.80700 32.60300 24.12600
C  51.57600 32.14300 22.87600
N  47.28200 33.43300 27.55700
C  47.19000 32.46900 26.56800
C  46.17800 31.53100 26.92300
C  45.67300 31.85200 28.18000
C  46.38000 33.05500 28.48500
C  45.84400 30.24700 26.13100
C  44.78900 31.49200 29.26500
O  43.96100 30.61800 29.42200
C  45.11600 32.52900 30.39700
C  45.56700 31.89800 31.65400
O  46.54500 31.18400 31.73500
O  44.70400 32.23900 32.65200
C  45.07600 31.72500 33.96200
H  48.62100 38.50700 30.93100
H  51.08800 37.34000 25.01500
H  47.99300 31.64600 24.75100
H  45.89200 34.77900 32.42900
H  48.01100 36.78800 32.68700
H  45.20700 36.94800 32.53200
H  45.69300 38.03300 31.40300
H  46.31700 38.27100 33.09500
H  48.90800 34.37600 32.21400
H  47.77000 33.16100 32.20100
H  48.99000 34.39900 34.35500
H  47.96500 33.00500 34.22300
H  49.84600 40.21600 30.33400
H  50.05000 41.19600 28.87000
H  51.45300 40.35700 29.65800
H  50.86200 41.72000 26.81000
H  52.54900 41.68200 26.14800
H  52.14600 40.94700 27.72800
H  51.28400 35.14500 23.78700
H  49.27000 33.31600 22.85500
H  49.21200 35.16300 21.76100
H  50.47600 36.37700 21.91000
H  48.96700 36.64600 22.71000
H  50.50600 31.66700 24.59700
H  51.52400 33.18400 24.70600
H  52.63700 32.34400 23.02400
H  51.16900 32.58900 21.96900
H  51.54600 31.05500 22.81700
H  45.14500 29.68500 26.75000
H  46.68300 29.58300 25.92500
H  45.38600 30.35000 25.14700
H  44.21600 33.05200 30.72000
H  44.60000 30.78300 34.23400
H  44.79000 32.47400 34.69900
H  46.14000 31.59400 34.16200
Mg -11.84200 16.66800 43.58200
C  -9.12300 14.71200 42.66600
C  -10.37200 19.36100 41.89500
C  -14.86200 18.07400 43.29500
C  -13.40700 13.62700 44.56300
N  -10.00500 16.94700 42.28500
C  -9.04600 16.03300 42.16400
C  -7.79400 16.64800 41.56600
C  -8.06900 18.20800 41.66600
C  -9.55900 18.24400 42.04500
C  -7.20400 18.98100 42.69800
C  -7.54400 16.14300 40.06900
C  -6.29600 15.34600 39.74100
H  -5.29500 16.08000 38.85300
N  -12.47600 18.60500 42.90900
C  -11.76400 19.50400 42.17700
C  -12.62800 20.53500 41.71700
C  -13.95400 20.22000 42.08200
C  -13.84500 18.92500 42.80200
C  -12.09500 21.74000 41.04900
C  -15.21300 21.08700 41.76900
O  -15.14200 22.15000 41.18500
C  -16.58900 20.62700 42.23100
N  -13.79700 15.99300 43.87100
C  -14.91500 16.73800 43.66600
C  -16.19600 16.08000 44.09300
C  -15.64900 14.83400 44.85500
C  -14.17700 14.79600 44.43500
C  -17.18200 16.85300 44.95800
C  -16.39000 13.48700 44.72800
C  -16.42800 12.70200 46.07300
N  -11.37200 14.58200 43.75400
C  -12.06100 13.49300 44.25100
C  -11.19100 12.34400 44.45600
C  -9.98800 12.79200 43.82700
C  -10.23500 14.11700 43.35800
C  -11.52100 11.04300 44.97800
C  -8.58700 12.40300 43.52100
O  -7.90000 11.47500 43.91600
C  -8.01400 13.58100 42.69000
C  -6.75200 14.03800 43.36600
O  -6.72200 14.68700 44.38900
O  -5.65900 13.59800 42.64500
C  -4.33300 13.98500 43.25000
H  -9.85500 20.21600 41.45400
H  -15.87200 18.48900 43.30600
H  -13.82700 12.73700 45.03600
H  -6.95700 16.32300 42.18400
H  -8.04900 18.58900 40.64500
H  -6.74400 19.77100 42.10500
H  -6.56400 18.31500 43.27600
H  -7.74500 19.53700 43.46300
H  -7.56200 16.95600 39.34400
H  -8.32000 15.41500 39.83400
H  -6.57500 14.42500 39.22900
H  -5.74100 15.02800 40.62400
H  -12.44000 21.72400 40.01500
H  -11.00800 21.73600 40.97000
H  -12.27900 22.55400 41.75100
H  -16.81400 20.64200 43.29800
H  -16.62900 19.66700 41.71600
H  -17.25000 21.28900 41.67300
H  -16.68800 15.67100 43.21000
H  -15.56900 15.01200 45.92800
H  -18.14500 16.97400 44.46200
H  -16.82700 17.88200 45.01300
H  -17.26500 16.37900 45.93500
H  -15.93200 12.75700 44.06200
H  -17.39600 13.72300 44.38300
H  -16.20300 11.64200 45.96400
H  -17.35500 12.87400 46.62100
H  -15.67500 13.09700 46.75600
H  -10.69400 10.59400 45.52800
H  -11.72700 10.44000 44.09300
H  -12.46200 11.01600 45.52800
H  -7.77300 13.42700 41.63800
H  -4.04200 14.96500 42.87100
H  -3.58000 13.27700 42.90500
H  -4.23600 13.92800 44.33400

