158

Mg 35.47800 1.82000 29.32400
C  33.40200 3.02500 31.93600
C  38.18400 1.68100 31.53600
C  37.61400 1.21700 26.78900
C  32.94200 2.42900 27.14400
N  35.71200 2.27400 31.45400
C  34.71800 2.65600 32.32500
C  35.25700 2.51800 33.75700
C  36.80800 2.51600 33.61400
C  36.98000 2.13100 32.06800
C  37.50900 3.78900 34.06400
C  34.61200 1.33700 34.58600
C  33.83300 1.75900 35.82200
H  34.35000 2.94700 36.62800
N  37.62100 1.35600 29.18600
C  38.53800 1.27700 30.23900
C  39.87700 0.92300 29.72900
C  39.68300 0.72700 28.32900
C  38.28500 1.13400 28.02500
C  41.10900 0.63100 30.64000
C  40.61900 0.23000 27.23200
O  40.32700 -0.21200 26.07800
C  42.14400 0.17900 27.56500
N  35.27100 1.68700 27.23900
C  36.32400 1.48200 26.33500
C  35.76500 1.42500 24.90100
C  34.18500 1.56900 25.13500
C  34.12600 1.98900 26.60200
C  36.37200 2.51400 24.02500
C  33.34500 0.20800 24.97500
C  32.45600 0.14500 23.64700
N  33.50300 2.60400 29.42900
C  32.63300 2.73600 28.40600
C  31.36500 3.14400 29.05000
C  31.69600 3.47400 30.38500
C  32.97000 3.00000 30.59800
C  30.09800 3.17300 28.20500
C  31.17500 3.86300 31.65300
O  30.10100 4.34900 31.93000
C  32.19300 3.56300 32.75300
C  32.38700 4.83000 33.47100
O  32.96700 5.75900 33.04200
O  31.57800 4.79600 34.58300
C  31.69400 5.96000 35.44800
H  39.04000 1.45700 32.17600
H  38.28500 1.03600 25.94700
H  32.09700 2.52700 26.45900
H  34.91000 3.38600 34.31800
H  37.29400 1.75600 34.22600
H  37.86900 3.82000 35.09200
H  36.81500 4.62600 33.97500
H  38.37600 4.01200 33.44200
H  35.41900 0.68500 34.92000
H  33.95500 0.76700 33.92900
H  33.65700 0.89900 36.46800
H  32.82200 2.02900 35.51800
H  41.58300 -0.28700 30.29400
H  40.70100 0.43600 31.63200
H  41.87400 1.40700 30.64800
H  42.43700 0.96100 28.26600
H  42.82100 0.23100 26.71200
H  42.37100 -0.76700 28.05700
H  35.97400 0.47200 24.41500
H  33.75300 2.35700 24.51800
H  36.44600 2.21000 22.98100
H  37.32500 2.94000 24.33800
H  35.66100 3.32200 23.85500
H  32.69700 -0.07700 25.80500
H  33.96100 -0.69100 24.95700
H  32.89400 -0.56900 22.94900
H  32.35100 1.06700 23.07500
H  31.45200 -0.21900 23.86700
H  30.11100 2.50100 27.34800
H  29.94400 4.17800 27.81000
H  29.29300 2.85000 28.86600
H  31.68300 2.90400 33.45600
H  30.66900 6.16600 35.75500
H  32.14000 6.85700 35.01700
H  32.35000 5.77300 36.29800
Mg -5.38100 25.13100 25.94400
C  -3.86700 26.67600 28.66800
C  -6.80400 22.89200 28.15300
C  -7.09300 23.78000 23.39600
C  -3.66400 27.14700 23.77800
N  -5.32200 24.80600 28.12800
C  -4.74500 25.65800 29.06000
C  -5.13900 25.27300 30.54300
C  -5.66600 23.78300 30.24600
C  -5.94500 23.83400 28.78300
C  -4.74600 22.64000 30.82200
C  -6.28100 26.17700 31.14400
C  -5.94900 26.68400 32.55700
H  -6.90100 26.34100 33.66700
N  -6.76900 23.55700 25.70800
C  -7.29800 22.77800 26.80800
C  -8.43700 21.92300 26.39200
C  -8.56900 22.16300 25.01400
C  -7.48500 23.23300 24.65300
C  -9.09100 21.02900 27.38400
C  -9.47800 21.64200 23.87700
O  -9.36700 22.10100 22.72800
C  -10.36600 20.38700 24.13700
N  -5.17000 25.30700 23.90200
C  -6.07700 24.67800 23.04600
C  -5.74100 24.99000 21.59300
C  -4.70800 26.24200 21.70600
C  -4.42200 26.19500 23.18600
C  -5.33500 23.72700 20.76500
C  -5.27800 27.61000 21.12600
C  -4.93600 27.93800 19.62800
N  -4.01900 26.57200 26.13800
C  -3.33900 27.27700 25.16500
C  -2.46000 28.27300 25.72400
C  -2.69800 28.12200 27.12600
C  -3.61300 27.00800 27.32400
C  -1.57200 29.20700 24.97600
C  -2.32000 28.67700 28.49000
O  -1.65700 29.62200 28.95200
C  -3.11400 27.67800 29.47800
C  -2.09300 27.00800 30.28500
O  -1.21100 26.22700 29.78400
O  -2.06200 27.54900 31.56800
C  -0.92500 27.20700 32.37600
H  -7.19500 22.14300 28.84500
H  -7.72300 23.62200 22.51800
H  -3.05400 27.81200 23.16300
H  -4.36300 25.18400 31.30300
H  -6.65700 23.59900 30.66200
H  -3.84000 22.55400 30.22200
H  -5.36400 21.74200 30.83300
H  -4.52100 22.85000 31.86800
H  -7.27100 25.72200 31.16800
H  -6.19300 27.08500 30.54800
H  -6.19000 27.74700 32.54900
H  -4.92100 26.44700 32.83100
H  -9.38100 21.53100 28.30700
H  -8.31700 20.30300 27.63200
H  -9.97300 20.50800 27.01100
H  -9.71700 19.70100 24.68100
H  -10.69000 20.09400 23.13800
H  -11.14400 20.82000 24.76500
H  -6.70000 25.34900 21.21800
H  -3.78200 25.96400 21.20300
H  -5.40600 22.87100 21.43700
H  -4.30400 23.82400 20.42500
H  -6.06300 23.78500 19.95600
H  -4.86900 28.39100 21.76700
H  -6.35900 27.72900 21.20000
H  -4.06400 27.39300 19.26500
H  -4.71500 29.00400 19.57900
H  -5.78100 27.64700 19.00300
H  -2.09000 29.96000 24.38200
H  -0.83100 28.57700 24.48400
H  -0.96400 29.72300 25.72000
H  -3.74200 28.25700 30.15600
H  -1.28800 26.59500 33.20100
H  -0.70100 28.16800 32.84000
H  -0.03700 26.77600 31.91300

