158

Mg 16.55500 51.21500 25.16700
C  18.45200 50.17300 27.87300
C  14.26100 52.37200 27.39200
C  15.09400 52.71700 22.61700
C  19.07900 49.96800 23.01400
N  16.30000 51.13600 27.35600
C  17.23200 50.74500 28.28800
C  16.85300 51.16800 29.68200
C  15.37400 51.50200 29.54900
C  15.21100 51.60100 28.03000
C  14.36800 50.54600 30.25100
C  17.76000 52.14900 30.41800
C  17.90800 51.88400 31.86400
H  17.01500 52.64300 32.83500
N  14.86300 52.29400 25.02000
C  14.11600 52.73600 26.03700
C  13.23000 53.77900 25.54800
C  13.33700 53.81600 24.12400
C  14.50800 52.97500 23.84300
C  12.17100 54.42900 26.41100
C  12.51600 54.55300 23.16000
O  12.71700 54.40500 21.96700
C  11.26500 55.36800 23.50600
N  16.94600 51.24600 23.09800
C  16.19500 51.98800 22.24400
C  16.80000 51.97400 20.76100
C  18.17800 51.19400 21.02000
C  18.04800 50.73500 22.48200
C  15.92000 51.06700 19.77600
C  19.31800 52.15600 20.62700
C  20.49800 51.52000 19.82400
N  18.36100 50.10200 25.31000
C  19.23800 49.68100 24.35900
C  20.45600 49.10900 25.05400
C  20.16700 49.32700 26.41800
C  18.88200 49.93200 26.54000
C  21.50300 48.52300 24.35000
C  20.65500 49.02300 27.77500
O  21.65900 48.47400 28.21600
C  19.63400 49.70500 28.70400
C  19.23900 48.78200 29.89000
O  18.84700 47.63000 29.81300
O  19.52600 49.37100 31.03600
C  19.58400 48.49000 32.19700
H  13.53600 52.71100 28.13600
H  14.66200 53.20700 21.74200
H  19.95000 49.71600 22.40600
H  16.99200 50.16900 30.09500
H  15.18500 52.51400 29.90700
H  14.77300 50.11500 31.16600
H  14.05900 49.78400 29.53600
H  13.47800 51.14000 30.45900
H  17.26200 53.11200 30.29900
H  18.75500 52.16200 29.97400
H  18.95600 51.83800 32.16300
H  17.60800 50.84200 31.97700
H  12.05600 55.49500 26.20900
H  12.36200 54.29600 27.47500
H  11.22300 53.94600 26.17300
H  10.54500 54.75000 24.04200
H  11.09200 55.72000 22.48900
H  11.39900 56.21800 24.17400
H  16.81700 53.01200 20.43100
H  18.21800 50.21600 20.54000
H  16.52400 50.76700 18.92000
H  15.11500 51.73700 19.47500
H  15.48100 50.15100 20.17100
H  19.75300 52.51800 21.55900
H  19.02300 53.08400 20.13800
H  21.42100 51.79500 20.33400
H  20.45100 52.02400 18.85900
H  20.49100 50.46100 19.56600
H  22.28300 49.28300 24.31700
H  21.11700 48.22900 23.37500
H  21.84400 47.59800 24.81500
H  20.06500 50.58900 29.17400
H  19.97500 48.89200 33.13200
H  20.23200 47.62800 32.04100
H  18.56800 48.13400 32.37000
Mg -9.56300 17.67400 41.62300
C  -5.98700 17.53800 41.52200
C  -9.18400 21.05400 40.59900
C  -12.73000 17.71800 40.99900
C  -9.61300 14.26100 42.45700
N  -7.78000 19.08000 40.96100
C  -6.43600 18.77100 40.98800
C  -5.60000 19.90800 40.50000
C  -6.65500 21.12300 40.66500
C  -7.96700 20.40000 40.68300
C  -6.35800 21.97400 41.94700
C  -5.18800 19.64100 39.05600
C  -3.77400 19.12600 38.93200
H  -3.50300 17.62500 38.51900
N  -10.80000 19.17100 41.00400
C  -10.47700 20.52700 40.60900
C  -11.68000 21.21500 40.29900
C  -12.72900 20.32800 40.47100
C  -12.11900 18.99200 40.74300
C  -11.58300 22.74700 39.85700
C  -14.15900 20.64700 40.08400
O  -14.55200 21.73800 39.87400
C  -15.15800 19.59100 39.85900
N  -10.90300 16.15400 41.51700
C  -12.18500 16.45600 41.35900
C  -13.01000 15.20200 41.46100
C  -12.08400 14.15000 42.06200
C  -10.78300 14.83600 41.86500
C  -14.32200 15.40600 42.31900
C  -12.18800 12.72500 41.38100
C  -12.40900 11.50500 42.25800
N  -8.15200 16.20200 42.01300
C  -8.31800 14.87900 42.46300
C  -7.03600 14.32200 42.77500
C  -6.10200 15.40100 42.43100
C  -6.83800 16.45300 41.98900
C  -6.81200 13.01500 43.25300
C  -4.71900 15.73100 42.36600
O  -3.73400 15.04800 42.60600
C  -4.56400 17.21300 41.91300
C  -4.07400 18.07100 43.05100
O  -4.87600 18.74100 43.70000
O  -2.73100 18.00600 43.22700
C  -2.08700 18.82500 44.21800
H  -9.02100 22.13200 40.66000
H  -13.80100 17.67500 40.78800
H  -9.81700 13.22500 42.73500
H  -4.71300 20.08500 41.10800
H  -6.74600 21.81800 39.83000
H  -6.73400 21.63600 42.91300
H  -6.76100 22.95900 41.71000
H  -5.27100 22.00800 42.01800
H  -5.25800 20.57700 38.50100
H  -5.89200 18.90800 38.66300
H  -3.19400 19.26600 39.84500
H  -3.28900 19.86300 38.29200
H  -12.32100 22.81200 39.05700
H  -10.61000 22.96500 39.41700
H  -11.94600 23.38800 40.66100
H  -16.04300 19.97000 39.34800
H  -15.51600 19.28500 40.84200
H  -14.83700 18.74700 39.24800
H  -13.34100 14.90600 40.46600
H  -12.27800 14.21900 43.13200
H  -14.04300 16.12100 43.09200
H  -14.43200 14.43600 42.80500
H  -15.07800 15.67800 41.58200
H  -11.18700 12.62600 40.96300
H  -12.83100 12.75700 40.50100
H  -11.49400 10.92800 42.39000
H  -13.15100 10.90500 41.73200
H  -12.65900 11.70600 43.30000
H  -6.51500 12.43700 42.37800
H  -7.70200 12.65100 43.76600
H  -5.95800 13.04300 43.93000
H  -3.91200 17.26300 41.04100
H  -1.53600 18.23800 44.95300
H  -2.76300 19.50600 44.73600
H  -1.49800 19.57900 43.69500

