158

Mg 47.09300 16.20200 28.62200
C  44.87200 15.55000 31.29500
C  48.66900 18.48900 30.59200
C  48.75600 17.19900 25.84000
C  44.79100 14.47000 26.41800
N  46.71300 16.99800 30.79300
C  45.83600 16.45800 31.69000
C  46.16700 17.09800 33.07900
C  47.34900 18.04100 32.77500
C  47.57900 17.87100 31.29800
C  47.20700 19.60300 33.11200
C  46.43100 16.09500 34.20300
C  46.44000 16.56500 35.59600
H  47.66900 16.35000 36.56100
N  48.63600 17.49900 28.28200
C  49.14100 18.33400 29.24500
C  50.19000 19.13100 28.65300
C  50.23900 18.89100 27.23900
C  49.13300 17.82900 27.00000
C  51.11300 20.03300 29.44200
C  51.05000 19.53200 26.12200
O  50.88300 19.23900 24.91200
C  52.08300 20.56900 26.29200
N  46.86900 15.77300 26.52500
C  47.71400 16.31300 25.61000
C  47.24600 15.90600 24.18100
C  46.07900 14.94700 24.39900
C  45.85100 15.12700 25.85900
C  47.01400 17.08800 23.24000
C  46.26200 13.49200 23.93000
C  47.16800 12.46900 24.78600
N  45.21000 15.17700 28.77900
C  44.42600 14.52100 27.80700
C  43.26300 13.87800 28.47000
C  43.39300 14.19700 29.84600
C  44.57200 15.02100 29.95700
C  42.22400 13.11800 27.74500
C  42.86700 13.92800 31.16000
O  41.88700 13.25900 31.56300
C  43.84400 14.77000 32.12800
C  42.96000 15.68000 32.94500
O  42.23100 16.56700 32.51500
O  43.11200 15.32600 34.25700
C  42.23000 15.92600 35.29800
H  49.24900 19.18300 31.20400
H  49.36000 17.49100 24.97900
H  44.18400 13.90600 25.70700
H  45.40700 17.77700 33.46800
H  48.24600 17.81200 33.34900
H  48.15200 19.96200 33.52100
H  46.42600 19.73000 33.86200
H  46.94800 20.20100 32.23800
H  47.44800 15.75500 34.00600
H  45.83300 15.18500 34.14800
H  45.59400 16.19600 36.17600
H  46.38100 17.65100 35.67800
H  51.15100 19.79800 30.50600
H  50.86000 21.09100 29.37600
H  52.11000 19.72800 29.12600
H  51.54700 21.51100 26.40800
H  52.77400 20.61200 25.45000
H  52.66500 20.40700 27.19900
H  48.08900 15.33700 23.78900
H  45.17500 15.18100 23.83500
H  47.64300 17.94000 23.50000
H  46.02200 17.53800 23.20000
H  47.25500 16.85700 22.20300
H  46.77000 13.47100 22.96600
H  45.30200 13.02800 23.70600
H  47.52500 12.83900 25.74700
H  47.99400 12.12600 24.16300
H  46.59900 11.54900 24.92000
H  42.44600 12.05100 27.76500
H  42.19200 13.47600 26.71600
H  41.35100 13.51700 28.26000
H  44.41300 14.03000 32.69100
H  41.69000 15.15200 35.84200
H  41.50100 16.66100 34.95900
H  42.91400 16.34400 36.03700
Mg -10.35400 17.17300 43.48800
C  -6.84200 16.86000 43.10700
C  -10.11900 20.43100 42.36600
C  -13.63500 17.18300 43.15700
C  -10.43900 13.62300 43.83200
N  -8.57400 18.45500 42.71300
C  -7.27800 18.17600 42.73400
C  -6.39800 19.48800 42.35600
C  -7.52400 20.59900 42.45000
C  -8.82500 19.81100 42.47000
C  -7.28400 21.61500 43.60900
C  -5.57300 19.20900 40.97800
C  -5.94100 20.05900 39.76100
H  -5.52500 19.52500 38.46000
N  -11.69300 18.55800 42.97600
C  -11.40700 19.85200 42.51800
C  -12.63500 20.57500 42.24900
C  -13.67800 19.70200 42.55500
C  -13.04000 18.36700 42.92200
C  -12.70800 22.03000 41.86500
C  -15.15300 20.05600 42.52700
O  -15.49900 21.22800 42.31700
C  -16.23600 19.07400 42.80200
N  -11.86200 15.64700 43.48700
C  -13.12300 15.95500 43.38400
C  -13.99500 14.76800 43.77600
C  -13.04800 13.55600 43.71200
C  -11.67400 14.31200 43.64000
C  -14.90900 14.90300 44.98000
C  -13.24200 12.67300 42.45100
C  -13.59900 11.20800 42.76900
N  -8.93200 15.46500 43.59300
C  -9.09400 14.15300 43.73800
C  -7.84200 13.45900 43.68500
C  -6.92600 14.50900 43.48100
C  -7.61600 15.70700 43.38700
C  -7.57000 12.01000 43.77600
C  -5.50600 14.79900 43.29500
O  -4.54200 14.07300 43.17800
C  -5.44500 16.37000 43.13100
C  -4.62600 16.97300 44.29700
O  -3.37600 16.85000 44.35700
O  -5.37700 17.51300 45.27500
C  -4.74800 17.79500 46.57600
H  -10.11400 21.51300 42.21500
H  -14.72400 17.16600 43.07500
H  -10.44500 12.53800 43.95500
H  -5.71700 19.68900 43.18300
H  -7.56000 21.27000 41.59200
H  -8.03400 21.44300 44.38200
H  -7.47900 22.58500 43.15200
H  -6.32800 21.56700 44.12900
H  -5.71700 18.16600 40.69700
H  -4.51800 19.34500 41.21700
H  -5.63000 21.07200 40.01700
H  -7.02800 20.06600 39.84000
H  -13.49400 22.14000 41.11800
H  -11.79200 22.36300 41.37800
H  -13.00700 22.71100 42.66200
H  -16.26700 18.78300 43.85200
H  -16.04100 18.27700 42.08500
H  -17.20600 19.45700 42.48500
H  -14.72900 14.63900 42.98100
H  -13.14900 13.08000 44.68700
H  -14.93500 14.12200 45.74000
H  -15.95100 15.00800 44.67700
H  -14.61800 15.83200 45.46900
H  -12.38500 12.66200 41.77700
H  -14.05700 13.03900 41.82600
H  -14.51700 10.97000 42.23100
H  -13.56400 11.02000 43.84200
H  -12.86100 10.57700 42.27400
H  -6.97200 11.66400 44.61900
H  -7.02300 11.67000 42.89600
H  -8.52300 11.48300 43.72600
H  -4.83000 16.57800 42.25500
H  -5.30900 17.78500 47.51100
H  -4.18200 18.70500 46.38000
H  -4.00700 17.01500 46.74900

