158

Mg 24.65100 -5.83300 45.29400
C  27.08200 -3.76700 44.00700
C  22.33900 -4.69000 43.33800
C  22.72500 -8.56500 46.15000
C  27.21400 -7.23400 47.29500
N  24.77200 -4.49900 43.67200
C  25.82600 -3.62600 43.40900
C  25.37000 -2.46400 42.56700
C  23.77700 -2.64100 42.50300
C  23.60000 -4.01400 43.24500
C  23.00000 -1.37600 43.07800
C  26.04900 -2.62300 41.17800
C  26.18900 -1.46300 40.28000
H  25.65300 -1.66300 38.82500
N  22.73200 -6.46800 44.94300
C  21.94000 -5.82400 44.06100
C  20.64900 -6.47400 43.96200
C  20.74600 -7.62800 44.73300
C  22.13800 -7.62200 45.32400
C  19.59000 -6.08800 43.04300
C  19.65700 -8.68000 44.99100
O  18.57600 -8.57600 44.43600
C  19.79100 -9.87400 45.90700
N  24.92700 -7.60800 46.47100
C  24.01500 -8.64200 46.66800
C  24.54900 -9.79000 47.53300
C  25.91400 -9.24400 48.06100
C  26.03600 -7.94400 47.24700
C  23.56100 -10.40600 48.59800
C  27.16900 -10.15800 48.03100
C  28.15700 -10.04400 49.22100
N  26.70800 -5.49400 45.69400
C  27.54300 -6.10400 46.54700
C  28.90400 -5.58900 46.44900
C  28.70500 -4.61600 45.48600
C  27.36900 -4.62100 45.00800
C  30.19400 -5.77000 47.25400
C  29.33200 -3.48200 44.71500
O  30.49000 -3.02200 44.74700
C  28.28000 -2.92600 43.76000
C  28.22300 -1.45100 44.08400
O  28.18000 -0.96800 45.19500
O  28.35300 -0.73200 42.92300
C  28.35500 0.70600 43.11700
H  21.70500 -3.99600 42.78200
H  22.21200 -9.50700 46.35900
H  28.01600 -7.51100 47.98300
H  25.63300 -1.55800 43.11300
H  23.41000 -2.73700 41.48200
H  23.56600 -0.44600 43.03100
H  22.80500 -1.48500 44.14500
H  22.01300 -1.32700 42.61900
H  25.71600 -3.46900 40.57600
H  27.08600 -2.82700 41.44500
H  27.21800 -1.10400 40.30000
H  25.58100 -0.66600 40.70800
H  19.77500 -5.14400 42.53000
H  18.56100 -6.06500 43.40000
H  19.56500 -6.79400 42.21300
H  20.56200 -10.51000 45.47200
H  18.83100 -10.38000 46.00400
H  20.01500 -9.56100 46.92800
H  24.73500 -10.61900 46.85000
H  25.65600 -9.01600 49.09500
H  23.94900 -10.28800 49.61000
H  23.51500 -11.47200 48.37800
H  22.60100 -9.88800 48.58500
H  27.72500 -9.85700 47.14300
H  26.80900 -11.18400 47.94600
H  29.07000 -9.74400 48.70700
H  28.22800 -10.90200 49.89000
H  27.80700 -9.36700 50.00100
H  30.06600 -6.62700 47.91500
H  30.40600 -4.79600 47.69700
H  30.94300 -5.90000 46.47300
H  28.68800 -3.01400 42.75300
H  28.00500 1.06800 44.08400
H  27.70800 1.09800 42.33200
H  29.38000 1.01400 42.91000
Mg 40.98400 9.35400 30.07100
C  43.06300 10.42600 32.48100
C  38.67900 8.24200 32.48600
C  39.00800 7.95300 27.69700
C  43.54700 9.68100 27.70100
N  40.98500 9.19900 32.32600
C  41.89700 9.91500 33.02300
C  41.43300 9.93400 34.45000
C  40.13900 8.97000 34.43700
C  39.85800 8.91600 32.99800
C  40.23200 7.58200 35.12400
C  41.08700 11.37000 34.97200
C  40.64000 11.36900 36.40500
H  41.30800 12.37500 37.45600
N  39.02800 8.39500 30.10600
C  38.28200 7.99600 31.17200
C  36.97000 7.56900 30.73300
C  37.03900 7.43500 29.31700
C  38.39700 7.88600 28.98500
C  35.86700 7.15900 31.67200
C  35.97800 7.05900 28.29000
O  36.09300 7.10700 27.00900
C  34.71400 6.45400 28.81000
N  41.27700 8.70300 28.00000
C  40.32800 8.25200 27.24100
C  40.82900 8.12700 25.75400
C  42.15300 8.84600 25.79200
C  42.37600 9.08600 27.25900
C  40.85000 6.71300 25.19700
C  42.15400 10.25100 24.97900
C  41.67300 11.51200 25.66000
N  42.93300 9.91100 30.00900
C  43.87400 10.07700 29.03400
C  45.06400 10.72900 29.53900
C  44.75800 10.95800 30.93700
C  43.48600 10.37500 31.14800
C  46.37600 11.09100 28.88500
C  45.30200 11.52600 32.20200
O  46.34700 12.09200 32.48600
C  44.19500 11.13900 33.22600
C  44.83700 10.20000 34.09100
O  44.95900 8.99800 34.00000
O  45.33400 10.98400 35.13900
C  45.97200 10.27500 36.17800
H  38.00600 7.94600 33.29300
H  38.40900 7.58200 26.86200
H  44.17500 10.13100 26.92900
H  42.22200 9.48400 35.05200
H  39.22800 9.38200 34.87300
H  39.69500 7.56500 36.07200
H  41.25300 7.22700 35.26400
H  39.74700 6.85500 34.47300
H  40.37000 11.82800 34.29100
H  42.03300 11.91200 34.96600
H  40.76000 10.34600 36.76100
H  39.61600 11.74100 36.35500
H  35.63900 6.09300 31.69600
H  34.91800 7.65400 31.46700
H  36.17200 7.39700 32.69100
H  34.87900 5.51200 29.33300
H  34.04300 6.12500 28.01600
H  34.04600 7.16200 29.30000
H  40.06600 8.80400 25.37100
H  42.88000 8.10600 25.45600
H  41.02800 5.97600 25.98100
H  41.60000 6.52800 24.42800
H  39.94600 6.50700 24.62400
H  41.41100 9.97900 24.22900
H  43.15000 10.27600 24.53700
H  41.19700 11.34100 26.62600
H  40.83700 11.83300 25.03800
H  42.44000 12.26400 25.84300
H  46.58300 10.29900 28.16500
H  47.24000 11.13200 29.54700
H  46.18300 11.94100 28.23100
H  43.81700 12.02500 33.73700
H  46.58200 9.38900 36.00300
H  45.25000 9.89300 36.90000
H  46.55500 11.04700 36.67800

