158

Mg 44.82600 3.74900 47.48200
C  42.63100 6.52400 47.15700
C  42.10400 1.71400 47.05500
C  46.82100 1.16200 46.86200
C  47.49500 5.98300 47.03900
N  42.65400 4.15600 47.05900
C  42.00000 5.31700 47.12800
C  40.42000 5.01500 47.14100
C  40.34800 3.51000 47.35800
C  41.79900 3.10900 47.17100
C  39.68000 3.08600 48.69900
C  39.74400 5.65000 45.90100
C  40.52300 5.60200 44.58200
H  39.86700 5.05600 43.30800
N  44.49900 1.63900 47.12100
C  43.29100 1.00300 47.07700
C  43.58600 -0.44000 46.95800
C  44.96600 -0.61900 46.84900
C  45.47900 0.76800 46.91700
C  42.54200 -1.55000 46.81900
C  45.60300 -1.92100 46.71600
O  44.84600 -2.92900 46.85700
C  47.09800 -2.21900 46.58900
N  46.82500 3.61000 47.05700
C  47.47300 2.42200 46.92600
C  48.93600 2.57100 46.66300
C  49.17000 4.09600 47.06800
C  47.75700 4.64300 47.05600
C  49.83800 1.55100 47.36600
C  50.12500 4.79500 46.15200
C  51.35500 5.35900 46.79700
N  45.07800 5.87300 47.34600
C  46.21700 6.63600 47.12600
C  45.90300 8.04100 47.19800
C  44.46100 8.04800 47.16600
C  44.03700 6.68800 47.20200
C  46.77300 9.18600 46.98100
C  43.38300 8.87000 47.13000
O  43.29700 10.08000 47.04100
C  42.09200 7.99600 47.12100
C  41.23000 8.36100 48.27100
O  41.31100 7.90500 49.37200
O  40.27500 9.19700 47.80200
C  39.13700 9.37900 48.76200
H  41.25700 1.02500 47.08400
H  47.45100 0.28200 46.71700
H  48.30100 6.71900 47.04700
H  40.09900 5.60700 47.99800
H  39.69700 3.04700 46.61600
H  39.42300 3.92500 49.34500
H  40.47700 2.53600 49.19900
H  38.89800 2.33800 48.56600
H  39.53100 6.68100 46.18400
H  38.81900 5.07700 45.83000
H  41.50100 5.12300 44.62800
H  40.76900 6.64500 44.38200
H  41.55700 -1.08600 46.86100
H  42.41500 -2.31400 47.58600
H  42.54000 -2.00100 45.82700
H  47.51300 -1.78400 45.68000
H  47.13500 -3.30800 46.58300
H  47.61600 -1.86400 47.47900
H  49.06200 2.39400 45.59500
H  49.54400 4.24500 48.08100
H  50.66300 2.11200 47.80500
H  50.22300 0.80500 46.67200
H  49.23200 1.06400 48.13100
H  49.59400 5.58600 45.62300
H  50.54700 3.98600 45.55500
H  51.19300 6.10700 47.57300
H  51.90000 5.90800 46.02900
H  51.93500 4.50800 47.15300
H  46.85300 9.39300 45.91400
H  47.77200 9.07100 47.40000
H  46.29900 10.00400 47.52500
H  41.51900 8.18900 46.21400
H  38.49800 8.56300 48.42400
H  38.68400 10.36000 48.61500
H  39.28600 9.33200 49.84100
Mg 37.13200 49.42300 25.28600
C  36.94800 47.62000 28.11200
C  36.03600 52.27500 26.90800
C  36.77700 51.05400 22.31500
C  37.89300 46.53600 23.46900
N  36.56100 49.88600 27.23700
C  36.65400 48.97800 28.32500
C  36.21100 49.54800 29.65600
C  35.71900 51.02700 29.21900
C  36.19500 51.14800 27.73000
C  34.24900 51.30300 29.48600
C  37.29400 49.53200 30.79100
C  36.84600 49.38900 32.26800
H  35.33400 49.44000 32.77400
N  36.62800 51.47500 24.73200
C  36.29200 52.47600 25.49500
C  36.13300 53.70900 24.69600
C  36.13400 53.30300 23.35500
C  36.57800 51.94000 23.41900
C  35.99200 55.06300 25.25900
C  35.89600 54.12100 22.12100
O  35.83200 53.59100 20.99700
C  35.57200 55.62400 22.21100
N  37.19200 48.86100 23.23200
C  37.14900 49.69600 22.25700
C  37.41900 49.01000 20.86300
C  37.93000 47.64200 21.23500
C  37.72000 47.70100 22.73500
C  36.14100 49.02300 19.94400
C  39.42300 47.35900 20.87500
C  39.68700 46.04000 20.08400
N  37.54200 47.45600 25.68600
C  37.70000 46.37000 24.85000
C  37.82400 45.20300 25.63100
C  37.50800 45.61800 26.94500
C  37.35500 47.00700 26.91300
C  38.20300 43.81600 25.14900
C  37.26700 45.17600 28.31500
O  37.18900 44.09100 28.77600
C  36.90000 46.45200 29.09000
C  35.53500 46.27500 29.70100
O  34.46200 46.31100 29.07000
O  35.63400 45.96100 31.02300
C  34.35400 45.43700 31.54000
H  35.59900 53.11000 27.45900
H  36.94900 51.54200 21.35300
H  38.15400 45.57400 23.02300
H  35.29700 48.99900 29.88300
H  36.23000 51.87300 29.67800
H  33.88300 50.64400 30.27400
H  33.66300 51.13400 28.58200
H  34.08800 52.34300 29.76900
H  37.86100 50.45500 30.66900
H  38.01200 48.78500 30.45400
H  37.33000 50.19900 32.81400
H  37.27800 48.44300 32.59500
H  36.84200 55.73200 25.12900
H  35.86700 55.15300 26.33800
H  35.11300 55.52200 24.80500
H  34.58200 55.68100 22.66300
H  35.58600 56.15900 21.26100
H  36.42800 56.05200 22.73200
H  38.19900 49.47400 20.25900
H  37.27200 46.84200 20.89600
H  36.09400 49.81900 19.20200
H  35.23000 49.21100 20.51300
H  36.00000 48.04800 19.47700
H  39.97700 47.25500 21.80800
H  39.79800 48.16100 20.23800
H  40.07100 46.29300 19.09600
H  38.69900 45.59900 19.94800
H  40.41000 45.51400 20.70700
H  37.36500 43.27100 24.71500
H  38.53000 43.28000 26.04000
H  39.06800 43.84900 24.48600
H  37.62200 46.66800 29.87700
H  34.12800 44.39900 31.29500
H  33.43700 46.00200 31.37300
H  34.33300 45.42800 32.62900

