158

Mg 41.38900 40.83400 27.38600
C  40.65200 43.32100 29.75700
C  42.41300 38.84900 29.95000
C  42.46500 38.62000 25.11500
C  40.59600 43.18200 24.91000
N  41.51700 41.09100 29.56100
C  41.15100 42.08800 30.30800
C  41.04900 41.69900 31.83300
C  41.82600 40.32400 31.86900
C  41.93400 40.05700 30.33400
C  43.19400 40.14300 32.70500
C  39.56600 41.63500 32.43600
C  39.22800 42.65000 33.54500
H  38.54000 42.04400 34.80800
N  42.21200 38.90900 27.49000
C  42.58000 38.26300 28.62900
C  43.17800 36.99200 28.34400
C  43.19700 36.92100 26.93900
C  42.63900 38.17400 26.45100
C  43.87600 36.19100 29.39700
C  43.78500 35.85500 26.06100
O  43.69700 35.87000 24.81100
C  44.48600 34.66400 26.65700
N  41.67800 40.97200 25.32700
C  42.08500 39.88800 24.58200
C  41.79300 40.18300 23.07200
C  41.01400 41.49700 23.05900
C  41.08700 41.90300 24.53400
C  43.16400 40.16900 22.17000
C  39.61700 41.33700 22.50200
C  38.52800 40.74300 23.43500
N  40.73700 42.84600 27.27800
C  40.40800 43.68400 26.18200
C  39.89900 44.93500 26.64200
C  40.05000 44.85100 28.03900
C  40.48900 43.56300 28.35600
C  39.49000 46.02500 25.73500
C  39.82100 45.60400 29.31500
O  39.53300 46.83500 29.56100
C  40.09500 44.52600 30.45400
C  41.07600 45.10800 31.42000
O  42.25900 45.27700 31.20800
O  40.37900 45.61100 32.48300
C  41.21200 46.43200 33.36000
H  42.71800 38.24900 30.81000
H  42.85300 38.01700 24.29100
H  40.32000 43.82600 24.07200
H  41.61400 42.43400 32.40600
H  41.30600 39.44800 32.25800
H  43.43200 41.14500 33.06400
H  44.05200 39.75200 32.15700
H  43.14800 39.52500 33.60200
H  39.39500 40.69100 32.95200
H  38.80900 41.73800 31.65900
H  38.55800 43.34300 33.03600
H  40.13400 43.19800 33.80600
H  44.90300 36.05500 29.05900
H  43.28400 35.28200 29.50200
H  43.84100 36.65900 30.38100
H  43.95900 34.28400 27.53100
H  45.52000 34.96300 26.82700
H  44.47500 33.95400 25.83000
H  41.11800 39.42300 22.68000
H  41.62400 42.23100 22.53400
H  43.29200 41.15300 21.71900
H  43.01500 39.39500 21.41700
H  44.09100 39.89500 22.67300
H  39.52100 40.77400 21.57400
H  39.25300 42.29700 22.13500
H  37.92400 40.03300 22.87000
H  37.85400 41.52500 23.78300
H  38.95900 40.20700 24.28000
H  39.05700 45.57100 24.84400
H  40.38200 46.60300 25.49000
H  38.79100 46.59500 26.34800
H  39.12500 44.33200 30.91000
H  41.87500 45.80600 33.95800
H  40.65400 47.05300 34.06100
H  41.78600 47.19300 32.83200
Mg -12.47700 38.32900 42.56300
C  -9.83600 36.05200 41.92900
C  -10.68300 40.69800 40.85700
C  -15.19200 39.99100 42.45000
C  -14.27700 35.40600 43.66000
N  -10.53900 38.35300 41.46100
C  -9.66700 37.28300 41.31800
C  -8.49800 37.78800 40.42000
C  -8.55100 39.38300 40.49800
C  -9.99800 39.51800 40.95700
C  -7.49100 40.12400 41.36400
C  -8.63000 37.19100 39.02600
C  -7.54900 36.11600 38.73500
H  -6.58900 36.39300 37.64100
N  -12.88900 40.14700 41.89900
C  -11.96000 41.04400 41.29400
C  -12.60400 42.27400 41.06000
C  -13.99100 42.07000 41.47900
C  -14.07400 40.65700 41.97300
C  -11.94900 43.40800 40.41300
C  -15.05400 43.18200 41.50200
O  -14.78200 44.24200 40.91300
C  -16.37300 43.06600 42.20300
N  -14.51700 37.67400 42.70100
C  -15.46300 38.62100 42.80000
C  -16.77900 38.07900 43.30200
C  -16.47300 36.58700 43.53000
C  -15.01300 36.51700 43.26400
C  -17.24200 38.80900 44.63300
C  -17.32300 35.59600 42.68000
C  -17.60400 34.23200 43.37400
N  -12.07100 36.17100 42.95500
C  -12.90900 35.18900 43.41000
C  -12.11200 33.97300 43.60500
C  -10.85200 34.25400 43.07000
C  -10.97300 35.62000 42.61400
C  -12.41600 32.69000 44.22300
C  -9.44000 33.78900 42.82700
O  -8.95600 32.70600 43.13100
C  -8.79500 34.90600 41.97900
C  -7.38700 35.11500 42.45800
O  -6.35900 34.46800 42.17100
O  -7.40700 36.27000 43.14800
C  -6.21800 36.95000 43.54900
H  -10.04700 41.47200 40.42300
H  -16.15700 40.49400 42.53900
H  -14.88700 34.56600 43.99600
H  -7.54000 37.49800 40.85200
H  -8.31700 39.84900 39.54100
H  -7.96100 40.72800 42.14100
H  -6.75300 40.72900 40.83800
H  -6.95300 39.38800 41.96100
H  -8.43300 37.96100 38.27900
H  -9.61900 36.74700 38.90700
H  -8.06800 35.29500 38.24000
H  -7.07500 35.76500 39.65200
H  -12.45800 43.77800 39.52200
H  -10.94200 43.17400 40.06900
H  -11.84300 44.23500 41.11400
H  -16.17300 42.72100 43.21700
H  -17.00900 42.38000 41.64300
H  -16.91700 44.00600 42.29400
H  -17.56800 38.17700 42.55700
H  -16.58300 36.31900 44.58100
H  -17.87900 38.25300 45.32200
H  -17.83100 39.67200 44.32400
H  -16.30800 39.10200 45.11300
H  -16.68800 35.50800 41.79900
H  -18.26800 36.07200 42.41900
H  -18.67200 34.01900 43.40800
H  -17.08500 34.21000 44.33300
H  -17.18700 33.35900 42.87200
H  -13.27700 32.89200 44.86100
H  -11.60400 32.28000 44.82200
H  -12.63900 31.95300 43.45100
H  -8.67200 34.54500 40.95800
H  -6.54900 37.87400 44.02200
H  -5.59200 37.13200 42.67500
H  -5.70600 36.34900 44.30100

