158

Mg 16.35800 51.80500 26.03400
C  17.98400 50.86400 28.93700
C  13.82500 53.12500 28.09300
C  14.80900 52.86700 23.30800
C  18.62800 50.15500 24.17300
N  15.88900 51.89800 28.19300
C  16.82900 51.53100 29.20200
C  16.32300 51.87600 30.59500
C  14.87300 52.48100 30.31400
C  14.85100 52.49400 28.82900
C  13.66200 51.79600 31.01200
C  17.26100 52.86000 31.42500
C  17.68800 52.36900 32.81000
H  16.91500 53.02300 34.04400
N  14.62100 52.94000 25.76300
C  13.70900 53.39200 26.71900
C  12.66400 54.12100 26.02700
C  12.94400 54.05600 24.62100
C  14.23100 53.25000 24.47700
C  11.49700 54.77000 26.70300
C  12.23900 54.76300 23.39800
O  12.59100 54.65400 22.21800
C  10.99400 55.67900 23.63800
N  16.72800 51.69700 23.97300
C  15.97200 52.18300 23.02500
C  16.57300 51.71700 21.59800
C  17.88400 51.07800 22.05800
C  17.65900 50.86500 23.47900
C  15.54100 50.77800 20.85800
C  19.07700 52.10800 21.79400
C  20.41700 51.54500 21.52200
N  17.93000 50.63700 26.41500
C  18.86500 50.07800 25.57100
C  19.92100 49.48500 26.29600
C  19.66300 49.69200 27.67300
C  18.43100 50.43100 27.65300
C  21.18800 48.86900 25.75600
C  20.14700 49.55300 29.09000
O  21.12400 48.96300 29.52800
C  19.04300 50.30400 29.88700
C  18.50600 49.20300 30.70000
O  17.83600 48.23700 30.37900
O  19.12000 49.27200 31.98600
C  18.58800 48.31000 32.98200
H  13.00300 53.45200 28.73300
H  14.32200 53.24200 22.40600
H  19.43000 49.83000 23.50800
H  16.24600 50.94900 31.16200
H  14.84800 53.55900 30.47300
H  12.71500 52.26500 30.74700
H  13.65200 51.96400 32.08900
H  13.60000 50.71400 30.89300
H  16.76900 53.82500 31.54700
H  18.16300 53.00500 30.83000
H  18.71100 52.73800 32.74500
H  17.67200 51.28000 32.77600
H  11.64000 54.82000 27.78200
H  10.61300 54.18100 26.46000
H  11.47700 55.80300 26.35700
H  11.25800 56.59100 24.17200
H  10.27400 54.97400 24.05600
H  10.66600 55.86300 22.61500
H  16.57100 52.67900 21.08600
H  18.04300 50.13900 21.52700
H  16.08200 49.85100 20.66700
H  15.11800 51.21600 19.95400
H  14.64500 50.53400 21.42900
H  18.97700 52.76200 22.66000
H  18.76400 52.69900 20.93300
H  21.00500 51.23600 22.38600
H  20.98000 52.22800 20.88500
H  20.20700 50.66700 20.91000
H  21.32700 49.16000 24.71500
H  21.03800 47.80000 25.60900
H  22.04200 49.06800 26.40400
H  19.41800 51.03800 30.60000
H  17.50200 48.32600 33.07500
H  18.96400 48.66000 33.94300
H  19.03300 47.31800 32.91000
Mg -1.91200 35.38900 26.33600
C  -3.85600 33.99700 28.94300
C  -0.97900 37.88200 28.56200
C  0.10100 36.63800 23.95600
C  -3.25300 33.12700 24.10200
N  -2.30300 35.72100 28.62700
C  -3.19600 35.08500 29.48200
C  -3.24200 35.76600 30.90700
C  -2.49500 37.06300 30.55900
C  -1.86700 36.90900 29.15900
C  -3.59600 38.20300 30.62400
C  -2.55600 34.83000 31.98000
C  -3.34600 34.60100 33.32200
H  -2.53500 34.25300 34.52300
N  -0.58500 36.99900 26.28300
C  -0.39200 37.95900 27.29200
C  0.59200 38.85200 26.90000
C  0.92100 38.53400 25.54200
C  0.17500 37.31600 25.16400
C  0.97100 40.05100 27.82200
C  1.83300 39.19000 24.53100
O  1.95100 39.02200 23.35200
C  2.60000 40.28700 25.03300
N  -1.80700 35.12500 24.26600
C  -0.80700 35.65900 23.50700
C  -0.87400 35.21600 22.09100
C  -1.66000 33.86600 22.28800
C  -2.35300 34.01800 23.63600
C  -1.62100 36.19200 21.12700
C  -0.70300 32.62900 22.30800
C  -1.33700 31.43900 21.57800
N  -3.22400 33.78200 26.45200
C  -3.76900 33.00400 25.44800
C  -4.54200 31.98400 26.08100
C  -4.72000 32.36000 27.46000
C  -3.83700 33.47900 27.63700
C  -5.35900 30.92900 25.31500
C  -5.29900 31.91300 28.70400
O  -6.06900 30.98600 29.04300
C  -4.78500 33.05000 29.71100
C  -5.86100 33.80100 30.48900
O  -6.40100 34.87200 30.18600
O  -5.93500 33.21900 31.77600
C  -6.99800 33.65700 32.71100
H  -0.56000 38.58900 29.28200
H  0.65000 36.95200 23.06600
H  -3.58600 32.28600 23.49100
H  -4.26100 35.96000 31.24400
H  -1.77700 37.22800 31.36200
H  -4.63600 37.92300 30.79400
H  -3.51400 38.83800 29.74200
H  -3.20400 38.89700 31.36800
H  -1.54900 35.17000 32.21900
H  -2.44100 33.81900 31.58900
H  -4.02300 33.76000 33.17000
H  -3.73400 35.60700 33.48200
H  0.92100 40.99000 27.27100
H  2.02100 39.93100 28.08800
H  0.30900 40.27000 28.66100
H  2.82300 40.09000 26.08100
H  1.92000 41.13200 24.91800
H  3.53600 40.39500 24.48500
H  0.16100 35.07000 21.78200
H  -2.42100 33.74500 21.51800
H  -1.43300 35.78500 20.13400
H  -1.16200 37.17100 21.26600
H  -2.68600 36.17100 21.35800
H  -0.72700 32.34900 23.36100
H  0.32000 32.74200 21.94600
H  -0.63200 30.89100 20.95300
H  -2.23000 31.63000 20.98400
H  -1.63000 30.69900 22.32200
H  -4.76000 30.30900 24.64700
H  -6.10100 31.41400 24.68100
H  -5.84500 30.25400 26.01900
H  -4.21800 32.61500 30.53400
H  -7.32200 32.78800 33.28300
H  -7.91400 34.04100 32.26300
H  -6.57300 34.47100 33.29800

