158

Mg 30.61700 58.21700 38.97900
C  27.93200 56.23100 37.97100
C  32.69600 55.43700 38.43100
C  33.32600 60.22600 39.23300
C  28.43100 61.05600 38.79800
N  30.26200 56.07700 38.33900
C  29.11600 55.50800 37.83600
C  29.36600 54.06300 37.32900
C  30.81600 53.74600 37.84900
C  31.33600 55.20900 38.11300
C  30.98100 52.78300 39.08300
C  29.18300 53.86400 35.74600
C  29.15600 55.22100 34.92900
H  27.98200 55.48700 33.98200
N  32.74100 57.84600 38.98200
C  33.34100 56.62400 38.75200
C  34.80200 56.82900 38.75500
C  34.97000 58.22900 38.98100
C  33.68600 58.83800 39.01300
C  35.78400 55.69500 38.45500
C  36.31400 58.95700 39.05600
O  37.36400 58.27600 39.00500
C  36.52700 60.40100 39.46100
N  30.84200 60.23900 39.05300
C  32.03400 60.87100 39.32000
C  31.93000 62.40100 39.39600
C  30.40300 62.56600 39.14100
C  29.85500 61.19100 38.97700
C  32.43300 63.11800 40.71200
C  30.13100 63.50000 37.86600
C  30.51200 64.98400 38.06200
N  28.57000 58.61400 38.67000
C  27.85000 59.75100 38.58900
C  26.41600 59.38900 38.29000
C  26.50000 57.98400 38.11000
C  27.80000 57.60900 38.29200
C  25.26200 60.30300 38.18400
C  25.69100 56.90700 37.63900
O  24.48400 56.99400 37.36900
C  26.57500 55.64100 37.50900
C  26.01700 54.65500 38.59700
O  26.29900 54.64600 39.82400
O  25.38300 53.59900 37.97600
C  25.25400 52.43200 38.81500
H  33.38100 54.59600 38.30400
H  34.09900 60.98100 39.39400
H  27.64200 61.81000 38.81600
H  28.63700 53.33500 37.68500
H  31.40700 53.30200 37.04700
H  29.99000 52.44900 39.38900
H  31.29900 53.47600 39.86200
H  31.80600 52.11000 38.85100
H  28.16000 53.51200 35.62000
H  29.98200 53.25700 35.32000
H  30.04500 55.30000 34.30300
H  29.16800 56.13000 35.53000
H  35.40700 55.27900 37.52100
H  35.80200 54.95900 39.25800
H  36.75300 56.09600 38.15800
H  35.89300 60.69500 40.29800
H  36.38300 61.02600 38.58000
H  37.58500 60.50300 39.70100
H  32.56900 62.86300 38.64400
H  29.84300 63.06100 39.93300
H  31.65600 63.72400 41.17700
H  33.28300 63.72200 40.39300
H  32.72300 62.25800 41.31500
H  29.04400 63.50600 37.78800
H  30.61700 63.16200 36.95100
H  31.11000 64.98900 38.97300
H  29.61900 65.60600 38.12800
H  31.17300 65.60800 37.45900
H  24.28900 59.81400 38.13900
H  25.45300 60.96000 37.33600
H  25.20800 61.00800 39.01300
H  26.66800 55.23500 36.50200
H  26.27400 52.19300 39.11700
H  24.77200 51.64200 38.23900
H  24.63500 52.53800 39.70600
Mg -10.48100 39.18400 41.15800
C  -9.06800 35.85000 40.39100
C  -7.65900 40.45300 39.76100
C  -12.02800 42.01700 41.15800
C  -13.41500 37.39100 42.19600
N  -8.79300 38.23000 39.85300
C  -8.35300 36.92400 39.87200
C  -7.04600 36.81200 39.18700
C  -6.46300 38.28000 39.32700
C  -7.70800 39.02200 39.72900
C  -5.38200 38.46500 40.41200
C  -7.20900 36.16300 37.79600
C  -6.00500 35.43200 37.21800
H  -5.39900 36.18100 35.97000
N  -9.94500 41.05000 40.54500
C  -8.66300 41.33900 40.07500
C  -8.73100 42.76900 39.70300
C  -9.92200 43.35500 40.25200
C  -10.66500 42.16700 40.74400
C  -7.70400 43.57100 38.95400
C  -10.33000 44.74200 40.32300
O  -9.77700 45.59100 39.68300
C  -11.42400 45.18200 41.16400
N  -12.41700 39.62300 41.66800
C  -12.82200 40.91800 41.57900
C  -14.31700 40.95600 41.94000
C  -14.66300 39.55100 42.38900
C  -13.43300 38.80500 42.13200
C  -14.94300 42.16400 42.73000
C  -15.91600 38.98600 41.63100
C  -16.91100 38.18900 42.43500
N  -11.15200 37.05700 41.35200
C  -12.26300 36.56300 41.89300
C  -12.13400 35.18000 42.11000
C  -10.88500 34.85800 41.53700
C  -10.35600 35.98200 40.99300
C  -13.17000 34.30500 42.64000
C  -10.00300 33.77000 41.24900
O  -10.04400 32.56100 41.60300
C  -8.85000 34.39700 40.32500
C  -7.51400 33.88300 40.72900
O  -6.67900 33.49600 39.95800
O  -7.36600 33.95100 42.07300
C  -6.12600 33.60600 42.68600
H  -6.79900 40.92800 39.28500
H  -12.60200 42.93200 40.99400
H  -14.27500 36.85100 42.59900
H  -6.30200 36.21000 39.70900
H  -6.07300 38.58100 38.35500
H  -5.65200 39.07900 41.27000
H  -4.40600 38.77400 40.03600
H  -5.25900 37.50000 40.90400
H  -7.49000 36.89500 37.03900
H  -7.94800 35.36700 37.88400
H  -6.29600 34.41600 36.95000
H  -5.22800 35.50000 37.98000
H  -7.33100 44.51800 39.34600
H  -7.89600 43.80900 37.90800
H  -6.80200 42.98500 38.77900
H  -11.21600 46.18300 41.54300
H  -11.39200 44.50100 42.01400
H  -12.33500 45.21500 40.56600
H  -14.65500 41.10000 40.91400
H  -14.86600 39.53500 43.46000
H  -15.72300 42.51900 42.05700
H  -14.11400 42.85100 42.89600
H  -15.52900 41.89100 43.60800
H  -15.49700 38.44900 40.78000
H  -16.42500 39.77200 41.07300
H  -16.74000 38.11400 43.50900
H  -16.82300 37.20700 41.97200
H  -17.91900 38.59500 42.35900
H  -14.12800 34.33800 42.12000
H  -13.34600 34.43200 43.70800
H  -12.73800 33.31200 42.51400
H  -9.06100 34.16000 39.28200
H  -5.58500 32.73000 42.32700
H  -6.31700 33.47000 43.75100
H  -5.43700 34.43700 42.53600

