158

Mg 46.51500 25.16300 28.70500
C  47.60000 27.50400 31.08200
C  45.67800 23.10900 31.25600
C  45.97500 22.75000 26.42400
C  47.97900 27.11800 26.18500
N  46.55700 25.37800 30.85700
C  46.87700 26.45000 31.67800
C  46.56700 26.22200 33.13100
C  46.01800 24.73600 33.17300
C  46.09600 24.36700 31.65200
C  46.67600 23.79500 34.16100
C  45.68500 27.40400 33.74200
C  46.16900 28.01500 35.05900
H  45.09500 28.27200 36.20400
N  45.83200 23.14500 28.81300
C  45.56100 22.53700 30.00800
C  45.06800 21.17800 29.60700
C  45.20300 21.00400 28.18300
C  45.71100 22.30600 27.72700
C  44.55000 20.14700 30.60400
C  44.88600 19.87100 27.33700
O  44.93100 19.89300 26.11300
C  44.56700 18.52400 27.97200
N  46.99200 24.94700 26.62600
C  46.47000 23.91000 25.89400
C  46.59200 24.22100 24.40500
C  47.01600 25.68800 24.38300
C  47.42000 25.93500 25.78500
C  47.50100 23.26100 23.60300
C  45.86600 26.68300 23.94000
C  46.26200 27.55900 22.74800
N  47.51500 26.95700 28.59700
C  48.03500 27.63000 27.48200
C  48.68000 28.85700 27.97900
C  48.51500 28.79700 29.37000
C  47.79500 27.71700 29.68300
C  49.47400 29.79500 27.17400
C  48.86300 29.42100 30.54500
O  49.64300 30.38200 30.71700
C  48.23600 28.73300 31.74100
C  49.33800 28.24200 32.63700
O  50.33000 27.60300 32.29200
O  49.12300 28.67500 33.88900
C  50.12300 28.43800 35.02400
H  45.30200 22.52000 32.09500
H  45.66400 22.04200 25.65300
H  48.27200 27.90600 25.48800
H  47.44400 26.24000 33.77800
H  44.96200 24.93100 33.35600
H  46.89200 24.48300 34.97800
H  47.59900 23.43300 33.70800
H  46.07400 22.94400 34.47800
H  44.68600 27.02700 33.95900
H  45.48000 28.09500 32.92400
H  46.38000 29.03100 34.72600
H  47.06500 27.56200 35.48300
H  43.52900 19.77100 30.55700
H  44.57400 20.42400 31.65800
H  45.16000 19.26900 30.39100
H  43.74400 18.67000 28.67100
H  45.43100 18.18300 28.54300
H  44.42600 17.68800 27.28600
H  45.61200 24.13900 23.93500
H  47.93900 25.91500 23.84900
H  46.95600 22.69000 22.85100
H  47.90600 22.55400 24.32800
H  48.22600 23.86000 23.05200
H  45.67500 27.32500 24.79900
H  44.90900 26.20300 23.73600
H  45.63600 27.32300 21.88800
H  47.31500 27.37600 22.53400
H  46.11700 28.58200 23.09600
H  49.12400 30.04600 26.17300
H  50.43300 29.31700 26.97100
H  49.54700 30.72300 27.74200
H  47.60200 29.44500 32.26800
H  49.75500 28.75900 35.99800
H  51.04500 28.98600 34.82900
H  50.33900 27.39600 35.26100
Mg 16.51300 53.27200 26.50300
C  18.65500 51.81900 28.87700
C  14.27100 53.94600 29.09400
C  14.63800 54.90600 24.28800
C  18.87300 52.44300 24.03800
N  16.49500 52.98200 28.71600
C  17.52800 52.38400 29.51100
C  17.27400 52.40200 31.02700
C  15.77100 52.80900 30.96400
C  15.50600 53.32900 29.50600
C  14.74700 51.80300 31.41500
C  18.13800 53.43000 31.79300
C  18.37400 53.13700 33.31600
H  17.33400 52.36600 34.08200
N  14.71400 54.21200 26.63300
C  13.90100 54.29200 27.76200
C  12.70900 54.97800 27.45300
C  12.88300 55.46800 26.13000
C  14.10200 54.87600 25.61100
C  11.73000 55.36600 28.48600
C  12.03800 56.48100 25.35400
O  12.21300 56.68200 24.19600
C  10.75700 56.93700 25.93800
N  16.70100 53.59700 24.52100
C  15.77100 54.30300 23.77000
C  16.08700 54.23600 22.24600
C  17.49800 53.64700 22.21100
C  17.72300 53.17600 23.68200
C  15.15200 53.24500 21.52700
C  18.72100 54.56300 21.66900
C  19.63700 55.26100 22.78000
N  18.37700 52.30600 26.38200
C  19.22100 52.04200 25.30800
C  20.45700 51.45000 25.84700
C  20.22200 51.29800 27.19500
C  18.98600 51.88900 27.51400
C  21.64400 50.90900 25.16700
C  20.82800 50.78700 28.41300
O  21.92400 50.29800 28.63000
C  19.84100 51.19700 29.56500
C  19.48300 50.09600 30.49000
O  18.63500 49.21900 30.32900
O  20.32700 50.10400 31.63800
C  19.97700 49.08100 32.61800
H  13.62500 54.21200 29.93400
H  14.12300 55.54400 23.56600
H  19.66400 52.29700 23.29900
H  17.38400 51.43500 31.51800
H  15.60200 53.65900 31.62500
H  13.79200 52.21400 31.74300
H  15.10800 51.28600 32.30400
H  14.57200 51.07500 30.62300
H  17.59300 54.37400 31.79300
H  19.11100 53.54400 31.31600
H  18.50700 54.06700 33.86800
H  19.26000 52.50500 33.38000
H  10.71800 55.17400 28.12900
H  11.85700 56.42000 28.73300
H  11.71500 54.81900 29.42800
H  10.26700 57.61100 25.23500
H  10.77000 57.61800 26.78900
H  10.12200 56.06600 26.10100
H  16.09600 55.24100 21.82500
H  17.58800 52.84300 21.48100
H  14.77100 53.71700 20.62100
H  14.36800 52.79900 22.13900
H  15.65400 52.36400 21.12700
H  18.25300 55.38900 21.13300
H  19.29300 54.09500 20.86800
H  20.61200 54.77800 22.72600
H  19.24400 55.11700 23.78700
H  19.59500 56.33200 22.58300
H  21.49500 50.10600 24.44400
H  22.43700 50.58300 25.84000
H  22.18500 51.65500 24.58500
H  20.44200 51.90900 30.13100
H  20.26100 48.05000 32.40800
H  18.90200 49.09500 32.79700
H  20.48900 49.40600 33.52400

