158

Mg 0.51500 8.00300 25.75400
C  1.23300 10.02600 28.33400
C  0.48800 5.30600 27.75200
C  0.17100 6.03200 22.94700
C  0.68500 10.78300 23.65700
N  0.99100 7.69600 27.87800
C  1.08100 8.70600 28.77200
C  1.14700 8.20400 30.19600
C  1.09000 6.62200 30.01300
C  0.74700 6.53400 28.42700
C  2.47900 5.84600 30.22700
C  0.04300 8.80500 31.03800
C  0.45400 8.97700 32.49800
H  1.60300 8.12000 33.11800
N  0.41100 5.99000 25.43700
C  0.36900 5.00600 26.38200
C  0.21800 3.71600 25.72900
C  0.08600 3.87300 24.36500
C  0.17500 5.33100 24.18000
C  0.14800 2.41500 26.56700
C  -0.13400 2.92400 23.21800
O  -0.16900 3.17800 21.97900
C  -0.16400 1.42900 23.56900
N  0.43800 8.31400 23.62000
C  0.26700 7.39900 22.65100
C  -0.05800 7.96400 21.30100
C  0.05400 9.44800 21.51700
C  0.52200 9.50400 23.04100
C  0.98000 7.52800 20.22800
C  -1.33500 10.20500 21.28700
C  -1.27400 11.13800 20.16300
N  0.88000 10.05200 25.93500
C  0.91700 11.03100 24.99600
C  1.23300 12.32500 25.59900
C  1.42800 11.96200 26.92400
C  1.13900 10.60000 27.04100
C  1.31100 13.65800 24.89800
C  1.88600 12.39900 28.19400
O  2.36600 13.45300 28.56700
C  1.60000 11.20900 29.17300
C  2.85300 11.08600 29.91700
O  3.94100 10.56400 29.51300
O  2.65200 11.54600 31.16400
C  3.90900 11.82800 31.92100
H  0.48100 4.45500 28.43600
H  -0.06900 5.36100 22.11900
H  0.89600 11.61600 22.98200
H  2.13400 8.51300 30.54000
H  0.29800 6.21400 30.64100
H  2.81200 5.40300 29.28800
H  2.57600 5.01800 30.92900
H  3.25400 6.56900 30.48200
H  -0.76300 8.07300 31.01200
H  -0.16100 9.78700 30.61000
H  -0.40200 8.72800 33.12600
H  0.62300 10.05300 32.54500
H  -0.90300 2.15100 26.44500
H  0.42300 2.53400 27.61500
H  0.80500 1.67200 26.11600
H  -0.87000 1.13900 24.34700
H  0.85500 1.10800 23.78700
H  -0.45900 0.79900 22.72900
H  -1.09900 7.67400 21.15800
H  0.89500 9.85700 20.95700
H  1.57700 6.69800 20.60500
H  1.72300 8.29000 19.99200
H  0.52800 7.21500 19.28700
H  -1.50400 10.70300 22.24200
H  -2.15300 9.49600 21.16400
H  -0.39000 11.02400 19.53600
H  -1.35500 12.11900 20.63100
H  -2.14600 11.03500 19.51700
H  1.63400 14.42500 25.60200
H  0.31400 13.88600 24.51800
H  2.10200 13.54300 24.15700
H  0.78800 11.51000 29.83400
H  4.53500 12.50600 31.34100
H  4.37200 10.85400 32.07800
H  3.60700 12.30700 32.85300
Mg 6.88200 53.17800 41.53200
C  6.05400 49.84400 41.14800
C  10.18300 52.35100 41.39500
C  7.85500 56.52000 41.44600
C  3.54400 54.13800 41.71800
N  7.95200 51.21900 41.12000
C  7.40100 49.98200 41.11500
C  8.59000 48.91200 41.13300
C  9.81800 49.76400 41.38000
C  9.33500 51.21800 41.31900
C  10.63600 49.50900 42.69300
C  8.76000 47.99900 39.86300
C  8.90500 48.71400 38.50700
H  7.85000 48.28500 37.45800
N  8.74500 54.30300 41.22400
C  9.94700 53.70800 41.20300
C  10.95100 54.76100 41.10400
C  10.30000 56.02900 41.23200
C  8.87300 55.64200 41.17800
C  12.40100 54.40200 41.02900
C  10.97500 57.37100 41.22300
O  12.19800 57.40000 41.16000
C  10.25100 58.59800 41.23000
N  5.84700 55.13400 41.43700
C  6.49700 56.34000 41.65600
C  5.48900 57.37200 41.99700
C  4.15800 56.58700 41.93200
C  4.52900 55.10700 41.64800
C  5.71400 58.09900 43.38000
C  3.06000 57.09200 40.92000
C  1.71400 57.41200 41.60800
N  5.11600 52.23900 41.60200
C  3.86900 52.75700 41.65300
C  2.96700 51.62400 41.71100
C  3.77200 50.48600 41.47200
C  5.11100 50.86300 41.37100
C  1.47300 51.58300 41.91900
C  3.66200 49.05000 41.26200
O  2.60900 48.42000 41.13200
C  5.12700 48.50900 41.16300
C  5.33100 47.71500 39.97400
O  5.26900 48.04600 38.79500
O  5.46700 46.44400 40.44200
C  5.65200 45.38100 39.42900
H  11.24600 52.10000 41.40800
H  8.05900 57.55900 41.71400
H  2.47300 54.34700 41.75700
H  8.35800 48.22600 41.94800
H  10.49300 49.73800 40.52400
H  10.51800 50.33100 43.39900
H  11.70100 49.52200 42.46300
H  10.43200 48.55200 43.17500
H  7.87900 47.35800 39.87800
H  9.67700 47.45300 40.08300
H  9.86900 48.47000 38.06000
H  8.86600 49.79200 38.65800
H  12.95600 55.11700 40.42200
H  12.54100 53.43300 40.54900
H  12.84700 54.21100 42.00500
H  9.56200 58.46900 40.39500
H  10.77900 59.54200 41.09500
H  9.82800 58.58200 42.23400
H  5.46000 58.03900 41.13600
H  3.68400 56.60100 42.91400
H  4.90600 57.94900 44.09700
H  5.71000 59.17700 43.21800
H  6.72500 57.86000 43.70800
H  2.87900 56.34300 40.14900
H  3.28300 58.00000 40.35900
H  1.55700 57.12500 42.64800
H  0.99400 56.84000 41.02300
H  1.49800 58.47800 41.53100
H  1.01800 51.32500 40.96300
H  1.08600 52.54500 42.25700
H  1.14400 50.86400 42.66900
H  5.34700 47.90400 42.04300
H  5.27700 45.46800 38.40900
H  5.18200 44.50100 39.86700
H  6.73800 45.28100 39.41300

