158

Mg 0.89300 -0.63100 43.97900
C  4.19400 0.43500 43.61900
C  -0.06000 2.47800 42.64300
C  -2.07700 -1.97200 43.63100
C  2.14100 -3.87700 44.62100
N  1.96200 1.28300 43.23300
C  3.32700 1.45000 43.21400
C  3.63700 2.71800 42.48400
C  2.30000 3.50200 42.60500
C  1.27400 2.36900 42.87100
C  2.31200 4.69500 43.66900
C  4.22800 2.47700 41.05500
C  5.68000 3.08300 40.93800
H  6.60400 2.19600 40.07500
N  -0.90200 0.18600 43.21400
C  -1.05200 1.49700 42.80800
C  -2.46000 1.55300 42.45900
C  -3.09600 0.28500 42.77700
C  -2.05000 -0.56400 43.21900
C  -3.03400 2.79800 41.82900
C  -4.64000 0.02500 42.57200
O  -5.34800 0.86800 41.99900
C  -5.22200 -1.34500 42.86300
N  0.17600 -2.64100 44.08400
C  -1.12800 -2.86100 43.94200
C  -1.50300 -4.26300 44.45900
C  -0.11800 -4.94700 44.42200
C  0.76700 -3.75100 44.48700
C  -2.35300 -4.25300 45.80100
C  0.14500 -5.80300 43.13700
C  -0.16000 -7.30200 43.29200
N  2.74300 -1.50300 44.30800
C  3.05500 -2.84900 44.51400
C  4.53300 -2.94600 44.57100
C  5.05800 -1.67000 44.30200
C  3.86100 -0.91300 44.03500
C  5.43900 -4.11200 44.94100
C  6.17900 -0.79200 44.16800
O  7.34000 -1.09600 44.32900
C  5.74200 0.61600 43.75400
C  6.15000 1.65400 44.78900
O  5.56600 1.85100 45.80600
O  7.20500 2.40200 44.41700
C  7.86100 3.32400 45.37600
H  -0.42400 3.44000 42.27400
H  -3.06200 -2.44400 43.64300
H  2.32400 -4.92800 44.85700
H  4.34000 3.23500 43.13800
H  2.07200 3.99400 41.65900
H  3.35500 4.77700 43.97600
H  1.77900 4.56600 44.61100
H  2.04700 5.64600 43.20700
H  3.57900 2.90300 40.28900
H  4.24800 1.43400 40.73700
H  6.15700 3.23000 41.90700
H  5.73700 4.05600 40.44900
H  -3.93400 2.59900 41.24800
H  -2.29500 3.30900 41.21200
H  -3.20500 3.44900 42.68700
H  -4.64700 -2.13500 42.37900
H  -6.23700 -1.27900 42.47200
H  -5.27400 -1.51800 43.93800
H  -2.22300 -4.61700 43.72100
H  0.00000 -5.46300 45.37500
H  -1.90400 -4.84200 46.60100
H  -3.34100 -4.63200 45.54000
H  -2.42400 -3.20100 46.07500
H  1.20600 -5.82400 42.88800
H  -0.34800 -5.37600 42.26400
H  0.61100 -8.01100 42.99000
H  -0.96900 -7.43200 42.57300
H  -0.43900 -7.53400 44.31900
H  4.99900 -5.05200 44.60800
H  5.64500 -4.21200 46.00700
H  6.40200 -4.11400 44.43000
H  6.15000 0.87100 42.77500
H  8.30200 2.75800 46.19600
H  7.07300 3.94100 45.80700
H  8.60000 3.94700 44.87200
Mg 44.58300 4.71400 46.94700
C  42.64400 7.49900 46.25400
C  42.05100 2.73700 46.10100
C  46.70800 2.12800 47.32700
C  47.41800 6.86000 47.20700
N  42.66400 5.11300 46.09800
C  42.10000 6.31900 45.85900
C  40.69800 6.11400 45.17000
C  40.36300 4.61700 45.48800
C  41.78200 4.08600 45.89900
C  39.25800 4.47500 46.58300
C  40.81500 6.46800 43.65200
C  39.92300 7.55600 43.13600
H  40.47600 8.40900 42.10200
N  44.42000 2.66300 46.74000
C  43.22600 2.05700 46.52700
C  43.42300 0.60500 46.58400
C  44.81300 0.43600 46.91700
C  45.39800 1.76200 47.01500
C  42.42000 -0.36500 46.20000
C  45.41800 -1.00500 47.13700
O  44.68500 -1.98700 47.03300
C  46.78800 -1.41600 47.37500
N  46.78700 4.54300 47.30300
C  47.35900 3.32300 47.50900
C  48.91200 3.43500 47.64000
C  49.09200 4.99500 47.69800
C  47.66600 5.47900 47.38400
C  49.44200 2.72300 48.93100
C  50.25100 5.54600 46.90100
C  51.30100 6.29800 47.74700
N  44.97300 6.76800 46.86200
C  46.12500 7.49300 47.05600
C  45.80200 8.88400 47.05300
C  44.39100 8.96400 46.79600
C  44.00000 7.66100 46.60400
C  46.81200 9.94300 47.20200
C  43.33200 9.83300 46.76600
O  43.28200 11.04100 46.86400
C  42.06500 8.91600 46.41600
C  41.07300 9.02000 47.58200
O  41.31300 8.53200 48.71200
O  39.91700 9.74600 47.14800
C  38.98400 10.11700 48.27100
H  41.17500 2.11400 45.90900
H  47.33900 1.24000 47.40300
H  48.26500 7.53900 47.32200
H  39.95700 6.71600 45.69600
H  39.94200 4.20500 44.57100
H  39.46500 3.53700 47.09900
H  38.25400 4.39100 46.16600
H  39.17000 5.27800 47.31400
H  40.71400 5.54500 43.08100
H  41.87900 6.63500 43.48600
H  39.65700 8.29000 43.89700
H  38.97600 7.13900 42.79500
H  42.70100 -0.70600 45.20400
H  41.39400 -0.01000 46.29000
H  42.40400 -1.20200 46.89800
H  46.98700 -2.30700 46.78000
H  46.96200 -1.55600 48.44200
H  47.63200 -0.78700 47.09200
H  49.59200 3.10700 46.85400
H  49.26100 5.33400 48.72000
H  50.29500 3.27700 49.32300
H  49.87100 1.75300 48.67900
H  48.66200 2.52900 49.66800
H  49.86500 6.16600 46.09200
H  50.73000 4.72800 46.36300
H  52.21800 5.71000 47.70300
H  50.97500 6.55300 48.75500
H  51.44000 7.29400 47.32500
H  47.53300 9.75800 46.40600
H  47.23600 9.91500 48.20600
H  46.37200 10.89400 46.90100
H  41.52900 9.32500 45.55900
H  39.10600 9.59700 49.22100
H  38.02600 9.72300 47.93200
H  38.86500 11.18400 48.45700

