158

Mg 40.60900 9.78600 29.85000
C  42.75400 11.09800 32.60900
C  38.26000 9.02400 32.17800
C  39.07600 8.06000 27.51000
C  43.49400 10.06700 27.92700
N  40.56700 9.98100 32.16400
C  41.44100 10.68500 33.02200
C  40.86000 10.73200 34.43500
C  39.45800 10.00300 34.30500
C  39.36200 9.69500 32.80100
C  39.25500 8.74300 35.22700
C  40.75200 12.20500 35.04200
C  39.80000 12.20600 36.31400
H  40.22300 13.12900 37.45400
N  38.85000 8.76200 29.84500
C  38.05300 8.51500 30.88900
C  36.98000 7.64900 30.43600
C  37.18800 7.45500 29.06400
C  38.39300 8.11100 28.73900
C  35.93000 7.17600 31.41200
C  36.30000 6.76200 28.13100
O  36.46900 6.71500 26.92100
C  35.09700 6.03400 28.72600
N  41.16600 9.24000 27.93400
C  40.27000 8.60700 27.09100
C  40.83700 8.48100 25.64900
C  42.14000 9.40800 25.79300
C  42.33800 9.60300 27.31700
C  40.98100 6.98800 25.17000
C  42.23000 10.80300 25.12800
C  40.92900 11.70800 25.23500
N  42.68500 10.43200 30.12200
C  43.68600 10.51700 29.24400
C  44.87200 11.12800 29.78100
C  44.54500 11.37100 31.08800
C  43.18200 10.99400 31.24000
C  46.15100 11.36500 29.09800
C  45.03200 11.97500 32.27800
O  46.06900 12.54300 32.40800
C  43.84100 11.82000 33.33000
C  44.31400 11.09200 34.50400
O  44.78000 9.94100 34.53200
O  44.13100 11.92300 35.58900
C  44.25400 11.40300 36.92700
H  37.50200 8.68600 32.88800
H  38.70400 7.46300 26.67500
H  44.37800 10.28500 27.32300
H  41.50800 10.07400 35.01500
H  38.70000 10.75200 34.53500
H  38.98200 7.87300 34.63000
H  38.43300 8.96900 35.90600
H  40.19500 8.52400 35.73300
H  40.33700 12.95200 34.36600
H  41.73500 12.57600 35.33300
H  39.74500 11.21800 36.77100
H  38.80700 12.57600 36.06100
H  34.95200 7.65600 31.43600
H  36.33400 7.11500 32.42300
H  35.87600 6.10500 31.21600
H  35.35300 5.07800 29.18200
H  34.45500 5.71300 27.90600
H  34.61900 6.68500 29.45800
H  40.17100 9.06600 25.01500
H  43.05900 8.88900 25.52100
H  42.05100 6.78500 25.22500
H  40.59600 6.98400 24.15100
H  40.40000 6.29000 25.77300
H  42.54600 10.73900 24.08700
H  42.97700 11.35900 25.69500
H  41.05100 12.57200 25.88900
H  40.20500 11.14200 25.82100
H  40.61700 11.95100 24.22000
H  46.06800 12.06400 28.26700
H  46.44700 10.45500 28.57500
H  46.91600 11.62100 29.83200
H  43.53100 12.80400 33.68300
H  43.28400 10.92000 37.04000
H  44.34200 12.16100 37.70500
H  45.12300 10.76200 37.07400
Mg -1.82200 33.90000 27.24100
C  -3.46700 32.23000 29.96600
C  -0.04300 35.68000 29.56900
C  -0.81100 36.06600 24.73300
C  -3.85700 32.30000 25.11700
N  -1.94900 34.08200 29.46900
C  -2.56100 33.21900 30.35300
C  -2.27200 33.60000 31.84800
C  -1.23300 34.74400 31.67500
C  -0.99400 34.77600 30.13500
C  -1.71000 36.05200 32.30200
C  -1.74600 32.38800 32.72600
C  -2.34700 32.21100 34.12600
H  -1.42500 32.19600 35.36700
N  -0.54200 35.57500 27.14100
C  0.18700 36.00200 28.19300
C  1.17300 36.98500 27.69400
C  0.79100 37.30500 26.32600
C  -0.22000 36.25000 25.97600
C  2.32200 37.53900 28.51400
C  1.24900 38.37000 25.34100
O  0.99900 38.47300 24.20400
C  2.24500 39.36600 25.97200
N  -2.34400 34.31100 25.34800
C  -1.80200 35.12400 24.43700
C  -2.02000 34.72100 22.96200
C  -2.67100 33.31000 23.17200
C  -2.96300 33.27400 24.66600
C  -2.91200 35.68000 22.17700
C  -1.72300 32.19300 22.71300
C  -2.39300 31.22600 21.75500
N  -3.36200 32.50500 27.47100
C  -4.12100 31.95700 26.45000
C  -5.05100 31.03000 27.04800
C  -4.88200 31.14200 28.44000
C  -3.81600 32.01000 28.65500
C  -6.13900 30.26300 26.30100
C  -5.34300 30.73400 29.67000
O  -6.27600 29.97000 29.90300
C  -4.44600 31.37600 30.82300
C  -5.37500 32.15500 31.56800
O  -5.76100 33.32600 31.28300
O  -5.98600 31.52200 32.66300
C  -7.02500 32.11800 33.49300
H  0.61600 36.23500 30.24000
H  -0.33800 36.57500 23.89000
H  -4.42000 31.72800 24.37700
H  -3.17600 33.97700 32.32500
H  -0.30400 34.49700 32.18900
H  -2.15600 36.79500 31.64000
H  -0.90300 36.50800 32.87500
H  -2.45900 35.84300 33.06600
H  -0.68500 32.53400 32.92700
H  -1.96800 31.42300 32.27100
H  -2.88200 31.26100 34.14300
H  -3.18400 32.88600 34.30300
H  2.34800 36.93900 29.42400
H  2.04100 38.54500 28.82300
H  3.26300 37.43700 27.97300
H  3.18700 38.86900 26.20300
H  1.78800 39.71700 26.89700
H  2.41900 40.21600 25.31300
H  -1.03900 34.67300 22.48900
H  -3.61400 33.27200 22.62800
H  -3.42800 36.32200 22.89000
H  -3.69900 35.15200 21.63800
H  -2.38400 36.37800 21.52800
H  -1.44600 31.51300 23.51900
H  -0.78600 32.52100 22.26300
H  -3.48100 31.16700 21.77000
H  -2.05700 30.21400 21.97900
H  -2.11900 31.41800 20.71700
H  -7.04400 30.02500 26.86100
H  -5.82400 29.33800 25.81800
H  -6.50700 30.99300 25.58000
H  -4.08200 30.53100 31.40700
H  -7.44800 32.98200 32.98000
H  -6.51400 32.51600 34.37000
H  -7.71900 31.33100 33.78700

