158

Mg 40.49700 9.38400 29.39000
C  42.46100 10.94200 32.05300
C  38.49400 8.18500 31.80100
C  39.02800 7.92300 26.89600
C  43.32500 10.22600 27.21200
N  40.61000 9.47700 31.71300
C  41.30600 10.36200 32.50000
C  40.77500 10.38400 33.94500
C  39.51500 9.33600 33.78400
C  39.54800 8.92800 32.35000
C  39.45100 8.22800 34.83100
C  40.31900 11.84200 34.35300
C  39.88000 11.97100 35.87000
H  40.59100 13.02700 36.68100
N  39.03000 8.15900 29.37400
C  38.26500 7.82800 30.43500
C  37.20400 6.99300 29.94600
C  37.24500 6.96800 28.49900
C  38.49200 7.69100 28.19000
C  36.21100 6.28100 30.88200
C  36.32500 6.26400 27.48100
O  36.70700 6.13400 26.34700
C  35.16000 5.46900 27.98900
N  41.15200 9.13400 27.39500
C  40.22100 8.63300 26.50500
C  40.65000 8.93200 25.00400
C  42.08800 9.32500 25.21500
C  42.17500 9.59600 26.68800
C  40.50800 7.94100 23.85000
C  42.52800 10.53300 24.34500
C  41.86500 11.87000 24.66100
N  42.43300 10.47000 29.47400
C  43.47700 10.68700 28.53900
C  44.55900 11.51900 29.18200
C  44.16200 11.63500 30.51200
C  42.91800 10.94200 30.66900
C  45.74500 12.05800 28.45000
C  44.58100 12.10500 31.83200
O  45.57100 12.74800 32.16200
C  43.45300 11.73600 32.88100
C  44.01800 10.95200 34.01300
O  44.74700 9.98300 33.86100
O  43.61200 11.43500 35.24400
C  43.97600 10.64100 36.40400
H  37.69300 7.94600 32.50300
H  38.45800 7.55300 26.04100
H  44.08800 10.55900 26.50600
H  41.51700 10.00700 34.64800
H  38.69200 10.01400 34.00800
H  38.63100 8.42100 35.52200
H  40.36300 8.31300 35.42200
H  39.39800 7.17900 34.53900
H  39.47900 12.18000 33.74600
H  41.17100 12.51100 34.23100
H  39.81800 10.98200 36.32300
H  38.84900 12.32100 35.81100
H  35.19400 6.57200 30.62100
H  36.26800 6.57200 31.93100
H  36.51100 5.23900 30.76600
H  35.42900 4.95500 28.91100
H  35.02900 4.80000 27.13900
H  34.30000 6.13800 28.02300
H  39.97600 9.71800 24.66400
H  42.60300 8.38500 25.01600
H  39.44900 8.02700 23.60600
H  40.47700 6.91100 24.20600
H  41.02700 8.19000 22.92400
H  42.13000 10.22300 23.37900
H  43.61300 10.63900 24.33100
H  41.58400 11.92300 25.71300
H  41.01200 11.94200 23.98600
H  42.44500 12.76800 24.44800
H  45.60400 12.58700 27.50800
H  46.44200 11.22700 28.33600
H  46.26800 12.79300 29.06300
H  42.96300 12.66300 33.18000
H  43.16600 10.45800 37.11100
H  44.75700 11.21700 36.90000
H  44.50700 9.70200 36.24800
Mg 48.16000 34.69400 27.04000
C  46.46000 33.22500 29.71100
C  48.25500 37.72800 28.93400
C  48.95000 36.38500 24.29000
C  47.44400 31.82300 25.15200
N  47.64100 35.32000 29.16800
C  47.16600 34.39700 30.09100
C  47.29500 35.03300 31.41400
C  47.38800 36.60500 31.18900
C  47.81800 36.61000 29.70900
C  46.15100 37.37200 31.35600
C  48.56700 34.38400 32.05500
C  48.77800 34.63600 33.61300
H  47.79400 35.51400 34.38300
N  48.56100 36.73400 26.65400
C  48.53300 37.79900 27.51000
C  48.95000 38.98400 26.83800
C  49.15600 38.68900 25.48700
C  48.89200 37.23500 25.43100
C  49.16500 40.26100 27.54400
C  49.68200 39.58300 24.33500
O  49.62000 39.15700 23.14500
C  50.11000 41.05300 24.60800
N  48.16200 34.16500 24.96400
C  48.61900 35.02300 24.10700
C  48.91100 34.31800 22.73000
C  48.62400 32.76100 23.04100
C  48.01700 32.88500 24.45900
C  48.05500 35.01500 21.62000
C  49.79100 31.77800 22.73600
C  49.44900 30.34100 22.54000
N  47.21900 32.83000 27.28700
C  47.05500 31.72700 26.48700
C  46.40700 30.65600 27.20600
C  46.01500 31.26200 28.41000
C  46.58400 32.61800 28.44200
C  46.18700 29.29000 26.65000
C  45.31700 31.03700 29.67600
O  44.69800 30.01700 30.00600
C  45.46300 32.31100 30.47500
C  45.76200 31.97300 31.89800
O  46.75600 31.36600 32.33600
O  44.72500 32.43700 32.61300
C  44.60300 32.28800 34.03000
H  48.18200 38.68000 29.46500
H  49.28200 36.92400 23.40100
H  47.40400 30.90000 24.56900
H  46.48700 34.71500 32.07200
H  48.18500 37.04100 31.79100
H  45.28900 36.71000 31.27400
H  45.95700 38.21300 30.69000
H  46.19800 37.60700 32.41900
H  49.48200 34.76600 31.60400
H  48.59500 33.31200 31.85800
H  49.75800 35.09400 33.74400
H  48.80200 33.61200 33.98600
H  49.28200 41.08100 26.83600
H  49.94300 40.28700 28.30800
H  48.20300 40.44600 28.02200
H  50.64500 41.27500 23.68500
H  50.84500 40.99800 25.41100
H  49.19900 41.61700 24.81200
H  49.99300 34.36300 22.60900
H  47.88200 32.51700 22.28000
H  48.36900 36.04600 21.45700
H  46.97800 35.01500 21.78500
H  48.23800 34.50500 20.67400
H  50.44200 31.86700 23.60600
H  50.46700 32.23600 22.01500
H  50.17700 30.00500 21.80300
H  48.46200 30.17500 22.10800
H  49.45900 29.81300 23.49300
H  46.01100 28.70000 27.54900
H  47.03100 28.81200 26.15100
H  45.33300 29.18000 25.98200
H  44.55500 32.91000 30.40400
H  43.56700 32.03500 34.25500
H  44.82700 33.25000 34.49100
H  45.24900 31.55100 34.50600

