158

Mg 35.09100 3.14400 30.00400
C  32.75700 4.16600 32.43600
C  37.51900 3.23200 32.33500
C  37.31200 2.44400 27.57400
C  32.59300 3.38400 27.73300
N  35.07400 3.75500 32.12000
C  34.06500 3.97500 32.89500
C  34.51400 3.97700 34.37300
C  36.12900 3.89600 34.28800
C  36.26000 3.63200 32.82200
C  36.90300 5.19700 34.67100
C  33.84400 2.79700 35.23800
C  33.46300 3.07800 36.64300
H  34.37200 4.16600 37.27400
N  37.16400 2.92900 29.89900
C  37.94000 2.84100 31.02900
C  39.33700 2.41300 30.73800
C  39.27500 2.16200 29.32000
C  37.91100 2.50200 28.84600
C  40.46700 2.39400 31.88100
C  40.34000 1.63000 28.39000
O  40.12300 1.29200 27.21600
C  41.59200 1.25900 28.97000
N  34.96000 2.90400 27.89000
C  36.01800 2.63800 27.09300
C  35.57700 2.47800 25.63100
C  34.00200 2.69500 25.67600
C  33.86800 3.00500 27.16800
C  36.26900 3.59700 24.80100
C  33.14600 1.47000 25.26100
C  31.80300 1.80200 24.54800
N  33.09900 3.77900 29.99400
C  32.20800 3.77400 28.96900
C  30.92000 4.23100 29.45500
C  31.06300 4.32600 30.86600
C  32.42300 4.10800 31.12500
C  29.62400 4.46300 28.58900
C  30.36700 4.69800 32.04900
O  29.17300 4.99400 32.21100
C  31.44400 4.44600 33.19700
C  31.46100 5.57800 34.13000
O  31.82700 6.68500 33.81100
O  30.82500 5.30200 35.31600
C  30.49400 6.37300 36.21800
H  38.30300 3.11300 33.08500
H  38.03800 2.12400 26.82300
H  31.79200 3.53700 27.00700
H  34.17600 4.95500 34.71400
H  36.45600 3.01800 34.84600
H  36.34300 5.87700 35.31200
H  37.13700 5.80600 33.79700
H  37.78700 4.98900 35.27400
H  34.66300 2.07800 35.23200
H  32.97400 2.35500 34.75400
H  33.41300 2.18300 37.26300
H  32.43300 3.43100 36.58000
H  40.29500 1.47500 32.44100
H  40.31400 3.24000 32.55100
H  41.48000 2.59700 31.53200
H  41.26100 0.61900 29.78800
H  42.21500 2.05400 29.38100
H  42.13100 0.64500 28.24900
H  35.84600 1.46300 25.33800
H  33.74400 3.45000 24.93400
H  36.91400 3.06800 24.09900
H  36.92400 4.22000 25.40900
H  35.68500 4.29200 24.19900
H  33.10100 0.75400 26.08100
H  33.73400 0.83800 24.59600
H  32.18600 1.74300 23.53000
H  31.42900 2.80000 24.77800
H  31.06600 1.03800 24.79400
H  29.67200 5.29500 27.88700
H  28.68700 4.69800 29.09500
H  29.38900 3.60200 27.96300
H  31.00800 3.58800 33.70900
H  31.01900 6.17500 37.15300
H  29.45900 6.31900 36.55400
H  30.76800 7.31600 35.74600
Mg 1.46200 42.59100 25.78200
C  2.98200 42.76100 29.02200
C  -1.42700 41.61200 27.35300
C  0.22500 41.86800 22.83800
C  4.49300 43.40300 24.40100
N  0.85000 42.31900 28.00500
C  1.58900 42.54000 29.15300
C  0.76200 42.33100 30.42800
C  -0.65700 41.74100 29.85400
C  -0.39800 41.87200 28.31700
C  -1.04400 40.27200 30.28000
C  0.51700 43.60300 31.22700
C  0.83300 43.47100 32.67900
H  0.58700 42.21000 33.51800
N  -0.36100 41.87600 25.21100
C  -1.43600 41.62600 25.94600
C  -2.59500 41.31200 25.10600
C  -2.10300 41.21800 23.81400
C  -0.69800 41.72200 23.87500
C  -4.02900 41.06100 25.68400
C  -2.70200 40.69600 22.58000
O  -2.27900 40.63200 21.44500
C  -4.14900 40.26800 22.77300
N  2.30800 42.49700 23.90800
C  1.53600 42.23300 22.77300
C  2.35100 42.62100 21.45700
C  3.57300 43.37400 22.05600
C  3.48100 43.03900 23.53900
C  2.67800 41.39300 20.60300
C  3.37600 44.86300 21.66400
C  2.17200 45.57300 22.29500
N  3.36000 42.87800 26.51900
C  4.52600 43.27800 25.87000
C  5.61900 43.56600 26.79100
C  4.98000 43.31900 28.01100
C  3.68900 42.94900 27.81400
C  7.04700 43.65900 26.53600
C  5.23900 43.31600 29.41100
O  6.28000 43.58400 30.00500
C  3.94600 42.89800 30.17400
C  4.24500 41.64700 30.97600
O  4.10600 40.45100 30.62200
O  4.93800 41.96600 32.11400
C  5.68200 40.91100 32.73900
H  -2.41900 41.42500 27.77000
H  -0.24300 41.82900 21.85200
H  5.37000 43.75300 23.85100
H  1.32900 41.56100 30.95100
H  -1.52400 42.36500 30.07600
H  -1.38100 39.63200 29.46400
H  -1.82000 40.24700 31.04500
H  -0.10800 39.79400 30.56900
H  -0.52800 43.85800 31.05200
H  1.17700 44.39000 30.86100
H  0.46700 44.32600 33.24900
H  1.92100 43.49200 32.62200
H  -4.87700 41.52900 25.18400
H  -4.16300 41.56400 26.64100
H  -4.29700 40.04000 25.95800
H  -4.33700 39.67600 23.66800
H  -4.37300 39.69000 21.87600
H  -4.74500 41.18000 22.81600
H  1.83600 43.27900 20.75700
H  4.47800 42.96100 21.61000
H  2.28200 40.56100 21.18600
H  3.75800 41.36900 20.45700
H  2.08900 41.48500 19.69000
H  3.23600 44.87900 20.58300
H  4.27300 45.46800 21.79400
H  2.59300 46.31700 22.97100
H  1.58700 44.92000 22.94300
H  1.51200 46.10300 21.60800
H  7.42700 44.63500 26.23300
H  7.13500 42.93100 25.73000
H  7.47200 43.25200 27.45400
H  3.74100 43.76900 30.79700
H  6.55000 40.66500 32.12700
H  5.05900 40.01700 32.75900
H  5.84800 41.19400 33.77800

