158

Mg 26.18600 -0.57900 28.97000
C  28.01800 -0.90900 31.85700
C  23.28900 -0.16800 30.83500
C  24.30700 -0.78900 26.08000
C  29.01000 -1.35100 27.12800
N  25.76800 -0.42200 31.12500
C  26.67600 -0.53700 32.14800
C  26.00100 -0.28100 33.53000
C  24.54500 -0.18800 33.14800
C  24.48400 -0.16900 31.59300
C  23.70100 -1.30000 33.83000
C  26.53700 1.03500 34.35300
C  27.13800 0.74500 35.74300
H  27.01000 1.82000 36.82800
N  24.11400 -0.38300 28.52900
C  23.10800 -0.16300 29.43200
C  21.85200 0.03000 28.74800
C  22.13300 -0.08800 27.37400
C  23.58900 -0.46900 27.29400
C  20.55900 0.27900 29.53600
C  21.19700 0.03300 26.18100
O  21.54900 0.05100 25.01700
C  19.84000 0.29600 26.51000
N  26.55000 -1.14100 26.94100
C  25.64300 -1.11200 25.93100
C  26.22200 -1.35400 24.57300
C  27.63900 -1.73300 25.06500
C  27.73000 -1.35500 26.47000
C  25.62000 -2.52000 23.73700
C  28.72400 -1.02700 24.04300
C  29.40800 0.30100 24.45800
N  28.21200 -0.88300 29.31000
C  29.28600 -1.10500 28.50300
C  30.48600 -1.27700 29.26400
C  30.09700 -1.20800 30.62500
C  28.65800 -0.99700 30.57900
C  31.83200 -1.59000 28.68000
C  30.60000 -1.28800 31.99500
O  31.75000 -1.42600 32.40500
C  29.24100 -1.10200 32.79700
C  29.04200 -2.29300 33.63700
O  28.68400 -3.42400 33.22300
O  29.37800 -1.94800 34.88400
C  29.06200 -2.95500 35.85100
H  22.31700 -0.26600 31.32300
H  23.78400 -0.87500 25.12600
H  29.91000 -1.69600 26.61600
H  26.15100 -1.19500 34.10500
H  24.05300 0.72700 33.47700
H  22.66400 -0.96900 33.89600
H  23.97900 -1.58600 34.84500
H  23.66500 -2.14100 33.13700
H  25.75000 1.76200 34.55600
H  27.24600 1.57400 33.72400
H  28.17800 0.49200 35.53800
H  26.59300 -0.11600 36.12900
H  19.99200 1.13000 29.15800
H  20.72100 0.41000 30.60600
H  19.91600 -0.59300 29.41400
H  19.49000 -0.44000 27.23300
H  19.22200 0.12300 25.62900
H  19.80100 1.31900 26.88600
H  26.28900 -0.40100 24.04900
H  27.83700 -2.78900 24.88100
H  25.58400 -2.13200 22.72000
H  24.61600 -2.75800 24.08800
H  26.32700 -3.34000 23.60600
H  28.23200 -0.92600 23.07600
H  29.55200 -1.73300 23.98600
H  30.48200 0.35500 24.63200
H  28.94200 0.75900 25.33000
H  29.15300 0.95100 23.62000
H  32.30000 -0.79400 28.10200
H  31.73200 -2.48900 28.07200
H  32.41700 -1.85300 29.56200
H  29.41700 -0.26800 33.47600
H  28.28800 -2.45600 36.43400
H  29.98200 -3.07200 36.42300
H  28.70200 -3.94800 35.58200
Mg -1.42600 34.92600 27.38500
C  -2.80600 32.99200 29.97600
C  -0.17200 37.01000 29.58000
C  -0.90900 37.08700 24.73000
C  -2.94100 32.74800 25.16700
N  -1.66800 35.04100 29.57300
C  -2.13500 34.13000 30.46200
C  -1.66300 34.41500 31.87900
C  -0.71100 35.72400 31.70900
C  -0.86400 35.93300 30.16500
C  -1.27700 36.94400 32.54100
C  -0.78800 33.22700 32.45900
C  -1.18900 32.35800 33.62200
H  -0.54200 32.61200 34.96800
N  -0.66600 36.85400 27.18600
C  -0.11000 37.49200 28.21200
C  0.54900 38.68300 27.79200
C  0.30200 38.76300 26.38600
C  -0.48100 37.55400 26.05100
C  1.23600 39.51100 28.76700
C  0.80100 39.78000 25.40300
O  0.49700 39.67500 24.19200
C  1.84200 40.76500 25.70700
N  -1.65300 34.82900 25.21600
C  -1.51700 35.86500 24.36600
C  -1.90200 35.48300 22.92000
C  -2.18800 33.96800 23.05000
C  -2.29200 33.82700 24.60800
C  -3.01700 36.21000 22.21300
C  -1.18700 32.90500 22.45300
C  0.29500 33.20400 22.50800
N  -2.59500 33.20600 27.48900
C  -3.13400 32.45200 26.50700
C  -3.82600 31.27800 27.02700
C  -3.75100 31.45500 28.41400
C  -3.01400 32.64800 28.60000
C  -4.57200 30.26300 26.24400
C  -4.11100 30.93800 29.67800
O  -4.75300 29.95400 30.04500
C  -3.47300 31.84500 30.75900
C  -4.60100 32.42100 31.62100
O  -5.52000 33.10800 31.21300
O  -4.44200 32.04200 32.99000
C  -5.51000 32.42200 33.89100
H  0.47000 37.58400 30.25200
H  -0.66100 37.70500 23.86500
H  -3.40300 32.10100 24.41800
H  -2.37400 34.70800 32.65100
H  0.30200 35.53100 32.06300
H  -1.34400 37.82600 31.90500
H  -0.52600 37.10300 33.31500
H  -2.18800 36.69000 33.08300
H  0.17800 33.68200 32.67600
H  -0.60200 32.62500 31.56900
H  -1.29700 31.29100 33.42400
H  -2.20500 32.67200 33.86000
H  1.77500 40.34500 28.31800
H  1.99800 39.09400 29.42500
H  0.43700 39.98300 29.33900
H  2.18700 41.33400 24.84300
H  2.69700 40.12000 25.90600
H  1.55200 41.47700 26.48000
H  -0.97500 35.70200 22.39000
H  -3.13600 33.64500 22.62100
H  -3.49100 36.96500 22.84100
H  -3.78600 35.52600 21.85500
H  -2.68700 36.72400 21.31100
H  -1.42600 32.64200 21.42300
H  -1.43800 31.95200 22.91800
H  0.79500 32.37700 23.01300
H  0.47500 34.10500 23.09500
H  0.69600 33.16300 21.49500
H  -4.81600 29.39200 26.85300
H  -4.02200 30.00200 25.34000
H  -5.49100 30.81200 26.04000
H  -2.82000 31.16000 31.30100
H  -5.14900 33.10700 34.65800
H  -6.02400 31.60000 34.39100
H  -6.29800 32.81100 33.24700

