158

Mg 48.47700 34.96600 27.42000
C  46.29500 33.50400 29.74900
C  48.83900 37.68800 29.33800
C  49.89900 36.53400 24.78500
C  47.81900 32.20100 25.30300
N  47.65700 35.51300 29.30400
C  46.94200 34.68800 30.22900
C  47.09200 35.27300 31.60800
C  47.63600 36.74600 31.30400
C  48.14200 36.61300 29.90000
C  46.51000 37.80200 31.50700
C  48.10000 34.32400 32.44500
C  48.18200 34.39700 33.96900
H  47.20100 35.33400 34.68000
N  49.11800 36.90100 27.14500
C  49.20900 37.87500 28.02400
C  49.71200 39.02600 27.46000
C  50.06900 38.71100 26.12300
C  49.69700 37.32500 25.95500
C  49.83600 40.35700 28.20000
C  50.73600 39.69400 25.19400
O  50.92000 39.39200 23.99400
C  51.40200 41.04200 25.73300
N  48.88200 34.49100 25.35900
C  49.49400 35.28300 24.48700
C  49.83600 34.58700 23.15400
C  49.04500 33.21800 23.27700
C  48.58100 33.24500 24.73200
C  49.58900 35.31700 21.89400
C  49.85200 31.93100 22.89500
C  49.40400 31.05700 21.63400
N  47.39000 33.16800 27.51500
C  47.18600 32.15900 26.56800
C  46.20000 31.20000 27.01800
C  45.91000 31.58700 28.29400
C  46.56600 32.84200 28.51900
C  45.76100 29.90700 26.36500
C  45.08100 31.29600 29.44800
O  44.34200 30.40200 29.73600
C  45.21500 32.60900 30.39600
C  45.47000 32.13100 31.76600
O  46.29400 31.27300 32.16200
O  44.58300 32.65600 32.58800
C  44.51600 32.06700 33.89600
H  49.05500 38.50300 30.03200
H  50.53100 37.04600 24.05600
H  47.70800 31.34600 24.63300
H  46.09800 35.23800 32.05400
H  48.39300 36.95500 32.06000
H  45.60600 37.36100 31.92600
H  46.39000 38.48500 30.66500
H  46.88200 38.51500 32.24400
H  49.09000 34.44400 32.00600
H  47.98800 33.31400 32.05000
H  49.17600 34.72300 34.27600
H  47.92100 33.43300 34.40400
H  49.50800 41.25000 27.66700
H  50.89400 40.43700 28.44800
H  49.29000 40.44000 29.13900
H  52.19100 41.33000 25.03800
H  51.96500 40.81000 26.63700
H  50.74100 41.90000 25.85800
H  50.90400 34.37200 23.11900
H  48.14400 33.22400 22.66500
H  48.97200 34.68500 21.25600
H  50.49600 35.48100 21.31200
H  49.07500 36.26100 22.07200
H  50.04200 31.27700 23.74600
H  50.86800 32.23400 22.64200
H  49.37500 30.04100 22.03000
H  50.14200 31.16700 20.84000
H  48.43000 31.34700 21.24100
H  46.01600 29.02500 26.95200
H  46.00600 30.07800 25.31700
H  44.67300 29.84300 26.37800
H  44.22700 33.06800 30.42700
H  44.74500 31.00600 33.80300
H  43.55800 32.19100 34.40100
H  45.31000 32.57500 34.44400
Mg 17.02000 51.72700 25.99100
C  18.89800 50.25300 28.46500
C  14.59500 52.59800 28.17100
C  15.22000 52.83900 23.36600
C  19.28700 50.32500 23.63000
N  16.73700 51.32000 28.12100
C  17.70300 50.80900 28.96000
C  17.29700 50.99400 30.39600
C  15.81200 51.28800 30.22800
C  15.63300 51.73500 28.74700
C  14.92000 50.11100 30.68000
C  18.11700 52.19800 31.12000
C  18.31100 52.24300 32.67400
H  17.27700 51.58700 33.63300
N  15.24600 52.66100 25.82600
C  14.44400 53.02300 26.86600
C  13.37000 53.85100 26.34900
C  13.59200 53.93000 24.93700
C  14.68400 53.13900 24.62500
C  12.14700 54.38600 27.18500
C  12.85300 54.69500 23.84900
O  13.42500 55.02300 22.77000
C  11.55900 55.40500 24.12000
N  17.14200 51.43100 23.86700
C  16.34900 52.08800 23.00900
C  16.72300 51.92500 21.47300
C  18.16600 51.23600 21.67200
C  18.17700 50.88900 23.13200
C  15.71100 50.94200 20.73900
C  19.22200 52.29000 21.27300
C  20.00400 51.88100 20.05600
N  18.71900 50.48100 26.01500
C  19.56000 50.11400 24.95600
C  20.72100 49.46300 25.60600
C  20.46900 49.43700 26.96000
C  19.23200 50.01300 27.16700
C  21.85500 48.82500 24.90800
C  20.98400 49.01500 28.20100
O  21.99400 48.41300 28.51000
C  20.01200 49.47900 29.28300
C  19.50000 48.23000 30.06100
O  19.12600 47.14200 29.72700
O  19.53800 48.66000 31.35600
C  19.23200 47.64200 32.36200
H  13.81900 52.87700 28.88600
H  14.77800 53.35800 22.51300
H  20.02100 50.09200 22.85600
H  17.40000 50.07800 30.97800
H  15.56100 52.17900 30.80400
H  13.91000 50.38700 30.37700
H  14.85800 49.93100 31.75300
H  15.16700 49.20900 30.12100
H  17.71300 53.12600 30.71600
H  19.12700 52.06300 30.73200
H  18.31000 53.30400 32.92400
H  19.29200 51.77700 32.76200
H  12.56600 55.00500 27.97800
H  11.55100 53.57000 27.59300
H  11.32700 54.80200 26.60000
H  11.86600 56.19200 24.80900
H  10.74600 54.79400 24.51300
H  11.22100 55.74300 23.14000
H  16.81500 52.81400 20.84900
H  18.21400 50.35000 21.03900
H  14.91900 50.65500 21.43000
H  16.23900 50.06200 20.37200
H  15.40700 51.47000 19.83500
H  20.00600 52.43700 22.01600
H  18.87800 53.28200 20.98200
H  20.44300 52.87100 19.92600
H  19.38200 51.48300 19.25500
H  20.68400 51.14400 20.48300
H  22.00200 49.25000 23.91500
H  21.59800 47.76700 24.84900
H  22.78600 48.97500 25.45300
H  20.50000 50.19700 29.94300
H  19.57900 48.02800 33.32100
H  19.65700 46.65200 32.19300
H  18.14600 47.65800 32.44800

