158

Mg -0.09100 7.02500 26.55200
C  0.81100 9.19000 29.24600
C  -0.24100 4.39900 28.83700
C  -0.72200 5.01000 24.13800
C  0.22600 9.78200 24.40800
N  0.03200 6.87800 28.77100
C  0.52500 7.84400 29.63000
C  0.79000 7.29700 31.05100
C  0.49200 5.78000 30.89800
C  0.07700 5.62700 29.40200
C  1.69300 4.86200 31.31500
C  0.04600 7.93600 32.22800
C  0.73200 8.04300 33.66500
H  1.96200 7.20800 33.99900
N  -0.56000 4.97800 26.50700
C  -0.57400 4.08300 27.50200
C  -0.98700 2.79600 27.03700
C  -1.11900 2.89600 25.66000
C  -0.81300 4.33200 25.35400
C  -1.26100 1.65400 27.95200
C  -1.34100 1.79600 24.61300
O  -1.27200 2.03500 23.39300
C  -1.57700 0.38400 24.98200
N  -0.26400 7.33300 24.54600
C  -0.39600 6.30800 23.70900
C  -0.60600 6.78000 22.21600
C  -0.24300 8.32400 22.32000
C  -0.12300 8.49800 23.91500
C  0.25400 5.98700 21.17000
C  -1.28000 9.20900 21.63500
C  -2.49900 9.78000 22.33200
N  0.48500 9.10000 26.73300
C  0.47800 10.07900 25.77000
C  0.80100 11.36000 26.39300
C  0.96200 11.05200 27.75300
C  0.73100 9.67600 27.90900
C  0.95000 12.67500 25.75500
C  1.37300 11.62700 28.96900
O  1.80300 12.76900 29.20600
C  1.10600 10.44100 30.04500
C  2.21800 10.27600 30.96800
O  3.24600 9.69900 30.81700
O  1.94100 11.08600 32.03200
C  2.91100 11.08400 33.08000
H  -0.20000 3.61300 29.59400
H  -0.97700 4.28500 23.36200
H  0.46600 10.60400 23.73100
H  1.86700 7.37300 31.20000
H  -0.46700 5.57300 31.37300
H  2.47900 5.38100 31.86400
H  2.16300 4.24800 30.54700
H  1.41500 4.23000 32.15800
H  -0.86600 7.36000 32.38200
H  -0.21200 8.94200 31.89700
H  0.00100 7.97800 34.47100
H  1.02900 9.09100 33.62700
H  -0.32800 1.11200 28.10800
H  -1.95700 1.04700 27.37300
H  -1.78700 1.94000 28.86300
H  -2.39600 0.36300 25.70100
H  -0.62300 0.19600 25.47500
H  -1.73700 -0.30300 24.15100
H  -1.64200 6.65900 21.89800
H  0.74500 8.59900 21.95000
H  0.98000 6.64500 20.69200
H  -0.35200 5.61800 20.34200
H  0.89200 5.25800 21.66800
H  -1.51800 8.56100 20.79200
H  -0.73400 10.06300 21.23400
H  -3.40000 9.54600 21.76600
H  -2.43800 10.84100 22.57300
H  -2.62100 9.25000 23.27700
H  1.78200 12.71100 25.05100
H  1.13300 13.38500 26.56200
H  0.08000 12.84100 25.11900
H  0.27800 10.78500 30.66500
H  2.30700 11.34400 33.95000
H  3.68900 11.83600 32.94700
H  3.28500 10.08500 33.30500
Mg -4.75300 25.16200 25.35800
C  -3.52800 26.29200 28.49700
C  -6.69600 22.95700 27.02200
C  -5.40300 23.62100 22.45000
C  -2.41900 27.22300 23.78800
N  -4.79700 24.51800 27.47900
C  -4.36700 25.27500 28.57100
C  -4.92900 24.74300 29.87100
C  -5.78900 23.51600 29.31100
C  -5.74600 23.63900 27.82800
C  -5.43800 22.03600 29.89800
C  -5.78000 25.75300 30.75100
C  -5.25100 25.86300 32.20700
H  -6.19700 25.35200 33.35300
N  -5.97300 23.62000 24.80500
C  -6.80600 22.98700 25.63900
C  -7.74500 22.11700 24.94400
C  -7.23500 22.08400 23.62400
C  -6.15600 23.10500 23.56100
C  -8.97000 21.42500 25.51900
C  -7.52800 21.13200 22.45600
O  -6.87900 20.94000 21.50400
C  -8.80300 20.34900 22.67300
N  -3.86200 25.24400 23.45900
C  -4.39600 24.54500 22.45000
C  -3.77200 24.89900 21.09000
C  -3.08600 26.28600 21.46700
C  -3.12100 26.27300 22.98400
C  -2.84300 23.82300 20.48200
C  -3.83000 27.52400 20.79500
C  -3.66900 27.54800 19.30600
N  -3.34400 26.65300 25.94300
C  -2.46100 27.36500 25.20900
C  -1.66200 28.23600 26.11600
C  -2.00000 27.84900 27.39500
C  -3.05200 26.86200 27.24000
C  -0.58500 29.24200 25.80700
C  -1.64800 28.03400 28.75500
O  -0.88300 28.79600 29.37300
C  -2.74500 27.10900 29.55600
C  -1.88700 26.36800 30.47700
O  -1.45900 25.20200 30.38600
O  -1.71600 27.02400 31.68100
C  -1.00500 26.32900 32.72800
H  -7.42400 22.30700 27.51300
H  -5.59400 23.06300 21.53100
H  -1.74000 27.83600 23.19100
H  -4.02300 24.46300 30.40800
H  -6.84200 23.53100 29.59300
H  -4.48100 22.05400 30.42000
H  -5.17800 21.30600 29.13200
H  -6.23100 21.58000 30.49100
H  -6.84500 25.56800 30.88900
H  -5.82800 26.70300 30.21900
H  -5.02600 26.89800 32.46500
H  -4.27100 25.40200 32.33700
H  -8.91500 20.33700 25.51400
H  -9.96400 21.68000 25.15000
H  -9.15500 21.58700 26.58100
H  -9.69300 20.97500 22.73000
H  -8.64200 19.69400 23.52900
H  -8.87500 19.62700 21.86000
H  -4.55600 25.05000 20.34800
H  -2.05100 26.41000 21.15000
H  -1.81200 24.17600 20.48000
H  -3.19100 23.45400 19.51700
H  -2.94400 23.02700 21.21900
H  -3.32700 28.41900 21.16400
H  -4.87300 27.58700 21.10400
H  -4.59000 27.11100 18.92000
H  -2.83500 26.99400 18.87400
H  -3.45600 28.55700 18.95400
H  -0.88300 29.83400 24.94200
H  0.42600 28.84500 25.72300
H  -0.56300 29.88900 26.68400
H  -3.43200 27.65800 30.20000
H  0.03900 26.30500 32.41500
H  -1.28900 25.27900 32.78400
H  -1.16800 26.85400 33.67000

