158

Mg 2.38100 -1.76000 43.82600
C  5.69200 -0.88300 43.25200
C  1.40000 1.00800 42.19100
C  -0.74800 -3.07000 43.60900
C  3.57700 -4.98100 44.93000
N  3.51100 -0.13000 42.82700
C  4.82800 0.09100 42.73900
C  5.17600 1.48600 42.11000
C  3.76100 2.03800 41.78500
C  2.81800 0.99800 42.50700
C  3.43700 3.40900 42.40100
C  6.05700 1.42300 40.82100
C  7.06200 2.57200 40.55500
H  6.81100 3.42000 39.25200
N  0.55000 -1.03200 43.09700
C  0.37300 0.06900 42.41100
C  -1.02600 0.16100 41.97900
C  -1.75400 -0.89700 42.58500
C  -0.64500 -1.75700 43.08100
C  -1.55200 1.34100 41.22100
C  -3.20100 -1.04200 42.58100
O  -3.87700 -0.24100 41.97000
C  -3.90500 -2.20600 43.14200
N  1.54400 -3.84100 44.00200
C  0.22400 -3.98100 44.03700
C  -0.18400 -5.30900 44.64200
C  1.16200 -5.98300 45.12000
C  2.19400 -4.90400 44.63200
C  -1.24100 -5.16100 45.79600
C  1.58600 -7.34300 44.53800
C  2.18400 -8.35000 45.50300
N  4.16900 -2.63400 44.18800
C  4.52300 -3.87900 44.75700
C  5.95600 -3.95400 45.07000
C  6.40300 -2.71300 44.48400
C  5.31500 -2.00700 43.86100
C  6.84700 -4.93800 45.82600
C  7.60000 -1.96800 44.19900
O  8.76600 -2.19400 44.48300
C  7.15800 -0.78900 43.41800
C  7.53300 0.47300 44.07400
O  7.22000 0.71500 45.21600
O  8.19400 1.37700 43.21600
C  8.57700 2.66900 43.86600
H  0.96600 1.86100 41.66500
H  -1.77500 -3.41400 43.74900
H  4.09000 -5.90400 45.20700
H  5.65600 2.15000 42.82900
H  3.56600 2.24300 40.73300
H  2.83900 3.21500 43.29100
H  2.90400 4.09600 41.74300
H  4.41000 3.83900 42.63700
H  5.37100 1.36800 39.97600
H  6.56900 0.46000 40.80400
H  8.09400 2.23400 40.64100
H  6.98300 3.34100 41.32400
H  -2.54000 1.65800 41.55400
H  -1.58500 1.00900 40.18300
H  -0.92900 2.23300 41.28300
H  -3.90000 -2.18200 44.23200
H  -3.49000 -3.16900 42.84300
H  -4.92300 -2.27700 42.76100
H  -0.64400 -5.91700 43.86300
H  1.09400 -6.01100 46.20800
H  -1.03200 -5.61300 46.76500
H  -2.04700 -5.80200 45.43900
H  -1.75900 -4.20200 45.80300
H  2.30300 -7.13400 43.74500
H  0.66400 -7.78000 44.15500
H  1.66000 -9.29400 45.65300
H  2.33800 -7.93400 46.49900
H  3.23400 -8.53800 45.27900
H  7.39500 -5.67200 45.23300
H  6.20800 -5.42400 46.56200
H  7.69000 -4.42100 46.28400
H  7.50700 -0.81000 42.38500
H  9.60700 2.57900 44.21100
H  8.06900 2.78500 44.82300
H  8.32300 3.49600 43.20300
Mg 47.27600 16.04000 28.47200
C  45.18000 15.61300 31.19100
C  49.56800 17.71100 30.57300
C  49.03200 16.89100 25.79700
C  44.62300 14.92700 26.45200
N  47.37100 16.50000 30.63700
C  46.35700 16.23300 31.53600
C  46.85700 16.66800 32.95300
C  48.22100 17.50500 32.72700
C  48.38600 17.19900 31.20800
C  47.94500 19.00900 33.06400
C  47.06700 15.48400 33.97700
C  46.49400 15.65300 35.36000
H  46.16900 17.07700 35.87600
N  49.13600 16.88300 28.24800
C  49.89300 17.58200 29.17300
C  51.11700 18.06200 28.55900
C  51.05000 17.77200 27.22700
C  49.73800 17.12600 27.03300
C  52.16000 18.69400 29.30800
C  52.06000 18.01400 26.13900
O  51.93000 17.60900 25.02200
C  53.24500 18.90400 26.34200
N  46.89500 15.97900 26.46000
C  47.79200 16.33200 25.49500
C  47.18900 16.06200 24.06700
C  46.03800 15.15500 24.32900
C  45.81700 15.32800 25.84000
C  46.72600 17.34600 23.34300
C  46.35600 13.63300 24.09700
C  45.18300 12.92200 23.50500
N  45.31700 15.42700 28.66200
C  44.37300 15.02500 27.79900
C  43.28300 14.47300 28.54500
C  43.51800 14.63000 29.87000
C  44.76200 15.29400 29.88500
C  42.07400 13.81100 28.01300
C  43.05400 14.47000 31.26600
O  42.11100 13.92400 31.78300
C  44.04800 15.23600 32.13400
C  43.22900 16.31000 32.77100
O  42.80600 17.39000 32.25400
O  42.80900 15.96200 33.98900
C  41.75600 16.74800 34.64100
H  50.26700 18.20200 31.25500
H  49.65700 17.25900 24.98200
H  43.88900 14.42500 25.81800
H  46.01000 17.27600 33.27400
H  49.09300 17.21200 33.31300
H  47.98200 19.55200 32.12000
H  48.82600 19.26400 33.65400
H  47.06200 19.16700 33.68300
H  48.12700 15.27100 34.11600
H  46.65400 14.58100 33.52800
H  47.26900 15.30400 36.04200
H  45.78500 14.83300 35.48100
H  53.10200 18.19200 29.08900
H  51.95700 18.46600 30.35500
H  52.32100 19.76800 29.21300
H  52.83300 19.88900 26.55900
H  53.87200 19.00600 25.45600
H  53.73700 18.46800 27.21100
H  47.96500 15.49100 23.55600
H  45.11300 15.49000 23.85900
H  47.43200 18.14200 23.58000
H  45.67000 17.54100 23.53000
H  46.85400 17.26000 22.26400
H  46.49500 13.21600 25.09500
H  47.23200 13.40100 23.49300
H  44.78100 12.33900 24.33400
H  45.59700 12.24100 22.76200
H  44.40200 13.51500 23.02800
H  41.66800 14.32000 27.13900
H  41.24500 13.82900 28.72000
H  42.23300 12.74800 27.83300
H  44.45400 14.49500 32.82400
H  40.87200 17.07700 34.09400
H  42.25500 17.61400 35.07700
H  41.42500 16.07900 35.43500

