158

Mg 49.70700 34.60500 26.15200
C  47.80200 33.49000 28.94900
C  49.93400 37.59900 27.76400
C  51.38800 35.77500 23.43800
C  48.95600 31.68500 24.51700
N  48.95000 35.43400 28.23500
C  48.24400 34.83400 29.15500
C  47.97300 35.74800 30.33600
C  48.54500 37.14700 29.81900
C  49.05600 36.79300 28.41700
C  47.60300 38.36800 29.84200
C  48.58000 35.24500 31.73600
C  47.55000 35.00100 32.95800
H  47.73900 35.81200 34.28600
N  50.65400 36.39400 25.74900
C  50.73400 37.48500 26.53700
C  51.56800 38.48400 25.92800
C  52.02300 37.96200 24.68400
C  51.35300 36.64300 24.50700
C  51.84500 39.88100 26.57900
C  53.02800 38.59700 23.66400
O  53.41900 37.94500 22.69100
C  53.36000 40.01700 23.74200
N  50.01100 33.89200 24.27900
C  50.85900 34.50900 23.34600
C  51.13200 33.53400 22.17400
C  50.47000 32.19600 22.57200
C  49.75100 32.57700 23.86800
C  50.68200 34.10200 20.70300
C  51.47600 30.96900 22.81000
C  51.15500 29.69000 22.05900
N  48.59100 32.94000 26.57100
C  48.34900 31.84500 25.77200
C  47.48700 30.94100 26.44300
C  47.17200 31.56200 27.63400
C  47.95000 32.75000 27.73100
C  47.08900 29.60100 25.92000
C  46.41500 31.40600 28.84000
O  45.59500 30.61700 29.24800
C  46.92000 32.59900 29.80400
C  47.67900 32.00800 30.91200
O  48.85500 31.85800 31.05000
O  46.73600 31.57200 31.83700
C  47.13300 30.98100 33.10700
H  50.10300 38.57300 28.23000
H  51.95200 36.16200 22.58600
H  48.91000 30.72500 23.99900
H  46.90800 35.73900 30.56600
H  49.36900 37.49200 30.44400
H  48.04000 39.21000 30.37900
H  46.62100 38.15400 30.26200
H  47.53200 38.70400 28.80700
H  49.35700 35.92000 32.09300
H  49.02800 34.27200 31.53500
H  47.52400 33.95800 33.27600
H  46.57700 35.23700 32.52800
H  52.89900 39.90300 26.85500
H  51.28600 40.11900 27.48400
H  51.66200 40.60900 25.78800
H  53.67100 40.25900 24.75900
H  52.47100 40.61100 23.52900
H  54.26700 40.14900 23.15200
H  52.18900 33.27700 22.10000
H  49.66900 31.87200 21.90700
H  50.32400 35.13000 20.76700
H  49.97800 33.54200 20.08800
H  51.62600 34.25400 20.17900
H  51.52500 30.80300 23.88600
H  52.50000 31.28900 22.61800
H  52.08500 29.47800 21.53100
H  50.36200 29.87200 21.33300
H  50.67600 28.94200 22.69100
H  47.43900 28.94300 26.71500
H  47.51300 29.33800 24.95100
H  46.00000 29.56500 25.97200
H  46.05100 33.05600 30.27700
H  48.22000 30.91800 33.16800
H  46.77800 29.95700 33.21700
H  46.66700 31.60300 33.87200
Mg -3.16700 34.75500 26.72000
C  -5.20700 33.03700 29.03200
C  -2.42200 36.94300 29.39600
C  -1.49100 36.52800 24.62600
C  -4.24500 32.52800 24.31400
N  -3.72800 34.83800 28.95700
C  -4.47800 34.01000 29.68900
C  -4.29200 34.31000 31.19800
C  -3.73200 35.79700 31.15900
C  -3.32000 35.92500 29.70700
C  -4.80500 36.82800 31.58000
C  -3.47300 33.30900 31.93700
C  -3.47400 33.59900 33.44100
H  -2.18900 33.78400 34.11300
N  -2.07500 36.39900 26.93700
C  -1.85200 37.15300 28.11800
C  -0.85000 38.12300 27.81900
C  -0.47300 38.06600 26.49300
C  -1.43000 36.99100 25.96900
C  -0.24700 39.08100 28.85600
C  0.50300 38.86400 25.58800
O  0.77100 38.63400 24.37000
C  1.30300 39.94800 26.17000
N  -2.94100 34.64500 24.66800
C  -2.11500 35.42100 24.00700
C  -1.80000 34.88900 22.52000
C  -2.70900 33.61400 22.50100
C  -3.40900 33.62000 23.89800
C  -1.95300 35.88200 21.28400
C  -1.96700 32.24600 22.21900
C  -2.64600 31.33400 21.14900
N  -4.53800 33.24200 26.58700
C  -4.86000 32.42900 25.55700
C  -5.77500 31.34100 25.98100
C  -5.86900 31.57600 27.33100
C  -5.13300 32.73700 27.63800
C  -6.34600 30.27600 25.10400
C  -6.48600 31.00500 28.52900
O  -7.17300 29.99100 28.67100
C  -6.03200 32.00400 29.68200
C  -7.21200 32.41200 30.36700
O  -8.04700 33.25600 30.10900
O  -7.28600 31.69000 31.50800
C  -8.23600 32.06100 32.55700
H  -2.36100 37.68200 30.19800
H  -0.84700 36.95800 23.85500
H  -4.37000 31.74900 23.56000
H  -5.29700 34.31800 31.62100
H  -2.85800 35.93800 31.79500
H  -4.23300 37.48000 32.24100
H  -5.60000 36.37000 32.16700
H  -5.24100 37.56100 30.90100
H  -2.47400 33.27400 31.50300
H  -4.00200 32.37100 31.77000
H  -4.04500 32.87200 34.01800
H  -3.99200 34.53800 33.63400
H  -0.67200 40.08100 28.93300
H  0.84100 39.11900 28.79800
H  -0.42900 38.62200 29.82800
H  0.82200 40.65200 26.84900
H  1.68100 40.51100 25.31700
H  2.14300 39.52200 26.72000
H  -0.74800 34.60200 22.54300
H  -3.58000 33.78900 21.86900
H  -2.30700 35.36000 20.39500
H  -0.95100 36.22100 21.02200
H  -2.56800 36.73300 21.57800
H  -1.85000 31.71600 23.16400
H  -1.02400 32.66200 21.86400
H  -1.84500 31.17700 20.42600
H  -3.61700 31.69100 20.80500
H  -2.83700 30.36700 21.61400
H  -5.65600 29.63200 24.56000
H  -6.97300 30.89400 24.46000
H  -7.00000 29.59600 25.65000
H  -5.39500 31.39600 30.32400
H  -7.80500 32.71500 33.31500
H  -8.72400 31.23600 33.07400
H  -9.03500 32.65900 32.12000

