158

Mg 35.45100 2.17500 29.17800
C  33.56500 3.40000 31.96400
C  38.10100 1.83100 31.28400
C  37.26700 1.20700 26.61900
C  32.85400 3.22000 27.09000
N  35.76800 2.56600 31.39200
C  34.87300 3.06500 32.30100
C  35.51100 3.03100 33.69200
C  37.05300 2.99800 33.27300
C  36.99900 2.46700 31.88200
C  37.62000 4.40400 33.34900
C  35.10600 1.79600 34.61800
C  34.66000 2.09500 36.07400
H  35.22400 3.34500 36.69900
N  37.37100 1.38300 28.96800
C  38.25900 1.34000 30.01300
C  39.52100 0.73100 29.48200
C  39.35100 0.58300 28.07900
C  37.96000 1.04500 27.78500
C  40.74700 0.42000 30.36600
C  40.28400 -0.07200 27.13000
O  39.92900 -0.31800 25.96800
C  41.62600 -0.63900 27.47000
N  35.08400 2.22800 27.14000
C  35.97600 1.66500 26.26000
C  35.54700 1.76000 24.81100
C  34.02200 2.21500 24.99000
C  33.93300 2.48800 26.51000
C  36.44300 2.51600 23.77200
C  32.90700 1.36500 24.43300
C  32.69300 -0.12700 24.88500
N  33.64500 3.05900 29.42900
C  32.69300 3.43900 28.44700
C  31.51500 3.94200 29.09400
C  31.74100 3.95000 30.45600
C  33.09000 3.44300 30.60700
C  30.20700 4.36700 28.58400
C  31.26200 4.17600 31.79600
O  30.18100 4.57800 32.19000
C  32.45800 3.92800 32.85600
C  32.78900 5.23700 33.56200
O  33.64000 5.98600 33.17900
O  31.86900 5.44000 34.59800
C  31.98200 6.74100 35.21200
H  38.91000 1.85100 32.01800
H  37.86800 0.87800 25.76900
H  32.00800 3.44200 26.43700
H  35.14200 3.88800 34.25500
H  37.57600 2.42200 34.03700
H  38.15000 4.65000 32.42900
H  38.34800 4.44400 34.15900
H  36.86000 5.14700 33.59000
H  35.86800 1.02200 34.70900
H  34.19000 1.38400 34.19700
H  35.14700 1.27200 36.59600
H  33.57300 2.10100 36.15500
H  40.81100 0.84200 31.36900
H  41.64300 0.75100 29.84100
H  40.92100 -0.65200 30.45300
H  41.61700 -1.45000 28.19800
H  42.11600 0.26800 27.82500
H  42.13000 -1.01300 26.57900
H  35.44300 0.75700 24.39500
H  33.90500 3.25100 24.67100
H  37.40300 2.82200 24.18800
H  35.95400 3.43700 23.45700
H  36.63200 1.91000 22.88600
H  32.87000 1.44300 23.34600
H  31.94500 1.76900 24.74600
H  32.46900 -0.70300 23.98700
H  31.82400 -0.18800 25.54000
H  33.64500 -0.46200 25.29600
H  29.97800 5.43000 28.51100
H  29.40100 3.83400 29.08800
H  30.13600 4.03500 27.54800
H  32.08500 3.12600 33.49400
H  31.76800 7.39200 34.36400
H  32.97200 6.85200 35.65200
H  31.17900 6.88700 35.93500
Mg 49.46300 35.43000 26.77600
C  47.43900 33.98700 29.17200
C  49.22300 38.52500 28.53000
C  50.93900 37.05100 24.15300
C  49.06400 32.61900 24.91300
N  48.47000 36.18600 28.56800
C  47.84700 35.29900 29.49500
C  47.85300 35.99900 30.88600
C  48.12800 37.44000 30.60700
C  48.63600 37.37600 29.15200
C  46.93300 38.43500 30.82200
C  49.08600 35.43700 31.62500
C  49.09600 35.30900 33.18800
H  47.95300 36.14800 33.76200
N  50.10800 37.42800 26.52100
C  49.92500 38.48300 27.34600
C  50.72500 39.62900 26.79300
C  51.30300 39.17500 25.62200
C  50.77100 37.85600 25.41600
C  50.76800 40.91100 27.53500
C  52.26100 39.92800 24.67500
O  52.74400 39.39200 23.66300
C  52.82300 41.27800 25.07500
N  49.90800 34.91900 24.81700
C  50.65300 35.70400 23.92900
C  50.87600 35.03600 22.54700
C  50.58800 33.54000 22.97100
C  49.73600 33.64200 24.26300
C  50.12500 35.59400 21.43100
C  51.86900 32.56300 23.16500
C  51.76500 31.14700 22.62500
N  48.49400 33.61800 26.97500
C  48.48500 32.54400 26.14600
C  47.52400 31.60000 26.57600
C  47.12600 32.10600 27.85000
C  47.71700 33.34700 27.98800
C  47.12400 30.25600 26.00600
C  46.29800 31.82000 29.01700
O  45.64600 30.84200 29.36100
C  46.41000 33.09700 29.95100
C  46.81800 32.69700 31.28300
O  47.90900 32.39100 31.71800
O  45.67700 32.68600 32.00600
C  45.69400 32.32000 33.40500
H  49.29300 39.45300 29.10100
H  51.35200 37.42700 23.21500
H  48.92500 31.78300 24.22400
H  46.90900 35.85500 31.41000
H  48.92300 37.78800 31.26600
H  47.15000 38.91300 31.77700
H  45.97100 37.93500 30.70800
H  46.88300 39.21800 30.06500
H  49.96400 36.05800 31.44400
H  49.31000 34.46100 31.19300
H  50.05400 35.64100 33.58700
H  48.89300 34.29900 33.54400
H  50.68400 41.78800 26.89400
H  51.76900 40.84900 27.96300
H  50.01200 41.06100 28.30600
H  53.47200 41.64600 24.28000
H  53.35800 41.01000 25.98600
H  52.07100 42.06100 25.17600
H  51.94400 35.09400 22.33500
H  49.89800 33.14400 22.22600
H  49.62600 36.51700 21.72600
H  49.38200 34.89600 21.04500
H  50.81600 35.97400 20.67800
H  52.15200 32.41500 24.20700
H  52.57000 33.12700 22.55000
H  50.72800 30.92500 22.37400
H  52.17000 30.49400 23.39800
H  52.26400 31.07400 21.65800
H  47.96100 29.81400 25.46600
H  46.24900 30.51100 25.40900
H  46.83400 29.57600 26.80700
H  45.39900 33.49400 30.03700
H  45.64300 31.23300 33.34200
H  44.85800 32.73500 33.96700
H  46.65200 32.62200 33.82900

