158

Mg 40.66800 9.11000 29.61500
C  42.56100 10.31700 32.30900
C  38.41000 7.67800 31.80600
C  39.08600 7.98600 26.87300
C  43.27500 10.04900 27.48900
N  40.55800 8.95300 31.80900
C  41.41100 9.60800 32.73200
C  40.88300 9.42200 34.11100
C  39.51500 8.63700 33.94300
C  39.50000 8.36300 32.43000
C  39.22700 7.37900 34.81800
C  40.77200 10.76700 34.92000
C  39.47400 11.16700 35.72100
H  39.41700 12.05100 36.89600
N  39.04200 7.86900 29.36200
C  38.21000 7.40800 30.39400
C  37.12300 6.69000 29.80300
C  37.38100 6.72800 28.37700
C  38.49100 7.62200 28.13500
C  36.12400 5.93900 30.63500
C  36.56700 6.05000 27.25600
O  36.85500 6.04000 26.08500
C  35.44800 5.15100 27.56000
N  41.14500 8.97400 27.43000
C  40.25100 8.66500 26.49100
C  40.80500 8.72100 24.99900
C  42.24500 9.34800 25.26000
C  42.21900 9.55000 26.83000
C  40.81700 7.37700 24.22800
C  42.49900 10.70500 24.54700
C  41.75100 11.90700 25.08800
N  42.46000 10.05800 29.72800
C  43.43100 10.34800 28.82600
C  44.58900 10.92400 29.43900
C  44.29400 10.95500 30.78900
C  43.00300 10.41000 30.93600
C  45.82500 11.25500 28.65100
C  44.75900 11.28400 32.10200
O  45.79700 11.82000 32.43100
C  43.59700 11.00000 33.22000
C  44.25800 10.12800 34.15500
O  44.41000 8.90200 34.00800
O  44.70800 10.88000 35.13400
C  45.47800 10.33400 36.20100
H  37.61100 7.28800 32.43900
H  38.61200 7.61800 25.96000
H  44.21900 10.09200 26.94200
H  41.60100 8.74600 34.57600
H  38.68100 9.33800 33.90700
H  38.25300 7.38500 35.30900
H  40.06700 7.25400 35.50200
H  39.14800 6.55200 34.11200
H  40.92300 11.54900 34.17600
H  41.58900 10.93000 35.62300
H  39.08400 10.20700 36.05700
H  38.75600 11.58900 35.01800
H  35.95000 6.28700 31.65300
H  36.43400 4.90200 30.76800
H  35.23600 5.81900 30.01500
H  34.49200 5.59200 27.84300
H  35.72200 4.52900 28.41200
H  35.27700 4.35800 26.83200
H  40.07200 9.38500 24.54100
H  42.99600 8.60000 25.00700
H  40.02000 7.27200 23.49200
H  40.74200 6.63000 25.01800
H  41.74800 7.35100 23.66200
H  42.38000 10.69400 23.46300
H  43.55100 10.97800 24.63000
H  42.34100 12.62400 25.66000
H  40.91200 11.60700 25.71500
H  41.33300 12.47700 24.25800
H  46.22400 10.45000 28.03400
H  46.48900 11.55200 29.46300
H  45.62700 12.06100 27.94400
H  43.26000 11.97200 33.57900
H  46.14600 9.50900 35.95000
H  44.88100 9.85300 36.97500
H  46.12300 11.10300 36.62600
Mg 9.61400 47.65400 26.20800
C  7.58200 47.66800 29.12700
C  12.18800 48.44200 28.18600
C  11.24300 48.27100 23.47100
C  6.53600 47.51700 24.32500
N  9.80300 47.83800 28.42800
C  8.89900 47.81300 29.44700
C  9.52300 48.20200 30.85300
C  10.93000 48.71700 30.40300
C  10.99200 48.31900 28.93100
C  11.24900 50.22300 30.66200
C  9.70100 47.00600 31.85300
C  9.52600 47.29100 33.37400
H  9.71500 46.15700 34.33800
N  11.48700 47.88700 25.86800
C  12.40800 48.28200 26.82500
C  13.68800 48.39700 26.22500
C  13.49000 48.18300 24.83000
C  12.03600 48.16700 24.63200
C  14.99000 48.60500 26.93500
C  14.46200 48.07300 23.71200
O  14.22300 47.90800 22.56200
C  15.93900 48.10800 24.13000
N  8.97400 47.91100 24.18000
C  9.85800 48.11200 23.19000
C  9.22800 48.09400 21.75100
C  7.73700 47.72800 22.02800
C  7.71600 47.69700 23.59500
C  9.47600 49.41900 21.04200
C  7.42800 46.32700 21.34300
C  6.04600 46.24000 20.65700
N  7.44900 47.63300 26.59200
C  6.39100 47.53300 25.75100
C  5.14700 47.36100 26.49000
C  5.59900 47.37000 27.79100
C  6.98800 47.60300 27.82300
C  3.76600 47.46900 25.97300
C  5.05100 47.34000 29.11300
O  3.93000 47.15400 29.52800
C  6.36000 47.66800 30.04600
C  6.42300 46.81900 31.25800
O  6.67600 45.62800 31.30400
O  6.06600 47.59000 32.33300
C  5.89500 46.79500 33.59700
H  12.99600 48.91900 28.74500
H  11.75700 48.29400 22.50700
H  5.64800 47.31200 23.72300
H  8.89500 49.01600 31.21400
H  11.76200 48.19000 30.86900
H  10.44500 50.75900 31.16700
H  11.36500 50.75200 29.71600
H  12.15900 50.25400 31.26100
H  10.75200 46.71800 31.87900
H  9.20100 46.08900 31.54200
H  8.55600 47.78700 33.42000
H  10.27200 48.03200 33.66000
H  15.54900 47.67000 26.88900
H  14.93200 48.78900 28.00700
H  15.54700 49.38100 26.41000
H  16.19500 47.41700 24.93300
H  16.09000 49.11800 24.51300
H  16.52200 48.04300 23.21100
H  9.71500 47.28600 21.20500
H  6.98600 48.45200 21.71300
H  10.12400 49.35700 20.16800
H  9.89400 50.19600 21.68200
H  8.48700 49.73900 20.71200
H  7.44700 45.55200 22.10900
H  8.18800 45.96300 20.65200
H  5.35700 45.88000 21.42100
H  6.12600 45.60100 19.77700
H  5.79000 47.28100 20.46300
H  3.78600 47.67100 24.90200
H  3.28700 48.32900 26.44100
H  3.25000 46.60000 26.38000
H  6.33100 48.70700 30.37600
H  6.84500 46.27800 33.73300
H  5.24600 45.97700 33.28600
H  5.49800 47.48100 34.34500

