158

Mg 26.04900 51.04800 26.64600
C  23.76000 51.92200 29.25300
C  28.33300 50.23500 29.02900
C  28.35700 51.00000 24.15300
C  23.66800 52.32900 24.25800
N  26.05200 51.28500 28.88000
C  25.04800 51.58200 29.74300
C  25.45100 51.42600 31.16900
C  26.96100 51.10100 31.12300
C  27.16300 50.82900 29.56300
C  28.02100 52.14000 31.66600
C  24.62400 50.22700 31.92600
C  23.88400 50.64100 33.14900
H  24.71200 51.11800 34.31300
N  28.09200 50.51000 26.58600
C  28.83700 50.13300 27.70800
C  30.10600 49.76200 27.30500
C  30.24300 50.18100 25.88700
C  28.90700 50.64900 25.48600
C  31.18200 49.25700 28.30500
C  31.44400 50.22900 25.04900
O  31.35000 50.67700 23.96400
C  32.66800 49.88700 25.60200
N  25.96900 51.60400 24.55300
C  27.05700 51.40200 23.73300
C  26.78600 51.78500 22.23800
C  25.26900 52.11200 22.26300
C  24.93800 51.94600 23.79100
C  27.79900 52.91400 21.78200
C  24.35400 51.36200 21.31800
C  23.96500 52.03300 19.94600
N  24.07300 51.85100 26.64900
C  23.20300 52.28200 25.61600
C  21.94600 52.76400 26.24200
C  22.12800 52.52600 27.60600
C  23.43500 52.03100 27.82400
C  20.74300 53.23800 25.46500
C  21.42100 52.66800 28.92500
O  20.27100 53.02200 29.21300
C  22.58100 52.53600 30.03100
C  22.78300 53.83300 30.75200
O  23.07900 54.88200 30.20400
O  22.60600 53.66800 32.09900
C  22.61900 54.86400 32.96400
H  28.90700 49.79500 29.84700
H  29.02600 51.07300 23.29200
H  22.94600 52.68500 23.52000
H  25.29100 52.39100 31.65000
H  27.26700 50.16600 31.59100
H  28.45800 51.62200 32.52000
H  27.54500 52.99400 32.14800
H  28.84100 52.40900 31.00000
H  25.25400 49.35000 32.07400
H  24.05900 49.83900 31.07900
H  23.18600 49.83900 33.39100
H  23.36500 51.55400 32.85900
H  30.67800 48.79000 29.15100
H  31.79900 50.08100 28.66300
H  31.70800 48.41000 27.86400
H  33.51000 50.23700 25.00600
H  32.63000 48.80400 25.72300
H  32.79800 50.46400 26.51700
H  26.92100 50.89200 21.62800
H  25.16000 53.10400 21.82400
H  28.45800 52.53600 21.00000
H  28.39400 53.13500 22.66800
H  27.27600 53.77200 21.35900
H  23.38100 51.17600 21.77200
H  24.65700 50.34300 21.07800
H  23.83600 51.26300 19.18500
H  24.77700 52.67100 19.59700
H  23.09100 52.67800 20.03300
H  20.90200 54.28000 25.18400
H  19.82000 53.19100 26.04200
H  20.66800 52.65900 24.54500
H  22.18200 51.92600 30.84200
H  21.60500 55.01300 33.33400
H  23.00500 55.77100 32.49800
H  23.19000 54.75200 33.88600
Mg -8.88000 40.95800 42.83200
C  -7.91500 37.68300 41.92400
C  -6.05700 42.15300 41.11100
C  -10.02500 44.16400 43.15200
C  -11.95900 39.66700 43.75100
N  -7.31000 40.02800 41.60200
C  -7.02200 38.68800 41.51700
C  -5.80800 38.41400 40.63900
C  -5.04700 39.82000 40.74800
C  -6.17100 40.75300 41.20300
C  -3.94500 39.91800 41.78300
C  -6.18200 37.79300 39.21300
C  -5.47200 36.44800 38.74700
H  -4.48300 36.60100 37.56500
N  -8.22200 42.88200 42.00400
C  -6.96900 43.20300 41.46300
C  -6.77200 44.63800 41.46200
C  -7.95800 45.22000 42.14400
C  -8.82300 44.08600 42.37400
C  -5.50200 45.25000 40.88100
C  -8.18500 46.68700 42.44500
O  -7.36500 47.46600 42.10900
C  -9.36200 47.24400 43.12300
N  -10.70900 41.76500 43.38700
C  -10.91500 43.14800 43.53000
C  -12.26000 43.43700 44.24200
C  -12.91600 41.96100 44.22400
C  -11.81800 41.03400 43.82100
C  -12.24500 44.11200 45.61800
C  -14.16700 41.77900 43.41700
C  -15.52200 41.72000 44.18800
N  -9.66600 39.07200 43.05500
C  -10.97100 38.70000 43.41000
C  -11.03700 37.32700 43.50600
C  -9.82700 36.80900 42.92800
C  -9.10700 37.91600 42.59800
C  -12.13100 36.54300 44.13400
C  -9.03400 35.64500 42.50000
O  -9.40700 34.49000 42.45600
C  -7.80500 36.16500 41.84900
C  -6.69600 35.57000 42.63600
O  -6.63700 35.67400 43.85600
O  -5.74800 34.93600 41.85800
C  -4.57600 34.41600 42.56600
H  -5.14900 42.52400 40.63000
H  -10.35800 45.16400 43.43700
H  -12.91100 39.27600 44.11700
H  -5.23100 37.60700 41.08900
H  -4.69100 40.27500 39.82400
H  -3.09000 40.23900 41.18600
H  -3.90600 38.91100 42.19800
H  -4.12500 40.57300 42.63600
H  -5.87400 38.63300 38.59000
H  -7.23500 37.69100 38.95000
H  -6.22000 35.67200 38.58600
H  -4.94700 36.07900 39.62800
H  -5.72700 46.11300 40.25500
H  -4.99300 44.48100 40.30000
H  -4.74400 45.62900 41.56600
H  -9.16600 48.31200 43.22400
H  -9.48800 46.89200 44.14700
H  -10.28000 47.05400 42.56600
H  -12.74900 44.11700 43.54500
H  -13.22100 41.82700 45.26100
H  -13.01500 44.88200 45.58500
H  -11.24600 44.52800 45.74900
H  -12.41900 43.51500 46.51200
H  -14.10300 40.89800 42.77800
H  -14.26300 42.70000 42.84100
H  -15.34900 41.64300 45.26200
H  -16.07100 40.79700 44.00300
H  -16.06100 42.64900 44.00100
H  -12.90300 36.45100 43.36900
H  -12.48100 36.88200 45.10900
H  -11.68900 35.58600 44.40900
H  -7.72200 35.81500 40.82000
H  -4.63900 33.32900 42.52600
H  -4.37900 34.67600 43.60600
H  -3.69300 34.72200 42.00400

