158

Mg 48.57600 44.13300 42.93100
C  45.08400 43.50000 42.81300
C  48.95200 40.58900 42.45000
C  51.80500 44.60600 42.53600
C  47.93400 47.64100 42.63800
N  47.16400 42.25100 42.63200
C  45.73500 42.27500 42.55500
C  45.13400 40.93500 42.30700
C  46.39200 39.96600 42.27900
C  47.59500 40.99200 42.48200
C  46.41800 38.82800 43.28100
C  44.22800 40.75800 41.07400
C  44.73400 41.52900 39.77500
H  44.38800 40.87000 38.48200
N  50.15500 42.88700 42.53500
C  50.08700 41.45300 42.44700
C  51.39600 41.02600 42.15700
C  52.30600 42.07100 42.24800
C  51.44700 43.29300 42.43900
C  51.71700 39.53700 41.87100
C  53.86000 41.96800 42.07500
O  54.40700 40.89000 41.90900
C  54.73100 43.16500 42.24400
N  49.72900 45.91200 42.26700
C  51.08000 45.79000 42.47200
C  51.67200 47.15800 42.85200
C  50.44100 48.13400 42.57100
C  49.23600 47.17700 42.49500
C  52.38600 47.24900 44.27900
C  50.54700 48.91000 41.22900
C  50.03500 50.37600 41.32700
N  46.88600 45.34100 42.79700
C  46.81300 46.75100 42.68600
C  45.35200 47.07700 42.73900
C  44.68100 45.85900 42.85900
C  45.61600 44.83600 42.79700
C  44.86400 48.47800 42.78800
C  43.36100 45.27200 42.82300
O  42.25200 45.87400 42.74800
C  43.55200 43.67900 42.90200
C  42.87700 43.19900 44.10200
O  42.23700 42.15300 44.19700
O  43.18100 44.02000 45.12400
C  42.39500 43.81400 46.35700
H  49.04900 39.52400 42.22800
H  52.85900 44.88500 42.59900
H  47.82500 48.71800 42.78100
H  44.52800 40.76100 43.19600
H  46.54500 39.62100 41.25700
H  46.86700 39.21000 44.19800
H  47.01400 38.04100 42.81900
H  45.39600 38.52100 43.50200
H  43.23700 41.10100 41.37100
H  44.39200 39.71500 40.80400
H  45.82200 41.58500 39.82500
H  44.44700 42.58000 39.79400
H  51.81700 39.28500 40.81600
H  50.97500 38.90500 42.35900
H  52.72600 39.25400 42.17200
H  54.64100 43.92100 41.46400
H  55.75900 42.91000 42.50000
H  54.38500 43.63400 43.16400
H  52.42700 47.40500 42.10500
H  50.40900 48.82200 43.41600
H  52.59300 46.25900 44.68500
H  51.75100 47.81600 44.96000
H  53.31300 47.82100 44.33000
H  49.97800 48.40300 40.45100
H  51.56400 48.85200 40.84000
H  50.64800 51.14000 40.84900
H  49.79400 50.70900 42.33700
H  49.05500 50.26200 40.86500
H  45.11600 48.85700 43.77900
H  43.78000 48.58800 42.78100
H  45.26000 49.00300 41.91900
H  42.96200 43.26800 42.08300
H  43.21900 43.44200 46.96600
H  41.50400 43.18900 46.30300
H  42.24600 44.77800 46.84400
Mg 7.11200 53.00800 41.20100
C  6.72300 49.60900 40.42500
C  10.25200 52.78300 40.10600
C  7.19900 56.24300 41.44200
C  3.57600 53.01300 41.79400
N  8.26700 51.34200 40.41500
C  8.03000 50.03500 40.17000
C  9.20700 49.23700 39.71500
C  10.42100 50.22300 39.93800
C  9.60500 51.60400 40.11800
C  11.37200 49.94600 41.11800
C  9.22600 48.69000 38.22000
C  8.80800 49.74800 37.12500
H  7.78700 49.31800 36.02600
N  8.60200 54.36200 40.87000
C  9.83000 54.08000 40.36700
C  10.56100 55.32400 40.22400
C  9.69500 56.33000 40.65500
C  8.45900 55.65900 41.03300
C  11.99800 55.47000 39.74000
C  10.07900 57.81800 40.70500
O  11.15300 58.21900 40.26200
C  9.29900 58.72700 41.47400
N  5.60800 54.40700 41.40300
C  5.92600 55.68900 41.67000
C  4.68900 56.54000 42.09800
C  3.57900 55.51100 42.30700
C  4.27700 54.23500 41.77600
C  4.85600 57.69200 43.16700
C  2.14200 55.82300 41.76200
C  1.95500 55.66700 40.23900
N  5.47600 51.62600 41.10500
C  4.11900 51.76700 41.39500
C  3.46300 50.44000 41.39000
C  4.49900 49.60100 41.05100
C  5.61800 50.32300 40.80800
C  2.04000 50.19200 41.64500
C  4.76700 48.18000 40.83600
O  4.03500 47.21900 41.04600
C  6.23900 48.12600 40.36600
C  6.09200 47.58600 38.98800
O  5.60600 48.17200 38.07100
O  6.48400 46.23900 39.01600
C  6.23700 45.45600 37.81400
H  11.32800 52.61600 40.03500
H  7.15900 57.33100 41.52200
H  2.55300 53.06300 42.17100
H  9.32700 48.47700 40.48800
H  11.05700 50.31600 39.05800
H  11.20100 50.57700 41.99000
H  12.41000 49.88500 40.79000
H  11.18900 48.94200 41.50000
H  8.72400 47.72700 38.13900
H  10.23900 48.37000 37.97600
H  9.78300 49.89000 36.65900
H  8.47500 50.63200 37.67000
H  12.64600 56.19300 40.23500
H  12.06600 55.75800 38.69100
H  12.45900 54.49400 39.88800
H  8.62000 59.02600 40.67600
H  9.96400 59.51000 41.83800
H  8.72300 58.23800 42.26000
H  4.38700 57.04000 41.17800
H  3.42600 55.33400 43.37200
H  5.88300 57.74200 43.52800
H  4.17300 57.49900 43.99500
H  4.72900 58.61400 42.59900
H  1.86100 56.87200 41.85200
H  1.42200 55.23300 42.32900
H  1.97600 54.60300 40.00600
H  2.69400 56.21000 39.64900
H  0.93700 55.99200 40.02400
H  1.61400 51.06900 42.13200
H  1.96300 49.32100 42.29700
H  1.52200 49.84700 40.75000
H  6.79600 47.41900 40.98000
H  5.20200 45.31500 37.50100
H  6.61500 44.45700 38.02900
H  6.79800 45.94000 37.01400

