158

Mg -2.35600 35.35300 26.38800
C  -3.46400 33.54200 29.20000
C  -0.95800 37.65600 28.54500
C  -1.34300 37.04900 23.63300
C  -4.09500 33.12000 24.40000
N  -2.24700 35.50200 28.70300
C  -2.57700 34.56700 29.65500
C  -2.03600 34.93300 31.08200
C  -1.44800 36.36500 30.79500
C  -1.53900 36.55900 29.25100
C  -2.16300 37.51300 31.63800
C  -1.14800 33.90000 31.88900
C  -1.78700 33.18200 33.04700
H  -1.08600 33.25200 34.39400
N  -1.31600 37.26600 26.10900
C  -0.73700 38.00400 27.14100
C  0.00700 39.05000 26.51700
C  0.07500 38.68500 25.08700
C  -0.85000 37.59700 24.84200
C  0.86100 40.02000 27.35200
C  0.97100 39.27200 24.02100
O  1.04900 38.73800 22.88400
C  1.84400 40.55100 24.30100
N  -2.60200 35.01700 24.26300
C  -2.20100 35.99700 23.37500
C  -2.63900 35.61300 21.98600
C  -3.27000 34.15500 22.06700
C  -3.43400 34.13400 23.61200
C  -3.55200 36.69200 21.20200
C  -2.54700 32.94800 21.46600
C  -1.70300 32.21000 22.41600
N  -3.49400 33.73200 26.64300
C  -4.13800 32.92600 25.79700
C  -4.95500 31.96100 26.44100
C  -4.65600 32.17900 27.81100
C  -3.79600 33.25000 27.85100
C  -5.68700 30.82600 25.69700
C  -4.88800 31.66100 29.15000
O  -5.54600 30.67900 29.37300
C  -4.24300 32.58000 30.13400
C  -5.34200 33.25400 30.88700
O  -6.01000 34.12500 30.40700
O  -5.50100 32.70700 32.16500
C  -6.50400 33.33800 32.99900
H  -0.32900 38.27300 29.19000
H  -1.00400 37.38700 22.65200
H  -4.57100 32.42100 23.70900
H  -2.97500 34.98600 31.63300
H  -0.38900 36.39300 31.05300
H  -1.39600 38.03000 32.21600
H  -2.93000 37.12700 32.31000
H  -2.55900 38.11400 30.82000
H  -0.18400 34.28500 32.22000
H  -0.94500 33.06400 31.21900
H  -1.89800 32.14700 32.72300
H  -2.82900 33.50000 33.03100
H  0.26500 40.14300 28.25600
H  0.98300 40.99900 26.88800
H  1.83800 39.54600 27.44900
H  1.13400 41.32700 24.58900
H  2.48500 40.74200 23.44000
H  2.51100 40.32700 25.13300
H  -1.74300 35.48400 21.37800
H  -4.26800 34.19400 21.63000
H  -4.62100 36.49000 21.26500
H  -3.27000 36.92300 20.17500
H  -3.49600 37.56100 21.85800
H  -1.99500 33.24600 20.57500
H  -3.31600 32.22800 21.18600
H  -1.29800 32.72000 23.28900
H  -0.73200 31.95900 21.98900
H  -2.09800 31.29700 22.86200
H  -6.50500 30.39900 26.27700
H  -5.03000 29.95700 25.68900
H  -5.98000 31.04500 24.67000
H  -3.58200 31.98500 30.76400
H  -7.50300 32.94000 32.82300
H  -6.56800 34.41900 32.87900
H  -6.19900 33.22000 34.03900
Mg -5.81700 25.50600 26.18300
C  -4.10500 26.70300 28.95900
C  -7.15500 22.95100 28.14700
C  -6.96400 23.93200 23.37700
C  -4.00900 27.75900 24.22500
N  -5.47400 24.80600 28.28300
C  -4.93900 25.55900 29.28300
C  -5.42000 25.12000 30.63600
C  -6.21600 23.80300 30.34700
C  -6.31500 23.86900 28.83800
C  -5.57100 22.44600 30.88200
C  -6.26100 26.24400 31.34400
C  -5.88400 26.69400 32.78400
H  -5.55500 25.68100 33.86100
N  -6.93700 23.73100 25.84900
C  -7.40700 22.87500 26.82500
C  -8.31400 21.96800 26.20800
C  -8.11300 22.08100 24.82100
C  -7.33400 23.29800 24.63300
C  -9.26000 21.06400 27.01400
C  -8.74300 21.27900 23.72700
O  -8.58800 21.45800 22.47900
C  -9.50100 19.99200 24.17100
N  -5.49300 25.82000 24.02800
C  -6.11900 25.06000 23.14000
C  -5.94900 25.63300 21.71100
C  -5.14500 26.99100 21.92900
C  -4.94900 26.93900 23.46800
C  -5.26400 24.63700 20.79000
C  -5.88600 28.29200 21.50400
C  -5.40400 29.12400 20.32900
N  -4.30900 26.93700 26.48800
C  -3.68200 27.79700 25.59700
C  -2.76500 28.65700 26.31700
C  -2.90000 28.23400 27.71400
C  -3.87400 27.25700 27.73100
C  -2.01100 29.66500 25.73800
C  -2.56200 28.56700 29.01500
O  -1.87700 29.44200 29.48000
C  -3.34200 27.52800 29.93400
C  -2.26300 26.73300 30.63300
O  -1.33100 26.12300 30.05700
O  -2.45200 26.80900 32.01900
C  -1.38700 26.34700 32.90300
H  -7.66800 22.21000 28.76400
H  -7.52400 23.67100 22.47700
H  -3.47300 28.47400 23.59700
H  -4.51800 24.94700 31.22300
H  -7.26600 23.79800 30.63900
H  -6.22500 22.34600 31.74800
H  -4.54500 22.71200 31.13900
H  -5.59900 21.54500 30.27000
H  -7.32200 25.99600 31.34900
H  -6.15100 27.14400 30.74000
H  -6.82000 27.16500 33.08600
H  -5.12900 27.48000 32.75800
H  -8.83600 20.06100 27.07100
H  -10.29400 21.08200 26.66800
H  -9.33700 21.43400 28.03700
H  -9.74400 19.52400 23.21700
H  -10.41900 20.28500 24.68200
H  -8.92000 19.32300 24.80500
H  -6.91600 25.98900 21.35500
H  -4.20100 27.01800 21.38600
H  -5.91300 23.79400 20.55400
H  -4.35900 24.21400 21.22800
H  -5.03500 25.11500 19.83700
H  -5.80300 29.02600 22.30600
H  -6.96900 28.18800 21.43400
H  -5.09500 30.09300 20.72200
H  -6.25000 29.17700 19.64400
H  -4.51500 28.63500 19.92900
H  -2.38000 30.60500 26.14800
H  -2.03600 29.72900 24.65000
H  -1.06500 29.39100 26.20500
H  -4.03100 28.12100 30.53400
H  -0.73400 25.55200 32.54300
H  -1.96800 26.06700 33.78300
H  -0.90600 27.29700 33.13600

