158

Mg 0.86900 7.96300 26.13700
C  1.56400 9.84300 29.06900
C  0.86300 5.17800 27.96600
C  0.42000 6.34500 23.31000
C  1.02400 11.02000 24.38000
N  1.20500 7.62500 28.33100
C  1.36700 8.47300 29.35500
C  1.31700 7.80100 30.76700
C  1.21700 6.29000 30.34800
C  1.10900 6.38200 28.76400
C  2.29700 5.41800 30.94700
C  0.25900 8.44000 31.84600
C  0.79100 8.44500 33.28300
H  1.73600 7.38600 33.75000
N  0.56200 6.04400 25.70800
C  0.68600 4.95800 26.55800
C  0.42900 3.71200 25.93300
C  0.26500 4.08200 24.53600
C  0.43800 5.54300 24.49600
C  0.66000 2.37400 26.65200
C  -0.10800 3.16100 23.40500
O  -0.22700 3.59500 22.28600
C  -0.51000 1.76400 23.58200
N  0.85800 8.60600 24.12900
C  0.75500 7.67500 23.16800
C  1.17500 8.35500 21.81300
C  0.93200 9.87800 22.12000
C  0.90800 9.87300 23.62300
C  2.73600 8.16500 21.56900
C  -0.39900 10.35800 21.50100
C  -1.78800 9.77400 22.08500
N  1.19700 10.03700 26.58100
C  1.26500 11.14100 25.75300
C  1.66000 12.25800 26.44400
C  1.71800 11.87300 27.79100
C  1.51700 10.47800 27.82000
C  2.10000 13.61800 25.91700
C  1.91300 12.31700 29.13100
O  2.30300 13.46800 29.43100
C  1.66300 11.08300 30.04800
C  2.73800 10.94600 31.00200
O  3.76600 10.28600 30.82500
O  2.49000 11.77400 32.04800
C  3.46800 11.99700 33.04800
H  0.85300 4.25300 28.54700
H  0.27200 5.78600 22.38400
H  0.97100 11.99100 23.88400
H  2.36100 7.81500 31.07900
H  0.23300 5.93300 30.65200
H  1.85200 4.42800 31.04900
H  2.64600 5.71200 31.93700
H  3.16100 5.41700 30.28200
H  -0.59000 7.75600 31.87400
H  -0.03500 9.41100 31.44800
H  -0.01100 8.18300 33.97200
H  1.05400 9.47700 33.51500
H  0.80500 1.64800 25.85200
H  -0.16100 2.01200 27.27000
H  1.49600 2.42400 27.35000
H  -1.22900 1.77000 24.40100
H  0.36500 1.13200 23.73600
H  -1.04700 1.37900 22.71500
H  0.59700 8.03100 20.94700
H  1.74400 10.57000 21.89700
H  3.16400 7.32100 22.11000
H  3.37900 9.02800 21.74000
H  2.79400 7.95200 20.50200
H  -0.47700 10.25200 20.41900
H  -0.42000 11.42800 21.70400
H  -2.63000 9.60600 21.41300
H  -2.14400 10.47200 22.84300
H  -1.61200 8.90500 22.71900
H  1.24000 14.28400 25.98500
H  2.34400 13.64400 24.85500
H  2.87400 14.02200 26.57000
H  0.71200 11.29800 30.53500
H  4.39500 12.45900 32.70700
H  3.74700 11.01500 33.43100
H  3.05200 12.52600 33.90500
Mg 47.80200 24.69100 27.92100
C  48.17800 27.19900 30.48800
C  46.24400 22.76700 30.30700
C  47.63800 22.22500 25.64300
C  49.55700 26.68400 25.71500
N  47.42500 24.98700 30.14000
C  47.59100 26.06300 30.95900
C  46.82900 25.89500 32.28900
C  46.47200 24.38100 32.29700
C  46.79700 23.94600 30.83400
C  47.22800 23.56000 33.34000
C  45.75400 26.87300 32.59800
C  45.75800 27.48900 34.01100
H  46.51500 26.87400 35.24500
N  46.92200 22.80400 27.92800
C  46.20600 22.24000 28.98500
C  45.82000 20.86100 28.53100
C  45.99600 20.81500 27.10900
C  46.85800 21.97000 26.83100
C  45.18900 19.87300 29.43400
C  45.53200 19.79400 26.02300
O  45.93800 19.85400 24.90500
C  44.74700 18.64800 26.51000
N  48.65500 24.38600 26.07700
C  48.43200 23.30600 25.30500
C  49.19500 23.38500 24.00200
C  49.58300 24.90300 23.98500
C  49.22500 25.37800 25.33900
C  50.39800 22.40700 24.01900
C  48.89700 25.63400 22.85300
C  49.72500 26.71400 22.20900
N  48.72600 26.54600 27.97700
C  49.35800 27.23800 26.99200
C  49.60200 28.61500 27.43000
C  49.14500 28.62400 28.75300
C  48.65900 27.31500 29.09400
C  50.19500 29.74400 26.63100
C  48.93000 29.48100 29.91700
O  49.19000 30.65200 30.05500
C  48.51500 28.55300 31.14100
C  49.73800 28.25800 31.98100
O  50.74600 27.81800 31.50800
O  49.58400 28.64100 33.26400
C  50.85200 28.49700 34.07200
H  45.75400 22.19700 31.10000
H  47.52300 21.43800 24.89400
H  50.16300 27.24800 25.00300
H  47.55600 26.06400 33.08300
H  45.43300 24.18500 32.56100
H  47.86100 24.17100 33.98400
H  47.86300 22.82100 32.85100
H  46.55200 23.00700 33.99200
H  44.77100 26.42900 32.44100
H  45.84200 27.70500 31.90000
H  44.68400 27.47800 34.19700
H  46.06600 28.53100 33.91900
H  45.27000 20.19000 30.47400
H  45.57800 18.86300 29.30500
H  44.16300 19.83500 29.06900
H  43.74800 18.93400 26.83800
H  45.25700 18.19700 27.36200
H  44.65300 17.93400 25.69100
H  48.51300 23.03900 23.22500
H  50.66100 24.92600 23.82600
H  50.28900 21.63900 23.25300
H  50.52300 21.89400 24.97200
H  51.34800 22.90800 23.83100
H  47.94600 26.09500 23.11900
H  48.63000 24.94200 22.05500
H  50.17200 26.29700 21.30600
H  50.56800 27.05900 22.80700
H  49.15400 27.63400 22.08400
H  51.04500 29.32700 26.09300
H  50.50600 30.40700 27.43900
H  49.58800 30.26200 25.88900
H  47.63100 28.81100 31.72400
H  50.77000 27.64500 34.74700
H  50.99400 29.36200 34.72000
H  51.79600 28.49500 33.52700

