158

Mg 46.91800 24.92500 28.41400
C  47.55800 27.01600 31.08500
C  46.22200 22.25200 30.61100
C  47.06100 22.81000 25.82200
C  48.51300 27.36600 26.28100
N  47.01100 24.63100 30.54900
C  47.15600 25.70800 31.47300
C  46.72600 25.39500 32.86000
C  46.43900 23.91800 32.74900
C  46.60300 23.53500 31.20700
C  47.44700 22.97800 33.49900
C  45.47800 26.22800 33.30900
C  45.50500 27.04600 34.66200
H  44.43200 26.85700 35.75300
N  46.62600 22.86900 28.21400
C  46.20900 21.98600 29.23500
C  45.76800 20.69400 28.63100
C  46.04800 20.85000 27.23800
C  46.55700 22.20000 26.99700
C  45.27100 19.49200 29.40400
C  45.81900 19.84700 26.21500
O  46.16100 20.04400 25.06300
C  44.96600 18.63800 26.62000
N  47.70900 25.03600 26.32300
C  47.65700 23.95900 25.50300
C  48.13700 24.33400 24.07800
C  48.55200 25.88700 24.21800
C  48.23300 26.12000 25.68200
C  49.36500 23.45100 23.56600
C  47.83400 26.74000 23.11000
C  46.25400 26.95900 23.28000
N  47.69700 26.83100 28.58800
C  48.26200 27.66500 27.63900
C  48.53900 28.88600 28.33400
C  48.32400 28.70700 29.66900
C  47.86600 27.38500 29.76800
C  49.11000 30.15800 27.75400
C  48.34200 29.27100 30.92600
O  48.58700 30.42600 31.22000
C  48.02400 28.18500 31.99200
C  49.22400 27.97400 32.90400
O  50.23500 27.35600 32.55500
O  48.85900 28.35800 34.20200
C  49.90500 28.12300 35.23300
H  45.85000 21.52800 31.33800
H  47.08100 22.21600 24.90600
H  49.04900 28.18200 25.79300
H  47.49500 25.67700 33.57900
H  45.41900 23.75500 33.09900
H  48.26100 23.57400 33.91200
H  47.89000 22.32100 32.75000
H  46.80000 22.52500 34.25000
H  44.65900 25.52800 33.47300
H  45.16800 26.95600 32.56000
H  45.49500 28.11500 34.44700
H  46.46600 26.95400 35.16700
H  44.22400 19.40900 29.11100
H  45.29800 19.76700 30.45800
H  45.81900 18.56900 29.21200
H  45.34900 17.92500 27.35000
H  44.64700 18.13600 25.70600
H  43.96400 18.93200 26.93300
H  47.38800 24.20300 23.29800
H  49.62000 25.98300 24.02200
H  49.72800 22.80100 24.36100
H  50.16000 23.93000 22.99300
H  48.83300 22.78800 22.88400
H  48.01600 26.17300 22.19700
H  48.21000 27.74300 22.90600
H  45.95300 26.60400 24.26600
H  45.62400 26.47700 22.53300
H  45.92600 27.99800 23.25900
H  48.40200 30.97000 27.58700
H  49.62800 30.01800 26.80500
H  49.89200 30.53200 28.41400
H  47.17500 28.48800 32.60500
H  50.73600 27.46900 34.97100
H  49.40800 27.57500 36.03400
H  50.38300 29.00800 35.65500
Mg 26.02900 50.63500 26.37300
C  24.06000 51.48200 29.15200
C  28.46600 49.57800 28.63200
C  28.07100 50.10700 23.79700
C  23.49200 51.77000 24.25600
N  26.17500 50.59000 28.66700
C  25.22900 50.89700 29.59700
C  25.62700 50.55700 31.06000
C  27.20600 50.31000 30.88200
C  27.36200 50.15200 29.32000
C  28.17200 51.39600 31.43100
C  24.66200 49.47900 31.70300
C  24.02300 49.80000 33.10800
H  24.94200 50.23300 34.24800
N  27.92100 49.84000 26.15300
C  28.75500 49.44900 27.22300
C  29.98000 48.90200 26.69900
C  29.95200 49.17700 25.23600
C  28.61700 49.75600 25.01700
C  30.97000 48.15100 27.57100
C  31.07300 48.85600 24.24600
O  31.11300 49.29800 23.10600
C  32.15200 47.98000 24.59900
N  25.87700 50.91500 24.31600
C  26.83800 50.60500 23.45500
C  26.34800 50.76700 22.03900
C  24.81900 50.98400 22.18700
C  24.69400 51.25800 23.69100
C  27.13000 51.82900 21.24100
C  23.87800 49.86500 21.69600
C  22.70600 50.32500 20.90200
N  24.15400 51.52500 26.64000
C  23.23100 51.97600 25.70300
C  22.04400 52.45200 26.41200
C  22.35700 52.33500 27.78000
C  23.61200 51.80200 27.82300
C  20.78600 52.92200 25.77900
C  21.84800 52.62400 29.10700
O  20.79400 53.19000 29.43600
C  22.92100 52.05400 30.07700
C  23.36300 53.14400 30.99100
O  24.43800 53.67800 30.99700
O  22.50000 53.16700 32.06000
C  22.97000 53.92200 33.18200
H  29.23900 49.25900 29.33500
H  28.60700 49.83700 22.88500
H  22.63500 51.97500 23.61200
H  25.46100 51.50300 31.57500
H  27.43400 49.34900 31.34200
H  27.58100 52.28400 31.65700
H  28.85600 51.66800 30.62700
H  28.71600 51.01400 32.29500
H  25.15000 48.51500 31.84100
H  23.76300 49.32000 31.10800
H  23.48700 48.92000 33.46400
H  23.29500 50.58200 32.89100
H  31.98600 48.38800 27.25400
H  30.88600 47.07000 27.46400
H  30.89800 48.37800 28.63400
H  32.71000 47.88300 23.66800
H  31.69800 47.04200 24.91800
H  32.87200 48.44300 25.27400
H  26.63500 49.81900 21.58400
H  24.56400 51.97400 21.80900
H  28.09700 51.78200 21.74200
H  26.59800 52.76600 21.40800
H  27.16500 51.67100 20.16300
H  23.64900 49.30300 22.60200
H  24.39700 49.29300 20.92700
H  22.62900 49.65000 20.04900
H  22.83800 51.29600 20.42400
H  21.73600 50.19800 21.38300
H  19.98300 52.82100 26.50800
H  20.52200 52.30800 24.91700
H  20.79000 53.99200 25.57500
H  22.51900 51.18200 30.59300
H  23.10900 54.93100 32.79100
H  23.91600 53.57400 33.59700
H  22.23300 53.90000 33.98400

