158

Mg 2.19000 8.87700 27.96400
C  2.67800 11.03100 30.75700
C  2.33500 6.22600 30.13600
C  2.10100 6.91100 25.34500
C  2.22700 11.74500 25.93300
N  2.56400 8.65500 30.12600
C  2.53300 9.70500 31.08100
C  2.24000 9.21200 32.50600
C  2.53400 7.69200 32.32500
C  2.40300 7.51700 30.80600
C  3.90800 7.16000 32.86900
C  0.76400 9.48600 32.95400
C  0.43500 9.19100 34.39600
H  1.51800 8.72300 35.48500
N  2.12800 6.88800 27.75500
C  2.17900 5.95800 28.77600
C  1.95400 4.55400 28.20500
C  1.83000 4.77200 26.82900
C  2.05500 6.23300 26.57300
C  2.11500 3.33100 29.14000
C  1.49100 3.77700 25.68700
O  1.57500 4.06100 24.49700
C  0.98600 2.37400 26.05500
N  2.19700 9.27000 25.94500
C  2.06900 8.27200 25.10200
C  2.00300 8.79900 23.67700
C  1.63500 10.32100 23.92100
C  2.12000 10.52400 25.35900
C  3.34400 8.54900 22.90700
C  0.13100 10.57800 23.80200
C  -0.39400 11.16100 22.46400
N  2.53900 10.96100 28.20100
C  2.50200 12.06100 27.28800
C  2.75800 13.28300 28.02100
C  2.79300 12.91200 29.33700
C  2.60800 11.50900 29.39900
C  2.90000 14.69600 27.48500
C  2.93800 13.45300 30.75100
O  3.22600 14.59800 31.05800
C  2.64800 12.19300 31.68200
C  3.64900 12.19800 32.70500
O  4.81000 11.80400 32.56500
O  3.05800 12.67500 33.87200
C  3.99200 12.58200 35.01700
H  2.41600 5.42400 30.87300
H  1.96400 6.24700 24.48900
H  1.96500 12.47700 25.16600
H  3.06600 9.64500 33.07000
H  1.71900 7.11900 32.76600
H  4.68200 7.89400 32.64500
H  4.06400 6.19400 32.38900
H  3.84500 6.94100 33.93500
H  0.10000 8.84100 32.38000
H  0.43900 10.50600 32.74700
H  -0.40400 8.49600 34.36600
H  0.10400 10.12400 34.85300
H  1.42500 3.55300 29.95500
H  3.10100 3.33600 29.60400
H  1.90800 2.42900 28.56500
H  1.82600 1.76900 26.39600
H  0.52100 1.93400 25.17300
H  0.18100 2.40000 26.78900
H  1.22900 8.34700 23.05600
H  2.28200 10.97300 23.33300
H  3.48500 7.47100 22.82700
H  4.18800 8.94100 23.47400
H  3.45000 8.95700 21.90200
H  -0.18400 11.30800 24.54800
H  -0.39500 9.68500 24.13800
H  0.09700 10.73100 21.59100
H  -0.23900 12.24000 22.47900
H  -1.47400 11.02100 22.42200
H  3.90400 15.12000 27.50900
H  2.19900 15.31900 28.04000
H  2.57800 14.68900 26.44400
H  1.64100 12.30200 32.08600
H  4.40900 11.57600 34.96400
H  3.41700 12.75400 35.92700
H  4.71300 13.38300 34.85600
Mg 0.49600 43.66500 26.08200
C  2.69800 43.98000 28.80200
C  -2.09300 43.26300 28.36300
C  -1.45500 42.84800 23.49700
C  3.23000 44.20300 23.89300
N  0.36600 43.51400 28.39600
C  1.37400 43.73900 29.28200
C  0.83000 43.53400 30.68100
C  -0.58900 42.94200 30.52300
C  -0.82900 43.34900 29.02200
C  -0.77100 41.40900 30.80500
C  0.88900 44.88600 31.48400
C  1.32700 44.81100 32.92500
H  0.86200 43.65000 33.75400
N  -1.49900 43.16000 25.97200
C  -2.40400 43.11900 27.00600
C  -3.69100 42.75200 26.48000
C  -3.53600 42.54700 25.05200
C  -2.11500 42.80500 24.76800
C  -4.88700 42.51700 27.47300
C  -4.57300 42.24800 24.04800
O  -4.34400 41.96300 22.83300
C  -6.06200 42.21000 24.52500
N  0.91200 43.37400 23.97600
C  -0.13500 43.15500 23.11600
C  0.36200 43.14200 21.66600
C  1.75100 43.82100 21.75600
C  1.99900 43.80800 23.29300
C  0.13400 41.73200 20.92300
C  1.82000 45.29100 21.18000
C  0.82000 46.20800 21.73600
N  2.54600 43.97600 26.24700
C  3.49100 44.21500 25.25300
C  4.75300 44.47300 25.96100
C  4.47500 44.38500 27.29000
C  3.12800 44.02200 27.46300
C  6.13700 44.86800 25.40700
C  5.03900 44.32000 28.59100
O  6.23600 44.49300 28.86700
C  3.88600 44.15600 29.67100
C  4.31200 43.06800 30.44200
O  4.51300 41.98800 29.99400
O  4.68200 43.43300 31.72000
C  5.16800 42.41500 32.59600
H  -2.93800 43.06400 29.02500
H  -1.95300 42.48900 22.59300
H  4.06700 44.49000 23.25300
H  1.48900 42.79000 31.12700
H  -1.24600 43.50700 31.18400
H  -0.90100 40.87900 29.86200
H  -1.62300 41.21200 31.45700
H  0.15200 40.99700 31.21200
H  -0.14900 45.21400 31.53300
H  1.44900 45.70300 31.02800
H  0.88500 45.73800 33.29000
H  2.40100 44.99500 32.95800
H  -4.58400 42.19300 28.46900
H  -5.59600 41.76400 27.12900
H  -5.45000 43.44300 27.59000
H  -6.38000 41.38400 25.16200
H  -6.70900 42.19000 23.64800
H  -6.23100 43.21900 24.90300
H  -0.25500 43.70900 20.96900
H  2.37700 43.10900 21.21900
H  0.31700 41.80000 19.85100
H  -0.92300 41.48300 21.01100
H  0.82600 40.99300 21.32700
H  1.75600 45.24400 20.09300
H  2.82400 45.60300 21.46700
H  1.33500 46.94500 22.35200
H  -0.01800 45.70600 22.21700
H  0.36900 46.71000 20.88000
H  6.70600 45.33100 26.21400
H  6.23800 45.59500 24.60100
H  6.64100 43.93900 25.14100
H  3.72700 45.00600 30.33500
H  5.79500 41.67000 32.10600
H  4.33600 41.93900 33.11500
H  5.82100 42.81300 33.37200

