158

Mg 36.50200 48.58100 24.78200
C  36.70400 46.63500 27.76100
C  34.93200 51.11600 26.55000
C  35.61500 49.96000 21.88300
C  37.33600 45.56900 22.97500
N  35.92900 48.80300 26.92800
C  36.19400 47.96700 27.96700
C  35.66500 48.61800 29.21000
C  35.23200 50.06500 28.87700
C  35.36100 50.01100 27.35800
C  33.78300 50.48000 29.32400
C  36.49200 48.40900 30.47600
C  36.37700 49.43700 31.69300
H  35.15400 49.36700 32.61100
N  35.67300 50.37700 24.31600
C  35.02800 51.25700 25.15500
C  34.49200 52.41300 24.39200
C  34.81800 52.06400 23.05300
C  35.38100 50.76100 23.05800
C  33.87200 53.59200 25.11300
C  34.56200 52.84100 21.79200
O  34.84000 52.42700 20.67000
C  33.89700 54.20600 21.78400
N  36.40000 47.89400 22.80800
C  36.14400 48.71700 21.76800
C  36.52000 48.11500 20.39200
C  37.48700 46.99900 20.88700
C  37.06600 46.79300 22.30800
C  35.31000 47.65700 19.59900
C  38.98700 47.34600 20.67000
C  39.58100 47.08100 19.30600
N  36.95800 46.51800 25.26600
C  37.21900 45.43400 24.39900
C  37.53900 44.28600 25.19400
C  37.36000 44.68800 26.48100
C  37.03500 46.09000 26.52400
C  37.79700 42.96100 24.63000
C  37.27600 44.14400 27.82500
O  37.42900 43.02900 28.27000
C  36.82700 45.43600 28.70700
C  35.45700 45.05400 29.26700
O  34.40400 45.19300 28.67800
O  35.61300 44.52800 30.50600
C  34.36200 44.35700 31.28900
H  34.40700 51.89900 27.10100
H  35.42700 50.38400 20.89400
H  37.86000 44.85200 22.34000
H  34.75600 48.07400 29.46700
H  35.99400 50.80200 29.12900
H  33.97300 51.44500 29.79300
H  33.47100 49.77500 30.09500
H  33.05100 50.46600 28.51700
H  37.53800 48.11700 30.38500
H  36.09500 47.53400 30.98900
H  36.49600 50.43500 31.27100
H  37.26300 49.29900 32.31400
H  33.14600 54.12100 24.49700
H  34.62300 54.36000 25.29600
H  33.42200 53.18600 26.01900
H  34.46000 54.86800 22.44200
H  32.89500 53.92000 22.10400
H  33.84800 54.69200 20.81000
H  37.03400 48.91100 19.85300
H  37.11400 46.13600 20.33600
H  34.43200 47.57000 20.23900
H  35.57000 46.73100 19.08600
H  35.08600 48.31600 18.76000
H  39.69500 46.94600 21.39600
H  39.02400 48.41200 20.89700
H  38.77100 46.81400 18.62700
H  40.38300 46.35600 19.43900
H  40.08200 47.89200 18.77700
H  38.60900 42.95700 23.90400
H  36.97800 42.49500 24.08200
H  38.09000 42.35000 25.48500
H  37.49000 45.68100 29.53700
H  34.48600 43.72100 32.16600
H  33.57700 43.83000 30.74600
H  33.97700 45.34100 31.55500
Mg -5.30000 25.13300 26.04000
C  -4.03600 26.31000 28.93300
C  -7.35600 23.07400 27.69000
C  -6.34500 23.97500 23.09500
C  -3.00700 27.34800 24.32500
N  -5.71900 24.80800 28.10600
C  -5.10800 25.45600 29.17000
C  -5.63900 24.85600 30.53500
C  -6.49000 23.67200 30.06800
C  -6.55000 23.82800 28.50900
C  -6.13100 22.21400 30.44400
C  -6.46600 26.01100 31.23000
C  -6.31500 26.06000 32.79300
H  -5.72200 24.86900 33.59700
N  -6.66500 23.63300 25.43900
C  -7.46500 23.02100 26.26300
C  -8.41500 22.24700 25.51000
C  -8.13800 22.48100 24.14300
C  -6.97100 23.35600 24.16800
C  -9.39700 21.37800 26.17700
C  -8.85300 22.05400 22.90600
O  -8.48600 22.38300 21.76900
C  -10.08300 21.22500 23.06600
N  -4.74400 25.60500 23.95500
C  -5.32200 24.92600 22.91800
C  -4.60100 25.21200 21.64500
C  -3.72700 26.45000 21.98200
C  -3.77300 26.45000 23.52000
C  -3.81400 23.87400 21.07000
C  -4.24300 27.82000 21.36400
C  -3.11300 28.89500 21.06600
N  -3.78400 26.51200 26.45600
C  -2.93600 27.35700 25.73900
C  -2.05300 28.09000 26.59900
C  -2.48100 27.70600 27.86300
C  -3.50300 26.78300 27.72900
C  -0.98400 29.09200 26.30300
C  -2.20700 28.04800 29.28600
O  -1.40100 28.82200 29.85000
C  -3.29900 27.17700 29.99500
C  -2.55500 26.41700 30.96500
O  -2.04400 25.32300 30.76600
O  -2.61800 27.05400 32.18200
C  -1.85600 26.31400 33.16800
H  -7.94000 22.39500 28.31500
H  -6.62300 23.64000 22.09400
H  -2.45600 28.07000 23.71900
H  -4.88300 24.52800 31.24800
H  -7.53300 23.85600 30.32600
H  -5.51500 21.69000 29.71200
H  -7.10900 21.73400 30.48700
H  -5.73000 22.06600 31.44700
H  -7.52100 26.00500 30.95300
H  -5.99000 26.93100 30.89100
H  -7.29700 26.28100 33.21300
H  -5.59800 26.85200 33.00900
H  -9.73800 20.51400 25.60600
H  -10.19500 22.06900 26.44700
H  -8.99900 21.06200 27.14200
H  -9.69600 20.30800 23.51100
H  -10.45800 20.92800 22.08600
H  -10.69600 21.73600 23.80700
H  -5.28900 25.52100 20.85800
H  -2.68600 26.32300 21.68200
H  -2.96600 23.60500 21.70000
H  -3.36400 24.01600 20.08800
H  -4.39200 22.96300 21.22800
H  -4.96300 28.19500 22.09200
H  -4.86800 27.61700 20.49500
H  -3.48100 29.82300 21.50600
H  -2.98300 29.10800 20.00500
H  -2.14700 28.68600 21.52400
H  -0.57600 29.10100 25.29200
H  -0.11700 29.06000 26.96300
H  -1.49500 30.03400 26.50600
H  -3.90400 27.92000 30.51400
H  -2.34600 25.39200 33.48300
H  -1.71100 26.99400 34.00700
H  -0.84000 26.15300 32.80700

