158

Mg -0.41900 7.58300 26.59900
C  0.72700 9.14200 29.43900
C  -0.55100 4.58000 28.40900
C  -1.13400 5.83100 23.78700
C  0.27500 10.47000 24.73100
N  0.15100 6.92000 28.74000
C  0.41800 7.78000 29.76300
C  0.37000 7.09100 31.12300
C  0.24600 5.57400 30.70400
C  -0.07400 5.69600 29.14900
C  1.55900 4.70000 30.92200
C  -0.95000 7.64000 31.79900
C  -0.65500 8.22800 33.18700
H  -0.36200 7.27700 34.32300
N  -0.90400 5.49600 26.18000
C  -0.85100 4.46600 27.06500
C  -1.15500 3.18300 26.45500
C  -1.26200 3.55300 25.07100
C  -1.13000 5.00400 24.95100
C  -1.40300 1.83500 27.08700
C  -1.41000 2.56400 23.86100
O  -1.33400 2.94100 22.75500
C  -1.45600 1.04900 24.05200
N  -0.25200 8.07300 24.49900
C  -0.76600 7.18900 23.55600
C  -1.01200 7.91600 22.20000
C  -0.76400 9.44100 22.56800
C  -0.13500 9.34900 23.98300
C  -0.26300 7.28900 21.02600
C  -2.08000 10.26500 22.56800
C  -2.61800 10.74100 21.18700
N  0.32400 9.41100 26.90800
C  0.55900 10.50600 26.12100
C  1.10900 11.58400 26.88800
C  1.17000 11.12300 28.16900
C  0.67100 9.76600 28.15300
C  1.40600 12.95700 26.35500
C  1.45300 11.54100 29.57800
O  1.76100 12.65000 29.94900
C  1.04000 10.27300 30.43400
C  2.25300 10.05400 31.22400
O  3.12600 9.21900 30.98400
O  2.28000 10.94400 32.23700
C  3.37900 10.84800 33.18600
H  -0.48500 3.64100 28.96100
H  -1.56100 5.29000 22.94000
H  0.34500 11.21200 23.93300
H  1.32200 7.27300 31.62300
H  -0.52400 5.07500 31.29300
H  1.35000 3.75300 31.41900
H  2.33200 5.11200 31.57000
H  1.91700 4.36200 29.94900
H  -1.67300 6.84200 31.96900
H  -1.33900 8.40700 31.12900
H  -1.62200 8.64400 33.47000
H  0.09000 9.02400 33.21100
H  -2.37200 1.49200 26.72400
H  -1.38600 1.87000 28.17600
H  -0.64500 1.15400 26.70100
H  -1.87700 0.62400 23.14100
H  -2.24200 0.81900 24.77200
H  -0.47900 0.59200 24.20600
H  -2.07600 7.93700 21.96500
H  0.00400 9.83000 21.90000
H  0.41100 7.99400 20.53900
H  -0.94000 6.82300 20.31000
H  0.42500 6.54300 21.42500
H  -1.84200 11.14900 23.16000
H  -2.76200 9.59400 23.09000
H  -2.36600 10.08000 20.35800
H  -2.27200 11.76400 21.03600
H  -3.70200 10.77700 21.30100
H  0.46800 13.32600 25.94200
H  2.27700 12.84100 25.71000
H  1.50800 13.67900 27.16500
H  0.31200 10.56400 31.19200
H  4.36500 10.65300 32.76400
H  3.22000 9.98300 33.82900
H  3.34200 11.67900 33.89000
Mg 25.21300 0.97300 29.91700
C  27.04700 1.07800 32.81200
C  22.31900 1.34000 31.80200
C  23.36700 0.60000 27.16700
C  28.15400 0.48600 28.15000
N  24.69900 1.12300 32.05700
C  25.65500 1.31700 33.00700
C  24.93600 1.74700 34.32600
C  23.44000 1.80400 34.08400
C  23.43900 1.41800 32.57900
C  22.63500 0.67100 34.88300
C  25.48900 3.20700 34.72400
C  26.21900 3.30000 36.08400
H  25.64900 4.21100 37.20200
N  23.13000 0.90700 29.48200
C  22.16500 1.16700 30.38900
C  20.88600 1.19000 29.74600
C  21.17900 0.89200 28.33000
C  22.57400 0.73900 28.31200
C  19.53400 1.42200 30.46600
C  20.17400 0.74400 27.23900
O  20.39900 0.52500 26.05700
C  18.62700 0.80200 27.62200
N  25.67700 0.48500 27.99000
C  24.73700 0.60500 26.96400
C  25.46500 0.59900 25.60800
C  26.92100 0.78100 26.00200
C  26.94200 0.53800 27.48900
C  25.21800 -0.60300 24.71700
C  27.43800 2.20800 25.63700
C  26.64500 3.46100 26.21400
N  27.22400 0.78800 30.32400
C  28.28500 0.55300 29.54000
C  29.45400 0.35400 30.36000
C  29.05100 0.66100 31.66200
C  27.67800 0.85600 31.59900
C  30.86200 0.11700 29.86000
C  29.50000 0.96200 33.02700
O  30.61500 0.95300 33.54100
C  28.23100 1.30200 33.83600
C  28.18300 0.38200 34.98800
O  27.75000 -0.76200 35.03800
O  28.65700 1.06700 36.08400
C  28.53800 0.21000 37.29000
H  21.46600 1.72000 32.36800
H  22.79800 0.49700 26.24100
H  29.02300 0.52700 27.49000
H  25.20700 1.01100 35.08300
H  22.91100 2.74400 34.24000
H  21.92400 1.18600 35.53000
H  23.30400 0.11300 35.53800
H  22.08500 0.03500 34.19000
H  24.56900 3.78300 34.82000
H  26.10400 3.55200 33.89200
H  27.18900 3.70100 35.78900
H  26.47000 2.28900 36.40500
H  19.12100 2.38000 30.14900
H  19.60600 1.63600 31.53200
H  18.86800 0.58400 30.26100
H  18.27200 1.55900 28.32100
H  18.38600 -0.23100 27.87100
H  17.98900 1.07400 26.78100
H  25.12000 1.47300 25.05400
H  27.54500 0.05400 25.48400
H  26.15700 -0.91100 24.25600
H  24.60300 -0.32800 23.86000
H  24.89200 -1.50200 25.24100
H  27.33000 2.23300 24.55300
H  28.51000 2.19200 25.83300
H  25.81400 3.25400 26.88800
H  26.16100 3.99100 25.39200
H  27.26100 4.11400 26.83200
H  31.07200 0.12200 28.79000
H  31.03500 -0.85800 30.31600
H  31.53900 0.75100 30.43300
H  28.31600 2.31500 34.22900
H  28.66100 0.89800 38.12700
H  29.30700 -0.56300 37.28200
H  27.53400 -0.20500 37.38200

