158

Mg 40.58500 8.44700 28.92700
C  42.14900 9.42500 31.93200
C  38.21100 6.79300 30.80100
C  39.28800 7.41300 26.14000
C  43.39500 9.75100 27.19200
N  40.27100 8.12200 31.14000
C  40.90200 8.75300 32.17300
C  40.37300 8.34600 33.50700
C  39.29600 7.30800 33.17300
C  39.29000 7.28500 31.60100
C  39.47100 5.89600 33.87900
C  39.89300 9.41500 34.48000
C  40.32800 9.24100 35.98200
H  40.47600 10.58500 36.83000
N  38.90800 7.39900 28.54600
C  37.98800 6.82800 29.42900
C  36.88300 6.25200 28.63800
C  37.13500 6.55900 27.28100
C  38.46300 7.18400 27.25600
C  35.70200 5.55200 29.36600
C  36.31800 6.31800 26.00500
O  36.75100 6.74800 24.90600
C  34.96300 5.66800 25.99400
N  41.24800 8.53200 26.96900
C  40.47800 8.10300 25.97500
C  41.01700 8.34200 24.61800
C  42.39300 9.16500 24.83100
C  42.40300 9.10200 26.39100
C  41.26200 7.01400 23.85500
C  42.45400 10.53900 24.20500
C  41.24700 11.43100 24.36700
N  42.36300 9.43200 29.37800
C  43.39400 9.89100 28.59600
C  44.34800 10.59500 29.42700
C  43.90200 10.40300 30.71200
C  42.70400 9.65600 30.64700
C  45.49100 11.41400 28.92400
C  44.21100 10.76200 32.13800
O  45.11400 11.41700 32.68700
C  43.08700 10.15900 32.92800
C  43.74000 9.27200 33.97500
O  44.36400 8.28400 33.74700
O  43.62700 9.88300 35.19000
C  44.33600 9.25600 36.30100
H  37.54600 6.17100 31.40300
H  38.93400 7.08300 25.16100
H  44.23800 10.20100 26.66400
H  41.18700 7.87200 34.05600
H  38.32700 7.70100 33.47900
H  40.37200 5.87900 34.49200
H  39.48000 5.05600 33.18500
H  38.73300 5.86400 34.68100
H  38.80400 9.41200 34.52800
H  40.06900 10.43400 34.13600
H  41.24000 8.64500 35.98200
H  39.57300 8.69800 36.55100
H  34.76500 6.10400 29.44300
H  35.94200 5.48500 30.42700
H  35.67200 4.58300 28.86900
H  34.48500 5.74400 26.97100
H  35.12200 4.61200 25.77700
H  34.28800 6.15000 25.28700
H  40.40200 9.00700 24.01200
H  43.34000 8.63000 24.76300
H  40.71200 6.97400 22.91400
H  41.08100 6.14900 24.49300
H  42.32900 6.96600 23.63700
H  42.51800 10.19300 23.17300
H  43.39400 11.02800 24.45900
H  41.55700 12.43800 24.64400
H  40.57100 11.06000 25.13800
H  40.62800 11.42900 23.47000
H  45.08900 11.90400 28.03800
H  46.18900 10.69000 28.50400
H  46.03400 11.99400 29.67100
H  42.53500 10.96500 33.41000
H  45.42400 9.23800 36.24700
H  44.04600 8.20500 36.27200
H  44.04500 9.64200 37.27800
Mg 48.33100 35.29400 27.68800
C  46.10700 33.57700 29.81500
C  48.62800 37.79200 30.10400
C  50.20700 36.94300 25.52300
C  47.97900 32.50800 25.42200
N  47.35500 35.68500 29.71900
C  46.68300 34.71300 30.47300
C  46.84200 35.05800 31.97400
C  47.25600 36.58100 31.92900
C  47.81300 36.74600 30.48700
C  46.08100 37.55800 32.30500
C  47.90600 34.16900 32.59200
C  47.97900 34.08700 34.09000
H  47.07200 34.94800 34.94100
N  49.23600 37.14200 27.77600
C  49.27900 38.05100 28.86500
C  50.16300 39.11000 28.46800
C  50.59400 38.91100 27.10900
C  49.95700 37.62900 26.77400
C  50.39600 40.30700 29.39700
C  51.36100 39.78300 26.25100
O  51.60000 39.49400 25.06800
C  51.78700 41.15200 26.72000
N  48.76300 34.91500 25.58600
C  49.75000 35.72100 25.05800
C  50.19700 35.12500 23.71600
C  49.70000 33.61600 23.81100
C  48.70900 33.64800 24.98200
C  49.68200 35.86400 22.45200
C  50.80700 32.60300 24.12600
C  51.57600 32.14300 22.87600
N  47.28200 33.43300 27.55700
C  47.19000 32.46900 26.56800
C  46.17800 31.53100 26.92300
C  45.67300 31.85200 28.18000
C  46.38000 33.05500 28.48500
C  45.84400 30.24700 26.13100
C  44.78900 31.49200 29.26500
O  43.96100 30.61800 29.42200
C  45.11600 32.52900 30.39700
C  45.56700 31.89800 31.65400
O  46.54500 31.18400 31.73500
O  44.70400 32.23900 32.65200
C  45.07600 31.72500 33.96200
H  48.62100 38.50700 30.93100
H  51.08800 37.34000 25.01500
H  47.99300 31.64600 24.75100
H  45.89200 34.77900 32.42900
H  48.01100 36.78800 32.68700
H  45.20700 36.94800 32.53200
H  45.69300 38.03300 31.40300
H  46.31700 38.27100 33.09500
H  48.90800 34.37600 32.21400
H  47.77000 33.16100 32.20100
H  48.99000 34.39900 34.35500
H  47.96500 33.00500 34.22300
H  49.84600 40.21600 30.33400
H  50.05000 41.19600 28.87000
H  51.45300 40.35700 29.65800
H  50.86200 41.72000 26.81000
H  52.54900 41.68200 26.14800
H  52.14600 40.94700 27.72800
H  51.28400 35.14500 23.78700
H  49.27000 33.31600 22.85500
H  49.21200 35.16300 21.76100
H  50.47600 36.37700 21.91000
H  48.96700 36.64600 22.71000
H  50.50600 31.66700 24.59700
H  51.52400 33.18400 24.70600
H  52.63700 32.34400 23.02400
H  51.16900 32.58900 21.96900
H  51.54600 31.05500 22.81700
H  45.14500 29.68500 26.75000
H  46.68300 29.58300 25.92500
H  45.38600 30.35000 25.14700
H  44.21600 33.05200 30.72000
H  44.60000 30.78300 34.23400
H  44.79000 32.47400 34.69900
H  46.14000 31.59400 34.16200

