158

Mg 6.26500 54.24000 41.04400
C  5.84300 50.83600 41.18300
C  9.65800 53.71100 40.07800
C  6.61900 57.50800 40.59200
C  2.78600 54.66600 41.43100
N  7.54800 52.42700 40.68600
C  7.16500 51.13900 40.80400
C  8.28000 50.14400 40.31500
C  9.46000 51.16200 40.54800
C  8.85500 52.53900 40.33800
C  10.03100 51.00600 41.93100
C  8.22600 49.65600 38.85400
C  7.36700 50.47100 37.88600
H  6.60000 49.63400 36.82200
N  7.85400 55.43400 40.53600
C  9.12800 55.08600 40.09200
C  9.90100 56.21000 39.87200
C  9.06900 57.33200 40.04800
C  7.72600 56.75900 40.34000
C  11.43500 56.09500 39.68900
C  9.56500 58.77400 39.91400
O  10.69800 59.03900 39.63000
C  8.67600 59.86200 40.16400
N  4.88400 55.85900 41.09200
C  5.29000 57.13100 40.87000
C  4.14400 58.12900 41.05300
C  2.97200 57.17900 41.43500
C  3.55300 55.81700 41.33700
C  4.40900 59.36500 41.96300
C  1.64900 57.46000 40.73300
C  0.45900 57.82200 41.62300
N  4.55900 53.04600 41.38600
C  3.23700 53.30200 41.59200
C  2.49900 52.07200 41.82300
C  3.48100 51.06000 41.79500
C  4.70400 51.71000 41.45700
C  1.09300 51.98600 41.98900
C  3.77100 49.67100 41.80200
O  2.97900 48.73100 41.98800
C  5.28000 49.47000 41.50000
C  5.19300 48.57000 40.30700
O  4.82200 48.99200 39.22300
O  5.51000 47.27000 40.54300
C  5.23800 46.34400 39.42300
H  10.73000 53.50900 40.03000
H  6.71400 58.58900 40.47200
H  1.70600 54.80200 41.51900
H  8.20400 49.24200 40.92100
H  10.21400 51.06900 39.76700
H  9.83300 50.02700 42.36700
H  9.72100 51.76500 42.64900
H  11.09000 50.99000 41.67200
H  7.64400 48.74700 39.00800
H  9.24000 49.56100 38.46700
H  8.14400 51.08500 37.43200
H  6.65800 51.17000 38.32900
H  11.93400 55.47700 40.43600
H  11.96600 57.04600 39.73900
H  11.64900 55.66000 38.71200
H  8.22200 59.69100 41.14100
H  8.05000 59.78500 39.27600
H  9.28100 60.76400 40.07500
H  3.92600 58.43900 40.03100
H  2.78900 57.27800 42.50500
H  5.41500 59.60300 42.30800
H  3.72800 59.19900 42.79800
H  3.98900 60.17800 41.37100
H  1.36800 56.54800 40.20600
H  1.66700 58.31300 40.05600
H  -0.54200 57.69800 41.20900
H  0.64500 58.77900 42.11000
H  0.46200 57.05500 42.39700
H  1.03200 51.30800 42.84000
H  0.59400 51.56300 41.11700
H  0.80900 52.99300 42.29600
H  5.80300 48.96100 42.31000
H  4.24600 45.89300 39.41400
H  5.98000 45.56100 39.58100
H  5.32600 46.82300 38.44800
Mg -9.51700 17.68900 42.24100
C  -6.16300 17.27100 42.55400
C  -9.11200 20.96800 41.45200
C  -12.85500 17.89300 41.40800
C  -9.85800 14.16400 42.20800
N  -7.81400 18.92300 42.07000
C  -6.52300 18.61200 42.36600
C  -5.59300 19.87100 42.27300
C  -6.64400 20.99600 42.29400
C  -7.95700 20.26800 41.91000
C  -6.73400 21.72400 43.70700
C  -4.70000 19.84400 40.94700
C  -5.03200 18.77000 39.91000
H  -4.62000 19.15300 38.52800
N  -10.78100 19.25000 41.57400
C  -10.39200 20.46100 41.20600
C  -11.55000 21.26600 40.82000
C  -12.68600 20.46600 40.91900
C  -12.12600 19.12100 41.29700
C  -11.41500 22.73500 40.40200
C  -14.11000 20.87000 40.76700
O  -14.42800 22.04100 40.52400
C  -15.38300 19.94700 40.93800
N  -11.10100 16.26200 41.84600
C  -12.39300 16.63100 41.74800
C  -13.35400 15.45900 41.72300
C  -12.36200 14.22500 41.84100
C  -10.95900 14.88200 41.98500
C  -14.36700 15.47600 42.87700
C  -12.33400 13.39100 40.46700
C  -12.83600 11.86900 40.51200
N  -8.28100 16.03400 42.40400
C  -8.55400 14.67000 42.45100
C  -7.30600 13.97600 42.67900
C  -6.33800 14.93300 42.85300
C  -7.01100 16.17000 42.64200
C  -7.09800 12.47000 42.74100
C  -4.94600 15.28400 43.04500
O  -3.96400 14.58000 43.12200
C  -4.79500 16.85000 42.99400
C  -4.43300 17.33100 44.35000
O  -3.43600 17.99300 44.54300
O  -5.41300 16.96900 45.25200
C  -5.08100 17.28600 46.71100
H  -9.08700 22.05900 41.42800
H  -13.86500 17.81900 41.00000
H  -10.00000 13.08400 42.27700
H  -4.81900 19.90600 43.04000
H  -6.58300 21.70400 41.46700
H  -5.91100 21.58700 44.40900
H  -7.68500 21.50100 44.19000
H  -6.60800 22.78000 43.46700
H  -3.68300 19.70800 41.31400
H  -4.90200 20.82000 40.50400
H  -6.08100 18.47300 39.90500
H  -4.51000 17.83800 40.12600
H  -10.75800 22.80200 39.53500
H  -11.12800 23.32800 41.27100
H  -12.34300 23.23800 40.12700
H  -15.45700 19.02300 40.36500
H  -16.21200 20.57300 40.60800
H  -15.50000 19.72700 41.99900
H  -14.02200 15.46200 40.86200
H  -12.70400 13.61500 42.67700
H  -14.52000 14.53200 43.39900
H  -15.31600 15.85600 42.49900
H  -14.00400 16.15000 43.65300
H  -11.31700 13.34700 40.07700
H  -12.89900 13.92900 39.70500
H  -13.13400 11.61300 41.52900
H  -12.00700 11.24300 40.18000
H  -13.71100 11.93600 39.86600
H  -7.37500 12.34700 43.78800
H  -6.08800 12.14200 42.49700
H  -7.72400 11.77700 42.17900
H  -4.05500 17.12700 42.24300
H  -5.96400 17.80000 47.09200
H  -4.26100 17.99600 46.81900
H  -4.91200 16.33600 47.21700

