158

Mg 9.58800 3.13900 27.39500
C  10.83700 1.51900 30.31200
C  7.69800 5.10500 29.35600
C  8.12900 4.20900 24.61300
C  11.02200 0.41200 25.56200
N  9.23600 3.19600 29.57700
C  9.94300 2.52700 30.60600
C  9.49900 3.09300 32.05900
C  8.25800 3.95500 31.71500
C  8.44700 4.16300 30.12400
C  6.89700 3.35600 32.18400
C  10.76800 3.83300 32.70500
C  11.20500 3.22300 34.06200
H  10.23500 2.84300 35.18100
N  8.23100 4.55300 27.06900
C  7.65500 5.36400 27.99400
C  6.96000 6.45200 27.33400
C  6.85200 6.10100 25.93700
C  7.72900 4.88100 25.80100
C  6.37400 7.70800 28.01700
C  6.10700 6.75300 24.81700
O  6.02300 6.37300 23.64600
C  5.42600 8.06400 25.07600
N  9.68200 2.44900 25.39400
C  8.99400 3.11800 24.42800
C  9.13500 2.42300 23.06300
C  10.24700 1.44600 23.31400
C  10.40700 1.42700 24.81500
C  7.78100 1.71500 22.62500
C  11.57200 1.90900 22.58500
C  11.88800 1.17200 21.22000
N  10.74900 1.41800 27.78600
C  11.23600 0.43200 26.96700
C  11.97000 -0.62100 27.70900
C  11.89300 -0.21200 29.03600
C  11.09400 1.00900 29.05900
C  12.69900 -1.88200 27.11000
C  12.28900 -0.49900 30.43000
O  12.97200 -1.39800 30.89500
C  11.55100 0.60800 31.31100
C  10.76500 -0.07600 32.40600
O  9.61900 -0.47300 32.33700
O  11.58800 -0.27400 33.51400
C  11.04000 -0.93300 34.69500
H  7.18900 5.77900 30.04800
H  7.86000 4.52800 23.60400
H  11.41400 -0.51200 25.13100
H  9.13400 2.23900 32.63000
H  8.37100 4.94200 32.16400
H  6.91300 2.27700 32.33300
H  6.06000 3.57500 31.52100
H  6.62400 3.90200 33.08800
H  10.55000 4.88500 32.88800
H  11.55900 3.88700 31.95600
H  11.93400 3.98600 34.33700
H  11.80300 2.35400 33.78700
H  5.28700 7.76800 28.07500
H  6.59400 8.57200 27.39100
H  6.86300 7.75500 28.99000
H  6.03100 8.90600 25.41200
H  4.65600 7.81900 25.80700
H  4.82900 8.35200 24.21100
H  9.39700 3.23100 22.38000
H  9.90200 0.45000 23.03800
H  7.22400 2.51500 22.13900
H  7.12700 1.46400 23.46000
H  7.93600 0.90400 21.91400
H  12.34400 1.53500 23.25700
H  11.67800 2.98000 22.41000
H  12.07700 1.98500 20.51900
H  11.09500 0.58700 20.75400
H  12.80600 0.59600 21.33700
H  12.07300 -2.31100 26.32700
H  12.81000 -2.66100 27.86400
H  13.68300 -1.58400 26.74800
H  12.35200 1.16900 31.79200
H  10.24100 -0.35000 35.15300
H  11.89600 -1.18300 35.32300
H  10.56100 -1.84100 34.32900
Mg 17.52800 -2.28100 27.26500
C  16.68700 -0.40500 30.07400
C  19.47900 -4.23900 29.32800
C  18.93600 -3.79600 24.41800
C  16.02200 0.08700 25.22100
N  18.17100 -2.09800 29.43100
C  17.53000 -1.46200 30.44300
C  17.97900 -1.90200 31.86000
C  18.98900 -3.06800 31.54000
C  18.86300 -3.18300 29.99100
C  20.39500 -2.65200 31.97200
C  16.79700 -2.32100 32.74200
C  16.91100 -1.73900 34.15300
H  18.23100 -1.41800 34.76900
N  18.82500 -3.86600 26.89700
C  19.54000 -4.54100 27.89300
C  20.35900 -5.64500 27.26700
C  20.07700 -5.62200 25.86700
C  19.25300 -4.39000 25.65400
C  21.14700 -6.63200 28.05300
C  20.53700 -6.53500 24.73000
O  20.10200 -6.35900 23.57000
C  21.37500 -7.78700 24.99100
N  17.38700 -1.99700 25.07800
C  18.15300 -2.64500 24.15600
C  17.98000 -1.95200 22.76300
C  17.02200 -0.77900 23.05900
C  16.79600 -0.92600 24.54800
C  19.38200 -1.61200 22.13600
C  15.72200 -0.67000 22.15600
C  14.56100 -1.51500 22.71700
N  16.39300 -0.65000 27.51100
C  15.78200 0.20600 26.61900
C  15.00000 1.21200 27.33800
C  15.39500 0.98300 28.66300
C  16.27500 -0.10400 28.73800
C  14.02900 2.15200 26.67100
C  15.09500 1.47900 30.03200
O  14.25500 2.30500 30.40700
C  15.97600 0.59800 30.98600
C  16.85000 1.42800 31.85500
O  17.88900 1.94900 31.52100
O  16.42100 1.51900 33.14400
C  17.12500 2.61700 33.91500
H  20.08600 -4.92100 29.92600
H  19.43000 -4.22800 23.54600
H  15.68700 0.86300 24.52900
H  18.38900 -0.99800 32.31100
H  18.85700 -4.00100 32.08800
H  21.00700 -2.80900 31.08400
H  20.66900 -3.26600 32.83000
H  20.50300 -1.60400 32.24900
H  16.65200 -3.39700 32.83500
H  15.94200 -1.83100 32.27500
H  16.31600 -2.39800 34.78500
H  16.28100 -0.85500 34.05400
H  20.50400 -7.46100 28.34700
H  21.52400 -6.14600 28.95300
H  21.97300 -7.11500 27.53100
H  20.87400 -8.48200 25.66500
H  22.32500 -7.44100 25.39600
H  21.66600 -8.21300 24.03100
H  17.45600 -2.71800 22.19000
H  17.45600 0.19900 22.85500
H  19.55200 -2.34900 21.35100
H  20.09100 -1.65500 22.96300
H  19.42000 -0.60900 21.71200
H  15.97700 -0.98200 21.14300
H  15.33300 0.34600 22.10700
H  13.86700 -0.79800 23.15700
H  14.84800 -2.29400 23.42300
H  14.00900 -1.92700 21.87300
H  13.56100 1.61500 25.84600
H  14.57900 3.00400 26.27100
H  13.26200 2.41200 27.40100
H  15.27800 0.10900 31.66500
H  16.64400 2.84000 34.86700
H  17.09000 3.52800 33.31700
H  18.17100 2.31700 33.97300

