158

Mg 42.90800 4.29200 48.26600
C  40.96200 6.93000 47.71900
C  40.20200 2.16900 47.95500
C  44.97200 1.65900 48.03500
C  45.83300 6.37700 47.51300
N  40.83000 4.52700 47.60200
C  40.25100 5.72800 47.51300
C  38.76300 5.59800 47.16800
C  38.48900 4.09700 47.63900
C  39.95600 3.56900 47.77900
C  37.75800 3.89800 48.99900
C  38.29000 5.80800 45.68600
C  37.08000 6.78400 45.54800
H  36.55200 6.76800 44.15200
N  42.61300 2.30600 48.13900
C  41.42600 1.60100 48.03300
C  41.64100 0.20900 48.09700
C  43.05300 -0.01600 48.30800
C  43.64100 1.34300 48.17500
C  40.59400 -0.83200 47.68700
C  43.70000 -1.37600 48.38900
O  43.07000 -2.41500 48.57100
C  45.16600 -1.56600 48.38300
N  45.13700 4.09600 47.75000
C  45.69000 2.88300 47.80700
C  47.21700 2.91800 47.62600
C  47.42900 4.41000 47.41600
C  46.09900 5.00300 47.57800
C  47.89900 2.41600 48.92800
C  48.07800 4.77500 46.03100
C  49.53400 4.48600 45.89600
N  43.40000 6.28700 48.04900
C  44.54300 6.99100 47.78500
C  44.20900 8.42300 47.74500
C  42.78900 8.42000 47.80400
C  42.37200 7.11000 47.88200
C  45.16700 9.61600 47.63300
C  41.58500 9.31800 47.66800
O  41.41100 10.55300 47.64200
C  40.38400 8.34400 47.63800
C  39.60600 8.58700 48.83400
O  39.99700 8.35700 49.98400
O  38.27900 8.72100 48.40000
C  37.33600 8.57400 49.52700
H  39.31000 1.54300 48.02100
H  45.68400 0.84800 47.86900
H  46.66300 7.05400 47.29900
H  38.29500 6.22400 47.92700
H  37.93100 3.52500 46.89800
H  37.48900 4.87900 49.39100
H  38.35400 3.31200 49.69900
H  36.86400 3.36500 48.67700
H  38.00200 4.90100 45.15500
H  39.12900 6.17100 45.09200
H  37.45800 7.75000 45.88400
H  36.32600 6.41600 46.24400
H  40.24700 -1.47200 48.49800
H  41.00600 -1.41200 46.86100
H  39.74400 -0.37700 47.17800
H  45.67300 -0.89000 49.07200
H  45.61900 -1.32000 47.42200
H  45.47800 -2.59200 48.57800
H  47.39500 2.27700 46.76300
H  48.03600 4.92900 48.15700
H  47.17500 2.32300 49.73700
H  48.68400 3.00300 49.40300
H  48.26200 1.41000 48.71700
H  47.90200 5.82200 45.78200
H  47.53000 4.18500 45.29700
H  50.06300 5.43400 45.79900
H  49.69900 3.88800 45.00000
H  49.86900 3.95500 46.78700
H  45.13500 10.11400 46.66400
H  46.12800 9.13600 47.81600
H  44.99300 10.35400 48.41600
H  39.77200 8.59000 46.77000
H  36.94100 9.50300 49.93700
H  37.64600 7.96700 50.37700
H  36.62700 7.90900 49.03500
Mg 39.94600 8.84600 30.04800
C  41.32300 9.68000 33.05500
C  37.29000 7.18500 31.95100
C  38.41000 8.12200 27.17700
C  42.54800 10.13600 28.37300
N  39.41600 8.38100 32.29300
C  40.14300 8.92300 33.29600
C  39.36100 8.74500 34.61700
C  38.00200 8.08100 34.24100
C  38.26800 7.79900 32.76300
C  37.72100 6.72700 35.01800
C  39.05500 10.11500 35.34100
C  39.01700 10.04100 36.90000
H  39.59700 11.20300 37.76300
N  38.18700 7.69100 29.57400
C  37.25800 7.15100 30.50600
C  36.19700 6.61000 29.64300
C  36.50000 6.81600 28.31900
C  37.66200 7.66200 28.34300
C  35.04500 5.84800 30.15500
C  35.84000 6.30200 27.02000
O  36.18200 6.51200 25.81900
C  34.60400 5.38900 27.16800
N  40.43400 9.04100 28.08600
C  39.57600 8.82000 27.00700
C  40.23800 9.21900 25.64900
C  41.51900 9.90900 26.14100
C  41.56000 9.58700 27.56900
C  40.39000 8.01000 24.73500
C  41.61900 11.42500 25.83700
C  40.32200 12.26400 25.83000
N  41.63500 9.62700 30.50900
C  42.65900 10.14200 29.75400
C  43.72900 10.66800 30.58600
C  43.21800 10.58200 31.86300
C  41.93500 9.98600 31.78000
C  45.08100 11.12100 30.18300
C  43.47500 10.85800 33.31400
O  44.43400 11.41500 33.85800
C  42.27900 10.31800 34.08100
C  42.85800 9.39500 35.03000
O  43.74600 8.58800 34.79300
O  42.15700 9.40600 36.14200
C  42.58400 8.56100 37.23400
H  36.54100 6.59600 32.48500
H  37.90400 8.00000 26.21700
H  43.42500 10.46000 27.80900
H  39.90700 8.03100 35.23400
H  37.17300 8.77800 34.11500
H  37.95500 5.82800 34.44700
H  36.71200 6.81000 35.42100
H  38.43700 6.58600 35.82800
H  38.09500 10.60600 35.18000
H  39.82200 10.84100 35.06900
H  39.47100 9.13200 37.29800
H  37.94500 10.04400 37.09600
H  34.88700 6.14400 31.19200
H  35.33000 4.79800 30.20900
H  34.07200 6.11000 29.74000
H  34.63100 4.64800 27.96800
H  34.50000 4.86500 26.21800
H  33.69400 5.98200 27.25300
H  39.51200 9.93500 25.26400
H  42.39100 9.39400 25.73900
H  40.21300 7.10800 25.32100
H  41.42400 8.04200 24.39200
H  39.76100 8.04500 23.84500
H  42.08200 11.48100 24.85200
H  42.24400 12.02300 26.50000
H  40.58900 13.25700 26.19200
H  39.56400 11.93000 26.53800
H  39.98400 12.48100 24.81700
H  45.62800 10.42000 29.55100
H  45.58000 11.38300 31.11600
H  44.94200 12.13800 29.81900
H  41.81500 11.11500 34.66300
H  42.12100 7.61700 36.94800
H  42.11400 8.89800 38.15900
H  43.65500 8.65500 37.41500

