158

Mg 47.14900 24.77800 28.84900
C  47.76100 26.97600 31.49000
C  45.66600 22.62400 31.17300
C  46.43400 22.56400 26.38500
C  48.84500 26.80700 26.72600
N  46.89400 24.75200 31.13300
C  47.11100 25.84900 31.94500
C  46.73800 25.58300 33.38100
C  46.14000 24.18100 33.26200
C  46.17600 23.84200 31.79700
C  46.91700 23.12700 34.16300
C  45.64800 26.64800 33.91100
C  46.03200 27.48600 35.13900
H  45.11500 27.48800 36.43000
N  46.17000 22.84500 28.79000
C  45.65400 22.12500 29.80900
C  45.02600 20.89200 29.31300
C  45.21200 20.91200 27.89700
C  45.99000 22.14000 27.61600
C  44.18400 19.92300 30.21800
C  44.72000 19.98300 26.80800
O  44.93600 20.09700 25.56300
C  43.70700 18.91300 27.18900
N  47.46400 24.73600 26.90600
C  47.18800 23.72600 26.04800
C  47.69900 23.94900 24.63600
C  48.13600 25.41100 24.72800
C  48.19900 25.64100 26.21400
C  48.77600 22.94400 24.06600
C  47.19200 26.45300 23.96700
C  45.79200 26.53200 24.55600
N  48.10200 26.50600 29.00500
C  48.77500 27.28300 28.05400
C  49.29400 28.51600 28.64800
C  48.93600 28.41200 30.01200
C  48.22100 27.12600 30.21200
C  50.00600 29.65100 27.91100
C  48.92200 29.09700 31.23800
O  49.26400 30.19000 31.44200
C  48.19500 28.19600 32.29200
C  49.22100 27.96100 33.34100
O  50.09700 27.09500 33.32200
O  49.12500 28.95800 34.30200
C  50.05500 28.82600 35.44200
H  45.22000 21.91100 31.87000
H  46.33200 21.91100 25.51600
H  49.41100 27.42100 26.02300
H  47.65900 25.61400 33.96500
H  45.10300 24.20300 33.59800
H  46.92200 22.16400 33.65200
H  46.35400 23.02700 35.09000
H  47.91300 23.49200 34.41400
H  44.64400 26.23800 34.01800
H  45.64900 27.33200 33.06200
H  45.92200 28.51800 34.80500
H  47.08000 27.29400 35.37200
H  43.23900 19.75000 29.70400
H  43.90300 20.36900 31.17300
H  44.71900 18.98500 30.36400
H  42.84100 19.24900 27.75900
H  44.18400 18.04100 27.63700
H  43.26100 18.55800 26.26000
H  46.83200 23.83700 23.98500
H  49.16800 25.43800 24.37700
H  48.56200 21.94900 24.45700
H  49.82000 23.23200 24.18700
H  48.57900 22.94500 22.99400
H  47.01100 26.01100 22.98700
H  47.71100 27.41100 23.96700
H  45.82600 27.30600 25.32300
H  45.44100 25.55500 24.88900
H  45.10800 26.88700 23.78500
H  49.78000 29.67700 26.84500
H  51.08600 29.56800 28.03400
H  49.70600 30.61900 28.31100
H  47.38000 28.79400 32.69800
H  49.67600 28.06800 36.12800
H  50.19000 29.78500 35.94200
H  51.05700 28.51700 35.14500
Mg 16.64500 53.54600 25.56500
C  17.92300 51.81800 28.39700
C  14.31300 54.85300 27.56500
C  15.11500 54.57700 22.83800
C  19.01200 51.71600 23.62500
N  16.23600 53.41500 27.74000
C  16.92600 52.73000 28.72500
C  16.48300 53.26800 30.10000
C  15.17200 53.97200 29.75900
C  15.20900 54.12100 28.26700
C  13.91300 53.26100 30.39700
C  17.55500 54.12900 30.82400
C  17.96700 53.76400 32.31400
H  17.01600 52.86900 33.08100
N  15.00700 54.71800 25.22900
C  14.15800 55.12600 26.18000
C  13.01800 55.81300 25.58800
C  13.27600 55.82800 24.19200
C  14.49800 55.03700 24.03400
C  11.89800 56.24400 26.53300
C  12.43100 56.39300 23.06300
O  12.80500 56.23400 21.91200
C  11.18100 57.29600 23.35100
N  17.19000 53.41100 23.53800
C  16.35400 53.89500 22.55400
C  16.67200 53.37400 21.12700
C  18.05200 52.65300 21.39100
C  18.17900 52.63800 22.93700
C  15.55800 52.45100 20.53100
C  19.25900 53.42400 20.80800
C  19.65200 53.08000 19.40600
N  18.10900 51.95300 25.87200
C  19.00900 51.41300 25.00800
C  19.97300 50.54700 25.78200
C  19.49600 50.64100 27.09500
C  18.41700 51.53300 27.12900
C  21.16700 49.92600 25.21200
C  19.84000 50.32800 28.48600
O  20.74300 49.63800 28.96900
C  18.82400 51.15900 29.40900
C  18.10300 50.21100 30.28800
O  16.99300 49.76000 30.07900
O  19.00400 49.74200 31.25900
C  18.54500 48.73900 32.18000
H  13.58100 55.23300 28.28100
H  14.63800 54.88800 21.90600
H  19.81000 51.30600 23.00200
H  16.31000 52.39500 30.73000
H  15.12200 54.97900 30.17200
H  14.17700 52.26700 30.75700
H  13.20600 53.01200 29.60500
H  13.34900 53.94600 31.02900
H  17.21100 55.16100 30.89800
H  18.46100 54.15600 30.21900
H  18.06600 54.71800 32.83100
H  19.00000 53.42600 32.40200
H  11.62700 55.55900 27.33700
H  10.96800 56.53100 26.04200
H  12.27000 57.20000 26.90200
H  11.30200 57.92400 24.23400
H  10.37700 56.62100 23.64300
H  10.92900 58.00000 22.55800
H  16.71900 54.29200 20.54100
H  17.94600 51.62700 21.04100
H  15.30200 52.84000 19.54600
H  14.56800 52.50300 20.98300
H  15.85500 51.40900 20.40400
H  20.14200 53.39800 21.44600
H  19.00700 54.48300 20.86500
H  20.73900 53.16700 19.38600
H  19.19400 53.81200 18.74100
H  19.46300 52.07000 19.04300
H  21.91400 50.00600 26.00200
H  21.60100 50.39700 24.33000
H  20.89500 48.91000 24.92900
H  19.44400 51.92000 29.88300
H  18.06900 49.15000 33.07100
H  19.42000 48.18300 32.51600
H  17.82200 48.08300 31.69500

