158

Mg 47.75300 24.22200 28.06500
C  48.23100 26.48400 30.81500
C  46.79100 21.88500 30.32900
C  47.42800 22.08600 25.47100
C  48.92500 26.74500 25.97700
N  47.52600 24.23800 30.30500
C  47.72200 25.22700 31.18700
C  47.21000 24.78700 32.58700
C  46.77700 23.27700 32.40700
C  47.07400 23.11700 30.87800
C  47.60800 22.23700 33.28600
C  46.13700 25.79200 33.12700
C  46.42300 26.26700 34.60700
H  46.28300 25.15200 35.62200
N  47.27700 22.12600 27.93900
C  46.86500 21.40200 28.99300
C  46.42200 20.09400 28.50800
C  46.52200 20.22200 27.10700
C  47.10400 21.47600 26.76000
C  46.01800 18.97400 29.31800
C  46.07400 19.15400 26.02200
O  46.38100 19.30000 24.83500
C  45.20100 18.04200 26.40100
N  48.33600 24.31000 26.02000
C  48.06300 23.27400 25.15800
C  48.30800 23.77900 23.69900
C  48.54800 25.29800 23.83300
C  48.65400 25.45100 25.36600
C  49.44600 23.02000 22.95200
C  47.39100 26.13700 23.23700
C  45.92600 25.74700 23.53700
N  48.38500 26.22400 28.29000
C  48.89900 27.09000 27.38100
C  49.24000 28.32400 27.97400
C  48.99900 28.13300 29.31200
C  48.50800 26.89200 29.47100
C  49.89400 29.51800 27.33800
C  49.05700 28.73700 30.57200
O  49.49300 29.84100 30.88600
C  48.44100 27.67400 31.63000
C  49.39900 27.43200 32.81700
O  50.21600 26.59500 33.06100
O  49.16400 28.53200 33.71000
C  49.75100 28.48900 35.04900
H  46.51700 21.09600 31.03300
H  47.36400 21.54400 24.52600
H  49.17800 27.52400 25.25600
H  48.11000 24.86600 33.19800
H  45.72600 23.11200 32.64600
H  46.92000 21.59100 33.83200
H  48.22800 22.70700 34.05000
H  48.32300 21.63300 32.72700
H  45.15400 25.32400 33.19300
H  46.06300 26.68300 32.50300
H  45.69400 27.07100 34.70700
H  47.43500 26.66800 34.66400
H  46.41700 18.92400 30.33100
H  46.45400 18.06000 28.91500
H  44.95800 18.90300 29.56300
H  44.50300 18.41000 27.15200
H  45.69900 17.18400 26.85300
H  44.70100 17.80800 25.46100
H  47.34800 23.60500 23.21400
H  49.45300 25.69400 23.37200
H  49.97400 22.43400 23.70400
H  50.22400 23.74700 22.71700
H  49.30200 22.32900 22.12100
H  47.59300 25.86500 22.20100
H  47.67200 27.16900 23.44900
H  46.01800 25.05200 24.37100
H  45.49800 25.35600 22.61400
H  45.46800 26.66700 23.90000
H  50.67600 29.16000 26.66800
H  50.33000 30.06800 28.17200
H  49.15100 29.95700 26.67300
H  47.52200 28.14200 31.98500
H  50.82800 28.33900 34.97300
H  49.27300 27.75500 35.69800
H  49.55800 29.43400 35.55600
Mg -3.35400 34.74800 26.88600
C  -4.88400 33.02500 29.49800
C  -1.86500 36.78400 29.28300
C  -2.45200 36.97800 24.45400
C  -5.61500 33.20600 24.61000
N  -3.50000 34.98700 29.18000
C  -3.97600 33.96900 29.97300
C  -3.63400 34.26200 31.43500
C  -2.77600 35.54800 31.42000
C  -2.69200 35.87600 29.87900
C  -3.22400 36.68300 32.32000
C  -2.96500 33.00900 32.13400
C  -3.53900 32.68800 33.49000
H  -2.58500 33.12000 34.59700
N  -2.25800 36.47000 26.83800
C  -1.67400 37.11900 27.95500
C  -0.80900 38.21500 27.46600
C  -0.92800 38.20900 26.05100
C  -1.95300 37.22100 25.70300
C  0.00200 39.05700 28.41700
C  -0.15100 39.14800 25.03600
O  -0.21200 39.04200 23.81900
C  0.86100 40.03400 25.49400
N  -3.90200 35.01200 24.85200
C  -3.39500 35.99700 24.01700
C  -4.12900 36.02400 22.62500
C  -5.00300 34.69900 22.67100
C  -4.84100 34.25600 24.12100
C  -4.91700 37.39200 22.60300
C  -4.47000 33.63000 21.66300
C  -3.20700 32.69100 22.03500
N  -4.79100 33.19500 26.91300
C  -5.68800 32.70200 25.95000
C  -6.40700 31.63900 26.56100
C  -6.08900 31.72400 27.89300
C  -5.18700 32.74300 28.11700
C  -7.38300 30.73600 25.83500
C  -6.36600 31.09400 29.16800
O  -7.00600 30.13700 29.34700
C  -5.63700 31.91000 30.30100
C  -6.71900 32.51600 31.11300
O  -7.72800 33.09000 30.75700
O  -6.46200 32.24400 32.37300
C  -7.50200 32.48600 33.43700
H  -1.19200 37.30500 29.96700
H  -2.18600 37.73500 23.71300
H  -6.39300 32.82100 23.94800
H  -4.55700 34.45700 31.98100
H  -1.74100 35.30200 31.66000
H  -4.10100 36.33300 32.86400
H  -3.41700 37.63600 31.82900
H  -2.35900 36.80900 32.97200
H  -1.95000 33.35900 32.32300
H  -2.81900 32.08900 31.56700
H  -3.64200 31.60400 33.53900
H  -4.49100 33.21000 33.59000
H  1.06300 39.08500 28.17100
H  -0.00200 38.86200 29.49000
H  -0.28900 40.08500 28.20100
H  1.42200 40.39500 24.63100
H  1.63200 39.47800 26.02700
H  0.33700 40.73600 26.14300
H  -3.32600 36.05700 21.88900
H  -6.04700 34.98400 22.53800
H  -5.95000 37.19700 22.31700
H  -4.45800 38.07000 21.88300
H  -5.08800 37.88400 23.56100
H  -4.25800 34.21600 20.76900
H  -5.41100 33.11400 21.47500
H  -2.71600 33.07000 22.93200
H  -2.45700 32.67000 21.24500
H  -3.61500 31.71900 22.31300
H  -8.16300 30.41900 26.52700
H  -6.91900 29.82100 25.46700
H  -7.80400 31.27100 24.98400
H  -4.97400 31.35400 30.96300
H  -6.89200 32.57300 34.33600
H  -8.18000 31.64900 33.59900
H  -8.12900 33.35800 33.25000

