158

Mg 8.97300 3.08900 28.09100
C  10.04300 1.43300 30.98800
C  7.17700 5.24400 30.01200
C  7.23200 4.05900 25.27500
C  10.14900 0.36400 26.20200
N  8.54400 3.36200 30.24000
C  9.26300 2.59400 31.19400
C  8.90700 3.07000 32.57000
C  7.99400 4.31800 32.27600
C  7.82100 4.33500 30.76700
C  6.60100 4.15600 33.00300
C  10.17900 3.40800 33.32600
C  10.30400 2.99100 34.76400
H  10.80300 4.00100 35.85400
N  7.65900 4.60400 27.62700
C  7.11600 5.41600 28.55600
C  6.24600 6.40200 27.97100
C  6.33300 6.09400 26.59200
C  7.10700 4.86000 26.39800
C  5.55600 7.49600 28.70200
C  5.57900 6.84500 25.44900
O  5.79000 6.59200 24.29800
C  4.73100 7.95700 25.72000
N  8.93100 2.45400 25.93500
C  8.07700 2.93500 25.04900
C  8.16500 2.12700 23.69500
C  9.41400 1.20900 24.04000
C  9.44100 1.32400 25.48400
C  6.87500 1.43500 23.34700
C  10.74700 1.60200 23.33500
C  11.68400 0.45100 22.87200
N  10.01200 1.35500 28.47500
C  10.45400 0.37600 27.58800
C  11.28500 -0.58300 28.31000
C  11.16600 -0.24000 29.65100
C  10.36400 0.89000 29.67700
C  12.03400 -1.67200 27.68700
C  11.51500 -0.58000 31.04200
O  12.16000 -1.50600 31.49900
C  10.78600 0.49700 31.92100
C  9.88400 -0.10200 32.95500
O  8.73000 -0.37700 32.64400
O  10.59800 -0.36100 34.07600
C  9.72600 -0.91800 35.15700
H  6.61100 5.93900 30.63600
H  6.53300 4.41000 24.51400
H  10.50200 -0.48800 25.61700
H  8.36600 2.24100 33.02500
H  8.37600 5.28800 32.59300
H  6.35800 5.09000 33.51100
H  6.47800 3.31500 33.68600
H  5.82500 4.09800 32.24000
H  10.45100 4.46300 33.35100
H  11.06500 2.95500 32.88100
H  10.99100 2.16000 34.92500
H  9.31500 2.64700 35.06400
H  5.86200 7.60600 29.74200
H  4.49300 7.25800 28.65600
H  5.52800 8.41600 28.11900
H  4.11200 7.79000 26.60200
H  4.14000 8.09000 24.81300
H  5.40200 8.76200 26.01700
H  8.27900 2.86800 22.90400
H  9.13700 0.19700 23.74500
H  7.10200 0.37900 23.19800
H  6.36400 1.61800 22.40200
H  6.16300 1.47700 24.17100
H  11.33100 2.18200 24.05000
H  10.51700 2.34600 22.57300
H  12.61600 0.48800 23.43700
H  11.99000 0.46600 21.82600
H  11.24200 -0.53600 23.01100
H  11.41000 -2.54200 27.48500
H  12.88800 -1.95100 28.30500
H  12.46900 -1.34900 26.74100
H  11.50400 0.95300 32.60200
H  9.13200 -1.74700 34.77100
H  9.03000 -0.21800 35.62000
H  10.39300 -1.37700 35.88700
Mg 47.00300 34.47000 27.27000
C  45.21900 33.11700 29.93300
C  47.62300 37.25200 29.23800
C  48.14600 36.06000 24.61200
C  45.77600 31.77100 25.27300
N  46.62100 35.03200 29.31700
C  45.90800 34.25300 30.25700
C  46.06900 34.98800 31.71000
C  46.43000 36.42100 31.32700
C  46.92300 36.21200 29.88200
C  45.27100 37.41000 31.32700
C  47.14800 34.22000 32.58000
C  46.87200 34.20100 34.12100
H  45.86200 35.20800 34.72300
N  47.81900 36.34100 27.00900
C  48.08400 37.29600 27.91500
C  48.66000 38.54600 27.30100
C  48.86700 38.26600 25.94100
C  48.27400 36.87200 25.79800
C  49.06200 39.77900 28.12200
C  49.65700 38.98900 24.85800
O  49.86900 38.50500 23.76600
C  50.30600 40.33800 25.16600
N  46.90600 33.98400 25.20900
C  47.56900 34.79500 24.29200
C  47.49400 34.11700 22.86000
C  46.93200 32.74000 23.23100
C  46.47600 32.80100 24.62600
C  46.69800 34.92200 21.81000
C  47.82000 31.47800 22.88300
C  49.21100 31.48300 23.56900
N  45.82900 32.66100 27.47900
C  45.40200 31.58500 26.61800
C  44.51100 30.71100 27.35200
C  44.45800 31.27800 28.59000
C  45.26900 32.39500 28.64900
C  43.77100 29.56100 26.74500
C  43.82900 31.11800 29.86000
O  43.11400 30.20800 30.19800
C  44.06600 32.40100 30.65800
C  44.23500 32.05100 32.02800
O  45.28500 31.72600 32.61200
O  43.00200 32.08000 32.67700
C  42.99700 31.67800 34.10200
H  47.62100 38.18100 29.81200
H  48.46600 36.42600 23.63400
H  45.34400 30.98300 24.65300
H  45.06200 34.98600 32.12700
H  47.20600 36.88200 31.93900
H  45.42300 38.24700 32.00900
H  44.36900 36.91400 31.68500
H  45.03100 37.89700 30.38200
H  48.16400 34.54800 32.35800
H  47.20900 33.28400 32.02600
H  47.71200 34.47600 34.75800
H  46.64200 33.18800 34.45300
H  48.21100 40.05400 28.74500
H  49.32400 40.66700 27.54900
H  49.94100 39.42700 28.66200
H  50.88200 40.61200 24.28200
H  50.91900 40.31700 26.06700
H  49.49700 41.06000 25.27700
H  48.54300 34.00900 22.58700
H  46.05200 32.46600 22.65000
H  45.90600 34.24100 21.49600
H  47.27500 35.10200 20.90300
H  46.30100 35.78800 22.34000
H  47.86100 31.26400 21.81500
H  47.28700 30.55900 23.12900
H  50.03800 31.67600 22.88500
H  49.27700 30.54600 24.12400
H  49.20000 32.22000 24.37200
H  44.46000 29.10400 26.03400
H  42.83200 29.80200 26.24600
H  43.49400 28.81400 27.48800
H  43.18900 33.00400 30.42000
H  43.45600 32.42900 34.74600
H  43.50700 30.72000 34.20000
H  41.95900 31.55200 34.40900

