158

Mg 47.01400 16.57500 28.21100
C  44.95900 16.07500 31.16900
C  49.10400 18.41900 30.12000
C  48.54600 17.56000 25.46100
C  44.45700 15.19700 26.32100
N  46.89700 17.23800 30.43200
C  46.06300 16.85800 31.42000
C  46.67500 17.18000 32.78800
C  47.83900 18.17800 32.39100
C  47.95000 18.02600 30.86900
C  47.54700 19.67000 32.81300
C  47.12200 15.98400 33.61900
C  47.54800 16.21200 35.09500
H  46.89700 17.37600 35.80700
N  48.79100 17.63500 27.86500
C  49.55100 18.26200 28.82000
C  50.73800 18.71900 28.20400
C  50.52100 18.66200 26.78500
C  49.24200 17.93700 26.62500
C  51.93600 19.04300 29.07100
C  51.29300 19.14900 25.64400
O  50.94800 18.99400 24.46000
C  52.49500 19.86400 25.89300
N  46.59800 16.30000 26.23700
C  47.41100 16.81300 25.31300
C  46.78100 16.70400 23.88900
C  45.56800 15.63500 24.13300
C  45.46900 15.71900 25.64200
C  46.31600 17.94800 23.18900
C  45.91500 14.25400 23.66100
C  45.31800 13.97300 22.26800
N  45.12900 15.75500 28.60800
C  44.21400 15.21300 27.70900
C  43.09000 14.64900 28.42800
C  43.38300 14.90500 29.80300
C  44.59500 15.65300 29.83900
C  41.88200 14.04100 27.75800
C  42.82500 14.83900 31.15200
O  41.79000 14.25300 31.48200
C  43.87600 15.57100 32.14500
C  43.10800 16.70400 32.83800
O  42.47500 17.55400 32.26200
O  43.33100 16.66900 34.19700
C  42.65200 17.66300 34.98100
H  49.78300 18.93500 30.80200
H  48.82600 18.09300 24.55000
H  43.71900 14.76800 25.63900
H  45.89300 17.70000 33.34200
H  48.81600 17.94100 32.81200
H  46.76100 19.73100 33.56600
H  47.27700 20.26000 31.93800
H  48.41500 20.13400 33.28100
H  47.83100 15.47100 32.96800
H  46.27800 15.29300 33.62500
H  48.63500 16.26500 35.03600
H  47.44800 15.38500 35.79800
H  51.97100 18.51300 30.02200
H  52.04600 20.11300 29.25000
H  52.82100 18.63700 28.58200
H  53.37100 19.29200 26.19900
H  52.21300 20.49800 26.73300
H  52.86100 20.43700 25.04100
H  47.56600 16.27600 23.26400
H  44.60400 16.00400 23.78400
H  45.33900 17.71300 22.76700
H  47.05500 18.14000 22.41100
H  46.37200 18.79500 23.87300
H  45.60500 13.46300 24.34400
H  47.00300 14.23400 23.60600
H  46.01000 14.10500 21.43700
H  44.58700 14.74600 22.03100
H  44.83100 13.00100 22.18000
H  41.70400 14.66800 26.88500
H  40.94000 14.20800 28.28100
H  42.05100 12.99900 27.48300
H  44.28200 14.87100 32.87500
H  43.10900 17.49700 35.95700
H  41.63600 17.27700 35.06700
H  42.65300 18.67100 34.56500
Mg -10.74900 40.59500 41.25300
C  -9.62500 37.42400 40.06800
C  -7.99900 41.96800 39.48800
C  -12.31100 43.54400 41.01900
C  -13.69700 39.00800 42.19500
N  -9.01400 39.77000 39.90800
C  -8.75800 38.44800 39.64100
C  -7.41700 38.35200 38.97400
C  -6.81600 39.76600 38.94500
C  -8.00700 40.60000 39.43700
C  -5.45000 40.03400 39.72800
C  -7.51100 37.61100 37.65200
C  -6.54900 36.38600 37.40400
H  -5.59600 36.51200 36.14100
N  -10.21000 42.51200 40.50700
C  -9.01600 42.82400 39.93500
C  -8.97000 44.27500 39.77000
C  -10.23600 44.80400 40.12500
C  -10.96900 43.59600 40.57300
C  -7.72500 44.98300 39.22900
C  -10.58400 46.26500 40.11000
O  -9.83900 47.15300 39.67900
C  -11.97700 46.80200 40.49800
N  -12.74100 41.16200 41.38700
C  -13.14900 42.46500 41.36800
C  -14.63700 42.61900 41.82200
C  -15.08800 41.14700 42.06400
C  -13.76700 40.36400 41.87800
C  -14.84300 43.48200 43.04700
C  -16.21800 40.57600 41.13700
C  -15.88900 39.63400 40.00500
N  -11.51000 38.65700 41.25100
C  -12.66500 38.14200 41.77500
C  -12.64300 36.68900 41.84700
C  -11.48100 36.37000 41.17200
C  -10.80600 37.61800 40.79700
C  -13.70200 35.68100 42.29500
C  -10.72100 35.31900 40.67500
O  -10.86900 34.06100 40.85700
C  -9.56600 35.89900 39.83200
C  -8.37200 35.18800 40.35100
O  -7.95200 35.29100 41.48700
O  -7.97200 34.28600 39.41700
C  -7.00500 33.29300 39.85400
H  -7.01800 42.30000 39.14100
H  -12.83000 44.49000 40.85200
H  -14.60100 38.59600 42.64900
H  -6.84000 37.69200 39.62100
H  -6.61200 40.07700 37.92000
H  -5.13300 39.20100 40.35600
H  -5.54200 40.92600 40.34700
H  -4.54700 40.20600 39.14300
H  -7.40100 38.40900 36.91800
H  -8.54400 37.28900 37.51700
H  -7.06300 35.46600 37.12600
H  -5.98400 36.15700 38.30800
H  -7.79500 45.16600 38.15700
H  -6.89900 44.29400 39.40600
H  -7.48500 45.92400 39.72400
H  -12.12800 46.63300 41.56400
H  -12.56700 46.14800 39.85600
H  -12.14400 47.84300 40.22200
H  -15.15600 43.00600 40.94500
H  -15.30800 40.95100 43.11300
H  -15.51100 44.28600 42.73900
H  -13.87500 43.84500 43.39400
H  -15.47400 42.91000 43.72700
H  -16.71400 41.48400 40.79700
H  -16.95500 40.06500 41.75700
H  -16.39800 38.69400 40.21300
H  -14.84700 39.34300 39.87300
H  -16.24000 40.06900 39.06900
H  -13.93800 36.02800 43.30100
H  -13.35600 34.65000 42.22000
H  -14.54300 35.89600 41.63500
H  -9.74500 35.84400 38.75800
H  -6.06500 33.84000 39.92600
H  -6.80800 32.46400 39.17400
H  -7.36300 32.83100 40.77500

