158

Mg 43.00400 41.74400 26.09100
C  41.66200 43.97700 28.48500
C  44.35000 39.77300 28.64200
C  44.41000 39.77100 23.75000
C  42.01100 43.95300 23.54500
N  42.88000 41.93000 28.28800
C  42.20400 42.79900 29.09400
C  42.36500 42.49300 30.58800
C  43.53900 41.43600 30.51200
C  43.63800 40.98500 29.06000
C  44.89800 41.85300 31.04100
C  41.03200 42.07000 31.27100
C  41.13800 41.61000 32.76900
H  40.62600 42.59800 33.83700
N  44.22000 39.98700 26.18100
C  44.55300 39.29300 27.29300
C  45.30300 38.13400 26.91200
C  45.32900 38.06300 25.47500
C  44.58500 39.27100 25.07400
C  46.04900 37.24900 27.89800
C  45.87600 37.04900 24.60100
O  45.75900 37.10500 23.35000
C  46.29000 35.75600 25.20300
N  43.25100 41.93800 24.00400
C  43.80900 40.99600 23.27400
C  43.79500 41.32000 21.72200
C  43.01100 42.61900 21.67100
C  42.74100 42.88000 23.12400
C  45.22200 41.48100 21.30100
C  41.76000 42.52900 20.79100
C  40.37500 42.31000 21.41300
N  42.10000 43.58800 25.97500
C  41.68800 44.30000 24.89900
C  41.08700 45.54900 25.36400
C  41.01200 45.46000 26.71700
C  41.58400 44.21600 27.05600
C  40.70400 46.69600 24.52100
C  40.55100 46.07700 27.94300
O  40.00200 47.11800 28.15400
C  40.91300 45.13600 29.08900
C  41.69200 45.88200 30.08500
O  42.75000 46.43800 29.91700
O  41.01400 45.87900 31.24600
C  41.76400 46.35500 32.42000
H  44.63600 39.17200 29.50800
H  44.80400 39.09100 22.99300
H  41.56300 44.55700 22.75300
H  42.66200 43.38500 31.14000
H  43.33000 40.49600 31.02300
H  45.60400 41.79800 30.21300
H  45.16000 41.12200 31.80600
H  44.89900 42.88400 31.39600
H  40.62800 41.23500 30.69900
H  40.43000 42.95900 31.08500
H  42.09700 41.19100 33.07300
H  40.46300 40.75800 32.85200
H  46.96300 36.94800 27.38700
H  45.42600 36.41800 28.23000
H  46.29600 37.80700 28.80100
H  45.48600 35.28000 25.76200
H  47.22400 35.93200 25.73700
H  46.72000 35.15000 24.40600
H  43.38600 40.44000 21.22800
H  43.51400 43.53200 21.35100
H  45.81100 41.88600 22.12400
H  45.25200 42.26000 20.53800
H  45.68000 40.58300 20.88700
H  41.82600 41.61900 20.19400
H  41.68400 43.33700 20.06300
H  39.67800 43.11100 21.16600
H  40.29800 42.08500 22.47700
H  39.92400 41.44100 20.93500
H  41.33600 47.54500 24.78000
H  39.64900 46.94000 24.64200
H  40.95800 46.51900 23.47600
H  39.99400 44.76400 29.54100
H  42.74500 45.88200 32.39100
H  41.22400 46.11700 33.33600
H  41.80400 47.43600 32.55200
Mg -1.64400 34.27800 26.78900
C  -3.29600 32.93800 29.58700
C  -0.04100 36.39900 29.00400
C  -0.41300 35.86300 24.15800
C  -3.63200 32.36500 24.70600
N  -1.74100 34.63400 29.02900
C  -2.38900 33.92800 29.96000
C  -1.97600 34.24000 31.41200
C  -1.08900 35.52700 31.18600
C  -0.94800 35.53500 29.62800
C  -1.48900 36.88000 31.91400
C  -1.26100 32.96000 32.01200
C  -2.08300 32.24300 33.14800
H  -1.42700 31.97800 34.54200
N  -0.32100 35.78500 26.57700
C  0.21000 36.55100 27.56200
C  1.19900 37.41600 26.97600
C  1.13300 37.28500 25.59200
C  0.05200 36.34400 25.41500
C  2.14000 38.28700 27.81000
C  1.88800 38.10200 24.55800
O  1.62400 38.02600 23.34100
C  2.98600 39.04500 24.92600
N  -1.99200 34.14300 24.68500
C  -1.32600 34.85600 23.80700
C  -1.63500 34.41700 22.35400
C  -2.70900 33.26900 22.55300
C  -2.76600 33.16200 24.06000
C  -2.13400 35.50500 21.43400
C  -2.29400 31.97900 21.74200
C  -1.21000 31.12900 22.42100
N  -3.12800 32.95700 27.02700
C  -3.85600 32.17200 26.08300
C  -4.73500 31.33000 26.72400
C  -4.50900 31.53600 28.08900
C  -3.61100 32.60000 28.24200
C  -5.75700 30.49200 25.93400
C  -4.94700 31.10000 29.39200
O  -5.82700 30.30300 29.76100
C  -4.20200 31.99600 30.37200
C  -5.23800 32.76700 31.11600
O  -5.72300 33.81900 30.78500
O  -5.50600 32.12000 32.29900
C  -6.62200 32.62800 33.05900
H  0.67700 36.98600 29.57900
H  0.03000 36.43700 23.34200
H  -4.09500 31.58500 24.09900
H  -2.86400 34.44900 32.00900
H  -0.13600 35.30000 31.66400
H  -2.26300 36.67000 32.65200
H  -1.81100 37.66900 31.23400
H  -0.63800 37.34400 32.41300
H  -0.29900 33.17900 32.47500
H  -1.02400 32.16600 31.30400
H  -2.38600 31.25500 32.80100
H  -3.07500 32.65900 33.32700
H  3.16300 38.13100 27.46600
H  2.25800 38.07400 28.87300
H  1.82300 39.32200 27.68200
H  2.57900 39.80400 25.59400
H  3.34100 39.49600 24.00000
H  3.81700 38.42800 25.26800
H  -0.70500 34.14200 21.85700
H  -3.71900 33.57800 22.28400
H  -1.33000 35.70000 20.72400
H  -2.24200 36.47300 21.92400
H  -3.05900 35.19500 20.95000
H  -1.99300 32.18700 20.71500
H  -3.19000 31.37600 21.59300
H  -0.76200 31.63200 23.27900
H  -0.41300 30.77500 21.76800
H  -1.69800 30.26600 22.87300
H  -6.70100 30.51600 26.47700
H  -5.47000 29.44600 25.83300
H  -5.99400 30.95600 24.97700
H  -3.69300 31.39400 31.12400
H  -7.44700 32.78800 32.36500
H  -6.25500 33.62500 33.30400
H  -6.90900 31.97300 33.88100

