158

Mg -0.08400 6.80600 25.90800
C  0.96900 9.29600 27.98200
C  -0.16900 4.61900 28.56700
C  -0.99700 4.33000 23.77400
C  0.66400 8.98200 23.13900
N  0.23600 7.02000 28.08900
C  0.66300 8.14600 28.69000
C  0.79400 7.80000 30.24200
C  0.69100 6.28600 30.30900
C  0.25000 5.87800 28.90100
C  2.02100 5.55500 30.69400
C  -0.14800 8.69500 31.09000
C  -0.45800 8.20400 32.50500
H  0.80800 7.81000 33.21500
N  -0.57900 4.69000 26.14900
C  -0.53000 4.00700 27.37200
C  -0.80800 2.62300 27.12500
C  -1.05400 2.49700 25.69800
C  -0.91600 3.89400 25.15400
C  -0.94500 1.62700 28.22900
C  -1.45000 1.24700 24.93600
O  -1.55700 1.39700 23.72000
C  -1.53700 -0.20500 25.63400
N  -0.03300 6.63500 23.73500
C  -0.63800 5.58000 23.15400
C  -0.99700 5.86000 21.64900
C  -0.47200 7.38400 21.47800
C  0.11400 7.68200 22.86300
C  -0.37700 4.79700 20.68700
C  -1.60000 8.52100 21.10600
C  -2.36200 9.36300 22.11300
N  0.52200 8.77200 25.59100
C  0.84800 9.48000 24.44600
C  1.19000 10.82800 24.77300
C  1.21400 10.82000 26.18600
C  0.92300 9.50500 26.60000
C  1.65000 11.90200 23.74500
C  1.48500 11.65200 27.44000
O  1.86700 12.79900 27.56000
C  1.37400 10.56800 28.63300
C  2.69500 10.69500 29.27900
O  3.64000 10.01600 28.96600
O  2.69900 11.58100 30.30700
C  3.96300 11.58800 31.00800
H  -0.26500 4.06300 29.50200
H  -1.44500 3.64500 23.05100
H  0.77400 9.53500 22.20300
H  1.79800 8.11200 30.53200
H  -0.09800 6.03000 31.01600
H  2.83600 6.24700 30.90500
H  2.36400 4.90300 29.89100
H  1.95900 4.95500 31.60100
H  -1.00600 8.96100 30.47200
H  0.34100 9.65000 31.28200
H  -1.22500 7.43200 32.56000
H  -0.92500 9.06900 32.97700
H  -1.99400 1.33000 28.22700
H  -0.70200 2.04100 29.20800
H  -0.31700 0.76000 28.02500
H  -1.87600 -0.81200 24.79500
H  -2.36500 -0.13900 26.34100
H  -0.61000 -0.53800 26.10200
H  -2.08400 5.84100 21.57700
H  0.34700 7.46700 20.76300
H  0.02600 3.85600 21.06100
H  0.43700 5.31100 20.17600
H  -1.16100 4.59800 19.95600
H  -2.20700 7.98000 20.38000
H  -1.03000 9.27400 20.56200
H  -2.11900 10.37900 21.80400
H  -2.11300 9.18300 23.15900
H  -3.45200 9.34300 22.10100
H  0.78200 12.27200 23.20100
H  2.53500 11.71000 23.13700
H  1.78800 12.72400 24.44700
H  0.53100 10.92200 29.22600
H  4.85700 11.33300 30.43800
H  3.91000 11.01200 31.93100
H  4.07900 12.59700 31.40500
Mg 54.88800 25.59900 44.67800
C  52.05500 27.49800 43.93600
C  53.01700 22.74000 43.80600
C  57.64100 23.73200 44.97300
C  56.74500 28.53500 45.01500
N  52.74400 25.23800 43.90400
C  51.73000 26.16100 43.71600
C  50.43600 25.47600 43.16300
C  50.73600 23.95600 43.49900
C  52.28400 23.93800 43.80000
C  49.95500 23.42100 44.78700
C  50.31700 25.62800 41.62500
C  48.92900 25.42100 40.99300
H  48.82500 24.61100 39.70600
N  55.26900 23.49300 44.46300
C  54.37900 22.55800 44.05700
C  55.01300 21.26900 43.99200
C  56.44500 21.46100 44.35400
C  56.48800 22.92900 44.66100
C  54.27300 19.96500 43.75000
C  57.51800 20.40800 44.26800
O  57.19800 19.27600 43.92700
C  58.90500 20.66300 44.70200
N  56.94500 26.05800 44.90400
C  57.92200 25.11500 45.15700
C  59.30700 25.77700 45.40500
C  58.93400 27.28700 45.53000
C  57.43000 27.33000 45.13800
C  60.17600 25.12700 46.51400
C  59.77900 28.22200 44.68900
C  60.21500 29.53500 45.27300
N  54.55100 27.55500 44.56700
C  55.36100 28.60400 44.81700
C  54.46200 29.78200 44.92200
C  53.20800 29.44500 44.44700
C  53.30100 28.03800 44.32500
C  54.87900 31.10700 45.34300
C  51.84400 29.96200 44.22800
O  51.29200 31.03900 44.47100
C  51.05300 28.70200 43.78900
C  50.71700 29.01500 42.36000
O  51.47200 29.25800 41.47200
O  49.30800 29.08500 42.24600
C  48.85700 29.53200 40.94000
H  52.42300 21.87000 43.51600
H  58.52600 23.09500 45.02700
H  57.12500 29.51900 45.29600
H  49.52500 25.84400 43.63400
H  50.42000 23.42500 42.60100
H  49.22900 24.14100 45.16400
H  50.65000 23.19700 45.59600
H  49.42600 22.54200 44.41800
H  51.02800 24.89700 41.24200
H  50.68500 26.58900 41.26600
H  48.68000 26.45000 40.73400
H  48.17700 25.11100 41.71800
H  54.31600 19.78800 42.67500
H  53.23400 19.88600 44.06900
H  54.87100 19.20500 44.25400
H  59.54300 21.26000 44.05000
H  59.38800 19.72100 44.95900
H  58.76900 21.19300 45.64500
H  59.81600 25.64600 44.45000
H  59.11700 27.64200 46.54400
H  60.98900 24.50600 46.13700
H  59.56700 24.68400 47.30200
H  60.57600 25.95000 47.10600
H  59.33100 28.48500 43.73000
H  60.66900 27.72000 44.31100
H  61.29900 29.53700 45.15500
H  59.97600 29.78000 46.30700
H  59.77900 30.31600 44.65000
H  54.28900 31.86200 44.82400
H  55.94100 31.33600 45.24700
H  54.64400 31.24700 46.39800
H  50.16200 28.62400 44.41200
H  49.57900 30.15000 40.40600
H  47.87200 29.98300 41.06400
H  48.75500 28.64300 40.31900

