158

Mg 35.70800 0.34600 30.20900
C  33.49300 1.78100 32.39800
C  38.10800 0.57100 32.82700
C  38.25700 -0.63500 28.08000
C  33.69700 0.86300 27.42600
N  35.74000 1.06100 32.31000
C  34.64500 1.49700 33.03800
C  34.92600 1.61000 34.49900
C  36.59800 1.67400 34.48900
C  36.87000 1.01000 33.13500
C  37.32000 3.09900 34.69000
C  34.36700 0.45500 35.32300
C  33.38500 0.83700 36.41400
H  33.59200 2.13800 37.22400
N  37.85800 -0.16000 30.47800
C  38.58100 0.00500 31.59800
C  39.97500 -0.42500 31.34800
C  39.94200 -0.98400 30.02200
C  38.66000 -0.53900 29.44100
C  41.06700 -0.45100 32.37300
C  40.98900 -1.72800 29.17700
O  40.79900 -2.13800 28.00600
C  42.26400 -2.09200 29.87300
N  36.08300 0.51100 27.97100
C  37.12400 -0.11400 27.41100
C  36.95800 -0.28700 25.89100
C  35.40300 0.10000 25.63600
C  35.03200 0.48400 27.11500
C  37.87200 0.52100 25.06000
C  34.47000 -0.97600 25.15700
C  33.43800 -0.52500 24.06500
N  33.95800 1.14000 29.87100
C  33.19200 1.20100 28.74700
C  31.85500 1.71800 29.06300
C  31.93600 1.93900 30.48200
C  33.23200 1.58600 30.94400
C  30.77200 1.87200 28.12100
C  31.26000 2.46400 31.61900
O  30.16600 2.95100 31.71500
C  32.20300 2.35000 32.88000
C  32.30400 3.61800 33.58000
O  33.05800 4.54400 33.27400
O  31.39400 3.76400 34.47800
C  31.35500 5.02800 35.29200
H  38.89600 0.56100 33.58200
H  38.81800 -1.23700 27.36100
H  32.97000 0.76700 26.61700
H  34.39900 2.49500 34.85600
H  36.99000 1.02900 35.27600
H  37.93500 3.51000 33.89000
H  37.85300 3.03000 35.63800
H  36.52500 3.81500 34.90100
H  35.13100 -0.09100 35.87600
H  33.63900 -0.09300 34.72400
H  33.47400 0.07600 37.19000
H  32.35900 0.81700 36.04800
H  41.26900 -1.52100 32.41000
H  40.66400 -0.21400 33.35800
H  41.96100 0.14200 32.18000
H  42.71100 -1.12200 30.08800
H  42.84900 -2.49200 29.04400
H  42.02600 -2.65600 30.77400
H  37.04600 -1.31100 25.52900
H  35.36600 0.98400 24.99900
H  38.82600 -0.00800 25.05300
H  37.92900 1.55500 25.40000
H  37.47400 0.49300 24.04600
H  34.04000 -1.41300 26.05700
H  35.02100 -1.82700 24.75800
H  32.46800 -0.74200 24.51200
H  33.52700 -1.17500 23.19400
H  33.29700 0.54300 23.90000
H  30.73500 0.88000 27.67200
H  31.06600 2.67500 27.44500
H  29.83400 2.06900 28.64100
H  31.74600 1.72500 33.64800
H  30.66300 5.85400 35.12900
H  32.34100 5.48300 35.38900
H  31.04600 4.66400 36.27100
Mg -11.76500 17.02900 42.33500
C  -8.27200 18.22600 42.23700
C  -12.55200 20.38500 41.66900
C  -14.75800 16.06000 42.07100
C  -10.44900 13.77900 42.47600
N  -10.51300 19.05400 41.83200
C  -9.16300 19.27900 42.03400
C  -8.75100 20.73800 41.85900
C  -10.19800 21.38400 41.93800
C  -11.18000 20.23400 41.70500
C  -10.42100 22.07800 43.34000
C  -8.05900 20.96000 40.50700
C  -6.66000 21.53200 40.42600
H  -5.71000 20.74500 39.62700
N  -13.43600 17.96500 41.81600
C  -13.62300 19.34100 41.64400
C  -15.07600 19.59300 41.45000
C  -15.77200 18.37000 41.58200
C  -14.65400 17.38600 41.81600
C  -15.57100 20.97900 41.12100
C  -17.28600 18.14900 41.46400
O  -17.99400 19.13900 41.30700
C  -17.92000 16.78100 41.33200
N  -12.48000 15.10400 41.95900
C  -13.83200 15.05600 42.24100
C  -14.23700 13.59200 42.59200
C  -12.88000 12.89700 42.76600
C  -11.86900 13.95600 42.41700
C  -15.19100 13.40500 43.82000
C  -12.63300 11.62300 41.99100
C  -13.78600 10.59300 41.97500
N  -9.74000 16.14600 42.29300
C  -9.39000 14.80400 42.34000
C  -7.91400 14.68800 42.56700
C  -7.44700 16.05600 42.66800
C  -8.56900 16.87000 42.34400
C  -7.07000 13.42600 42.67300
C  -6.27300 16.85400 42.83000
O  -5.07600 16.64200 43.01900
C  -6.82900 18.34400 42.50700
C  -6.42000 19.10700 43.69700
O  -6.83800 18.95600 44.85000
O  -5.49200 19.99100 43.35500
C  -4.70500 20.76000 44.32600
H  -12.84400 21.42900 41.54200
H  -15.77500 15.76100 42.33400
H  -10.14100 12.76000 42.72300
H  -8.13900 20.99000 42.72500
H  -10.37000 22.23400 41.27900
H  -9.49900 22.05000 43.92100
H  -11.21500 21.58700 43.90400
H  -10.57000 23.14700 43.18900
H  -8.64000 21.72900 39.99900
H  -8.10000 20.04300 39.92000
H  -6.19400 21.55000 41.41100
H  -6.55900 22.60200 40.24700
H  -16.55400 21.08700 40.66200
H  -14.80000 21.41200 40.48400
H  -15.48000 21.51700 42.06400
H  -18.82400 16.81000 40.72400
H  -18.12000 16.26800 42.27300
H  -17.20800 16.27600 40.67900
H  -14.83300 13.17900 41.77800
H  -12.74500 12.73100 43.83400
H  -14.67200 12.79800 44.56100
H  -16.09500 12.84000 43.59100
H  -15.37600 14.33400 44.35800
H  -11.85300 10.95700 42.35900
H  -12.27000 11.89700 41.00100
H  -13.66400 9.73900 42.64200
H  -13.95800 10.22700 40.96200
H  -14.73400 11.05000 42.25800
H  -6.05800 13.63800 42.32800
H  -7.49300 12.58200 42.12900
H  -7.01300 12.90100 43.62700
H  -6.29800 18.72800 41.63600
H  -3.87700 21.24900 43.81200
H  -4.27800 20.08400 45.06700
H  -5.34900 21.48200 44.82700

