158

Mg 43.95000 5.08700 46.82500
C  42.10900 7.99100 46.90900
C  41.20000 3.20100 46.65600
C  45.95200 2.35800 46.32000
C  46.91900 7.08300 46.99900
N  41.88500 5.59300 46.75800
C  41.34400 6.83500 46.79400
C  39.78600 6.74200 46.76800
C  39.48200 5.19800 46.75100
C  40.87000 4.59600 46.73400
C  38.49400 4.69700 47.86000
C  39.04000 7.62800 45.69300
C  39.74300 7.40300 44.25000
H  38.96200 6.74400 43.12800
N  43.61900 3.04500 46.49600
C  42.42100 2.41900 46.47700
C  42.56600 1.00900 46.21700
C  43.92200 0.74600 46.00600
C  44.56300 2.11500 46.21600
C  41.37600 0.01200 46.02600
C  44.54000 -0.50800 45.45400
O  43.84600 -1.42700 45.22200
C  45.91700 -0.72100 45.15900
N  46.12900 4.77200 46.76000
C  46.61100 3.56300 46.49700
C  48.17600 3.61100 46.43000
C  48.48000 5.00300 47.01800
C  47.10500 5.68000 46.93700
C  48.92000 2.48900 47.03000
C  49.64700 5.77300 46.23300
C  50.93400 6.10400 46.98900
N  44.43900 7.09800 46.74000
C  45.67400 7.76100 46.92100
C  45.51500 9.16700 47.11700
C  44.12600 9.32400 47.15300
C  43.50300 8.07600 46.83700
C  46.64000 10.20500 47.33600
C  43.01300 10.26300 47.35300
O  42.98000 11.47000 47.59800
C  41.72500 9.42800 47.10100
C  40.83700 9.56400 48.23100
O  40.89700 8.98500 49.31300
O  39.95000 10.55800 47.96200
C  38.99100 10.99700 48.96200
H  40.26600 2.63600 46.63200
H  46.36800 1.36800 46.11900
H  47.83600 7.64500 47.18500
H  39.48700 7.14000 47.73700
H  39.22000 4.80100 45.77000
H  37.51200 4.53500 47.41600
H  38.40400 5.48700 48.60600
H  38.84600 3.87400 48.48200
H  39.02500 8.65100 46.07100
H  38.05100 7.17300 45.73200
H  40.78400 7.08600 44.31100
H  39.86400 8.40200 43.83100
H  41.53800 -0.57600 45.12200
H  40.40000 0.49600 46.00700
H  41.44200 -0.79200 46.75900
H  46.06200 -1.72700 44.76600
H  46.44900 -0.58100 46.10000
H  46.26200 -0.00800 44.40900
H  48.39600 3.42600 45.37900
H  48.70400 4.99900 48.08400
H  48.28400 1.99300 47.76200
H  49.75800 2.91800 47.57900
H  49.20300 1.82700 46.21200
H  49.28000 6.66500 45.72500
H  49.78200 5.05800 45.42000
H  51.00000 7.19200 46.95600
H  51.71700 5.56800 46.45300
H  50.91800 5.75800 48.02200
H  46.37300 11.26100 47.28800
H  47.40500 10.08800 46.56900
H  47.09400 10.07900 48.31900
H  41.27400 10.01300 46.29900
H  38.05100 10.73100 48.47900
H  38.97800 12.07200 49.14600
H  39.07100 10.54000 49.94800
Mg -2.02200 33.81600 27.24000
C  -3.56200 32.00500 29.75800
C  -0.51900 35.74200 29.66900
C  -0.76400 35.92300 24.86300
C  -3.56500 32.01700 24.76400
N  -2.11400 33.82300 29.46500
C  -2.74200 32.96200 30.32700
C  -2.61200 33.31400 31.74800
C  -1.77900 34.67600 31.63600
C  -1.34700 34.73600 30.15200
C  -2.53400 35.90600 32.16100
C  -1.98800 32.18400 32.61400
C  -2.71000 31.84900 33.93200
H  -1.92500 32.14200 35.18700
N  -0.68200 35.49700 27.30100
C  -0.11400 36.10400 28.39600
C  0.70200 37.24400 27.95300
C  0.68000 37.26500 26.54400
C  -0.32500 36.22100 26.18800
C  1.47400 38.18600 28.94400
C  1.42200 38.10200 25.52700
O  1.22200 38.13900 24.28200
C  2.47100 39.20300 26.08500
N  -2.21300 33.94500 25.17300
C  -1.57700 34.90700 24.42000
C  -1.79800 34.68300 22.90600
C  -2.52100 33.30600 22.89800
C  -2.78300 33.06500 24.37600
C  -2.73600 35.82100 22.25600
C  -1.71000 32.14900 22.18800
C  -2.51500 30.92400 21.69800
N  -3.43800 32.40100 27.22400
C  -3.91700 31.70800 26.09800
C  -4.85600 30.71600 26.65500
C  -4.72100 30.72600 28.10400
C  -3.76600 31.76700 28.36800
C  -5.72400 29.80800 25.86100
C  -5.04800 30.09400 29.32600
O  -5.80500 29.12500 29.50200
C  -4.28300 30.84300 30.45300
C  -5.31200 31.31500 31.38900
O  -6.04700 32.29300 31.28500
O  -5.44800 30.38300 32.37400
C  -6.25100 30.81100 33.44700
H  -0.19600 36.50000 30.38700
H  -0.34600 36.57400 24.09300
H  -3.96000 31.30600 24.03500
H  -3.54400 33.58300 32.24600
H  -0.94200 34.60700 32.33000
H  -2.52000 36.75600 31.47900
H  -1.95600 36.19300 33.03900
H  -3.56700 35.66800 32.41600
H  -1.04100 32.66100 32.86800
H  -1.75100 31.24400 32.11600
H  -2.93900 30.78500 33.86000
H  -3.60600 32.46900 33.93100
H  2.52200 37.96200 28.74700
H  1.24800 37.87700 29.96500
H  1.22200 39.24000 28.83000
H  3.19400 38.61600 26.65200
H  2.01600 40.03000 26.63000
H  2.95000 39.59200 25.18700
H  -0.80800 34.71500 22.45100
H  -3.44800 33.36500 22.32800
H  -2.89500 36.49100 23.10200
H  -3.69600 35.53900 21.82300
H  -2.23200 36.31500 21.42600
H  -0.97600 31.82300 22.92600
H  -1.13500 32.53100 21.34400
H  -3.56900 31.13600 21.51600
H  -2.50100 30.12700 22.44200
H  -2.16500 30.48300 20.76400
H  -5.10900 28.95900 25.56300
H  -5.88800 30.29600 24.90000
H  -6.61200 29.45900 26.38900
H  -3.62100 30.16200 30.98700
H  -6.19400 30.04700 34.22200
H  -7.31500 30.83100 33.21200
H  -5.89700 31.79300 33.76100

