158

Mg 44.12900 4.22400 48.25400
C  42.01800 6.98000 47.58700
C  41.55300 2.15800 47.79400
C  46.29700 1.65500 48.54200
C  46.81300 6.51000 48.29800
N  42.05900 4.59800 47.53800
C  41.37100 5.74400 47.37500
C  39.93500 5.50500 47.14000
C  39.77700 4.04000 47.43100
C  41.23700 3.57100 47.59100
C  38.89700 3.76900 48.69100
C  39.48800 5.91900 45.69000
C  38.29900 6.85900 45.65600
H  37.60500 6.83900 44.28500
N  43.92000 2.18000 48.03400
C  42.78400 1.52700 47.94500
C  43.04600 0.08500 48.01700
C  44.45900 -0.05200 48.24400
C  44.98200 1.33100 48.27700
C  42.07100 -0.99500 47.82300
C  45.15200 -1.37500 48.42000
O  44.57500 -2.45300 48.39300
C  46.62100 -1.48100 48.68900
N  46.14300 4.04700 48.12400
C  46.86500 2.86700 48.46100
C  48.26600 3.14700 48.88900
C  48.42900 4.66200 48.41300
C  47.00600 5.12300 48.18700
C  48.52800 2.97700 50.44600
C  49.28000 4.79200 47.15100
C  50.73500 5.06500 47.55700
N  44.44700 6.34300 48.08700
C  45.54300 7.12700 48.17700
C  45.22400 8.52300 48.07500
C  43.82300 8.51200 47.85300
C  43.40000 7.21100 47.85300
C  46.27400 9.59800 48.05100
C  42.73400 9.33700 47.60800
O  42.67600 10.55600 47.43700
C  41.38600 8.40200 47.48200
C  40.51800 8.80400 48.71200
O  40.98800 8.95900 49.81900
O  39.24000 9.13600 48.34700
C  38.52600 9.83500 49.44900
H  40.68200 1.50000 47.77600
H  47.07000 0.93300 48.81700
H  47.59800 7.26200 48.39600
H  39.39800 6.08800 47.88900
H  39.31900 3.41900 46.66100
H  38.09100 4.49200 48.81500
H  39.58300 3.91100 49.52600
H  38.54700 2.73600 48.68200
H  39.28100 5.05200 45.06300
H  40.38500 6.24900 45.16600
H  38.63800 7.87300 45.86600
H  37.49800 6.64500 46.36400
H  42.08900 -1.47200 46.84400
H  41.05300 -0.63000 47.95800
H  42.20100 -1.66800 48.67000
H  46.68700 -0.94600 49.63600
H  47.13400 -0.96200 47.87800
H  46.95500 -2.50200 48.87400
H  48.86500 2.39400 48.37900
H  48.89200 5.26700 49.19300
H  47.80500 2.34000 50.95600
H  48.62800 3.93100 50.96500
H  49.42800 2.37300 50.33100
H  48.87100 5.64400 46.60800
H  49.30800 3.84300 46.61600
H  50.88400 5.12500 48.63500
H  51.11400 5.94000 47.02900
H  51.52000 4.39700 47.20400
H  46.91500 9.35100 47.20500
H  46.93900 9.48500 48.90800
H  45.98400 10.64500 48.13900
H  40.78700 8.38900 46.57100
H  39.04800 10.66100 49.93300
H  38.28800 9.10500 50.22300
H  37.57000 10.23700 49.11300
Mg 47.08100 24.91500 29.14900
C  47.93900 27.26900 31.68100
C  45.90900 22.77500 31.56200
C  46.65700 22.53700 26.78300
C  48.52500 26.96500 26.80100
N  46.71400 25.13700 31.26800
C  47.22000 26.11200 32.08200
C  46.97900 25.73400 33.61100
C  46.51100 24.28000 33.48400
C  46.29300 24.07600 31.98400
C  47.52100 23.30700 34.14900
C  45.93400 26.77300 34.24800
C  46.05200 27.30900 35.73700
H  46.73600 26.41900 36.81500
N  46.30600 22.95000 29.14500
C  45.85800 22.30900 30.20500
C  45.32800 21.01000 29.82800
C  45.46000 20.91200 28.44900
C  46.20500 22.14000 28.02700
C  44.61300 19.97300 30.80600
C  45.10800 19.78000 27.50100
O  45.18300 19.91600 26.26300
C  44.49200 18.51600 28.11900
N  47.43500 24.73200 27.04600
C  47.28700 23.72300 26.32200
C  47.75500 23.94400 24.88300
C  48.12800 25.40100 24.88800
C  48.02500 25.76700 26.34400
C  48.74400 22.90300 24.32500
C  47.17100 26.25100 23.95400
C  45.71700 26.19800 24.26800
N  48.03800 26.81600 29.16100
C  48.63200 27.47700 28.12500
C  49.20300 28.70300 28.61200
C  48.94500 28.64500 30.04400
C  48.30200 27.44500 30.30300
C  49.90800 29.69500 27.73200
C  49.10400 29.39900 31.24800
O  49.63300 30.48900 31.27700
C  48.63200 28.46800 32.39300
C  49.64200 28.11900 33.33200
O  50.54500 27.29100 33.17800
O  49.50800 28.81300 34.52400
C  50.43100 28.33300 35.53000
H  45.61200 22.12800 32.39000
H  46.73000 21.74800 26.03200
H  48.86800 27.54900 25.94400
H  47.96500 25.88100 34.05300
H  45.51400 24.17600 33.91400
H  48.27800 23.86600 34.69900
H  48.05400 22.76500 33.36700
H  47.08000 22.60200 34.85400
H  44.99400 26.22200 34.28100
H  45.83900 27.60500 33.55100
H  45.01600 27.46900 36.03700
H  46.57900 28.26100 35.79900
H  44.29000 20.38100 31.76400
H  45.40700 19.27300 31.06600
H  43.73100 19.40500 30.50900
H  45.29300 18.08500 28.71900
H  44.32600 17.81500 27.30100
H  43.52300 18.60600 28.61100
H  46.84800 23.77600 24.30200
H  49.19100 25.50600 24.67000
H  49.75700 23.30500 24.32900
H  48.44500 22.81000 23.28100
H  48.84300 21.93900 24.82300
H  47.26300 25.85600 22.94300
H  47.44800 27.30200 23.86700
H  45.26700 25.82700 23.34700
H  45.30300 27.15700 24.57800
H  45.39100 25.54400 25.07700
H  50.65800 29.29400 27.05100
H  50.36600 30.39400 28.43200
H  49.27300 30.28600 27.07200
H  47.83100 28.90900 32.98600
H  50.16500 27.36400 35.95400
H  50.29800 28.94300 36.42300
H  51.49800 28.48200 35.36300

