158

Mg 25.50100 -1.33600 29.27900
C  27.50000 -1.40400 32.30000
C  22.68400 -1.11700 31.35100
C  23.69400 -1.44300 26.55400
C  28.39500 -2.08200 27.44900
N  25.14600 -1.45500 31.62600
C  26.17000 -1.29600 32.57300
C  25.48300 -1.18200 33.95900
C  23.95200 -1.01900 33.62000
C  23.92700 -1.25500 32.10500
C  23.03900 -1.85800 34.45800
C  26.14500 -0.12800 34.90300
C  25.15500 0.50300 35.93800
H  25.87500 1.12400 37.15700
N  23.48800 -1.16900 28.95800
C  22.50800 -1.05100 29.95100
C  21.21600 -1.07000 29.22900
C  21.51500 -1.00600 27.80200
C  22.99100 -1.23200 27.70400
C  19.88200 -1.05400 29.95700
C  20.52100 -0.89100 26.66800
O  20.79100 -1.04200 25.48300
C  19.11000 -0.71700 26.96500
N  25.97500 -1.88500 27.32200
C  25.05800 -1.82600 26.34900
C  25.65600 -1.96600 24.94200
C  27.25700 -2.03700 25.23400
C  27.21400 -1.95800 26.76700
C  25.13200 -3.23300 24.20200
C  28.04600 -0.87000 24.66700
C  27.71600 0.51900 25.07300
N  27.52600 -1.75200 29.75600
C  28.55700 -1.94400 28.89400
C  29.78500 -2.05000 29.62900
C  29.39500 -1.86900 30.98100
C  28.05100 -1.62500 31.02300
C  31.13400 -2.28000 29.02000
C  29.93700 -1.73200 32.33200
O  31.06900 -1.88300 32.83400
C  28.70800 -1.34600 33.23800
C  28.67000 -2.32900 34.39800
O  28.44000 -3.55600 34.37400
O  29.20300 -1.63300 35.53400
C  29.41500 -2.45300 36.75000
H  21.84100 -0.85400 31.99500
H  23.13000 -1.45900 25.61900
H  29.21800 -2.28000 26.75800
H  25.79200 -2.14000 34.37900
H  23.66400 0.02100 33.77400
H  22.51400 -2.59000 33.84400
H  22.26800 -1.18400 34.83200
H  23.43600 -2.42700 35.29900
H  26.32300 0.74000 34.26700
H  27.04400 -0.46900 35.41600
H  24.47700 -0.32200 36.15300
H  24.49800 1.26700 35.52300
H  20.05500 -1.25500 31.01400
H  19.25400 -1.89200 29.65200
H  19.31000 -0.13400 29.84100
H  18.90800 0.16200 27.57700
H  18.84400 -1.67100 27.42200
H  18.51700 -0.60800 26.05700
H  25.49800 -1.08800 24.31500
H  27.64200 -2.97000 24.82300
H  24.81300 -2.92200 23.20700
H  24.30900 -3.66800 24.76900
H  25.90100 -3.98600 24.02600
H  27.80300 -0.96500 23.60900
H  29.11800 -1.05500 24.59000
H  27.18400 0.93700 24.21800
H  28.60700 1.13400 25.20400
H  27.04300 0.46500 25.92800
H  31.20500 -1.70200 28.09800
H  31.22300 -3.32500 28.72200
H  31.80900 -1.88800 29.78000
H  28.88900 -0.34700 33.63300
H  29.13300 -3.50100 36.64900
H  28.82500 -2.03300 37.56400
H  30.42500 -2.42100 37.15800
Mg 45.99400 24.61300 28.82900
C  46.94100 27.00500 31.35200
C  45.24200 22.45600 31.53300
C  45.81300 22.12100 26.65900
C  47.55400 26.71700 26.57700
N  46.09300 24.77500 31.15200
C  46.37800 25.85200 31.91000
C  46.09600 25.64300 33.39400
C  45.66900 24.13400 33.37800
C  45.57200 23.80100 31.89100
C  46.65000 23.20900 34.15200
C  44.92800 26.59400 33.89400
C  45.25000 27.46700 35.18200
H  44.18000 27.40500 36.31600
N  45.47400 22.54300 29.04100
C  45.10500 21.90600 30.19400
C  44.83400 20.51600 29.80400
C  45.07800 20.38300 28.39200
C  45.42500 21.76700 27.92500
C  44.50600 19.48600 30.94500
C  45.06600 19.15400 27.55800
O  45.42600 19.11000 26.33300
C  44.51900 17.87200 28.28300
N  46.67400 24.37200 26.93600
C  46.35500 23.31100 26.15700
C  46.76700 23.51200 24.71500
C  47.14400 25.06200 24.62900
C  47.13000 25.44900 26.14200
C  47.85500 22.48700 24.33100
C  46.05100 25.89600 23.84500
C  44.76300 26.27600 24.62900
N  46.91300 26.57700 28.77900
C  47.51500 27.26300 27.79100
C  47.97100 28.57400 28.31000
C  47.75200 28.55200 29.71700
C  47.15100 27.25900 29.97800
C  48.53400 29.64800 27.40000
C  47.77300 29.29800 30.93400
O  47.97100 30.51900 31.07600
C  47.31400 28.32900 32.13100
C  48.47200 28.10600 33.01200
O  49.64200 27.84700 32.70800
O  48.18300 28.49600 34.32400
C  49.27500 28.50600 35.27100
H  44.95400 21.87200 32.41000
H  45.68400 21.31800 25.92900
H  47.87700 27.31900 25.72500
H  47.03600 25.82700 33.91600
H  44.71700 24.03600 33.89900
H  46.00800 22.59700 34.78600
H  47.27000 23.71300 34.89300
H  47.22100 22.56300 33.48600
H  43.99700 26.04900 34.05100
H  44.78000 27.32400 33.09800
H  45.34700 28.51200 34.88800
H  46.20100 27.23600 35.66100
H  45.02900 18.54900 30.75000
H  43.44000 19.30000 30.80900
H  44.73100 19.86500 31.94100
H  45.40400 17.37600 28.68200
H  44.07700 17.14700 27.60000
H  43.72700 18.07600 29.00300
H  45.95400 23.28700 24.02300
H  48.08900 25.30400 24.14300
H  48.28000 21.95100 25.18000
H  48.68700 22.97500 23.82200
H  47.44800 21.73700 23.65300
H  45.67600 25.29100 23.01900
H  46.44600 26.86900 23.55500
H  44.64800 25.62200 25.49300
H  43.88300 26.01200 24.04200
H  44.77400 27.33000 24.90600
H  47.76300 30.41200 27.30300
H  48.74600 29.20800 26.42600
H  49.52000 29.90600 27.78700
H  46.42500 28.67900 32.65700
H  49.87000 27.60600 35.11000
H  48.98500 28.59200 36.31800
H  49.91300 29.37900 35.13300

