158

Mg 7.40600 53.98900 42.29400
C  6.68200 50.52400 41.97500
C  10.38600 53.40200 40.60100
C  7.53600 57.22400 41.83900
C  4.31400 54.28400 43.94100
N  8.39000 52.23800 41.54600
C  7.90200 50.92600 41.38100
C  8.98300 50.00700 40.71300
C  10.25300 50.88200 40.73900
C  9.68100 52.28400 41.03200
C  11.31800 50.45300 41.78600
C  8.43100 49.54900 39.30300
C  8.39900 50.49800 38.13400
H  7.40500 50.20900 37.01200
N  8.75800 55.18700 41.26200
C  9.93600 54.77500 40.65100
C  10.58400 55.93200 40.11900
C  9.79400 57.08300 40.43900
C  8.63800 56.58000 41.18300
C  11.86500 55.78100 39.24300
C  9.99800 58.55900 39.92800
O  10.93000 58.81100 39.16900
C  8.98700 59.53700 40.21900
N  6.06800 55.56300 42.80300
C  6.42400 56.85500 42.58500
C  5.33400 57.76300 43.09700
C  4.31000 56.85100 43.83300
C  4.94300 55.48100 43.58900
C  5.85100 58.95400 43.97500
C  2.82500 57.00400 43.33200
C  2.34200 56.48700 41.97000
N  5.83400 52.68800 42.94000
C  4.68200 52.95800 43.62600
C  4.03700 51.68600 43.87300
C  4.79400 50.68700 43.36200
C  5.82100 51.38400 42.69300
C  2.78900 51.44700 44.79200
C  5.01100 49.24200 43.26100
O  4.40800 48.31300 43.78100
C  6.18900 49.06100 42.28100
C  5.62700 48.47200 41.04400
O  4.99500 49.04900 40.21100
O  5.98100 47.07900 41.07300
C  5.61600 46.30700 39.80300
H  11.33100 53.11900 40.13200
H  7.52800 58.31000 41.73000
H  3.30900 54.37600 44.35900
H  9.09400 49.11000 41.32300
H  10.72600 50.89500 39.75700
H  12.27500 50.55500 41.27600
H  11.21400 49.39300 42.01900
H  11.29900 50.93800 42.76200
H  7.42800 49.13700 39.41900
H  9.01400 48.71500 38.91200
H  9.40500 50.51000 37.71600
H  8.09300 51.49100 38.46200
H  11.65700 55.89700 38.17900
H  12.35800 54.83100 39.44900
H  12.45500 56.59800 39.65800
H  8.04600 59.18300 39.79600
H  9.23900 60.33300 39.51800
H  8.92300 60.06100 41.17200
H  4.90800 58.23300 42.21100
H  4.30900 57.11300 44.89100
H  6.93200 58.92200 44.11100
H  5.30100 58.98500 44.91500
H  5.64600 59.92700 43.52800
H  2.53300 58.04700 43.45000
H  2.25300 56.49000 44.10500
H  2.04500 57.27500 41.27700
H  1.52600 55.77500 42.08600
H  3.04000 55.95400 41.32400
H  3.06900 51.58600 45.83600
H  2.34400 50.47000 44.60500
H  2.05400 52.24800 44.70200
H  6.90000 48.43600 42.82100
H  5.71700 46.92700 38.91300
H  4.61700 45.87700 39.86400
H  6.36200 45.52600 39.65100
Mg -11.84100 16.40300 41.69400
C  -8.46300 14.99700 41.38000
C  -10.50200 19.29600 40.32500
C  -14.91800 17.43400 41.13600
C  -12.93300 13.10300 42.03900
N  -9.73500 16.97800 40.94900
C  -8.56600 16.29200 40.93400
C  -7.45200 17.12700 40.30600
C  -8.11800 18.53600 39.90500
C  -9.55700 18.21400 40.40300
C  -7.52600 19.82300 40.51300
C  -6.86000 16.36400 39.02400
C  -5.35800 16.30000 38.79600
H  -4.87800 16.98200 37.54100
N  -12.59900 18.14900 40.96400
C  -11.88500 19.28400 40.57400
C  -12.70500 20.35400 40.45700
C  -14.06900 19.88800 40.67200
C  -13.93000 18.42700 40.94300
C  -12.18900 21.81200 40.25400
C  -15.32500 20.82400 40.59200
O  -15.25500 22.03200 40.35000
C  -16.63100 20.22100 41.01800
N  -13.63200 15.36600 41.46500
C  -14.82000 16.09500 41.45400
C  -15.99900 15.15100 41.80900
C  -15.34700 13.79800 42.11500
C  -13.90600 14.09600 41.87700
C  -16.79600 15.75200 43.05300
C  -15.94900 12.71800 41.08800
C  -16.99000 11.70500 41.63300
N  -10.94900 14.53300 41.89300
C  -11.57100 13.29600 42.11200
C  -10.55200 12.28600 42.36000
C  -9.34700 12.91900 42.18000
C  -9.58600 14.29100 41.84300
C  -10.82400 10.88400 42.75000
C  -7.85300 12.76200 42.20500
O  -7.20800 11.75400 42.40800
C  -7.22900 14.05300 41.56800
C  -6.24200 14.52800 42.48800
O  -6.47000 14.70400 43.72100
O  -4.98400 14.71700 41.89200
C  -3.89800 15.26300 42.78600
H  -10.03500 20.24600 40.05600
H  -15.96300 17.74600 41.19100
H  -13.36200 12.12200 42.25500
H  -6.70100 17.27600 41.08200
H  -8.21200 18.70300 38.83200
H  -7.75700 20.56500 39.74800
H  -6.44600 19.68500 40.57000
H  -7.89500 20.09200 41.50300
H  -7.38300 16.85400 38.20300
H  -7.29000 15.36600 38.93100
H  -5.10300 15.24200 38.73500
H  -4.87200 16.75600 39.65800
H  -11.74700 21.96100 39.26900
H  -11.37700 21.97200 40.96400
H  -12.97900 22.55000 40.39100
H  -17.33000 21.02100 40.77300
H  -16.77900 20.08700 42.09000
H  -16.97700 19.36300 40.44100
H  -16.82400 15.10300 41.09800
H  -15.58700 13.43200 43.11300
H  -16.29400 16.51800 43.64600
H  -17.02200 14.94500 43.75000
H  -17.70200 16.15400 42.60000
H  -15.13000 12.07000 40.77400
H  -16.34600 13.23000 40.21200
H  -17.00500 10.75700 41.09500
H  -17.92900 12.20300 41.38900
H  -16.92000 11.61500 42.71700
H  -10.05200 10.41300 43.35900
H  -10.91000 10.34500 41.80700
H  -11.73700 10.78300 43.33700
H  -6.66000 13.85000 40.66100
H  -3.82800 16.26500 42.36200
H  -3.01500 14.75200 42.40100
H  -3.96000 15.15000 43.86800

