158

Mg 43.14300 4.27000 46.98300
C  41.23700 7.25300 46.65500
C  40.26900 2.50300 46.77100
C  45.01600 1.67800 46.27800
C  46.03200 6.30300 46.70400
N  40.99100 4.77800 46.62500
C  40.43200 6.07200 46.66600
C  38.88000 5.95800 46.78800
C  38.62000 4.43300 47.01100
C  40.05800 3.82400 46.91100
C  37.92000 3.98200 48.37200
C  38.02100 6.56500 45.69200
C  38.45800 6.20200 44.25600
H  39.43400 7.16700 43.58900
N  42.67200 2.34900 46.65700
C  41.47000 1.75100 46.59800
C  41.58500 0.33100 46.34300
C  43.03100 0.07800 46.14900
C  43.64000 1.39000 46.40500
C  40.36900 -0.56700 46.17100
C  43.51400 -1.26900 45.82200
O  42.72400 -2.14500 45.63300
C  44.86700 -1.49700 45.61700
N  45.20500 4.03300 46.47200
C  45.73300 2.83400 46.39900
C  47.25200 2.83700 46.30600
C  47.54400 4.35800 46.25900
C  46.19500 4.95300 46.48700
C  48.01100 2.00500 47.38700
C  48.37000 4.83000 45.00000
C  49.91100 4.95300 45.02000
N  43.58500 6.30700 46.83200
C  44.78500 6.96200 46.81500
C  44.54400 8.33600 46.87500
C  43.14800 8.51400 46.77200
C  42.60100 7.22400 46.75300
C  45.53600 9.34700 46.90500
C  42.07400 9.54700 46.86500
O  42.12400 10.76500 46.99700
C  40.69700 8.69200 46.60000
C  39.83400 9.00200 47.73500
O  40.05700 8.70500 48.88900
O  38.64800 9.58800 47.29800
C  37.55100 9.79300 48.22700
H  39.36000 1.90700 46.87100
H  45.59600 0.75300 46.26100
H  46.96800 6.84200 46.53900
H  38.57300 6.53800 47.65800
H  38.06400 3.91300 46.23100
H  37.36500 3.04400 48.35700
H  37.28800 4.77300 48.77600
H  38.74300 3.75400 49.05000
H  38.07200 7.65000 45.78600
H  36.94000 6.46600 45.78700
H  37.51500 6.04300 43.73300
H  38.94000 5.23600 44.10800
H  40.39300 -1.52600 46.68900
H  40.18500 -0.75200 45.11200
H  39.38800 -0.13100 46.36100
H  45.33100 -1.22300 46.56500
H  45.13100 -0.77500 44.84400
H  45.20700 -2.50100 45.36400
H  47.55200 2.45900 45.32900
H  48.26100 4.48100 47.07000
H  48.91900 2.48500 47.75200
H  48.30600 1.06100 46.92800
H  47.32300 1.79400 48.20500
H  47.91900 5.81300 44.86500
H  48.02600 4.19600 44.18300
H  50.38300 4.25200 44.33200
H  50.23900 4.69300 46.02600
H  50.09300 5.99000 44.73800
H  46.09400 9.47300 47.83300
H  45.21700 10.33200 46.56700
H  46.30200 9.05400 46.18600
H  40.32100 8.95200 45.61000
H  37.87400 9.29200 49.13900
H  36.59200 9.41000 47.87900
H  37.42400 10.84700 48.47500
Mg 26.45900 50.16700 26.55400
C  24.35100 51.02900 29.15300
C  29.04200 49.46400 28.79000
C  28.81200 50.00100 23.98700
C  24.17400 51.52100 24.21800
N  26.62100 50.17100 28.72200
C  25.55700 50.43900 29.61400
C  26.06600 50.37100 31.13900
C  27.53400 49.83100 30.90100
C  27.78900 49.84200 29.38200
C  28.65000 50.54600 31.67900
C  25.19500 49.45700 32.10900
C  24.88600 50.14000 33.52000
H  24.88100 49.16200 34.76700
N  28.63000 49.76200 26.42200
C  29.42300 49.44200 27.47100
C  30.71000 49.05600 27.02800
C  30.74600 49.32500 25.62000
C  29.39500 49.74900 25.25600
C  31.88000 48.52700 27.88900
C  31.86800 49.16700 24.55500
O  31.70800 49.31400 23.35800
C  33.17100 48.52300 24.90200
N  26.43400 50.55200 24.47200
C  27.50400 50.34300 23.56600
C  27.10300 50.63500 22.11600
C  25.59400 51.02400 22.23200
C  25.36700 51.00700 23.77500
C  28.06200 51.72100 21.55800
C  24.56500 50.05500 21.54600
C  23.63900 50.65200 20.48000
N  24.63700 51.05600 26.60700
C  23.84400 51.56600 25.58700
C  22.67400 52.21100 26.16500
C  22.88400 52.10100 27.60400
C  24.01200 51.33400 27.77000
C  21.61600 53.02800 25.50400
C  22.25600 52.33100 28.94400
O  21.20500 52.89500 29.15300
C  23.27400 51.65700 29.92600
C  23.69100 52.76800 30.82800
O  24.52700 53.58300 30.53000
O  22.90100 52.82300 31.96200
C  23.27200 53.73600 33.01000
H  29.81900 49.18200 29.50300
H  29.48300 49.95300 23.12700
H  23.53800 52.00900 23.47700
H  26.10900 51.37700 31.55600
H  27.71700 48.78400 31.14100
H  29.15400 49.80200 32.29600
H  28.25600 51.37500 32.26700
H  29.46600 51.00700 31.12300
H  25.81300 48.59100 32.34600
H  24.21900 49.35200 31.63500
H  23.97600 50.73400 33.44100
H  25.61200 50.94700 33.61200
H  31.57600 48.47600 28.93400
H  32.67400 49.25500 27.71700
H  32.14200 47.54600 27.49200
H  32.88900 47.48800 25.09700
H  33.59000 48.98100 25.79800
H  33.80900 48.58400 24.02100
H  27.20100 49.78900 21.43600
H  25.47200 52.06200 21.92200
H  28.91600 51.90700 22.21100
H  27.56800 52.68100 21.41000
H  28.49900 51.39700 20.61300
H  23.97500 49.53600 22.30100
H  25.19300 49.26400 21.13700
H  23.78800 50.05100 19.58300
H  23.80700 51.67300 20.13600
H  22.60900 50.41100 20.74000
H  20.77000 52.92000 26.18300
H  21.28700 52.59100 24.56100
H  21.97300 54.05200 25.39100
H  22.77500 50.85800 30.47400
H  23.64100 54.70900 32.68700
H  24.09700 53.21500 33.49800
H  22.63500 53.86700 33.88500

