158

Mg 1.48000 -1.75400 44.79600
C  4.77900 -0.88200 44.30600
C  0.45000 1.35400 43.82300
C  -1.66600 -3.04300 44.55900
C  2.65200 -5.07200 45.40700
N  2.50700 0.06900 44.34200
C  3.85500 0.16200 44.11900
C  4.17300 1.57700 43.52000
C  2.79600 2.36100 43.73900
C  1.83500 1.18400 43.94900
C  2.69100 3.28000 44.93200
C  4.59300 1.41500 42.03600
C  5.97900 1.98500 41.68500
H  6.52000 1.64800 40.27500
N  -0.30300 -0.96700 44.17500
C  -0.55400 0.37800 43.89700
C  -2.01700 0.54200 43.76800
C  -2.59700 -0.74500 43.88600
C  -1.47400 -1.70000 44.16200
C  -2.69100 1.88600 43.33500
C  -4.11200 -1.00900 43.87100
O  -4.89900 -0.07100 43.77400
C  -4.73300 -2.45000 43.87600
N  0.58100 -3.77300 44.99600
C  -0.73700 -4.04900 44.92800
C  -1.10000 -5.50700 45.39400
C  0.33900 -6.06300 45.74100
C  1.27500 -4.88600 45.32800
C  -2.17300 -5.67600 46.51500
C  0.74400 -7.42000 45.11700
C  1.16800 -8.52500 46.12100
N  3.30000 -2.81100 44.96400
C  3.62400 -4.11300 45.28800
C  5.07700 -4.20800 45.40800
C  5.54900 -2.97200 45.00500
C  4.45000 -2.14800 44.72400
C  5.76200 -5.43100 45.86500
C  6.75400 -2.21100 44.86100
O  7.90500 -2.54700 45.05500
C  6.27500 -0.75600 44.30100
C  6.57600 0.36200 45.28800
O  6.01300 0.43800 46.37900
O  7.52500 1.24800 44.87000
C  7.66700 2.49500 45.74000
H  0.05000 2.33800 43.56700
H  -2.70500 -3.37700 44.51500
H  3.02000 -6.07800 45.61700
H  4.88300 2.19400 44.07200
H  2.45800 2.90200 42.85500
H  2.56100 2.69800 45.84400
H  1.94200 4.06400 44.82200
H  3.62300 3.80100 45.15000
H  3.87500 1.93600 41.40300
H  4.52800 0.39000 41.67100
H  6.75100 1.68000 42.39200
H  5.99200 3.07400 41.74200
H  -3.22900 1.82600 42.38900
H  -1.88900 2.62300 43.37500
H  -3.40000 2.12800 44.12700
H  -5.79200 -2.39200 43.62500
H  -4.60800 -2.78800 44.90500
H  -4.19800 -3.00300 43.10400
H  -1.48900 -5.99900 44.50300
H  0.37200 -6.07000 46.83100
H  -3.00200 -6.27200 46.13300
H  -2.67800 -4.74000 46.75400
H  -1.76400 -6.29200 47.31500
H  1.46300 -7.31100 44.30500
H  -0.19300 -7.75900 44.67400
H  2.23500 -8.71900 46.01000
H  0.72000 -9.51500 46.04100
H  1.09600 -8.23800 47.17000
H  5.58000 -5.59600 46.92700
H  6.83600 -5.29500 45.73800
H  5.43700 -6.34800 45.37300
H  6.70800 -0.52500 43.32700
H  8.37400 3.23900 45.37400
H  7.92500 2.29000 46.77900
H  6.66900 2.92900 45.79800
Mg 1.55900 41.22600 24.89400
C  2.23400 41.84900 28.37800
C  -1.47000 40.06500 25.73800
C  1.18400 40.07700 21.70700
C  4.76000 42.31700 24.21100
N  0.55900 40.87400 26.82000
C  1.01500 41.23400 28.06600
C  -0.07500 41.08100 29.07800
C  -1.25000 40.41100 28.22100
C  -0.73900 40.39000 26.80400
C  -1.57200 38.97000 28.63300
C  -0.58100 42.38700 29.76900
C  -0.56600 42.49700 31.31300
H  -0.89700 41.30400 32.17700
N  -0.03400 40.41100 23.78000
C  -1.14100 39.87800 24.36000
C  -2.01100 39.31400 23.34200
C  -1.25700 39.28400 22.13300
C  0.01200 39.92500 22.46300
C  -3.47500 39.07900 23.54900
C  -1.70700 38.88000 20.73700
O  -0.93800 38.83500 19.80200
C  -3.16900 38.44400 20.51700
N  2.78500 41.20700 23.26900
C  2.43600 40.63800 22.04700
C  3.60900 40.68300 21.01000
C  4.58500 41.71200 21.69500
C  4.01100 41.72800 23.17800
C  4.19000 39.23200 20.72000
C  4.68200 43.16000 20.98900
C  4.17800 44.43600 21.80300
N  3.28800 41.88100 25.99900
C  4.44900 42.40000 25.59400
C  5.28500 42.88000 26.68600
C  4.42600 42.68800 27.80400
C  3.23300 42.07400 27.38000
C  6.65400 43.43800 26.68600
C  4.30600 42.87000 29.28600
O  5.09000 43.36400 30.09200
C  2.87900 42.29200 29.69600
C  3.25200 41.14700 30.53900
O  3.85500 40.13800 30.08700
O  2.82100 41.30700 31.82200
C  3.06800 40.25300 32.72800
H  -2.46700 39.74800 26.04900
H  1.19400 39.62400 20.71300
H  5.75300 42.68400 23.94500
H  0.29100 40.35200 29.80100
H  -2.13100 41.04600 28.30900
H  -1.00800 38.67200 29.51600
H  -1.45100 38.25100 27.82200
H  -2.65500 38.93600 28.75500
H  -1.59300 42.67100 29.47800
H  0.14600 43.09300 29.36900
H  -1.10600 43.36400 31.69500
H  0.46900 42.79200 31.48700
H  -4.02500 39.89200 23.07600
H  -3.73900 39.06900 24.60600
H  -3.75700 38.10700 23.14200
H  -3.23000 37.40000 20.82600
H  -3.41800 38.57500 19.46400
H  -3.85800 38.99000 21.16100
H  3.18500 41.04300 20.07200
H  5.55400 41.21400 21.66000
H  3.90100 38.46100 21.43500
H  5.20800 39.30800 20.33800
H  3.73500 38.85000 19.80600
H  4.04300 43.12500 20.10700
H  5.66300 43.42900 20.59500
H  3.40900 44.94400 21.22000
H  5.05600 45.07000 21.92400
H  3.86400 44.20500 22.82100
H  6.72200 44.52600 26.72400
H  7.23600 43.13800 25.81400
H  7.33000 43.07500 27.46000
H  2.27400 42.98500 30.28000
H  2.29600 39.50500 32.54200
H  2.87500 40.70500 33.70100
H  4.02300 39.75100 32.57400

