158

Mg 47.12300 24.80900 29.28700
C  47.94600 27.31800 31.68900
C  45.72100 22.97100 31.79400
C  46.60800 22.51300 27.01800
C  49.01800 26.69600 26.90800
N  46.69400 25.17000 31.46100
C  47.18900 26.29400 32.23100
C  46.62200 26.17100 33.68000
C  45.95500 24.73100 33.67800
C  46.17000 24.21900 32.24000
C  46.53700 23.76300 34.76600
C  45.57000 27.30200 33.99900
C  45.55300 28.10700 35.31200
H  46.21300 27.54200 36.50900
N  46.22500 23.00200 29.38300
C  45.67900 22.40200 30.46400
C  45.01600 21.25700 29.97300
C  45.18600 21.11900 28.60400
C  46.10200 22.20800 28.30100
C  44.36000 20.36900 30.99000
C  44.62500 20.06500 27.64900
O  44.90100 20.10500 26.48400
C  43.73700 18.94300 28.08300
N  47.75500 24.66500 27.27400
C  47.49800 23.51400 26.61000
C  48.06500 23.53100 25.16000
C  48.78300 24.87800 25.04800
C  48.57500 25.41800 26.47600
C  49.04400 22.29800 24.88600
C  48.27300 25.73200 23.90100
C  49.31800 26.50800 23.21500
N  48.17500 26.59600 29.18700
C  48.89200 27.23500 28.19900
C  49.36800 28.53900 28.66100
C  49.11300 28.55800 30.03300
C  48.39200 27.39100 30.32700
C  50.17300 29.56600 27.90900
C  49.25800 29.39100 31.18100
O  49.81600 30.44300 31.40800
C  48.45900 28.65600 32.33800
C  49.61400 28.44600 33.35400
O  50.40700 27.54600 33.31100
O  49.50600 29.46200 34.31500
C  50.48100 29.41500 35.38600
H  45.24700 22.33500 32.54400
H  46.20200 21.92300 26.19400
H  49.48100 27.33500 26.15300
H  47.47500 26.17200 34.35900
H  44.88000 24.68400 33.85000
H  45.65700 23.38300 35.28500
H  47.25600 24.36900 35.31700
H  47.11400 22.98900 34.26100
H  44.57400 26.86500 33.92400
H  45.62200 28.03800 33.19700
H  44.52500 28.36100 35.57000
H  46.03700 29.02500 34.97800
H  43.46300 19.86900 30.62400
H  44.10500 20.80100 31.95800
H  45.13700 19.65300 31.25800
H  44.09800 18.19100 28.78400
H  43.27700 18.55700 27.17300
H  42.88500 19.45800 28.52600
H  47.17000 23.51700 24.53800
H  49.82500 24.59700 24.89100
H  49.38400 21.89100 25.83900
H  49.85900 22.63100 24.24300
H  48.49400 21.62300 24.23100
H  47.55100 26.40900 24.35700
H  47.73900 25.08000 23.21000
H  50.36400 26.45600 23.51500
H  49.00400 27.53100 23.42500
H  49.25600 26.33000 22.14100
H  50.01300 29.43200 26.83900
H  51.22500 29.44100 28.16700
H  50.00300 30.62100 28.12500
H  47.62400 29.24800 32.71300
H  50.59000 30.39400 35.85300
H  51.44800 29.04900 35.04100
H  50.00700 28.69600 36.05400
Mg -11.24100 16.41000 41.98000
C  -7.89800 15.01900 41.96900
C  -9.88200 19.29900 40.68800
C  -14.38300 17.46600 41.53500
C  -12.34100 13.28400 42.89200
N  -9.13400 16.97700 41.44200
C  -7.92300 16.36100 41.51700
C  -6.76700 17.17900 41.03700
C  -7.43200 18.53700 40.89400
C  -8.91000 18.25000 40.99500
C  -6.88400 19.61600 41.81600
C  -6.25600 16.56600 39.64300
C  -4.83400 16.77000 39.35000
H  -4.19700 15.80400 38.32100
N  -12.00400 18.11500 41.20500
C  -11.31700 19.23800 40.75700
C  -12.32500 20.20700 40.33700
C  -13.67400 19.71400 40.61600
C  -13.39000 18.31600 41.10100
C  -11.87400 21.58200 39.72900
C  -14.95800 20.54800 40.38300
O  -14.91700 21.69900 39.96100
C  -16.36300 19.93800 40.62000
N  -13.11800 15.40100 41.93400
C  -14.27500 16.10800 41.85500
C  -15.48700 15.20000 42.13600
C  -14.85800 13.94300 42.81600
C  -13.39500 14.17900 42.52300
C  -16.72400 15.81300 42.92000
C  -15.45800 12.58000 42.25100
C  -16.10200 11.68300 43.40800
N  -10.35400 14.59700 42.49100
C  -10.91800 13.40700 42.83000
C  -9.92000 12.38300 43.12900
C  -8.66600 12.98400 42.79800
C  -9.03100 14.29200 42.35400
C  -10.18500 11.00000 43.47600
C  -7.24300 12.80600 42.79700
O  -6.55700 11.79100 43.03900
C  -6.66400 14.07000 42.22400
C  -5.92800 14.55300 43.40400
O  -6.43500 14.78200 44.44300
O  -4.57300 14.57700 43.14400
C  -3.81500 15.29500 44.27500
H  -9.55500 20.24200 40.24700
H  -15.36500 17.93300 41.44100
H  -12.58800 12.29000 43.27200
H  -6.04100 17.17100 41.85000
H  -7.22400 18.93200 39.90000
H  -7.66700 20.23600 42.25200
H  -6.12800 20.26700 41.37700
H  -6.23200 19.23200 42.60100
H  -6.84200 16.95500 38.81000
H  -6.40400 15.49100 39.75000
H  -4.23100 16.68900 40.25400
H  -4.62000 17.78300 39.01100
H  -12.57500 21.85900 38.94200
H  -10.92600 21.44200 39.20900
H  -11.83800 22.34400 40.50800
H  -17.11300 20.69300 40.38600
H  -16.48000 19.62500 41.65800
H  -16.37200 19.19600 39.82200
H  -15.78500 14.89100 41.13400
H  -14.83300 13.98700 43.90500
H  -16.96500 15.44000 43.91600
H  -17.60700 15.91600 42.29000
H  -16.54300 16.87700 43.07300
H  -14.68100 12.03400 41.71700
H  -16.10700 12.79300 41.40200
H  -17.14200 11.56500 43.10400
H  -16.02100 12.13000 44.39900
H  -15.50400 10.77500 43.48100
H  -9.28100 10.39100 43.48500
H  -10.88800 10.58400 42.75300
H  -10.56700 10.93100 44.49400
H  -6.03000 14.01700 41.33900
H  -3.21300 14.51100 44.73400
H  -4.36100 15.77000 45.09100
H  -3.22200 16.06500 43.78000

