158

Mg 9.01800 4.81200 27.17100
C  10.43200 3.11600 29.90200
C  6.93800 6.45200 29.28000
C  7.50900 5.95400 24.45200
C  10.60200 2.33800 25.12400
N  8.70200 4.80300 29.31600
C  9.55200 4.19700 30.23800
C  9.20900 4.57600 31.65100
C  8.03500 5.67600 31.37900
C  7.81000 5.54200 29.89000
C  6.79900 5.35700 32.25500
C  10.42700 5.09400 32.52200
C  10.10300 5.83200 33.83600
H  10.82500 5.48100 35.14100
N  7.55800 6.19200 26.88700
C  6.76800 6.74800 27.90800
C  5.75600 7.52200 27.29100
C  6.01400 7.53700 25.82500
C  7.09100 6.53000 25.69000
C  4.58300 8.17600 28.09100
C  5.26300 8.26800 24.69300
O  5.49700 8.05500 23.50300
C  4.09000 9.21200 25.05000
N  9.09000 4.25700 25.05300
C  8.43600 5.04400 24.15600
C  8.88000 4.70300 22.71200
C  9.88000 3.50900 22.93400
C  9.79300 3.27400 24.46000
C  7.57700 4.38100 21.84600
C  11.45100 3.75200 22.43400
C  12.16300 2.76100 21.47000
N  10.18700 3.08400 27.45000
C  10.77300 2.26200 26.46400
C  11.68900 1.30900 27.14100
C  11.54000 1.60600 28.48300
C  10.63700 2.62000 28.62000
C  12.60400 0.30100 26.55600
C  11.82600 1.21300 29.87300
O  12.46200 0.28300 30.29700
C  11.24200 2.33300 30.79600
C  10.39800 1.73700 31.87500
O  9.31300 1.21400 31.59400
O  11.06000 1.72200 33.07600
C  10.36100 0.94500 34.08900
H  6.34100 6.95400 30.04400
H  7.09100 6.38600 23.54000
H  11.03800 1.59700 24.45000
H  8.79500 3.76900 32.25500
H  8.55100 6.60600 31.61800
H  5.90200 5.45100 31.64200
H  6.60400 6.12600 33.00200
H  6.80100 4.35700 32.68700
H  10.96200 5.77100 31.85600
H  11.00000 4.22300 32.84000
H  9.03400 5.63600 33.92800
H  10.40500 6.86500 33.66500
H  4.48600 7.78100 29.10300
H  3.66400 7.95500 27.54900
H  4.76500 9.24200 28.22200
H  3.22800 8.70700 25.48500
H  3.93200 9.83300 24.16900
H  4.44000 9.94500 25.77600
H  9.48700 5.47900 22.24700
H  9.53300 2.59900 22.44500
H  7.81800 3.64800 21.07500
H  7.27400 5.28600 21.32000
H  6.75500 4.12600 22.51500
H  12.08100 3.80900 23.32200
H  11.41900 4.70800 21.91100
H  11.47400 2.27800 20.77800
H  12.56000 1.93000 22.05200
H  12.92000 3.27500 20.87800
H  12.67200 0.25600 25.46900
H  12.20000 -0.67200 26.83600
H  13.61700 0.59500 26.82900
H  12.01800 2.93400 31.27100
H  10.01800 -0.04400 33.78700
H  9.67600 1.49600 34.73300
H  11.18000 0.61500 34.72800
Mg -2.58600 35.25300 26.61400
C  -4.31700 33.84700 29.33500
C  -1.25300 37.57900 28.85400
C  -1.20800 36.81800 24.02500
C  -3.98900 32.93900 24.55000
N  -2.71000 35.61900 28.93400
C  -3.50900 34.98700 29.77200
C  -3.26300 35.47600 31.27000
C  -2.32000 36.73800 31.07600
C  -2.12100 36.70300 29.51300
C  -2.60600 38.10200 31.68300
C  -2.79800 34.31000 32.19800
C  -2.30600 34.71800 33.63700
H  -3.31600 34.41400 34.74000
N  -1.33700 36.93600 26.43700
C  -0.92400 37.73700 27.49600
C  -0.05700 38.78300 26.89800
C  -0.09500 38.59100 25.43800
C  -0.95000 37.41000 25.20100
C  0.69500 39.77200 27.68200
C  0.55500 39.30800 24.32200
O  0.51700 39.01100 23.15800
C  1.48000 40.47000 24.60000
N  -2.78600 35.07100 24.64100
C  -2.05200 35.78300 23.67800
C  -2.12300 35.16900 22.34400
C  -2.59200 33.73400 22.61500
C  -3.20100 33.91600 24.02200
C  -3.11400 35.95700 21.34900
C  -1.39700 32.75700 22.69500
C  -1.71400 31.37400 22.11100
N  -3.93000 33.67000 26.82400
C  -4.38100 32.80900 25.89300
C  -5.22800 31.85000 26.52300
C  -5.25700 32.17700 27.89700
C  -4.38800 33.32800 28.01700
C  -6.02000 30.77200 25.76600
C  -5.71100 31.80600 29.20700
O  -6.53900 31.00800 29.56600
C  -5.15300 32.87100 30.18400
C  -6.15000 33.53700 31.10300
O  -6.59000 34.70600 31.02400
O  -6.40500 32.71200 32.07200
C  -7.36400 33.16700 33.05200
H  -0.77300 38.33500 29.47900
H  -0.69800 37.16500 23.12400
H  -4.35400 32.23900 23.79600
H  -4.21100 35.81600 31.68800
H  -1.33100 36.57300 31.50400
H  -3.52300 38.02300 32.26600
H  -2.68100 38.92800 30.97500
H  -1.70700 38.36600 32.24000
H  -2.04900 33.71300 31.67700
H  -3.67200 33.68200 32.37200
H  -2.09500 35.78400 33.72200
H  -1.38900 34.18600 33.89300
H  1.71100 39.41000 27.84000
H  0.35100 39.98000 28.69500
H  0.76300 40.77700 27.26500
H  0.94400 41.33800 24.98300
H  1.95300 40.74300 23.65600
H  2.24000 40.19700 25.33200
H  -1.15500 35.15800 21.84200
H  -3.30000 33.39600 21.85800
H  -3.15900 37.03200 21.52300
H  -4.11800 35.56400 21.50800
H  -2.91000 35.74400 20.30000
H  -1.09600 32.55000 23.72200
H  -0.52000 33.13100 22.16700
H  -0.89400 31.23100 21.40600
H  -2.63900 31.18000 21.56800
H  -1.59900 30.59600 22.86600
H  -6.66200 30.31400 26.51900
H  -5.39100 29.96000 25.40000
H  -6.61300 31.30000 25.02000
H  -4.48800 32.30300 30.83500
H  -8.29400 33.24700 32.48800
H  -7.18500 34.15900 33.46600
H  -7.50200 32.47900 33.88600

