158

Mg 8.07600 2.91000 27.45300
C  9.49200 1.35500 30.26500
C  6.27100 5.01900 29.45900
C  6.73800 4.11100 24.71900
C  9.70400 0.34000 25.49500
N  7.66200 2.96600 29.70900
C  8.59500 2.42900 30.58700
C  8.37100 3.08800 32.00000
C  7.01000 3.95900 31.77300
C  7.00800 4.06300 30.19500
C  5.72700 3.53700 32.48100
C  9.51200 3.84800 32.67500
C  9.93100 3.36300 34.09900
H  10.40900 4.39000 35.17800
N  6.80800 4.50700 27.11000
C  6.15000 5.30600 28.07900
C  5.42800 6.35300 27.42100
C  5.44100 6.03100 26.05800
C  6.40100 4.86700 25.88900
C  4.80200 7.57000 28.11100
C  4.80600 6.67100 24.91300
O  4.92900 6.19200 23.80900
C  4.00800 7.95700 25.06600
N  8.09700 2.13400 25.48400
C  7.43900 2.90300 24.51300
C  7.68600 2.40300 23.10600
C  8.86000 1.30200 23.36500
C  8.88000 1.29000 24.89800
C  6.38300 1.88800 22.47100
C  10.24500 1.60700 22.73200
C  10.85700 0.51400 21.84400
N  9.11800 1.01700 27.78000
C  9.79800 0.18500 26.88200
C  10.65900 -0.74800 27.66000
C  10.59400 -0.28700 28.97400
C  9.61400 0.73500 28.98900
C  11.53400 -1.79000 27.14200
C  11.12600 -0.35700 30.32400
O  12.01400 -1.07300 30.69900
C  10.43400 0.70800 31.23700
C  9.78100 -0.16700 32.29400
O  9.09200 -1.13700 32.00900
O  10.29500 0.23600 33.50400
C  9.86000 -0.56200 34.71000
H  5.79900 5.74600 30.12300
H  6.38000 4.42200 23.73500
H  10.37200 -0.30300 24.91800
H  8.14800 2.24600 32.65500
H  7.19600 4.99800 32.04400
H  5.24100 4.40300 32.93100
H  5.96800 2.72200 33.16300
H  4.97300 3.21500 31.76200
H  9.31300 4.91400 32.78300
H  10.36000 3.74500 31.99700
H  10.78600 2.70200 33.95500
H  9.09300 2.87400 34.59400
H  5.38800 8.39300 27.70300
H  4.85000 7.46700 29.19600
H  3.73700 7.55900 27.87900
H  3.51800 8.04700 24.09600
H  4.75300 8.71500 25.30900
H  3.27600 7.75000 25.84600
H  7.92200 3.29500 22.52600
H  8.50900 0.33100 23.01500
H  6.38800 2.32100 21.47100
H  5.48400 2.27300 22.95200
H  6.55100 0.81200 22.42700
H  10.93800 1.82200 23.54500
H  10.23700 2.51100 22.12300
H  11.93300 0.39900 21.97700
H  10.63700 0.70400 20.79300
H  10.40200 -0.45000 22.07000
H  12.60000 -1.69900 27.35100
H  11.49200 -1.90900 26.06000
H  11.22700 -2.74500 27.56700
H  11.25900 1.31600 31.60900
H  9.45800 -1.56400 34.55600
H  9.44700 0.21500 35.35300
H  10.80900 -0.76800 35.20500
Mg 24.18800 -5.09300 45.72200
C  26.07300 -2.41900 44.57500
C  21.63400 -3.97600 43.74100
C  22.71900 -8.12700 46.03800
C  27.16500 -6.48300 47.09000
N  23.88700 -3.41800 44.38700
C  24.75000 -2.36100 44.14000
C  24.10500 -1.36800 43.21800
C  22.58300 -1.70600 43.28400
C  22.68300 -3.15700 43.79400
C  21.80100 -0.88100 44.20100
C  24.76800 -1.18700 41.76800
C  25.22400 -2.44400 41.11400
H  26.02900 -2.29800 39.71000
N  22.33800 -5.95200 45.04000
C  21.44400 -5.28700 44.27000
C  20.36600 -6.13500 44.07000
C  20.51600 -7.30200 44.90600
C  21.91100 -7.18900 45.38600
C  19.21600 -5.61200 43.27100
C  19.48900 -8.50000 45.06500
O  18.44400 -8.51700 44.44700
C  19.82100 -9.57500 46.04100
N  24.87400 -7.05300 46.37400
C  23.99700 -8.11600 46.46700
C  24.57500 -9.22700 47.32900
C  25.95200 -8.64300 47.80500
C  26.01200 -7.29600 47.07200
C  23.66900 -9.66500 48.55500
C  27.08100 -9.54500 47.26400
C  28.51500 -9.46000 47.95500
N  26.13700 -4.52800 45.98400
C  27.18900 -5.18900 46.55300
C  28.32900 -4.33800 46.50900
C  27.94600 -3.26000 45.77200
C  26.58500 -3.38100 45.43600
C  29.72200 -4.60500 46.98100
C  28.43400 -2.01100 45.15600
O  29.45600 -1.36600 45.25200
C  27.22700 -1.54800 44.23600
C  27.08000 -0.03800 44.34200
O  26.43200 0.59100 45.16100
O  27.89100 0.53100 43.37100
C  27.86900 1.98800 43.29800
H  20.77800 -3.69800 43.12300
H  22.27500 -9.12000 46.13200
H  28.02300 -6.90500 47.61800
H  24.26400 -0.37400 43.63500
H  22.20700 -1.58800 42.26700
H  22.26000 -0.90900 45.19000
H  20.85400 -1.41800 44.24900
H  21.69100 0.18900 44.02400
H  25.61400 -0.50400 41.68800
H  23.87800 -0.93600 41.19200
H  24.33000 -3.05200 40.97800
H  25.83800 -3.01900 41.80700
H  18.87500 -4.69900 43.75900
H  18.31600 -6.22600 43.24000
H  19.57600 -5.60100 42.24300
H  19.02000 -10.09000 46.57200
H  20.38300 -9.07700 46.83100
H  20.29300 -10.34500 45.43100
H  24.69000 -10.02100 46.59100
H  26.07000 -8.45800 48.87300
H  22.88300 -8.95000 48.80000
H  24.25100 -9.83200 49.46100
H  23.14100 -10.57600 48.27600
H  27.14600 -9.21800 46.22700
H  26.88600 -10.61800 47.25400
H  29.19800 -9.05300 47.20900
H  28.93200 -10.37500 48.37600
H  28.44200 -8.66600 48.69800
H  29.77200 -4.24400 48.00800
H  30.42100 -4.00900 46.39400
H  29.81500 -5.68900 46.90700
H  27.56200 -1.68400 43.20800
H  26.90000 2.45900 43.45800
H  28.23600 2.37500 42.34700
H  28.57200 2.20900 44.10100

