158

Mg 41.41800 40.63300 27.58400
C  40.64200 43.08700 29.91800
C  42.62900 38.70700 30.16300
C  42.64500 38.65000 25.35000
C  40.81200 42.97800 25.09700
N  41.47100 40.77300 29.74700
C  41.00600 41.86900 30.49600
C  40.89800 41.47500 32.03000
C  41.82200 40.15600 32.09200
C  42.12100 39.85200 30.57800
C  43.23100 40.35300 32.85400
C  39.42600 41.23400 32.45300
C  38.79800 41.92000 33.76000
H  38.54200 41.00800 35.04000
N  42.43700 38.90100 27.75200
C  42.86500 38.17300 28.88200
C  43.27600 36.84900 28.53900
C  43.40300 36.89200 27.17000
C  42.89600 38.20500 26.70300
C  43.78300 35.80900 29.53000
C  44.03800 35.82600 26.19700
O  43.99100 35.95600 24.98600
C  44.64400 34.58500 26.67400
N  41.59300 40.81200 25.51600
C  42.07700 39.82800 24.76200
C  42.07600 40.08000 23.27500
C  41.74100 41.62000 23.26300
C  41.26300 41.78100 24.68400
C  43.30900 39.78200 22.35500
C  40.70800 41.95500 22.19900
C  39.25200 41.65900 22.50500
N  40.75300 42.64900 27.49700
C  40.59000 43.45700 26.41200
C  40.11100 44.79800 26.90600
C  40.01100 44.68000 28.25700
C  40.52000 43.36700 28.56800
C  39.92200 46.03900 25.92700
C  39.55800 45.29800 29.46300
O  38.86600 46.30700 29.63500
C  39.97300 44.30100 30.60800
C  40.84900 44.97300 31.59500
O  42.06300 45.19700 31.42700
O  40.25600 45.19700 32.80000
C  41.07900 46.02300 33.68200
H  43.01800 38.01500 30.91300
H  43.05600 37.99500 24.57900
H  40.78800 43.75900 24.33400
H  41.34200 42.22600 32.68300
H  41.30100 39.22500 32.31400
H  43.92000 40.53200 32.02800
H  43.24400 39.42600 33.42700
H  43.20000 41.26900 33.44400
H  39.33900 40.17300 32.68300
H  38.84300 41.39300 31.54600
H  37.91800 42.44500 33.38800
H  39.50500 42.66900 34.11700
H  43.26300 34.86200 29.67700
H  43.67300 36.16100 30.55500
H  44.79200 35.46600 29.30000
H  45.45400 34.91200 27.32500
H  45.01600 33.98300 25.84600
H  43.88600 34.14600 27.32300
H  41.21700 39.56300 22.84900
H  42.67600 42.17300 23.17400
H  43.10200 38.81500 21.89600
H  44.15900 39.73600 23.03500
H  43.53500 40.62000 21.69600
H  41.07800 41.28600 21.42200
H  40.96700 42.95200 21.84400
H  38.97100 41.30300 23.49600
H  38.90100 40.88200 21.82500
H  38.63600 42.53000 22.28300
H  38.99400 46.50900 26.25200
H  39.78700 45.68200 24.90600
H  40.71800 46.76700 26.08300
H  39.07600 44.02600 31.16400
H  41.69100 46.74800 33.14600
H  41.74600 45.38700 34.26500
H  40.40100 46.52200 34.37500
Mg 0.07800 43.66200 26.16600
C  2.34600 44.08900 28.82100
C  -2.35400 42.98700 28.66900
C  -2.03700 42.90600 23.79000
C  2.73600 43.76300 23.88800
N  -0.02400 43.54400 28.54700
C  1.03000 43.89200 29.34400
C  0.62600 43.86300 30.82200
C  -0.83500 43.23700 30.78700
C  -1.14000 43.26800 29.23900
C  -0.97000 41.78900 31.39100
C  0.79600 45.23600 31.58800
C  1.41200 45.27100 32.95800
H  1.12500 44.06000 33.91300
N  -1.94000 43.28400 26.18300
C  -2.77900 43.06800 27.29000
C  -4.15600 42.76200 26.82900
C  -4.03200 42.71900 25.40900
C  -2.59900 42.93200 25.06900
C  -5.31700 42.46100 27.80800
C  -5.14500 42.63500 24.40300
O  -4.86700 42.74200 23.17800
C  -6.62700 42.47800 24.70600
N  0.32000 43.39200 24.13600
C  -0.75800 43.14600 23.34200
C  -0.35900 43.01500 21.79400
C  1.15000 43.35400 21.89300
C  1.45600 43.60700 23.41700
C  -0.62700 41.57600 21.31000
C  1.52900 44.60000 21.08700
C  2.80100 44.60300 20.32800
N  2.14000 43.77000 26.23500
C  3.07900 43.90300 25.28700
C  4.40400 44.27600 25.79200
C  4.11800 44.31100 27.21400
C  2.74300 43.99600 27.40500
C  5.64600 44.58400 25.05100
C  4.77700 44.54700 28.48900
O  5.91700 44.82900 28.76600
C  3.59100 44.45700 29.56800
C  4.00800 43.39900 30.49800
O  3.55900 42.28600 30.51000
O  4.98100 43.92800 31.32700
C  5.46800 43.16300 32.45900
H  -3.23600 42.81600 29.29100
H  -2.69900 42.68500 22.95000
H  3.51200 43.99600 23.15700
H  1.19900 43.09600 31.34400
H  -1.53700 43.92300 31.26000
H  -0.06100 41.42100 31.86700
H  -1.12600 41.11600 30.54900
H  -1.73600 41.65000 32.15300
H  -0.13500 45.80300 31.61400
H  1.46100 45.87500 31.00800
H  1.18600 46.17300 33.52700
H  2.49000 45.26200 32.79100
H  -6.07200 41.82500 27.34600
H  -5.79400 43.38600 28.13300
H  -4.98800 41.81700 28.62400
H  -6.88600 43.21500 25.46600
H  -6.84100 41.47100 25.06600
H  -7.12400 42.74000 23.77300
H  -1.02200 43.64900 21.20500
H  1.69900 42.46300 21.58900
H  -1.46500 41.71300 20.62700
H  -0.92700 40.93700 22.14100
H  0.23600 41.05300 20.89700
H  1.71100 45.43000 21.77000
H  0.70700 44.96400 20.47000
H  3.20900 43.59600 20.41100
H  3.57200 45.24400 20.75500
H  2.66000 44.90900 19.29100
H  6.31100 43.72000 25.07000
H  6.17300 45.36600 25.59700
H  5.46400 44.85100 24.01000
H  3.47000 45.38800 30.12300
H  6.03700 42.28700 32.14800
H  4.65900 42.85400 33.12100
H  6.18600 43.82200 32.94800

