158

Mg 49.90600 45.93700 42.14700
C  46.77500 46.28200 40.42800
C  49.86800 42.63400 40.85700
C  53.13200 45.89400 42.85200
C  49.95100 49.53200 42.36700
N  48.46200 44.61100 40.65200
C  47.28900 45.04100 40.20200
C  46.58400 43.87100 39.47300
C  47.46800 42.62600 39.86700
C  48.66300 43.33700 40.51900
C  46.84500 41.51800 40.75900
C  46.53600 44.12100 37.94900
C  45.24700 43.73800 37.29100
H  44.82500 44.38400 35.96100
N  51.25300 44.45200 41.94800
C  51.06400 43.20900 41.40700
C  52.29000 42.42500 41.61900
C  53.20300 43.30800 42.30700
C  52.56700 44.60500 42.36200
C  52.46600 40.90000 41.22500
C  54.57000 42.92500 42.88400
O  54.93900 41.78000 42.93300
C  55.68100 43.88200 43.45500
N  51.27700 47.50300 42.67100
C  52.56900 47.18100 42.95500
C  53.38300 48.50300 43.24500
C  52.48200 49.61200 42.80200
C  51.14300 48.88500 42.62400
C  53.83100 48.58900 44.64700
C  53.00600 50.36800 41.52000
C  53.26900 51.87200 41.87200
N  48.62400 47.55900 41.74300
C  48.78300 48.94200 41.84600
C  47.60600 49.66100 41.37400
C  46.82300 48.65600 40.90200
C  47.45300 47.39800 41.13900
C  47.41700 51.12100 41.22100
C  45.58900 48.39400 40.21600
O  44.80400 49.20700 39.78500
C  45.43200 46.93100 39.91300
C  44.33500 46.38800 40.78600
O  44.43000 46.09400 41.97600
O  43.18800 46.43200 40.02600
C  41.99400 46.13900 40.85700
H  49.93600 41.59200 40.53500
H  54.17100 45.79900 43.17300
H  49.96100 50.61700 42.49300
H  45.60500 43.67200 39.91100
H  47.87200 42.06100 39.02700
H  46.92800 41.59300 41.84400
H  47.51600 40.71700 40.45200
H  45.80800 41.33400 40.47700
H  47.22500 43.45600 37.42900
H  46.81900 45.11100 37.59200
H  44.34100 43.87600 37.88100
H  45.21600 42.66100 37.12800
H  52.01300 40.30800 42.02000
H  53.46800 40.65200 40.87300
H  51.93300 40.69500 40.29700
H  55.18700 44.43500 44.25400
H  55.79300 44.52700 42.58400
H  56.57900 43.33900 43.75000
H  54.27300 48.43200 42.61900
H  52.30900 50.30200 43.62800
H  54.85500 48.96000 44.68600
H  53.83400 47.61500 45.13700
H  53.12100 49.16000 45.24600
H  52.34500 50.27800 40.65700
H  53.95000 49.95000 41.16800
H  52.83800 52.47300 41.07200
H  54.35800 51.84100 41.84200
H  52.93100 52.12200 42.87700
H  47.38200 51.52000 42.23500
H  46.43900 51.28700 40.76900
H  48.18400 51.55500 40.58100
H  45.19500 46.78100 38.86000
H  41.11800 46.08300 40.21100
H  41.92700 46.96500 41.56600
H  41.99800 45.14500 41.30500
Mg 16.86100 52.06500 26.13000
C  18.49200 50.74500 28.91900
C  14.32000 53.01200 28.25900
C  15.09000 53.03500 23.48000
C  19.37800 50.77800 24.06700
N  16.50500 52.03600 28.45500
C  17.32400 51.48800 29.30200
C  16.85100 51.77700 30.78200
C  15.40600 52.18500 30.55300
C  15.35600 52.49600 29.02700
C  14.33300 51.12200 31.00200
C  17.85200 52.75200 31.46900
C  18.17700 52.45100 32.92700
H  17.05000 51.79600 33.80300
N  15.03000 52.91800 25.91100
C  14.10600 53.21400 26.89300
C  12.91500 53.85500 26.30300
C  13.24000 53.97800 24.94800
C  14.54300 53.33300 24.72100
C  11.80400 54.49200 27.11900
C  12.37300 54.53500 23.82900
O  12.68300 54.54500 22.65400
C  11.09500 55.07600 24.17500
N  17.14800 51.88100 24.07500
C  16.31900 52.41800 23.16300
C  16.88000 52.29900 21.74500
C  18.30700 51.74800 21.95200
C  18.33000 51.46000 23.41400
C  15.99200 51.44200 20.78700
C  19.43300 52.70400 21.48900
C  19.50500 54.19200 21.84800
N  18.53300 50.82300 26.32800
C  19.52500 50.50500 25.43600
C  20.59800 49.74600 26.09900
C  20.18900 49.80200 27.51500
C  18.94400 50.53900 27.57800
C  21.88200 49.20100 25.50600
C  20.57000 49.44300 28.85500
O  21.51500 48.78600 29.23100
C  19.49700 50.05200 29.82200
C  18.94500 48.93000 30.54800
O  18.16800 48.11500 30.08300
O  19.29800 49.03800 31.84300
C  18.75800 48.10900 32.82500
H  13.49100 53.24000 28.93200
H  14.59200 53.10800 22.51100
H  20.28800 50.64200 23.48000
H  16.88400 50.80800 31.28000
H  15.10900 53.08800 31.08600
H  13.68400 51.60100 31.73500
H  14.89600 50.26000 31.36000
H  13.68900 50.73400 30.21300
H  17.49900 53.78300 31.48400
H  18.81800 52.65700 30.97200
H  18.37700 53.34700 33.51400
H  19.06200 51.82200 32.82100
H  12.06000 54.45500 28.17800
H  10.88800 53.90700 27.03900
H  11.64500 55.52200 26.79900
H  10.37800 54.39800 24.63800
H  10.53200 55.02900 23.24300
H  11.17900 56.08600 24.57700
H  16.91500 53.34900 21.45400
H  18.41800 50.75000 21.52900
H  16.51400 50.84300 20.04100
H  15.42700 51.97900 20.02400
H  15.32500 50.76600 21.32200
H  19.40900 52.87600 20.41300
H  20.37700 52.20300 21.70400
H  20.22900 54.35200 22.64700
H  18.55000 54.52600 22.25200
H  19.84400 54.72700 20.96100
H  21.94400 49.25800 24.41900
H  22.09400 48.14400 25.66900
H  22.73900 49.66100 25.99700
H  20.03800 50.69500 30.51700
H  19.28800 47.15900 32.76600
H  17.67200 48.02100 32.84400
H  18.96400 48.48900 33.82600

