158

Mg 47.24900 34.81600 28.42400
C  45.78000 33.02000 30.79500
C  47.52500 37.62000 30.56600
C  47.95200 37.01500 25.80100
C  46.68000 32.27900 26.15000
N  46.71900 35.20900 30.41100
C  46.23400 34.28600 31.27900
C  46.10600 34.74800 32.73800
C  46.20700 36.29900 32.56700
C  46.86000 36.40100 31.08600
C  44.98200 37.13500 32.82400
C  47.24000 34.14700 33.67200
C  46.84000 33.76300 35.11400
H  47.52700 34.74200 36.09100
N  47.67800 36.94300 28.18600
C  47.86900 37.84900 29.21900
C  48.53300 39.10400 28.74600
C  48.62800 38.93900 27.34600
C  48.04300 37.61600 27.07600
C  49.14400 40.09800 29.63200
C  49.20000 39.90500 26.32200
O  49.35800 39.68100 25.10700
C  49.67500 41.31000 26.76200
N  47.31000 34.64800 26.34400
C  47.63300 35.70700 25.49900
C  47.76600 35.16600 24.00600
C  47.34300 33.65700 24.12000
C  47.14300 33.42600 25.60900
C  47.04700 35.96400 22.93300
C  48.29000 32.57500 23.44600
C  49.68100 32.48500 24.01500
N  46.52000 32.87300 28.46300
C  46.28800 31.97900 27.45300
C  45.72800 30.79800 27.93800
C  45.36800 31.17000 29.22700
C  45.87100 32.44500 29.49700
C  45.41000 29.53000 27.19300
C  44.70900 30.81100 30.44800
O  44.16500 29.75500 30.65900
C  44.88800 31.94800 31.52000
C  45.53100 31.29200 32.72000
O  46.68900 30.94500 32.81900
O  44.60900 31.07400 33.77600
C  45.17100 30.33600 34.93100
H  47.41200 38.53600 31.14900
H  48.39000 37.52000 24.93600
H  46.70000 31.48500 25.40000
H  45.11300 34.49700 33.11300
H  46.93500 36.77100 33.22700
H  44.99500 37.47500 33.86000
H  44.03900 36.59900 32.71700
H  45.00500 38.04000 32.21800
H  47.88300 35.02300 33.75900
H  47.83200 33.36900 33.19100
H  47.03000 32.73100 35.40800
H  45.77600 33.91100 35.29700
H  49.29100 39.67000 30.62300
H  48.48600 40.96700 29.60400
H  50.13300 40.34800 29.24800
H  49.68400 42.08000 25.99100
H  50.69700 41.14900 27.10500
H  49.09200 41.63200 27.62600
H  48.83300 35.18200 23.78500
H  46.34300 33.60900 23.68900
H  46.74300 36.98300 23.17200
H  46.14800 35.42700 22.63400
H  47.70200 36.00900 22.06200
H  48.41900 32.83300 22.39500
H  47.70800 31.65800 23.35300
H  49.90700 31.55500 24.53700
H  49.89800 33.30100 24.70400
H  50.45300 32.56500 23.25000
H  45.71100 29.74400 26.16800
H  44.33300 29.37000 27.14500
H  46.00000 28.69200 27.56400
H  43.90100 32.37700 31.69600
H  44.42300 30.50400 35.70600
H  46.18500 30.66700 35.15700
H  45.29600 29.28100 34.68700
Mg 35.92700 49.20100 24.82900
C  36.01000 47.52200 28.04000
C  34.53300 51.87500 26.47600
C  35.62100 50.51900 21.85600
C  36.67800 46.03200 23.33400
N  35.49600 49.68300 27.07200
C  35.59800 48.85500 28.19000
C  35.23900 49.62700 29.44100
C  34.86900 51.07100 28.92100
C  34.89100 50.81400 27.38100
C  33.49900 51.58100 29.49800
C  36.42000 49.71300 30.46800
C  36.10100 49.02300 31.81600
H  35.73700 49.91700 32.97100
N  35.32100 51.05900 24.23200
C  34.76800 51.97100 25.05200
C  34.56700 53.12300 24.28500
C  34.77800 52.81700 22.85800
C  35.26100 51.40500 22.92200
C  34.05800 54.44300 24.89400
C  34.48200 53.68700 21.63300
O  34.86600 53.29100 20.50000
C  33.73400 54.97500 21.66500
N  35.96100 48.32300 22.84200
C  36.00900 49.13700 21.81600
C  36.41200 48.49500 20.47700
C  36.76200 47.07700 21.01600
C  36.49400 47.12200 22.52800
C  35.28600 48.53200 19.40200
C  38.15900 46.61200 20.74100
C  39.35800 46.82800 21.72700
N  36.08200 47.10600 25.52000
C  36.55700 45.99200 24.75600
C  36.86400 44.97200 25.74900
C  36.60400 45.49400 26.99000
C  36.20800 46.83900 26.81900
C  37.29800 43.56900 25.38600
C  36.68200 45.15000 28.36400
O  37.04600 44.09900 28.92600
C  36.28300 46.42200 29.13800
C  35.02900 46.11400 29.86900
O  33.90600 46.40900 29.48100
O  35.34100 45.52900 31.08200
C  34.17900 45.05900 31.92600
H  34.10900 52.79600 26.88100
H  35.47900 51.00200 20.88700
H  37.18400 45.17400 22.88600
H  34.43600 49.17800 30.02700
H  35.59700 51.88000 28.97500
H  33.10900 51.03300 30.35600
H  32.72000 51.44800 28.74700
H  33.64100 52.59900 29.85800
H  36.67600 50.76700 30.57400
H  37.30400 49.15900 30.15100
H  36.97700 48.48200 32.17400
H  35.36000 48.22900 31.73100
H  32.97300 54.42300 25.00000
H  34.35200 55.28500 24.26800
H  34.57500 54.66400 25.82800
H  33.33100 55.28400 20.70100
H  34.36400 55.70700 22.17000
H  32.85400 54.74300 22.26600
H  37.24200 49.15000 20.21300
H  36.04500 46.32600 20.68500
H  35.15000 47.55000 18.94800
H  35.49600 49.10500 18.49900
H  34.36800 48.84300 19.90000
H  38.37200 47.09300 19.78600
H  38.16100 45.54400 20.52600
H  39.55100 45.82000 22.09600
H  39.32300 47.47600 22.60300
H  40.21300 47.19200 21.15900
H  36.83600 42.85400 26.06700
H  38.34200 43.26400 25.30700
H  36.89500 43.38400 24.39100
H  36.98100 46.75300 29.90700
H  33.47300 44.65400 31.20100
H  33.79200 45.69600 32.72100
H  34.57500 44.17500 32.42600

