158

Mg 51.31400 46.29100 43.43200
C  48.33200 47.11300 41.95100
C  50.75300 43.01400 42.16100
C  54.37800 45.47200 44.43900
C  51.87500 49.59000 44.31500
N  49.57800 45.21400 42.32500
C  48.54200 45.79900 41.69400
C  47.68100 44.77200 40.89900
C  48.54000 43.53600 41.00800
C  49.69000 43.94400 41.96400
C  47.69900 42.24400 41.34400
C  47.43100 45.21500 39.38000
C  46.03700 44.89500 38.83900
H  45.88500 44.12100 37.59700
N  52.44800 44.55000 43.29800
C  52.05500 43.30800 42.72000
C  53.13400 42.35500 42.84300
C  54.20800 43.04200 43.53400
C  53.68200 44.38100 43.87200
C  53.05800 40.92100 42.38300
C  55.55800 42.45700 43.81700
O  55.86100 41.34300 43.46600
C  56.50700 43.29000 44.55100
N  53.04200 47.48300 44.05800
C  54.15200 46.89400 44.57800
C  55.06900 47.99700 45.32200
C  54.13100 49.15500 45.32300
C  52.98600 48.75600 44.46400
C  55.55300 47.45200 46.76100
C  54.70600 50.57300 44.99000
C  54.11000 51.69300 45.78400
N  50.33100 48.03900 43.37600
C  50.62500 49.27400 43.74900
C  49.59400 50.22000 43.35700
C  48.65200 49.40900 42.62700
C  49.12800 48.09800 42.68000
C  49.53700 51.67400 43.73900
C  47.39800 49.39200 42.04200
O  46.55100 50.29600 41.96800
C  47.17200 47.96100 41.40600
C  45.85800 47.41100 41.67000
O  45.41500 47.13400 42.75300
O  45.13700 47.37800 40.53200
C  43.70200 47.05300 40.58400
H  50.66600 42.02500 41.70500
H  55.30000 45.32500 45.00600
H  51.92900 50.61000 44.70100
H  46.85600 44.64700 41.60100
H  48.93800 43.34500 40.01100
H  47.90400 42.15900 42.41100
H  48.19100 41.41500 40.83600
H  46.62000 42.34900 41.23300
H  48.13500 44.68400 38.73900
H  47.54600 46.29700 39.31800
H  45.48400 45.81400 38.64600
H  45.43200 44.37100 39.57900
H  53.92900 40.74300 41.75300
H  52.21200 40.72800 41.72300
H  52.94900 40.23000 43.21900
H  57.43900 42.80100 44.83300
H  56.05100 43.49500 45.52000
H  56.79500 44.21100 44.04400
H  55.92700 48.32100 44.73400
H  53.70400 49.18600 46.32600
H  55.18800 48.16200 47.50300
H  56.61400 47.48900 47.00800
H  55.25500 46.40800 46.86000
H  54.49600 50.98900 44.00500
H  55.78700 50.60100 45.13200
H  53.63800 52.35200 45.05600
H  54.87700 52.20200 46.36800
H  53.35300 51.36600 46.49600
H  48.58300 52.11800 43.45800
H  50.41000 52.22300 43.38800
H  49.51900 51.67200 44.82900
H  47.45000 48.22500 40.38600
H  43.40800 46.32200 41.33600
H  43.43700 46.65400 39.60400
H  43.16500 47.98300 40.77100
Mg 6.53100 53.71000 41.28700
C  3.87300 51.57300 40.85600
C  8.69400 51.12600 40.21900
C  8.89600 55.98800 40.98200
C  4.28800 56.26300 42.11500
N  6.28500 51.72600 40.31800
C  5.06000 51.03600 40.26300
C  5.27100 49.67500 39.63500
C  6.80400 49.41700 39.81900
C  7.32200 50.84100 40.14500
C  7.08100 48.34400 40.89200
C  4.94500 49.77700 38.12800
C  4.27500 48.50700 37.53800
H  4.88100 47.87100 36.21100
N  8.49800 53.62500 40.65400
C  9.18500 52.49000 40.27800
C  10.57000 52.90300 39.98000
C  10.58800 54.33500 40.08100
C  9.27800 54.73600 40.53800
C  11.61200 51.96500 39.35000
C  11.74900 55.28100 39.54700
O  12.80500 54.77000 39.19300
C  11.62900 56.72300 39.33400
N  6.58400 55.93300 41.30200
C  7.70700 56.57500 41.46100
C  7.58300 58.01100 41.98400
C  6.02900 58.11600 41.98700
C  5.58100 56.70800 41.83500
C  8.25300 58.34700 43.43100
C  5.34200 59.01200 40.88200
C  5.24300 60.52800 41.22800
N  4.59800 53.95300 41.56300
C  3.72600 54.99000 41.97200
C  2.41200 54.55200 42.23000
C  2.44700 53.22000 41.79600
C  3.79200 52.91500 41.37100
C  1.32700 55.41100 42.89200
C  1.64000 52.05500 41.71400
O  0.50900 51.83000 42.18500
C  2.54800 50.93200 41.12800
C  1.93800 50.33800 39.92100
O  1.62400 50.95700 38.93200
O  1.69300 49.00700 40.10000
C  0.76400 48.45600 39.16900
H  9.43000 50.41000 39.84900
H  9.69800 56.69500 41.20800
H  3.67300 57.12300 42.38800
H  4.67900 48.86100 40.05400
H  7.20100 48.98600 38.90000
H  7.49500 48.84800 41.76600
H  7.93900 47.72000 40.64500
H  6.16300 47.80400 41.12400
H  5.84900 49.94600 37.54400
H  4.30900 50.63400 37.90600
H  3.30000 48.91300 37.26800
H  4.14200 47.70800 38.26700
H  12.18600 51.43000 40.10600
H  12.24000 52.49300 38.63300
H  11.07100 51.25600 38.72300
H  10.59300 56.93500 39.06900
H  12.23000 57.08200 38.49900
H  11.87100 57.21200 40.27800
H  8.11400 58.60400 41.24000
H  5.70000 58.42700 42.97800
H  9.13400 57.71200 43.53000
H  7.42000 58.05500 44.07000
H  8.52500 59.39800 43.53100
H  4.31400 58.65600 40.82600
H  5.83800 58.88600 39.92000
H  5.41300 60.71900 42.28800
H  4.32200 61.01300 40.90400
H  6.07500 61.02600 40.73000
H  1.54400 55.31800 43.95600
H  0.29300 55.18200 42.63100
H  1.48100 56.46200 42.65100
H  2.55700 50.08900 41.81900
H  0.52400 47.43100 39.45100
H  0.97500 48.62700 38.11400
H  -0.11700 49.08700 39.28300

