158

Mg 17.25300 -1.35400 27.54600
C  16.24700 0.79900 30.18500
C  19.25400 -3.04200 29.78200
C  18.73000 -2.77800 24.95600
C  15.80800 0.96700 25.38000
N  17.76200 -1.12900 29.70400
C  17.12100 -0.26200 30.54300
C  17.69900 -0.47100 32.06200
C  18.64700 -1.71900 31.88000
C  18.59100 -1.95300 30.35600
C  20.04200 -1.63200 32.50500
C  16.58000 -0.64100 33.24100
C  16.97100 0.13400 34.57500
H  18.43700 0.36500 34.87800
N  18.74200 -2.81200 27.35800
C  19.31800 -3.47500 28.38900
C  20.19500 -4.51400 27.84800
C  20.05100 -4.45600 26.43100
C  19.12700 -3.37500 26.18500
C  20.89500 -5.47900 28.78900
C  20.73200 -5.29200 25.37400
O  20.49200 -5.21800 24.16600
C  21.90300 -6.11200 25.76300
N  17.27000 -0.97100 25.40900
C  17.99300 -1.67700 24.57200
C  17.79800 -1.22900 23.10300
C  16.67700 -0.17700 23.27800
C  16.56800 -0.04700 24.76500
C  19.00900 -0.67800 22.26600
C  15.31500 -0.41700 22.58100
C  15.20100 0.09700 21.09100
N  16.04000 0.41100 27.70700
C  15.56900 1.26800 26.76700
C  14.79500 2.36100 27.28400
C  15.00100 2.19300 28.65700
C  15.86600 1.02900 28.87000
C  14.02100 3.51100 26.49600
C  14.67900 2.72800 29.93000
O  13.93400 3.62800 30.34900
C  15.53600 1.81800 30.96200
C  16.52900 2.80900 31.69300
O  17.68100 3.06800 31.29700
O  15.95600 3.22200 32.91000
C  16.80700 4.09200 33.79500
H  19.79600 -3.60600 30.54400
H  19.11100 -3.30900 24.08200
H  15.26900 1.75600 24.85000
H  18.24900 0.45500 32.23100
H  18.16900 -2.51900 32.44400
H  20.11800 -0.89400 33.30400
H  20.61600 -1.39400 31.60900
H  20.34400 -2.60800 32.88500
H  16.54600 -1.71300 33.43600
H  15.59300 -0.32000 32.91000
H  16.39800 -0.35500 35.36200
H  16.56500 1.14200 34.66300
H  21.94900 -5.65000 28.57200
H  20.32100 -6.39400 28.64300
H  20.74300 -5.30800 29.85400
H  22.31800 -6.62400 24.89500
H  21.65200 -6.88600 26.48800
H  22.74700 -5.50900 26.09900
H  17.31400 -1.98600 22.48600
H  16.98400 0.79100 22.88100
H  19.84500 -1.12200 22.80700
H  19.06800 0.41000 22.28900
H  19.06500 -0.98000 21.22000
H  14.52200 0.05600 23.15900
H  15.10800 -1.48400 22.66000
H  14.33900 0.76100 21.03300
H  15.01500 -0.76600 20.45300
H  16.07100 0.66900 20.76800
H  14.01600 3.22700 25.44400
H  14.52000 4.47700 26.58000
H  13.03300 3.67400 26.92600
H  14.86900 1.55700 31.78400
H  17.77100 4.45300 33.43600
H  17.07500 3.47000 34.64800
H  16.21400 4.89100 34.24200
Mg 49.92000 45.91500 43.19900
C  46.57300 46.26300 42.31800
C  49.78200 42.60900 42.26800
C  53.32700 45.73200 43.66000
C  50.15400 49.43900 43.84400
N  48.33600 44.65700 42.26000
C  47.03000 44.96400 42.17100
C  46.21500 43.79000 41.71600
C  47.20600 42.56300 41.83800
C  48.52400 43.28700 42.16300
C  46.90200 41.45800 42.93300
C  45.77000 43.94500 40.14300
C  44.39300 43.60500 39.81400
H  43.86500 44.45000 38.63100
N  51.44500 44.40500 42.87200
C  51.12300 43.07900 42.53600
C  52.32800 42.27100 42.61000
C  53.33400 43.15000 43.07200
C  52.73200 44.51100 43.19300
C  52.40500 40.77100 42.24800
C  54.84800 42.75900 43.28700
O  55.12400 41.59100 43.02100
C  55.89500 43.70200 43.79500
N  51.51700 47.41700 43.62900
C  52.74100 47.00300 43.83500
C  53.58300 48.27500 44.14800
C  52.57700 49.51800 44.17400
C  51.32900 48.76000 43.89100
C  54.49500 48.19700 45.40900
C  52.89400 50.57100 43.00700
C  53.62200 51.89300 43.48600
N  48.62000 47.53800 43.18000
C  48.88400 48.86900 43.43900
C  47.55900 49.55600 43.31600
C  46.65300 48.58300 42.89100
C  47.37400 47.39100 42.79900
C  47.20800 50.94700 43.53700
C  45.27400 48.26800 42.47300
O  44.32700 49.02900 42.33500
C  45.14900 46.81600 42.10100
C  44.14600 46.32600 43.14900
O  44.30200 46.18000 44.36200
O  42.96300 45.94000 42.49100
C  41.92100 45.21300 43.26400
H  49.58700 41.54400 42.12500
H  54.35700 45.62700 44.00800
H  50.03800 50.49500 44.09500
H  45.30900 43.58000 42.28300
H  47.19700 42.10500 40.84900
H  46.51100 40.51300 42.55500
H  46.05800 41.85800 43.49500
H  47.71100 41.25100 43.63400
H  46.35700 43.32500 39.46600
H  46.04300 44.93700 39.78200
H  43.79500 43.68600 40.72100
H  44.51800 42.56500 39.51300
H  51.45700 40.25200 42.38700
H  53.17500 40.23600 42.80400
H  52.66900 40.76900 41.19000
H  56.07000 44.45200 43.02400
H  56.84800 43.17200 43.78600
H  55.69900 44.18400 44.75300
H  54.19700 48.39800 43.25600
H  52.67600 49.95600 45.16700
H  54.24100 47.48600 46.19600
H  54.56800 49.18100 45.87200
H  55.52200 47.99500 45.10300
H  51.93600 50.78600 42.53500
H  53.48300 50.16300 42.18600
H  54.49200 52.02300 42.84300
H  53.92900 51.72900 44.51900
H  53.02600 52.80600 43.45700
H  47.67800 51.56900 42.77500
H  47.60200 51.20900 44.51900
H  46.12300 51.04200 43.57100
H  44.73500 46.84600 41.09300
H  42.08900 44.17000 42.99500
H  40.91500 45.54600 43.00700
H  41.97800 45.18600 44.35200

