158

Mg 41.14200 8.72000 29.23500
C  43.16400 9.67100 31.91400
C  38.83200 7.61500 31.47800
C  39.31900 7.56000 26.63600
C  43.73300 9.63700 27.09100
N  40.93000 8.90100 31.49700
C  41.88100 9.32400 32.38800
C  41.45900 9.01500 33.86900
C  40.10400 8.27900 33.64600
C  39.87300 8.28400 32.08500
C  40.05200 6.92600 34.27200
C  41.41900 10.28000 34.75400
C  41.62100 10.08200 36.28500
H  42.29600 11.25400 37.03100
N  39.35000 7.72700 29.03900
C  38.49500 7.33100 30.12200
C  37.33000 6.75100 29.62700
C  37.49600 6.69000 28.19500
C  38.75200 7.34500 27.88800
C  36.30900 6.16300 30.56700
C  36.53100 5.98800 27.15000
O  36.79400 5.92700 25.89200
C  35.27800 5.34900 27.59300
N  41.51200 8.52100 27.15300
C  40.53900 8.18000 26.26500
C  41.04900 8.31700 24.75600
C  42.37200 9.16600 25.03000
C  42.58900 9.09200 26.52400
C  41.22300 6.93900 24.23200
C  42.04100 10.64800 24.58000
C  40.94300 11.45200 25.30300
N  43.01600 9.50400 29.41200
C  43.94700 9.79300 28.43900
C  45.12100 10.37800 28.99700
C  44.86200 10.32500 30.39700
C  43.59100 9.75100 30.57800
C  46.35200 10.89100 28.28100
C  45.45000 10.60000 31.71700
O  46.54900 11.03900 32.06000
C  44.33100 10.23200 32.67600
C  44.85500 9.33400 33.69700
O  44.94400 8.11400 33.61400
O  45.26200 10.11400 34.79100
C  45.73700 9.34800 35.93300
H  38.10000 7.46000 32.27400
H  38.73600 7.20100 25.78500
H  44.24600 10.26500 26.35900
H  42.17600 8.34100 34.33600
H  39.25300 8.85000 34.01700
H  40.92100 6.66900 34.87600
H  39.91300 6.09200 33.58400
H  39.18900 6.95200 34.93800
H  40.44700 10.77000 34.80700
H  42.17700 11.00000 34.44500
H  42.29000 9.24500 36.48200
H  40.69400 9.84900 36.81000
H  35.31100 6.34500 30.16700
H  36.40400 6.69900 31.51200
H  36.40400 5.09000 30.72900
H  35.49000 4.53800 28.29000
H  34.74200 4.82500 26.80200
H  34.49000 6.00000 27.97100
H  40.32300 8.91700 24.20600
H  43.23700 8.80700 24.47300
H  40.85200 6.18500 24.92600
H  42.28300 6.76800 24.04700
H  40.62700 6.85400 23.32400
H  41.74200 10.80000 23.54300
H  42.94900 11.22800 24.74500
H  41.24500 11.66400 26.32900
H  39.94700 11.01000 25.32900
H  40.89300 12.39100 24.75100
H  46.59300 10.03000 27.65700
H  47.06100 11.35800 28.96400
H  45.88000 11.63600 27.64000
H  44.00700 11.18500 33.09300
H  46.41400 8.54400 35.64300
H  44.89500 8.89800 36.45800
H  46.24600 10.08300 36.55700
Mg 48.38500 15.57600 27.11800
C  46.80100 15.65400 30.33500
C  50.93800 17.52200 28.59900
C  49.69700 15.77400 24.23300
C  45.57200 13.87000 25.97200
N  48.83100 16.36900 29.22300
C  48.10900 16.24500 30.37100
C  48.85200 16.83000 31.54800
C  49.98900 17.67000 30.91500
C  49.93200 17.16100 29.45800
C  49.81400 19.21600 30.89600
C  49.37200 15.71800 32.47300
C  49.22900 16.10600 34.07100
H  48.99400 17.52800 34.52500
N  50.14800 16.51200 26.47500
C  51.08000 17.20600 27.18400
C  52.16600 17.50500 26.24700
C  51.69500 17.16700 24.95100
C  50.49800 16.39200 25.16800
C  53.33100 18.38300 26.78100
C  52.17300 17.53700 23.62700
O  51.72200 17.13000 22.56700
C  53.31600 18.46700 23.56700
N  47.64400 15.19200 25.34200
C  48.46600 15.15100 24.26400
C  47.79000 14.68000 23.00800
C  46.50000 14.11600 23.60000
C  46.61500 14.34000 25.07600
C  47.52900 15.76100 21.91800
C  46.21900 12.59000 23.26800
C  44.95400 12.39500 22.45600
N  46.50500 14.98200 27.93100
C  45.54600 14.23600 27.34800
C  44.41000 13.99400 28.24900
C  44.93200 14.40000 29.46500
C  46.21000 15.07000 29.21000
C  43.14800 13.24900 27.92000
C  44.59500 14.53100 30.90900
O  43.55400 14.15100 31.49100
C  45.80800 15.36600 31.54000
C  45.26700 16.62300 32.25600
O  44.98800 17.70200 31.77600
O  44.90800 16.33900 33.50300
C  43.75800 17.11900 33.98900
H  51.60100 18.25700 29.06000
H  50.12100 15.64200 23.23500
H  44.80100 13.18200 25.61700
H  48.13100 17.44300 32.08800
H  50.98500 17.50100 31.32400
H  48.85100 19.51700 31.30900
H  49.82200 19.74100 29.94000
H  50.63600 19.63600 31.47400
H  50.43200 15.50400 32.33300
H  48.81600 14.84200 32.13900
H  50.16300 15.80600 34.54600
H  48.46900 15.49300 34.55500
H  53.21200 19.46500 26.72600
H  54.26200 18.14100 26.26800
H  53.43900 18.20600 27.85200
H  53.22600 19.42100 24.08600
H  53.43800 18.68800 22.50700
H  54.17200 17.95500 24.00800
H  48.33800 13.82700 22.60900
H  45.62200 14.74300 23.44400
H  48.00900 16.71200 22.15200
H  46.47000 15.94600 21.74100
H  47.89700 15.33900 20.98300
H  45.99100 12.07600 24.20200
H  47.08400 12.19600 22.73500
H  45.16400 11.85500 21.53300
H  44.68300 13.39200 22.11100
H  44.07800 12.11900 23.04500
H  43.45600 12.45200 27.24400
H  42.44400 13.95800 27.48400
H  42.79000 12.84600 28.86700
H  46.18400 14.64700 32.26700
H  43.29000 16.61500 34.83500
H  43.01200 17.20500 33.19900
H  44.13300 18.10300 34.27200

