158

Mg 46.91800 35.46300 29.05800
C  45.44300 33.08200 31.13400
C  46.75000 37.79200 31.51200
C  47.78400 37.88200 26.82800
C  46.32800 33.26500 26.26300
N  46.33400 35.37800 31.13600
C  45.77800 34.28300 31.75900
C  45.78600 34.53200 33.26800
C  45.56200 36.13000 33.23600
C  46.33800 36.51000 31.91700
C  44.06200 36.57600 33.09900
C  47.19600 34.02800 33.68800
C  47.24800 33.75500 35.19400
H  46.21500 34.36700 36.18800
N  47.42500 37.44000 29.24400
C  47.35100 38.24500 30.27900
C  47.98400 39.49200 30.06900
C  48.42300 39.50900 28.71100
C  47.88100 38.25500 28.17800
C  48.07100 40.58200 31.14300
C  49.28900 40.48800 27.96200
O  49.52000 40.32400 26.75600
C  50.03100 41.65800 28.70700
N  46.97700 35.57500 26.85900
C  47.34600 36.69700 26.24100
C  47.20500 36.50900 24.68100
C  46.70600 35.01700 24.52300
C  46.68800 34.58400 25.94200
C  46.09300 37.37900 24.02400
C  47.59300 34.15300 23.64100
C  46.91000 33.32800 22.56000
N  46.21900 33.49300 28.69100
C  46.05200 32.73300 27.51100
C  45.46100 31.37800 27.88000
C  45.16100 31.55300 29.25600
C  45.62700 32.81000 29.69000
C  45.26700 30.17400 27.03000
C  44.52500 30.90500 30.42300
O  44.12400 29.76800 30.60200
C  44.41600 31.96000 31.52100
C  44.60500 31.51400 32.90900
O  45.63400 31.01700 33.36400
O  43.46800 31.70600 33.65400
C  43.28600 31.13900 34.92400
H  46.44700 38.59400 32.18700
H  48.05200 38.69200 26.14700
H  46.02600 32.70200 25.37700
H  44.91200 34.16400 33.80500
H  46.07100 36.59700 34.07900
H  43.84900 37.20200 32.23300
H  43.72800 37.10500 33.99100
H  43.47200 35.66900 32.96500
H  47.87600 34.86500 33.53400
H  47.50400 33.17800 33.08000
H  48.21300 34.05400 35.60300
H  47.12300 32.67500 35.11500
H  47.10900 40.61400 31.65300
H  48.11100 41.52900 30.60400
H  48.97900 40.45600 31.73300
H  50.71500 41.97100 27.91900
H  50.52500 41.33400 29.62300
H  49.33400 42.45500 28.96700
H  48.16900 36.83600 24.29300
H  45.70000 35.01600 24.10300
H  45.64800 38.11000 24.69900
H  45.30600 36.91000 23.43200
H  46.66900 37.91500 23.27000
H  48.03500 33.41100 24.30600
H  48.35000 34.79700 23.19200
H  47.16000 33.66400 21.55300
H  45.82800 33.45900 22.55200
H  47.08100 32.25700 22.66700
H  45.53500 30.46400 26.01400
H  44.22400 29.93300 27.23600
H  45.82700 29.29700 27.35300
H  43.41400 32.37700 31.41700
H  42.24500 31.33400 35.18200
H  43.96800 31.66400 35.59300
H  43.58500 30.09100 34.90300
Mg 25.86700 50.01100 27.18500
C  23.71200 50.87800 29.87500
C  28.07600 48.92200 29.50800
C  27.96300 49.69600 24.71800
C  23.39700 51.45300 25.01000
N  25.94300 49.96900 29.37500
C  24.96900 50.35400 30.25800
C  25.34200 49.92100 31.77400
C  26.82100 49.48700 31.59800
C  26.95000 49.44600 30.04500
C  27.77700 50.39500 32.38500
C  24.36800 48.86100 32.44500
C  23.60300 49.09100 33.80100
H  24.23300 49.96000 34.91200
N  27.73800 49.32500 27.10000
C  28.53400 48.87700 28.14300
C  29.78100 48.36200 27.65600
C  29.80400 48.60600 26.24800
C  28.46100 49.24600 25.97500
C  30.80100 47.86800 28.56200
C  30.81900 48.39900 25.26500
O  30.81800 49.03700 24.21700
C  31.96700 47.55800 25.66800
N  25.69300 50.57400 25.20500
C  26.72400 50.31400 24.36600
C  26.33600 50.59400 22.95200
C  24.83300 50.95100 23.00600
C  24.63900 50.97000 24.50400
C  27.09500 51.75000 22.20700
C  24.02200 49.83600 22.24100
C  24.23600 48.31400 22.56200
N  23.87900 50.84100 27.34200
C  23.10600 51.46000 26.38200
C  21.89800 51.84300 27.05600
C  22.07700 51.66100 28.42300
C  23.32200 51.00900 28.54500
C  20.67700 52.37100 26.46100
C  21.53400 51.93500 29.72000
O  20.46600 52.49700 30.01700
C  22.63100 51.51800 30.76700
C  23.04500 52.76500 31.52100
O  23.54500 53.77000 31.07200
O  22.69300 52.52400 32.77300
C  22.95200 53.47500 33.80000
H  28.65100 48.45700 30.31100
H  28.61000 49.42600 23.88100
H  22.60800 51.72400 24.30500
H  25.19200 50.91400 32.19700
H  26.88700 48.46000 31.95800
H  28.10300 49.97100 33.33500
H  27.30500 51.34500 32.63500
H  28.59200 50.64800 31.70600
H  24.88900 47.92100 32.62800
H  23.60300 48.55600 31.73200
H  23.42900 48.09700 34.21300
H  22.64100 49.55600 33.58500
H  30.77100 46.77800 28.54800
H  30.53500 48.02400 29.60800
H  31.80400 48.27700 28.44500
H  31.61800 46.60200 26.05700
H  32.63300 47.99500 26.41300
H  32.43200 47.37600 24.69900
H  26.52200 49.70100 22.35500
H  24.51600 51.93200 22.65400
H  26.49900 52.42900 21.59800
H  27.86900 51.29700 21.58700
H  27.55500 52.33000 23.00700
H  24.35000 49.93700 21.20600
H  22.96900 50.12000 22.26200
H  23.27300 47.82400 22.70700
H  24.77800 48.10700 23.48500
H  24.82700 47.80000 21.80400
H  20.40100 51.81500 25.56600
H  20.69900 53.40700 26.12400
H  19.83900 52.25500 27.14900
H  22.22900 50.80700 31.48900
H  22.06200 53.81500 34.32900
H  23.58100 54.23100 33.33000
H  23.54500 52.94500 34.54500

