158

Mg 49.14400 35.08100 26.99100
C  47.16800 33.70800 29.52900
C  49.38500 38.01500 28.87000
C  50.71200 36.44000 24.42900
C  48.37200 32.30200 25.05800
N  48.28400 35.78700 28.84300
C  47.61000 35.00200 29.75400
C  47.73100 35.65100 31.13800
C  48.11100 37.14500 30.89500
C  48.49400 37.02200 29.38500
C  46.89700 38.06000 31.07200
C  48.92300 34.94200 31.93400
C  48.77600 34.89100 33.44600
H  47.65000 35.74600 34.19800
N  49.97900 36.87400 26.74100
C  50.03300 37.92700 27.64800
C  50.86500 39.02200 27.09000
C  51.23900 38.62600 25.74300
C  50.61300 37.27800 25.59600
C  51.40800 40.13900 27.89200
C  52.11700 39.32600 24.79500
O  52.32200 38.87600 23.68800
C  52.98000 40.57000 25.20100
N  49.26600 34.53200 24.87700
C  50.13700 35.23700 24.12500
C  50.54500 34.45600 22.96300
C  50.08800 33.01900 23.27800
C  49.14200 33.25900 24.41300
C  50.20400 35.05200 21.51100
C  51.21400 32.10300 23.62800
C  51.12600 30.58400 23.16100
N  47.94700 33.29300 27.12600
C  47.69100 32.29800 26.30000
C  46.95400 31.17600 26.92400
C  46.58100 31.76800 28.15900
C  47.27800 33.02200 28.26600
C  46.75800 29.80000 26.41300
C  45.91200 31.54100 29.45800
O  45.19600 30.62900 29.82100
C  46.18000 32.82100 30.36400
C  46.62900 32.31700 31.69800
O  47.74000 31.91600 31.86800
O  45.57800 32.31700 32.54200
C  45.78800 31.89000 33.90500
H  49.54400 38.94900 29.41200
H  51.49700 36.75100 23.73600
H  48.33400 31.32400 24.57400
H  46.77200 35.60100 31.65300
H  48.86300 37.52400 31.58800
H  46.00900 37.57500 31.47800
H  46.55200 38.29500 30.06500
H  47.14200 38.96700 31.62600
H  49.90000 35.37100 31.71400
H  48.96000 33.93900 31.50900
H  49.67300 35.09200 34.03100
H  48.39500 33.88500 33.62400
H  51.08100 41.07900 27.44800
H  52.46700 40.04000 28.12800
H  51.09700 40.16900 28.93600
H  53.53300 40.60100 24.26300
H  53.61300 40.52900 26.08800
H  52.26500 41.39200 25.20200
H  51.63300 34.39600 22.94800
H  49.52800 32.43500 22.54700
H  49.50400 34.39000 21.00100
H  51.07800 35.13500 20.86500
H  49.73900 36.03400 21.60200
H  51.34800 32.18900 24.70600
H  52.20900 32.46400 23.36700
H  50.27900 30.52100 22.47900
H  50.90400 29.92700 24.00300
H  52.04300 30.22000 22.69800
H  47.29400 29.10200 27.05600
H  47.10700 29.77300 25.38100
H  45.69300 29.56700 26.39200
H  45.25400 33.37400 30.52100
H  45.65100 30.80900 33.95400
H  44.96600 32.28900 34.49900
H  46.80000 32.05300 34.27500
Mg 17.22900 52.98400 26.57800
C  19.45000 51.50200 29.14300
C  14.97600 53.55300 29.07300
C  15.06500 53.91600 24.16800
C  19.45900 51.71600 24.22600
N  17.31000 52.64300 28.84900
C  18.25500 52.06600 29.65500
C  17.82700 52.28400 31.16400
C  16.32000 52.64700 31.11800
C  16.16800 52.99100 29.59300
C  15.37000 51.54100 31.53200
C  18.61900 53.45200 31.92300
C  18.99000 53.18100 33.35900
H  17.92300 52.36000 34.14500
N  15.38600 53.69100 26.61900
C  14.60800 53.83600 27.72600
C  13.32600 54.42700 27.36300
C  13.44000 54.67100 26.02100
C  14.61600 54.03600 25.53400
C  12.19100 54.79900 28.31800
C  12.52500 55.48300 25.12000
O  12.67000 55.64100 23.89900
C  11.29200 56.03600 25.68100
N  17.20400 52.75100 24.50400
C  16.22900 53.30900 23.68900
C  16.72500 53.53600 22.27100
C  18.09700 52.77900 22.20800
C  18.32600 52.38600 23.77100
C  15.61900 53.14800 21.20700
C  19.22800 53.77600 21.67800
C  20.10600 53.18700 20.55900
N  19.01400 51.82900 26.56200
C  19.79700 51.45800 25.51900
C  21.02100 50.76400 25.96100
C  20.93500 50.77700 27.38400
C  19.68100 51.39400 27.70600
C  22.11900 50.19700 25.05600
C  21.64000 50.44400 28.60900
O  22.71300 49.85200 28.74400
C  20.70800 50.95300 29.83700
C  20.43400 49.81100 30.76000
O  20.18400 48.69300 30.35800
O  20.52100 50.24800 31.99800
C  20.50600 49.21100 33.05700
H  14.30200 53.70000 29.92000
H  14.39700 54.29800 23.39300
H  20.15700 51.44300 23.43300
H  17.92400 51.31900 31.66100
H  16.07800 53.58800 31.61000
H  14.75300 52.01700 32.29500
H  15.75100 50.58400 31.88900
H  14.62900 51.19000 30.81400
H  18.30900 54.49500 31.85900
H  19.55400 53.60100 31.38300
H  18.98900 54.09700 33.94900
H  19.97000 52.73600 33.53400
H  11.21700 54.39900 28.03800
H  12.18300 55.87700 28.47800
H  12.36400 54.54200 29.36300
H  10.49500 55.39400 26.05600
H  10.83300 56.51800 24.81800
H  11.80200 56.65400 26.41900
H  16.93600 54.58700 22.07700
H  17.97900 51.85300 21.64500
H  14.93600 52.40100 21.61200
H  16.22300 52.80900 20.36500
H  15.16000 54.07800 20.87100
H  19.96600 54.16500 22.38000
H  18.89100 54.71100 21.23100
H  20.07500 52.09700 20.53800
H  21.11100 53.55400 20.76800
H  19.86100 53.52600 19.55200
H  21.89200 50.31600 23.99600
H  22.14200 49.13000 25.27500
H  23.08800 50.59000 25.36300
H  21.17800 51.78800 30.35600
H  19.47500 49.17200 33.40900
H  21.23200 49.50600 33.81400
H  20.70500 48.19000 32.73400

