158

Mg -0.82100 34.53900 27.01000
C  -2.97600 32.80300 29.15200
C  -0.26300 36.79800 29.47200
C  0.96400 36.42600 24.81900
C  -2.24200 32.80700 24.27600
N  -1.35300 34.58100 29.11900
C  -2.14100 33.75600 29.82300
C  -2.30200 34.16500 31.27000
C  -1.59900 35.58300 31.35000
C  -1.07100 35.73300 29.86500
C  -2.57100 36.75700 31.63700
C  -1.76200 33.17400 32.36200
C  -2.32700 33.30400 33.78100
H  -1.64100 32.59300 35.01200
N  0.27700 36.35600 27.14100
C  0.35000 37.15300 28.24600
C  1.16200 38.38000 27.92800
C  1.51800 38.25800 26.61400
C  0.93600 36.96100 26.14800
C  1.43800 39.48200 28.84300
C  2.42000 39.19600 25.74200
O  2.74800 38.95600 24.61900
C  3.04600 40.40500 26.49400
N  -0.71900 34.56100 24.83200
C  0.21400 35.41700 24.23200
C  0.30800 35.05500 22.74300
C  -0.54800 33.71800 22.56200
C  -1.13700 33.62000 24.00000
C  -0.06800 36.18000 21.73000
C  0.22800 32.55100 22.06300
C  1.32200 31.99000 22.96800
N  -2.19600 33.02900 26.68800
C  -2.76400 32.57900 25.55900
C  -3.80000 31.58500 25.90500
C  -3.82400 31.62700 27.29200
C  -2.95200 32.56500 27.75600
C  -4.63900 30.75400 25.05000
C  -4.51600 31.02800 28.50300
O  -5.34800 30.19900 28.49400
C  -4.00300 31.79200 29.73900
C  -5.19400 32.44100 30.44400
O  -5.68600 33.54100 30.15500
O  -5.78800 31.49700 31.37000
C  -6.81700 32.12900 32.18900
H  -0.03200 37.45700 30.31100
H  1.42900 37.05100 24.05500
H  -2.76100 32.34500 23.43300
H  -3.38400 34.29100 31.30700
H  -0.76600 35.61700 32.05300
H  -2.19500 37.30000 32.50300
H  -3.55200 36.47000 32.01500
H  -2.75800 37.49600 30.85700
H  -0.72700 33.46100 32.54800
H  -1.75200 32.10900 32.13400
H  -3.29200 32.80600 33.68500
H  -2.49000 34.36500 33.96500
H  2.43900 39.56400 29.26700
H  0.78500 39.43500 29.71400
H  1.02100 40.41600 28.46700
H  2.15000 40.98000 26.72900
H  3.77900 40.89700 25.85300
H  3.64900 39.97500 27.29400
H  1.37600 34.94300 22.55600
H  -1.40500 33.77200 21.89200
H  -0.41400 37.14400 22.10200
H  -0.83400 35.86800 21.02000
H  0.85000 36.39800 21.18500
H  0.59800 32.72900 21.05300
H  -0.36200 31.65400 21.87600
H  1.32400 32.49600 23.93300
H  2.25200 32.32000 22.50500
H  1.14200 30.92100 23.08100
H  -4.21300 29.75400 24.97200
H  -4.90300 31.26000 24.12100
H  -5.57700 30.65600 25.59800
H  -3.54400 31.01800 30.35400
H  -7.51900 32.75900 31.64300
H  -6.31000 32.84600 32.83600
H  -7.45200 31.51500 32.82800
Mg -10.91000 18.18300 40.91000
C  -7.37200 17.45800 40.82200
C  -10.07500 21.47600 40.29100
C  -14.02200 18.74400 40.27500
C  -11.49300 14.67400 40.63800
N  -8.94500 19.31800 40.40500
C  -7.61100 18.79700 40.52500
C  -6.53100 19.94100 40.22400
C  -7.44100 21.22100 40.54400
C  -8.91900 20.66700 40.43400
C  -6.97500 21.88700 41.89000
C  -6.19400 19.86900 38.65900
C  -4.79900 19.32500 38.20200
H  -4.77600 18.06500 37.20100
N  -11.97900 19.88500 40.42800
C  -11.45900 21.11200 40.17900
C  -12.49400 22.03000 39.90900
C  -13.67300 21.28600 39.81100
C  -13.28300 19.91800 40.11700
C  -12.26900 23.54000 39.80000
C  -15.06000 21.87100 39.47800
O  -15.26300 23.10600 39.38000
C  -16.25800 21.01300 39.17800
N  -12.47500 16.90700 40.26300
C  -13.72300 17.40400 40.36900
C  -14.74900 16.30900 40.37500
C  -14.00700 14.94800 40.17500
C  -12.56700 15.50300 40.36800
C  -15.63100 16.22400 41.60400
C  -14.29400 14.04100 38.91700
C  -13.34500 14.12200 37.67600
N  -9.77500 16.44100 40.92700
C  -10.15000 15.11000 40.78200
C  -9.00700 14.21500 41.00800
C  -7.90100 15.06500 40.98100
C  -8.42200 16.43900 40.95500
C  -8.89200 12.73800 41.01400
C  -6.49900 15.14900 40.92300
O  -5.64600 14.29400 40.84700
C  -6.08900 16.68600 40.95100
C  -5.28600 16.94300 42.25600
O  -4.08500 17.29500 42.23400
O  -5.98000 16.56800 43.37000
C  -5.11000 16.64000 44.59100
H  -9.76300 22.50500 40.10100
H  -15.09200 18.87600 40.10200
H  -11.82000 13.63200 40.64800
H  -5.67800 19.90200 40.90100
H  -7.36500 22.00000 39.78500
H  -7.81500 21.85600 42.58400
H  -6.66400 22.91200 41.69000
H  -6.04800 21.45000 42.26200
H  -6.20900 20.84800 38.18000
H  -6.89400 19.25700 38.09100
H  -4.30500 19.06300 39.13700
H  -4.15000 20.12300 37.84100
H  -12.02000 23.79000 40.83100
H  -13.22900 24.02500 39.62300
H  -11.52100 23.83200 39.06200
H  -15.98200 20.23000 38.47200
H  -17.15800 21.58100 38.94200
H  -16.58500 20.47600 40.06900
H  -15.45700 16.58800 39.59400
H  -14.19700 14.25900 40.99900
H  -15.19100 16.90800 42.33000
H  -15.77900 15.20700 41.96600
H  -16.63500 16.59500 41.39500
H  -15.34100 14.26200 38.70900
H  -14.40900 12.99800 39.21400
H  -13.74700 14.65900 36.81600
H  -13.22800 13.09400 37.33300
H  -12.36500 14.50000 37.96700
H  -8.37400 12.48200 40.09000
H  -9.84500 12.21000 40.99500
H  -8.32200 12.39100 41.87600
H  -5.34500 17.01600 40.22600
H  -5.31900 15.68200 45.06800
H  -5.57000 17.44100 45.17000
H  -4.07400 16.94100 44.43900

