158

Mg 26.12000 1.07400 29.27400
C  28.08700 0.54700 32.03300
C  23.39200 1.56200 31.12100
C  24.20500 0.95000 26.36300
C  28.89800 -0.07000 27.30200
N  25.82200 1.06500 31.35100
C  26.73700 0.88400 32.29200
C  26.12200 0.96200 33.76200
C  24.58600 1.07600 33.36800
C  24.55600 1.22000 31.84400
C  23.71800 -0.03400 33.97900
C  26.66900 2.12100 34.68400
C  26.61800 1.91500 36.15600
H  27.04800 3.09100 37.11300
N  24.15000 1.42200 28.80200
C  23.19600 1.69900 29.72600
C  21.91800 1.93400 29.06500
C  22.15700 1.80500 27.66700
C  23.54000 1.34800 27.53400
C  20.67400 2.38100 29.84500
C  21.18800 1.85000 26.54400
O  21.42800 1.47300 25.40300
C  19.75600 2.16200 26.97200
N  26.44900 0.44800 27.11100
C  25.53300 0.54400 26.14700
C  26.19600 0.16500 24.77800
C  27.73600 0.19000 25.09400
C  27.70500 0.21300 26.63400
C  25.65400 -1.10400 24.08100
C  28.60800 1.33800 24.50800
C  29.78000 0.89300 23.66600
N  28.14100 0.32800 29.52500
C  29.09300 0.04800 28.68900
C  30.23000 -0.29600 29.38800
C  29.98100 -0.11200 30.74400
C  28.63600 0.31300 30.78100
C  31.49300 -0.60900 28.76200
C  30.43900 -0.06800 32.12500
O  31.53500 -0.25500 32.56500
C  29.20100 0.41500 32.99800
C  28.94300 -0.50700 34.16100
O  28.24700 -1.51100 34.21900
O  29.60700 -0.06300 35.31700
C  29.33500 -0.84200 36.56000
H  22.46400 1.62000 31.69300
H  23.69500 1.02100 25.40000
H  29.68400 -0.31400 26.58400
H  26.33900 0.05400 34.32500
H  24.15700 1.98600 33.78700
H  23.10100 -0.42400 33.17000
H  23.05700 0.48200 34.67600
H  24.28500 -0.86600 34.39600
H  25.90000 2.89000 34.61000
H  27.55100 2.53800 34.19800
H  27.19200 1.01000 36.35200
H  25.61300 1.58500 36.41600
H  20.87700 2.79900 30.83000
H  20.00000 1.53300 29.96900
H  20.23900 3.28400 29.41600
H  19.01200 2.17600 26.17600
H  19.72100 3.12600 27.48100
H  19.50700 1.35300 27.65800
H  25.86200 1.03800 24.21700
H  28.21000 -0.72700 24.74600
H  26.45300 -1.50100 23.45500
H  24.79300 -0.89600 23.44500
H  25.45400 -1.88300 24.81500
H  28.87200 1.90300 25.40200
H  28.01800 1.94000 23.81700
H  30.10700 -0.14100 23.77600
H  30.67600 1.48000 23.86800
H  29.54300 1.03700 22.61100
H  31.58600 0.02300 27.87900
H  31.56800 -1.60700 28.33300
H  32.38200 -0.34500 29.33500
H  29.35400 1.46200 33.25900
H  28.83400 -1.79700 36.40100
H  28.85000 -0.27800 37.35700
H  30.32600 -1.06300 36.95600
Mg 43.97900 4.19600 47.10700
C  42.09300 7.16700 47.34500
C  40.98700 2.50600 46.58300
C  45.75700 1.68600 45.96700
C  46.88900 6.45500 46.74200
N  41.78600 4.81500 46.88100
C  41.26400 5.98700 47.10200
C  39.78700 5.95900 47.12400
C  39.42100 4.43600 47.02500
C  40.80100 3.87300 46.85400
C  38.46700 3.94100 48.14600
C  39.07600 6.69700 45.91100
C  39.39700 6.15100 44.52000
H  40.43100 7.02900 43.72200
N  43.44200 2.25800 46.57500
C  42.14400 1.79700 46.32700
C  42.21500 0.42000 45.81100
C  43.59300 0.17900 45.60700
C  44.33900 1.41300 46.06400
C  40.97200 -0.43200 45.50400
C  44.10500 -1.04900 44.93100
O  43.30400 -1.96300 44.63600
C  45.56700 -1.33200 44.73800
N  45.96900 4.17900 46.19300
C  46.48200 2.92300 46.07500
C  48.02100 2.99500 45.94800
C  48.37500 4.48700 46.12700
C  46.98800 5.10000 46.34100
C  48.77400 2.06000 46.83400
C  49.09900 5.27800 44.99000
C  50.58500 5.59700 45.18700
N  44.49200 6.38400 47.03000
C  45.70300 7.04800 47.03000
C  45.46100 8.45600 47.15200
C  44.07000 8.55400 47.36000
C  43.51800 7.25000 47.24500
C  46.44900 9.54000 47.01300
C  42.97100 9.51100 47.51800
O  42.92300 10.72100 47.58800
C  41.76500 8.64200 47.52800
C  40.97000 8.76600 48.78300
O  41.33100 8.29800 49.86800
O  39.78500 9.34700 48.56800
C  38.86100 9.48000 49.77700
H  40.06600 1.92800 46.68000
H  46.44600 0.84000 45.90500
H  47.77700 7.08700 46.81800
H  39.29400 6.31200 48.03000
H  38.77400 4.20500 46.17900
H  37.78500 4.76200 48.36900
H  39.09200 3.69500 49.00400
H  37.93900 3.02400 47.88700
H  39.31400 7.75800 45.99000
H  37.98900 6.70600 45.98300
H  38.48300 6.14800 43.92600
H  39.82600 5.15000 44.55000
H  40.18200 0.29000 45.29500
H  40.58400 -1.02400 46.33300
H  40.95800 -0.90900 44.52400
H  45.83400 -1.67500 45.73800
H  46.18400 -0.48500 44.43900
H  45.77900 -2.20200 44.11600
H  48.23400 2.81000 44.89500
H  48.97600 4.63800 47.02300
H  48.78800 1.08200 46.35200
H  48.25800 2.02800 47.79300
H  49.78000 2.46800 46.92800
H  48.56500 6.20300 44.77100
H  48.99000 4.73500 44.05100
H  51.04600 4.98700 45.96400
H  50.76200 6.62600 45.49800
H  51.03700 5.30600 44.23900
H  46.49300 9.63600 45.92800
H  47.32200 9.15200 47.53700
H  46.01200 10.44200 47.44100
H  41.15400 9.05700 46.72700
H  39.29400 9.11700 50.70900
H  37.88700 9.00200 49.67100
H  38.83900 10.51500 50.11900

