158

Mg 48.24600 34.65600 27.14100
C  46.16200 33.70100 29.63100
C  49.26100 37.41300 28.88200
C  49.80100 35.67500 24.36500
C  47.10500 31.73200 25.21600
N  47.84200 35.39600 29.03200
C  46.99900 34.75700 29.92800
C  47.14700 35.28900 31.32100
C  47.70100 36.77500 31.04100
C  48.34600 36.56800 29.58800
C  46.57200 37.88400 31.01400
C  48.11200 34.37700 32.09600
C  48.49000 34.94700 33.43100
H  47.49900 35.85200 34.20300
N  49.38100 36.37000 26.70600
C  49.71400 37.36800 27.53800
C  50.51300 38.36900 26.80900
C  50.77200 37.84400 25.48900
C  49.98400 36.59100 25.43800
C  50.99700 39.60900 27.43000
C  51.60300 38.49800 24.34100
O  51.67300 38.03200 23.20500
C  52.42900 39.72500 24.62300
N  48.37900 33.82200 25.08000
C  49.14900 34.48500 24.17600
C  49.03700 33.74000 22.75000
C  48.46400 32.32200 23.14700
C  47.95700 32.58100 24.60000
C  48.25400 34.52000 21.70000
C  49.63400 31.18200 23.08100
C  49.26800 29.89400 22.34000
N  46.92100 33.02400 27.30500
C  46.56200 31.94300 26.50800
C  45.51800 31.12100 27.18700
C  45.27300 31.86400 28.33200
C  46.20700 32.91900 28.39900
C  44.82500 29.85300 26.63700
C  44.41700 31.96400 29.48300
O  43.42700 31.33200 29.82600
C  44.98300 33.05700 30.37100
C  45.49200 32.38500 31.61400
O  46.37100 31.52100 31.57200
O  44.67500 32.82300 32.61700
C  45.00800 32.14100 33.83800
H  49.63900 38.15100 29.59300
H  50.40900 35.85100 23.47500
H  46.74300 30.86200 24.66400
H  46.17900 35.36900 31.81600
H  48.58000 37.06500 31.61700
H  45.68900 37.28500 31.23900
H  46.54300 38.41600 30.06300
H  46.86400 38.63200 31.75000
H  48.99500 34.49100 31.46700
H  47.86100 33.31700 32.11500
H  49.37700 35.56700 33.29900
H  48.82400 34.13700 34.08000
H  52.08000 39.60000 27.55200
H  50.69500 39.74300 28.46900
H  50.60600 40.40400 26.79600
H  53.18900 39.46400 25.36000
H  51.92500 40.61700 24.99500
H  53.00700 39.87600 23.71100
H  50.06600 33.66600 22.39900
H  47.64700 32.04000 22.48400
H  47.86100 35.34600 22.29300
H  47.50000 33.92300 21.18700
H  48.99400 34.87600 20.98400
H  49.83100 30.90000 24.11500
H  50.61900 31.47800 22.72000
H  48.30000 29.95800 21.84200
H  49.32000 29.00000 22.96100
H  49.88400 29.67100 21.46900
H  45.51400 29.02500 26.46800
H  44.51900 30.30300 25.69300
H  43.89200 29.54300 27.11000
H  44.29600 33.83000 30.71500
H  45.16600 32.86500 34.63800
H  45.93200 31.56300 33.80700
H  44.18500 31.50800 34.17000
Mg -10.09300 17.22500 41.40100
C  -6.63000 16.38400 41.39500
C  -9.10200 20.40600 40.50400
C  -13.29000 18.00300 41.06400
C  -10.77200 13.83900 41.41600
N  -8.05300 18.25900 40.96300
C  -6.79600 17.74900 41.03500
C  -5.74400 18.77800 40.55600
C  -6.54000 20.17600 40.72600
C  -8.00800 19.62300 40.83200
C  -6.04600 21.02700 41.87600
C  -5.25500 18.63000 39.08900
C  -3.81900 18.33700 38.73800
H  -3.42300 16.90900 38.28100
N  -11.08400 18.99900 40.88800
C  -10.44000 20.15300 40.50600
C  -11.50700 21.09800 40.13800
C  -12.71300 20.47900 40.35500
C  -12.42100 19.13900 40.78600
C  -11.29300 22.46400 39.68400
C  -14.05000 21.07000 40.12500
O  -14.23300 22.23400 39.75400
C  -15.20700 20.29100 40.50700
N  -11.77300 16.08100 41.08900
C  -13.01300 16.63900 41.12000
C  -14.19100 15.59600 41.14200
C  -13.39700 14.28100 41.33100
C  -11.86000 14.74700 41.29400
C  -15.29800 15.79300 42.15200
C  -13.69600 13.17900 40.20100
C  -13.94700 11.73400 40.87400
N  -9.01300 15.39500 41.52100
C  -9.40300 14.11600 41.57100
C  -8.23700 13.22500 41.62000
C  -7.14500 14.12700 41.64100
C  -7.65100 15.43600 41.55500
C  -8.20900 11.77100 41.43700
C  -5.67300 14.18800 41.67400
O  -4.82300 13.29400 41.59000
C  -5.32600 15.70400 41.72300
C  -4.88700 16.03400 43.12600
O  -5.32200 16.92800 43.82300
O  -3.94400 15.10700 43.55500
C  -3.48300 15.28000 44.89200
H  -8.77200 21.41500 40.24700
H  -14.37400 18.12400 41.03500
H  -11.10500 12.80300 41.33400
H  -4.88000 18.72200 41.21900
H  -6.52800 20.74600 39.79700
H  -6.76200 20.96700 42.69600
H  -5.98600 22.06400 41.54500
H  -5.07400 20.67400 42.22200
H  -5.67300 19.45300 38.50900
H  -5.78000 17.75700 38.70100
H  -3.18200 18.63800 39.57000
H  -3.57500 19.03400 37.93600
H  -11.45200 22.63500 38.62000
H  -10.26900 22.76900 39.90000
H  -11.85500 23.06300 40.40100
H  -15.34300 19.47200 39.80100
H  -16.07300 20.95200 40.46700
H  -15.10900 20.02200 41.55800
H  -14.57500 15.63300 40.12300
H  -13.51200 13.89200 42.34300
H  -16.09500 16.43000 41.76800
H  -15.02100 16.30300 43.07500
H  -15.73600 14.85000 42.47800
H  -12.86500 13.19100 39.49600
H  -14.60200 13.40100 39.63600
H  -13.28300 11.04100 40.35700
H  -14.95600 11.32600 40.80100
H  -13.68700 11.81300 41.92900
H  -9.22600 11.37800 41.41100
H  -7.61600 11.37500 42.26100
H  -7.88000 11.42600 40.45700
H  -4.44700 15.83000 41.09200
H  -4.21600 15.60800 45.62800
H  -2.64600 15.97700 44.94600
H  -3.03900 14.32100 45.16000

