158

Mg 47.18400 24.39000 28.52200
C  47.95700 26.63400 31.08500
C  46.34700 22.07400 30.79200
C  46.52200 22.36700 25.93800
C  48.49000 26.68700 26.22400
N  47.21200 24.38500 30.76600
C  47.54800 25.37600 31.61300
C  47.18500 24.92400 33.00500
C  46.64700 23.48200 32.86300
C  46.68100 23.31900 31.33700
C  47.39300 22.35400 33.77800
C  46.22100 25.99400 33.77000
C  45.34000 25.44500 34.88700
H  45.10300 26.28300 36.20500
N  46.55100 22.46500 28.42200
C  46.28500 21.59500 29.42100
C  45.94300 20.26900 28.91700
C  45.93800 20.37100 27.48600
C  46.32200 21.78800 27.21300
C  45.76800 18.99700 29.76900
C  45.64200 19.35600 26.39900
O  45.62700 19.65200 25.23400
C  45.33800 17.98400 26.77800
N  47.55700 24.40700 26.37700
C  47.05900 23.56800 25.55700
C  47.09000 23.98700 24.04600
C  47.82700 25.34100 24.15400
C  48.08200 25.46300 25.67400
C  47.64400 22.90500 23.06100
C  47.05300 26.61800 23.62800
C  47.79900 27.75700 22.92200
N  48.15900 26.22600 28.54100
C  48.56000 27.05200 27.54000
C  49.13200 28.33000 28.11200
C  48.84800 28.16500 29.48300
C  48.33200 26.87600 29.71300
C  49.61500 29.54800 27.37600
C  48.97500 28.74700 30.77400
O  49.53900 29.78500 31.04000
C  48.38300 27.82100 31.89500
C  49.31000 27.47900 33.08400
O  50.16900 26.65300 33.00900
O  48.99700 28.11400 34.26100
C  49.58800 27.93300 35.58600
H  45.95300 21.42900 31.57900
H  46.12200 21.82800 25.07700
H  48.70400 27.50600 25.53300
H  48.11800 24.84900 33.56400
H  45.61400 23.43000 33.20500
H  47.93600 21.58700 33.22500
H  46.63000 21.89000 34.40300
H  48.09900 22.94900 34.35800
H  45.55800 26.43500 33.02500
H  46.99500 26.61400 34.22300
H  45.73000 24.48100 35.21600
H  44.34100 25.35600 34.46000
H  46.49300 18.23700 29.47900
H  44.74600 18.67200 29.57700
H  45.83700 19.02000 30.85600
H  44.57700 17.96500 27.55700
H  46.24700 17.42800 27.00800
H  44.80700 17.49700 25.95900
H  46.06700 24.30800 23.84700
H  48.80700 25.33300 23.67700
H  47.80700 21.93800 23.53700
H  48.57700 23.15500 22.55600
H  46.89200 22.67900 22.30500
H  46.47100 26.99800 24.46800
H  46.24400 26.39500 22.93300
H  47.59700 27.70600 21.85200
H  48.87600 27.71300 23.09000
H  47.49300 28.78800 23.09700
H  49.63400 29.54200 26.28600
H  50.63100 29.74600 27.71700
H  48.97300 30.39100 27.63000
H  47.51700 28.33700 32.30800
H  48.86200 27.58100 36.31800
H  49.97900 28.85600 36.01500
H  50.35000 27.15300 35.56900
Mg 9.51500 48.38000 26.16300
C  7.28300 48.49800 28.80900
C  12.00900 49.23100 28.58000
C  11.81500 47.92800 23.75700
C  6.97600 47.69000 23.95300
N  9.58700 48.91100 28.40200
C  8.57100 48.82600 29.32100
C  9.06600 49.16900 30.78700
C  10.44100 49.84400 30.54500
C  10.71500 49.25300 29.14300
C  10.43700 51.40100 30.60200
C  9.13100 47.94300 31.73000
C  8.75400 48.14200 33.17900
H  9.14200 47.07900 34.17800
N  11.59700 48.56900 26.20500
C  12.46000 48.83200 27.27600
C  13.87600 48.81200 26.75300
C  13.85200 48.32500 25.39400
C  12.34300 48.28200 25.07300
C  15.08800 49.09800 27.57400
C  14.96400 47.94100 24.47600
O  14.79200 47.57400 23.28800
C  16.33200 47.89000 24.91400
N  9.44600 47.97600 24.08800
C  10.51200 47.84800 23.35500
C  10.09900 47.46700 21.90000
C  8.57200 47.59200 21.92300
C  8.24100 47.65400 23.42500
C  10.88500 48.17500 20.75400
C  7.80000 46.46300 21.20800
C  6.79100 47.02100 20.18000
N  7.51200 48.30600 26.30100
C  6.62000 47.96100 25.28800
C  5.31800 47.80400 25.88300
C  5.49400 48.05100 27.28900
C  6.88700 48.33400 27.47200
C  4.06600 47.34800 25.15600
C  4.75800 48.15500 28.55700
O  3.56900 48.02700 28.78800
C  5.95100 48.37400 29.57300
C  6.03900 47.12500 30.33100
O  6.67600 46.13500 30.01500
O  5.20800 47.17000 31.41200
C  5.29100 46.14900 32.46500
H  12.80800 49.59500 29.23000
H  12.61500 47.73800 23.04000
H  6.12000 47.55300 23.28800
H  8.41900 49.88900 31.28700
H  11.15200 49.40900 31.24800
H  11.28800 51.64900 31.23600
H  9.61300 51.71800 31.24200
H  10.42900 51.95400 29.66300
H  10.06100 47.37500 31.69800
H  8.47500 47.19300 31.28700
H  7.67100 48.27300 33.16700
H  9.11000 49.10200 33.55300
H  15.85200 49.68000 27.05900
H  15.57600 48.15200 27.81100
H  14.86000 49.60600 28.51100
H  16.45500 47.29100 25.81700
H  16.83700 48.83700 25.10300
H  16.94500 47.44900 24.12800
H  10.39900 46.41900 21.88400
H  8.17700 48.52500 21.52100
H  11.02600 49.21000 21.06500
H  10.16900 48.14700 19.93200
H  11.72900 47.61000 20.36000
H  7.18700 45.85500 21.87300
H  8.42500 45.87400 20.53700
H  6.15500 46.20300 19.84100
H  7.28300 47.36100 19.26900
H  6.20500 47.87400 20.52300
H  4.28700 46.56300 24.43300
H  3.70900 48.16800 24.53300
H  3.26900 47.02500 25.82500
H  5.70400 49.27400 30.13400
H  6.17000 45.51000 32.37700
H  4.33700 45.62400 32.51100
H  5.39700 46.45000 33.50700

