158

Mg 46.26100 3.67400 48.22400
C  44.57500 6.62900 47.18000
C  43.37900 1.92000 47.62800
C  48.09200 0.94600 48.35300
C  49.22300 5.74100 48.31000
N  44.26400 4.23600 47.44100
C  43.78900 5.51500 47.05000
C  42.31200 5.47100 46.64700
C  41.95700 3.98800 46.99500
C  43.26500 3.32900 47.39500
C  40.73400 3.85700 47.94800
C  41.94900 5.99500 45.22500
C  40.59800 6.86500 45.21500
H  39.66100 6.77900 44.07800
N  45.79600 1.64700 48.05400
C  44.60200 1.14000 47.78800
C  44.67200 -0.27100 47.70100
C  46.05800 -0.64500 47.84000
C  46.76000 0.66800 48.13500
C  43.40400 -1.11800 47.27000
C  46.57900 -2.03000 47.54400
O  45.88300 -2.93100 47.12100
C  48.02300 -2.29200 47.88200
N  48.42200 3.47500 48.33300
C  48.83900 2.20000 48.38200
C  50.37800 2.19900 48.68600
C  50.78900 3.70800 48.44500
C  49.39900 4.37200 48.38700
C  50.67800 1.64500 50.10900
C  51.40500 4.05400 47.01300
C  52.92200 4.08600 46.96300
N  46.79200 5.73900 48.01800
C  48.04400 6.44700 48.03600
C  47.78300 7.90000 47.87600
C  46.43700 7.91800 47.47200
C  45.91900 6.64500 47.56800
C  48.88300 8.86500 47.75200
C  45.42300 8.86200 46.98400
O  45.52100 10.03800 46.71100
C  44.22900 8.02400 46.85000
C  43.16600 8.52800 47.73700
O  43.07600 8.35800 48.97500
O  42.20100 9.22000 47.02700
C  41.21500 10.02200 47.74000
H  42.45300 1.41800 47.34200
H  48.74600 0.07800 48.45300
H  50.08600 6.40300 48.40500
H  41.88300 6.01800 47.48700
H  41.73700 3.36000 46.13200
H  40.24800 4.83000 48.02100
H  40.99600 3.43400 48.91800
H  40.07800 3.18700 47.39200
H  41.65900 5.23200 44.50300
H  42.77800 6.53000 44.76300
H  40.89400 7.90900 45.31300
H  40.05900 6.64900 46.13800
H  43.82100 -1.90100 46.63600
H  42.66200 -0.59700 46.66400
H  42.94900 -1.63600 48.11300
H  48.66600 -1.66100 47.26800
H  48.27400 -3.34300 47.73600
H  48.20900 -2.10000 48.93900
H  50.90300 1.58200 47.95700
H  51.25000 4.24200 49.27500
H  49.79000 1.32900 50.65500
H  51.35100 2.28900 50.67600
H  51.34000 0.79400 49.94600
H  51.05200 4.97800 46.55600
H  51.10700 3.25000 46.33800
H  53.13200 3.49000 46.07500
H  53.32300 3.52800 47.81000
H  53.24900 5.12500 46.98800
H  49.47100 8.62800 46.86600
H  49.57300 8.61600 48.55900
H  48.49600 9.88000 47.84400
H  43.76100 8.15200 45.87400
H  40.43200 9.38200 48.14800
H  40.95000 10.69400 46.92400
H  41.72900 10.54600 48.54500
Mg 41.68600 40.36400 27.11500
C  41.06800 42.78100 29.65500
C  42.90300 38.19500 29.43700
C  42.04000 38.03200 24.62400
C  41.07800 42.81600 24.80400
N  41.95600 40.62500 29.29300
C  41.47400 41.56000 30.19700
C  41.78900 41.15900 31.69700
C  42.27100 39.68600 31.54000
C  42.39800 39.46500 29.98200
C  43.53400 39.27500 32.32700
C  40.66100 41.42800 32.68800
C  40.75000 40.87500 34.13100
H  40.87900 41.83500 35.27700
N  42.25500 38.33900 27.01400
C  42.78300 37.71200 28.08800
C  43.13200 36.39300 27.70800
C  43.00000 36.31900 26.34500
C  42.36900 37.56100 25.90800
C  43.67100 35.27700 28.71800
C  43.27700 35.23100 25.35800
O  42.97800 35.20000 24.12500
C  44.16700 34.12300 25.90400
N  41.61200 40.49000 25.03700
C  41.63200 39.34900 24.23100
C  41.32900 39.77800 22.78200
C  40.85600 41.28900 22.95800
C  41.28700 41.54900 24.32600
C  42.46800 39.67000 21.71600
C  39.33200 41.54200 22.79600
C  38.35700 40.42200 23.20200
N  41.30500 42.43200 27.16700
C  41.14900 43.33400 26.13300
C  40.94300 44.73500 26.59400
C  40.85000 44.55100 27.98600
C  41.07800 43.16000 28.28500
C  40.94200 45.92100 25.74800
C  40.64700 45.17700 29.28300
O  40.40200 46.36000 29.56200
C  40.83000 44.09800 30.43700
C  42.05000 44.56200 31.21000
O  43.17700 44.65200 30.76300
O  41.66800 44.85600 32.44800
C  42.73900 45.29300 33.39700
H  43.14500 37.43500 30.18200
H  42.02000 37.31300 23.80200
H  40.76900 43.55800 24.06400
H  42.53500 41.86900 32.05400
H  41.46700 39.06600 31.93600
H  44.00300 40.12300 32.82700
H  44.31500 38.95500 31.63700
H  43.38300 38.51000 33.08800
H  39.73400 41.01400 32.29100
H  40.29000 42.44400 32.55000
H  41.60200 40.19600 34.17700
H  40.01800 40.07800 34.26000
H  43.38000 35.26200 29.76900
H  44.75600 35.17200 28.70000
H  43.32500 34.28300 28.43400
H  43.58800 33.36800 26.43500
H  44.96200 34.57100 26.50000
H  44.56500 33.60100 25.03400
H  40.52500 39.24300 22.27600
H  41.44300 41.81600 22.20600
H  42.04900 39.29900 20.78000
H  43.21700 38.93500 22.01400
H  43.02400 40.59400 21.55400
H  39.23700 41.67400 21.71800
H  38.96200 42.44000 23.29100
H  37.56800 40.81000 23.84700
H  38.83600 39.67200 23.83200
H  37.98600 39.92300 22.30700
H  40.64900 46.83200 26.27000
H  40.36600 45.92700 24.82300
H  42.00600 46.02200 25.53400
H  39.93900 44.15800 31.06200
H  43.18800 46.28300 33.31600
H  43.63400 44.67800 33.30400
H  42.40300 45.13700 34.42200

