158

Mg 47.57400 25.13500 28.14600
C  48.62700 27.38100 30.69200
C  47.12400 22.74900 30.51700
C  46.96800 22.96300 25.63900
C  48.60700 27.49900 25.76300
N  47.92900 25.08500 30.32700
C  48.20800 26.10800 31.14100
C  47.81300 25.79400 32.56600
C  47.42300 24.25800 32.53800
C  47.46700 23.99600 31.03200
C  48.41600 23.23500 33.24200
C  46.84800 26.85700 33.32100
C  46.29300 26.39300 34.64600
H  46.12100 27.34000 35.78700
N  47.04900 23.18400 28.09900
C  46.90300 22.39500 29.19400
C  46.42500 21.15400 28.77600
C  46.37900 21.14100 27.31000
C  46.82300 22.48100 26.94400
C  45.98900 19.98900 29.73600
C  45.89300 20.04800 26.36700
O  45.97100 20.26400 25.14000
C  45.46800 18.70200 26.81400
N  47.76100 25.20200 26.03600
C  47.48700 24.17200 25.23600
C  47.68300 24.48500 23.78300
C  47.92400 25.99400 23.83000
C  48.13400 26.23700 25.32700
C  48.81900 23.71500 23.06300
C  46.69800 26.81900 23.37200
C  46.88600 28.08800 22.44600
N  48.57300 26.97000 28.17100
C  48.89200 27.79600 27.09000
C  49.45200 29.04700 27.60000
C  49.29000 28.92100 29.01900
C  48.78300 27.63700 29.31700
C  50.09500 30.21200 26.89800
C  49.35100 29.63700 30.25900
O  49.72800 30.77400 30.52400
C  48.85800 28.65800 31.40500
C  49.94000 28.74900 32.43900
O  51.17000 28.51800 32.30400
O  49.37100 29.19400 33.57000
C  50.10600 29.19500 34.86600
H  46.86300 22.14300 31.38700
H  47.02900 22.29300 24.77900
H  48.99900 28.05000 24.90600
H  48.77900 25.81100 33.07200
H  46.46500 24.27000 33.05800
H  49.03000 22.65900 32.54900
H  47.69700 22.73800 33.89300
H  49.10100 23.77400 33.89700
H  46.13000 27.20400 32.57800
H  47.45400 27.70900 33.62700
H  47.00100 25.63700 34.98400
H  45.36500 25.83400 34.52100
H  45.13900 19.48700 29.27400
H  45.69200 20.53200 30.63300
H  46.83800 19.32900 29.90800
H  44.55000 18.87700 27.37400
H  46.32500 18.42900 27.43100
H  45.39300 18.09100 25.91500
H  46.80900 24.31200 23.15500
H  48.85000 26.27800 23.32900
H  48.43300 23.53000 22.06100
H  49.12700 22.85000 23.65100
H  49.76800 24.24400 22.97900
H  46.09200 27.14200 24.21800
H  46.05600 26.13900 22.81300
H  46.55600 27.85600 21.43300
H  47.89800 28.48000 22.34800
H  46.33100 28.94100 22.83500
H  50.59300 29.83300 26.00600
H  50.86200 30.64000 27.54300
H  49.38300 30.99300 26.63600
H  47.92300 28.96900 31.87100
H  49.66700 28.45200 35.53300
H  50.00300 30.18100 35.31900
H  51.15400 28.95000 34.69200
Mg 48.21000 35.09900 27.15200
C  46.25000 33.43800 29.75500
C  48.19600 37.77800 29.06300
C  49.60100 36.61300 24.63900
C  47.41100 32.27000 25.12700
N  47.35700 35.51700 29.19600
C  46.81100 34.68200 30.11300
C  46.79000 35.22500 31.54300
C  47.01600 36.77900 31.21900
C  47.51700 36.74000 29.76800
C  45.93000 37.65500 31.71600
C  47.96300 34.61600 32.45500
C  47.53900 34.15800 33.87500
H  46.37200 35.00200 34.44100
N  48.99200 36.92100 26.92900
C  48.84500 37.94800 27.81400
C  49.38200 39.19500 27.22300
C  49.81500 38.83400 25.94800
C  49.49400 37.42500 25.78500
C  49.43300 40.53800 27.94600
C  50.52200 39.67600 24.92400
O  50.94900 39.26200 23.85600
C  50.73200 41.18200 25.14100
N  48.22100 34.58000 25.10000
C  49.12000 35.31000 24.34000
C  49.53200 34.56600 23.10900
C  48.92200 33.14900 23.36300
C  48.15000 33.30300 24.62700
C  48.95700 35.16200 21.80300
C  50.00800 31.95800 23.48200
C  50.23300 31.08200 22.20400
N  47.05200 33.21500 27.30300
C  46.87000 32.19600 26.42900
C  46.05000 31.21100 27.03500
C  45.80000 31.65200 28.33900
C  46.47000 32.87900 28.50700
C  45.55400 30.00600 26.37500
C  45.02600 31.34100 29.50600
O  44.24900 30.43100 29.81700
C  45.36100 32.55400 30.45400
C  46.04900 31.93600 31.70000
O  47.16200 31.47800 31.78400
O  45.09700 31.83800 32.68500
C  45.34700 30.94400 33.76700
H  48.17400 38.74200 29.57600
H  50.15400 37.09400 23.82900
H  47.41800 31.37900 24.49600
H  45.81400 35.11000 32.01600
H  47.81400 37.11500 31.88000
H  45.78400 38.43400 30.96800
H  46.01400 38.12600 32.69500
H  45.00100 37.09400 31.82400
H  48.67100 35.40100 32.71900
H  48.48900 33.87900 31.84700
H  48.38100 34.38000 34.53000
H  47.40400 33.07600 33.85800
H  50.45600 40.90400 28.03500
H  49.14700 40.51800 28.99800
H  48.88500 41.36200 27.49000
H  51.21400 41.59200 24.25300
H  51.50700 41.06900 25.89900
H  49.77300 41.62800 25.40500
H  50.61100 34.66200 22.98300
H  48.15900 32.98900 22.60100
H  49.54500 36.00200 21.43300
H  47.92800 35.51100 21.88200
H  49.00600 34.44600 20.98200
H  49.82000 31.26600 24.30200
H  50.97100 32.44000 23.64600
H  50.35300 30.04700 22.52500
H  51.09900 31.31000 21.58300
H  49.33200 31.06000 21.59100
H  44.78300 29.53100 26.98100
H  46.49500 29.45700 26.40400
H  45.20800 30.22400 25.36400
H  44.43900 33.07800 30.70700
H  44.60200 31.04900 34.55600
H  46.33600 31.08500 34.20300
H  45.41500 29.92200 33.39300

