158

Mg 25.64700 1.82200 29.94400
C  27.81100 1.63800 32.84800
C  23.06200 2.16200 32.14300
C  23.72600 1.64100 27.37100
C  28.49700 1.38700 28.03200
N  25.48800 1.88700 32.22700
C  26.49200 1.93500 33.14800
C  25.94400 2.26300 34.58300
C  24.39800 2.23200 34.41300
C  24.30200 2.13200 32.84800
C  23.54200 1.20900 35.19000
C  26.55800 3.62600 35.17100
C  27.20100 3.46600 36.59300
H  26.64300 4.38300 37.64900
N  23.64400 1.88900 29.72900
C  22.71000 2.00300 30.76700
C  21.39500 1.95300 30.23600
C  21.52500 1.76000 28.81400
C  23.00300 1.73700 28.55700
C  20.17300 2.24000 31.09800
C  20.42500 1.54200 27.74700
O  20.88500 1.22400 26.65000
C  18.89300 1.61000 27.95400
N  26.03100 1.47000 27.98700
C  25.05900 1.51700 27.07000
C  25.60800 1.45800 25.68800
C  27.17600 1.45600 25.86400
C  27.25600 1.42600 27.34300
C  25.05100 0.33600 24.80200
C  27.91300 2.68300 25.17900
C  27.46400 2.92900 23.76300
N  27.80000 1.51200 30.29800
C  28.81000 1.28200 29.42400
C  30.08900 1.01100 30.13000
C  29.71000 1.23700 31.50400
C  28.36100 1.48300 31.56500
C  31.36200 0.59400 29.45400
C  30.26600 1.28800 32.76200
O  31.41400 1.01800 33.12700
C  29.12700 1.50900 33.71600
C  29.06600 0.36200 34.64700
O  28.25300 -0.54000 34.49200
O  29.86700 0.53900 35.77000
C  29.52300 -0.34500 36.92800
H  22.31000 2.48300 32.86700
H  23.12500 1.71000 26.46200
H  29.33800 1.38800 27.33500
H  26.31300 1.43800 35.19200
H  23.98900 3.22800 34.58400
H  23.28100 0.40900 34.49700
H  22.70200 1.66100 35.71600
H  23.98200 0.71900 36.05800
H  25.80000 4.40700 35.23500
H  27.29600 4.07100 34.50500
H  28.26100 3.67200 36.74000
H  26.88100 2.48800 36.95500
H  19.82900 1.45000 31.76600
H  19.41100 2.41000 30.33800
H  20.15800 3.15700 31.68700
H  18.35800 1.17000 27.11200
H  18.69400 2.67900 28.03000
H  18.53900 1.15100 28.87800
H  25.20900 2.35800 25.22000
H  27.53900 0.52900 25.41900
H  24.38800 -0.34100 25.34000
H  25.77800 -0.40100 24.46300
H  24.46200 0.76100 23.98800
H  28.99600 2.58100 25.10900
H  27.62300 3.48800 25.85500
H  26.89600 2.12300 23.29900
H  28.24500 3.12000 23.02800
H  26.76100 3.76000 23.82200
H  32.09100 1.39600 29.56400
H  31.11900 0.46600 28.39900
H  31.65500 -0.34100 29.93300
H  29.29800 2.39700 34.32500
H  28.67000 0.10500 37.43600
H  30.34600 -0.32600 37.64300
H  29.30500 -1.35300 36.57700
Mg 45.18200 4.11100 46.29400
C  43.43000 7.12200 46.28500
C  42.06100 2.50400 45.80200
C  46.69100 1.23600 45.48900
C  48.18000 5.90600 46.06900
N  42.99500 4.74800 45.95700
C  42.56000 6.06600 45.94500
C  41.03900 6.09400 45.81800
C  40.60600 4.60400 46.08900
C  41.92300 3.87600 45.97500
C  40.00000 4.35500 47.51300
C  40.50500 6.48100 44.48300
C  39.76800 7.81400 44.28900
H  40.29000 8.77000 43.22800
N  44.52000 2.15900 45.83700
C  43.19500 1.72100 45.66200
C  43.08000 0.24400 45.38100
C  44.44100 -0.15900 45.38100
C  45.33500 1.06700 45.56200
C  41.81600 -0.55200 45.07300
C  44.96200 -1.48600 45.04000
O  44.22100 -2.40500 44.68000
C  46.40600 -1.85500 44.91700
N  47.12600 3.69400 45.84500
C  47.51000 2.41100 45.65100
C  49.09400 2.29700 45.47200
C  49.55700 3.78900 45.57900
C  48.18300 4.53600 45.79800
C  49.84100 1.36800 46.51000
C  50.36700 4.41200 44.38200
C  51.61600 5.19300 44.75900
N  45.73000 6.12500 46.27100
C  46.98900 6.70700 46.22300
C  46.83600 8.14700 46.36900
C  45.44300 8.36900 46.43400
C  44.81400 7.10800 46.37500
C  47.87600 9.21800 46.41900
C  44.42100 9.40000 46.50400
O  44.47000 10.63100 46.59600
C  43.09500 8.59900 46.38500
C  42.35400 8.85700 47.63800
O  42.27400 8.07800 48.56200
O  41.62500 9.98800 47.45800
C  40.57000 10.31100 48.40700
H  41.11700 1.95600 45.75800
H  47.38400 0.43900 45.20900
H  49.19900 6.29600 46.01100
H  40.60600 6.73700 46.58400
H  39.83900 4.30700 45.37500
H  40.31200 5.17200 48.16300
H  40.30200 3.40600 47.95700
H  38.91300 4.27700 47.49000
H  39.89600 5.76900 43.92600
H  41.39400 6.73700 43.90800
H  39.81000 8.40400 45.20400
H  38.71200 7.57600 44.15900
H  40.95600 0.09500 45.25000
H  41.78200 -1.39200 45.76700
H  41.88300 -0.86800 44.03200
H  46.56500 -1.33600 43.97200
H  46.50800 -2.94000 44.94000
H  47.04700 -1.50300 45.72500
H  49.27800 1.96800 44.44900
H  50.10100 4.03100 46.49200
H  50.36600 0.61600 45.92200
H  49.10400 0.96600 47.20500
H  50.58400 2.00300 46.99300
H  49.65800 5.07300 43.88400
H  50.58500 3.67600 43.60900
H  51.87900 5.26600 45.81500
H  51.37400 6.11200 44.22500
H  52.52600 4.79300 44.31200
H  47.62400 10.21200 46.78800
H  48.38700 9.28100 45.45800
H  48.64000 8.86400 47.11100
H  42.52200 9.00400 45.55100
H  40.60200 9.92000 49.42400
H  39.73300 9.82800 47.90200
H  40.31500 11.35700 48.57100

