158

Mg 26.27800 -0.61500 30.11500
C  28.31300 -0.58300 33.02200
C  23.57600 0.07800 32.13900
C  24.45400 -0.90500 27.36600
C  29.03300 -1.75100 28.37200
N  26.01700 -0.43300 32.28200
C  26.95100 -0.42100 33.30800
C  26.34600 -0.01100 34.69500
C  24.84000 -0.06700 34.40700
C  24.76500 -0.16200 32.87800
C  24.20200 -1.31300 34.98700
C  26.75900 1.46700 35.09100
C  27.35200 1.72600 36.47100
H  26.78200 0.89900 37.63400
N  24.30700 -0.52400 29.77800
C  23.31700 -0.06300 30.75100
C  22.06300 0.21400 30.04400
C  22.25400 -0.13200 28.62600
C  23.74900 -0.53900 28.52300
C  20.80300 0.80100 30.74000
C  21.21300 -0.09500 27.46700
O  21.50400 -0.68200 26.40400
C  19.80200 0.40800 27.72700
N  26.69000 -1.46300 28.19900
C  25.75700 -1.28600 27.22500
C  26.32500 -1.95200 25.89500
C  27.81000 -1.81200 26.13200
C  27.92700 -1.70400 27.63400
C  25.85400 -3.34300 25.54000
C  28.37300 -0.54300 25.37300
C  29.16500 -0.78400 24.00100
N  28.28400 -1.06500 30.56000
C  29.26400 -1.49100 29.78000
C  30.53300 -1.60800 30.56000
C  30.20900 -1.16300 31.83200
C  28.81200 -0.86500 31.81400
C  31.86100 -2.27400 30.16700
C  30.69300 -0.88200 33.19400
O  31.84200 -0.89400 33.62600
C  29.42300 -0.58100 34.03800
C  29.34000 -1.61000 35.12900
O  28.84700 -2.68500 34.96600
O  29.97500 -1.15700 36.28900
C  30.10300 -2.12600 37.42300
H  22.75300 0.41900 32.77100
H  23.78900 -0.84000 26.50200
H  29.95500 -2.09900 27.90200
H  26.67900 -0.69100 35.47900
H  24.29900 0.82200 34.72900
H  23.70400 -1.92700 34.23600
H  23.39700 -1.06200 35.67700
H  24.92800 -1.88300 35.56700
H  25.92700 2.15700 34.94800
H  27.55800 1.71200 34.39200
H  27.18200 2.78500 36.66300
H  28.43000 1.56700 36.44800
H  19.93000 0.17000 30.57100
H  20.69400 1.83800 30.42300
H  20.88700 0.74300 31.82500
H  19.33100 -0.08200 28.58000
H  19.32000 0.14500 26.78600
H  19.72500 1.49400 27.78300
H  25.88800 -1.31200 25.12900
H  28.27200 -2.74800 25.81800
H  25.37700 -3.70300 26.45100
H  26.62000 -4.05600 25.23400
H  25.08300 -3.28800 24.77100
H  28.99000 0.00800 26.08200
H  27.50900 0.10600 25.23000
H  28.90700 0.05100 23.34900
H  28.76500 -1.69900 23.56400
H  30.24300 -0.81100 24.16000
H  32.42900 -1.55900 29.57300
H  31.65000 -3.17300 29.58700
H  32.33200 -2.66100 31.07100
H  29.47000 0.45100 34.38600
H  31.06500 -2.62900 37.51900
H  29.43400 -2.97700 37.28800
H  29.86800 -1.56300 38.32700
Mg -2.46900 35.57700 26.90200
C  -3.93000 33.53400 29.36600
C  -1.19200 37.48800 29.43100
C  -1.23200 37.50000 24.51000
C  -4.11000 33.57300 24.54300
N  -2.50400 35.42100 29.16500
C  -3.12300 34.49600 29.95100
C  -2.80700 34.75200 31.47900
C  -1.81800 36.00400 31.38800
C  -1.82900 36.36100 29.90900
C  -2.20500 37.19600 32.30100
C  -2.19400 33.51200 32.26200
C  -1.25700 33.83100 33.47500
H  -1.68200 33.40900 34.88100
N  -1.30100 37.20400 26.99300
C  -0.82000 37.83600 28.05400
C  0.12600 38.82800 27.59300
C  0.13000 38.83900 26.17200
C  -0.86100 37.85400 25.80600
C  0.97200 39.61500 28.62400
C  0.88100 39.74600 25.25900
O  0.63200 39.90700 24.08500
C  1.86700 40.74000 25.95300
N  -2.70000 35.59200 24.86200
C  -2.05900 36.46900 24.01600
C  -2.38500 36.15600 22.54300
C  -3.28800 34.91100 22.58700
C  -3.38800 34.64000 24.09000
C  -3.00000 37.42500 21.78100
C  -2.62800 33.79100 21.74600
C  -1.59200 32.87900 22.53400
N  -3.88800 33.93300 26.84300
C  -4.39600 33.21400 25.84700
C  -5.15600 32.05500 26.34200
C  -4.98200 32.21500 27.73700
C  -4.16100 33.27600 27.96600
C  -5.84400 31.07900 25.56000
C  -5.25000 31.61600 29.02100
O  -5.86900 30.60300 29.31900
C  -4.58500 32.42400 30.08100
C  -5.71800 32.74800 30.99100
O  -6.83300 33.17800 30.59600
O  -5.41400 32.41000 32.23600
C  -6.47100 32.72400 33.22700
H  -0.75300 38.15300 30.17800
H  -0.78000 38.03600 23.67300
H  -4.43900 32.93000 23.72400
H  -3.78500 35.02900 31.87200
H  -0.79200 35.76000 31.66400
H  -1.48600 38.00900 32.40600
H  -2.10300 36.71800 33.27500
H  -3.24900 37.49800 32.22400
H  -1.72700 32.83900 31.54400
H  -3.05300 32.95600 32.63900
H  -1.13900 34.91300 33.53000
H  -0.31500 33.40800 33.12600
H  0.89900 39.32300 29.67100
H  0.86900 40.70000 28.62900
H  2.01200 39.31600 28.49300
H  1.39300 41.50400 26.56900
H  2.58900 40.99100 25.17700
H  2.45700 40.01000 26.50700
H  -1.43700 35.97300 22.03600
H  -4.27600 35.19100 22.22100
H  -2.17100 37.65900 21.11400
H  -3.06300 38.27500 22.46100
H  -3.98300 37.19400 21.37000
H  -2.21700 34.25100 20.84700
H  -3.47900 33.18700 21.43300
H  -1.05900 33.32600 23.37400
H  -0.88600 32.76100 21.71300
H  -1.97200 31.91300 22.86500
H  -6.85000 31.38400 25.27300
H  -5.76500 30.12500 26.08100
H  -5.28100 30.93400 24.63800
H  -3.78800 32.01400 30.70100
H  -7.14700 31.87000 33.18100
H  -7.11300 33.60000 33.13900
H  -6.05100 32.72200 34.23300

