158

Mg 46.48900 4.47400 48.27300
C  44.16100 6.71700 47.44100
C  44.26500 1.94000 47.29400
C  48.90700 2.06200 48.49700
C  48.99400 6.86200 48.25400
N  44.49000 4.36800 47.25400
C  43.63600 5.45800 47.17000
C  42.26200 5.08000 46.62700
C  42.23100 3.49000 46.77100
C  43.76700 3.20900 47.07900
C  41.20400 2.96800 47.80600
C  41.83200 5.66800 45.18600
C  40.77700 6.83500 45.09200
H  39.89000 6.64100 43.91600
N  46.53800 2.34700 48.10300
C  45.51300 1.51200 47.68700
C  45.90700 0.14600 47.69100
C  47.24900 0.09000 48.01700
C  47.64800 1.57900 48.19300
C  44.90000 -1.00200 47.35000
C  48.08200 -1.18900 48.24500
O  47.54200 -2.28700 48.25800
C  49.56300 -1.20800 48.45500
N  48.70600 4.51100 48.33100
C  49.43900 3.37900 48.59700
C  50.95700 3.70700 48.76300
C  50.82500 5.26200 48.92000
C  49.38900 5.56000 48.45200
C  51.70000 2.94100 49.88500
C  51.87400 5.96800 47.96600
C  53.32300 5.43400 47.77800
N  46.59000 6.40100 48.01700
C  47.65700 7.28500 48.00600
C  47.13300 8.62200 47.85600
C  45.77600 8.48800 47.69800
C  45.50600 7.06600 47.70000
C  48.07500 9.82800 47.83100
C  44.54800 9.11500 47.52000
O  44.34400 10.30400 47.45300
C  43.41800 8.00500 47.43400
C  42.50100 8.07800 48.69600
O  42.57500 7.34700 49.61200
O  41.48100 9.00700 48.46000
C  40.33800 8.53300 49.19600
H  43.49900 1.24200 46.95000
H  49.60500 1.22900 48.60500
H  49.72300 7.63300 48.51200
H  41.63000 5.50800 47.40600
H  42.05900 3.09200 45.77100
H  40.52100 2.35500 47.21900
H  40.65800 3.86500 48.09900
H  41.71900 2.55800 48.67500
H  41.52500 4.85500 44.52700
H  42.80400 6.00100 44.82300
H  41.42800 7.69400 44.93100
H  40.25600 6.89300 46.04800
H  44.82100 -1.69500 48.18700
H  45.36900 -1.57100 46.54700
H  43.93100 -0.84300 46.87700
H  49.78900 -0.70900 49.39700
H  50.04500 -0.81000 47.56200
H  49.99200 -2.19600 48.62400
H  51.33600 3.60500 47.74600
H  51.02900 5.60600 49.93400
H  52.24500 2.12400 49.41100
H  51.04700 2.62800 50.70000
H  52.49600 3.53700 50.33100
H  51.89600 7.02600 48.22700
H  51.49400 5.99200 46.94500
H  53.99700 6.28000 47.91500
H  53.41800 4.92400 46.81900
H  53.62200 4.79100 48.60700
H  48.29900 10.03800 48.87700
H  47.59700 10.73600 47.46300
H  48.86600 9.49000 47.16200
H  42.78600 8.22200 46.57200
H  39.77400 7.78700 48.63700
H  39.59400 9.32900 49.19300
H  40.44000 8.25800 50.24600
Mg 35.99900 2.30900 30.50300
C  33.43900 3.03000 32.53600
C  38.10500 2.37500 33.10300
C  38.58400 2.02000 28.23300
C  33.79900 2.52800 27.69100
N  35.75500 2.79700 32.60200
C  34.59800 2.99300 33.31400
C  34.86500 3.09300 34.81600
C  36.40800 3.24600 34.84900
C  36.78400 2.78400 33.43700
C  36.93800 4.67900 35.17900
C  34.38500 1.85500 35.59400
C  34.06500 2.08500 37.10800
H  34.55000 3.37700 37.83300
N  38.04900 2.15000 30.63500
C  38.72600 2.12800 31.83300
C  40.13400 1.92600 31.58900
C  40.27300 1.59100 30.15700
C  38.94100 1.97100 29.58800
C  41.09700 1.86600 32.72000
C  41.47300 1.03600 29.44800
O  41.43000 0.90100 28.22300
C  42.72500 0.47200 30.17700
N  36.13700 2.22400 28.24500
C  37.37100 2.19200 27.62300
C  37.21400 1.94900 26.11200
C  35.61500 1.75500 25.95300
C  35.14000 2.18100 27.35600
C  37.88700 2.99100 25.10300
C  34.99600 0.32300 25.43200
C  34.21900 0.32900 24.13700
N  34.07500 2.76000 30.11800
C  33.26300 2.67300 28.96200
C  31.91800 3.06700 29.35100
C  31.98100 3.13100 30.72900
C  33.26700 2.91300 31.18100
C  30.72500 3.25700 28.43400
C  31.09800 3.30300 31.84700
O  29.89800 3.42300 31.92400
C  32.00400 3.18600 33.07800
C  31.71300 4.31400 33.95100
O  32.01000 5.49500 33.86500
O  31.15000 3.74900 35.07600
C  30.91000 4.87300 36.06000
H  38.83200 2.14700 33.88500
H  39.47700 2.07500 27.60800
H  33.05000 2.54600 26.89600
H  34.33100 3.97600 35.16800
H  36.91000 2.56700 35.53900
H  37.52900 5.09800 34.36500
H  37.38500 4.74000 36.17100
H  36.12500 5.39500 35.29800
H  35.06500 1.02200 35.41900
H  33.55800 1.47500 34.99500
H  34.41800 1.19100 37.62200
H  32.98300 2.06400 37.24300
H  41.90400 2.59100 32.61000
H  41.60300 0.90100 32.74900
H  40.71300 2.16900 33.69400
H  43.39700 -0.10500 29.54200
H  42.38500 -0.10400 31.03700
H  43.37500 1.22900 30.61800
H  37.64300 0.96500 25.92400
H  35.23000 2.54200 25.30400
H  38.55200 2.38800 24.48500
H  38.44800 3.71000 25.70000
H  37.06300 3.45400 24.56100
H  34.35900 -0.11500 26.20100
H  35.88500 -0.26900 25.21700
H  33.18300 0.07700 24.36100
H  34.57400 -0.42900 23.43700
H  34.26700 1.22800 23.52300
H  30.26100 2.40000 27.94600
H  31.08900 3.79900 27.56100
H  29.93300 3.80400 28.94500
H  31.70500 2.30400 33.64500
H  30.36000 5.70000 35.60900
H  31.82300 5.25800 36.51600
H  30.18800 4.54900 36.80900

