158

Mg 36.52700 49.68600 25.69300
C  36.23000 47.83800 28.73500
C  34.92000 52.35300 27.39200
C  35.91200 51.11900 22.77100
C  37.62000 46.81900 24.18100
N  35.57600 49.98600 27.80100
C  35.74900 49.13700 28.91300
C  35.21300 49.79700 30.13800
C  34.55100 51.19900 29.60600
C  35.05000 51.21100 28.20500
C  32.98600 51.34200 29.72700
C  36.30000 50.20600 31.17100
C  35.78900 49.97600 32.61200
H  34.32000 50.58700 32.83400
N  35.71200 51.61200 25.15400
C  35.19200 52.56900 25.98600
C  34.91400 53.70100 25.17700
C  34.98600 53.34500 23.79100
C  35.58400 51.97600 23.80700
C  34.42900 55.00900 25.74200
C  34.56400 54.03200 22.51900
O  34.76300 53.55300 21.45000
C  33.89000 55.40900 22.58900
N  36.64800 49.06100 23.70700
C  36.41700 49.82000 22.66900
C  36.73100 49.06300 21.35100
C  37.61500 47.83100 21.86000
C  37.35300 47.87900 23.35500
C  35.52400 48.74100 20.47900
C  39.16700 47.89800 21.43400
C  39.50700 46.73800 20.51800
N  36.94500 47.74200 26.30500
C  37.40700 46.66700 25.56600
C  37.55300 45.48400 26.46300
C  37.10000 45.93800 27.68900
C  36.71200 47.29000 27.54500
C  37.93800 44.09800 25.94000
C  36.97600 45.54000 29.15200
O  37.32100 44.51200 29.75900
C  36.46900 46.82200 29.86900
C  35.26200 46.40400 30.72100
O  34.04600 46.50200 30.37000
O  35.63500 46.12800 32.01200
C  34.67200 45.54500 32.95200
H  34.46400 53.23400 27.84800
H  35.83600 51.61700 21.80200
H  38.10100 46.02900 23.60100
H  34.40900 49.23800 30.61800
H  35.01400 52.04900 30.10800
H  32.45900 50.62000 30.34900
H  32.60500 51.56000 28.72900
H  32.81500 52.30100 30.21600
H  36.69900 51.21100 31.03900
H  37.19900 49.60500 31.03600
H  36.40400 50.52000 33.32900
H  35.83800 48.90000 32.78000
H  34.97000 55.88300 25.38100
H  34.47900 54.97200 26.83000
H  33.38600 55.19000 25.48000
H  34.36500 56.09000 23.29500
H  32.86800 55.11300 22.82500
H  33.86900 55.86100 21.59800
H  37.31600 49.69700 20.68600
H  37.18700 46.97100 21.34500
H  34.61000 49.33100 20.55600
H  35.22400 47.69400 20.50500
H  35.91500 48.96500 19.48700
H  39.75900 47.71600 22.33100
H  39.44400 48.84300 20.96600
H  39.17600 46.79800 19.48200
H  39.09600 45.87600 21.04500
H  40.59700 46.72200 20.51200
H  37.98800 43.42900 26.79900
H  38.92700 44.29000 25.52200
H  37.17700 43.70600 25.26700
H  37.13200 47.21400 30.64000
H  34.09000 46.36700 33.37000
H  35.10200 44.97600 33.77600
H  33.98500 44.86200 32.45300
Mg -4.36100 25.09800 25.49000
C  -3.15100 26.43500 28.48600
C  -6.52000 23.16700 27.36500
C  -5.18600 23.20800 22.72700
C  -2.06800 26.88700 23.73300
N  -4.67700 24.68900 27.67300
C  -4.17700 25.51000 28.66000
C  -4.85300 25.25900 29.98000
C  -5.66600 23.90700 29.70900
C  -5.60100 23.89000 28.15100
C  -4.92000 22.64400 30.25800
C  -5.86700 26.46300 30.40900
C  -5.94900 26.76800 31.88200
H  -5.22800 25.88600 32.90900
N  -5.66700 23.38600 25.10900
C  -6.54600 22.87300 26.00300
C  -7.41000 21.98800 25.30700
C  -6.91800 21.83100 23.96900
C  -5.86800 22.79500 23.88000
C  -8.56000 21.22800 26.11100
C  -7.40200 20.86800 22.86500
O  -6.92100 20.83800 21.75200
C  -8.44600 19.90600 23.09200
N  -3.72800 25.03800 23.59100
C  -4.24700 24.23500 22.63100
C  -3.68100 24.58400 21.27000
C  -2.77100 25.78700 21.58900
C  -2.85500 25.92100 23.08100
C  -2.96400 23.39300 20.58500
C  -3.22400 27.07000 20.91000
C  -2.73100 27.21300 19.41500
N  -2.90500 26.49700 25.98900
C  -2.00300 27.20600 25.08300
C  -1.11600 28.01400 25.91300
C  -1.51500 27.75800 27.23300
C  -2.66400 26.84200 27.21100
C  -0.04500 28.94700 25.40700
C  -1.25300 28.04900 28.67600
O  -0.40500 28.80700 29.16600
C  -2.28500 27.23000 29.52200
C  -1.53800 26.39900 30.54100
O  -1.28800 25.18400 30.39000
O  -1.26000 27.23100 31.56600
C  -0.58500 26.64000 32.77100
H  -7.18500 22.53300 27.95500
H  -5.50400 22.66400 21.83500
H  -1.50400 27.61200 23.14200
H  -4.06300 24.99700 30.68400
H  -6.67200 23.80500 30.11600
H  -4.08700 22.90500 30.91000
H  -4.57800 22.13600 29.35600
H  -5.65400 22.21100 30.93700
H  -6.86900 26.26700 30.02800
H  -5.57800 27.40100 29.93500
H  -6.97100 26.71800 32.25600
H  -5.63500 27.80700 31.98100
H  -7.98800 20.69300 26.86900
H  -9.26900 20.67400 25.49500
H  -9.18200 22.03300 26.50200
H  -8.87400 19.51200 22.17100
H  -9.18500 20.60200 23.48700
H  -8.27500 19.05200 23.74800
H  -4.46900 24.87300 20.57500
H  -1.73500 25.55600 21.34000
H  -3.20200 22.55900 21.24500
H  -1.87800 23.46500 20.64000
H  -3.21800 23.20000 19.54300
H  -2.85200 27.97100 21.39800
H  -4.29300 27.22800 20.76700
H  -3.52500 26.84000 18.76800
H  -1.79300 26.69200 19.22200
H  -2.59800 28.27200 19.19500
H  -0.60100 29.66600 24.80500
H  0.71700 28.38500 24.86700
H  0.52500 29.35300 26.24200
H  -2.88500 27.92000 30.11600
H  -0.36300 25.57900 32.65700
H  -1.29400 26.55700 33.59500
H  0.32100 27.17800 33.05100

