158

Mg 36.26600 48.87400 25.31700
C  36.84100 46.75300 28.23800
C  34.98100 51.25500 27.33500
C  35.84800 50.56900 22.66000
C  37.57500 46.12100 23.49200
N  35.88500 48.95300 27.51600
C  36.23300 48.09300 28.49800
C  35.92600 48.67300 29.87500
C  35.08300 49.95700 29.44800
C  35.32800 50.09100 28.01400
C  33.62900 49.93400 29.93100
C  37.13800 48.94700 30.84000
C  37.10100 48.42300 32.25300
H  35.88400 48.84800 33.05000
N  35.50600 50.74500 25.04200
C  35.17200 51.66400 26.00400
C  34.78600 52.88800 25.26300
C  35.14600 52.71600 23.88000
C  35.52100 51.32600 23.77700
C  34.09200 54.01200 25.90600
C  35.25500 53.72300 22.74100
O  35.76000 53.38000 21.68100
C  34.92300 55.05500 22.83100
N  36.37400 48.31900 23.32100
C  36.14100 49.27500 22.36200
C  36.59000 48.79800 20.95100
C  37.28200 47.44400 21.27900
C  37.08000 47.25300 22.76700
C  35.42100 48.61800 19.97000
C  38.74000 47.40700 20.81300
C  39.73800 48.25500 21.58500
N  36.94900 46.81700 25.66700
C  37.46100 45.90200 24.85800
C  37.83700 44.73000 25.56300
C  37.61300 45.00200 26.87900
C  37.07400 46.26900 26.91900
C  38.41400 43.47200 24.94400
C  37.70900 44.50600 28.22900
O  38.20000 43.42500 28.68900
C  37.15000 45.66500 29.18000
C  36.00800 45.14200 30.01400
O  34.88500 44.92600 29.62700
O  36.35100 44.87700 31.34700
C  35.24600 44.58800 32.24200
H  34.43700 52.01500 27.90000
H  35.79500 51.22500 21.78800
H  38.20000 45.48100 22.86600
H  35.29200 47.96700 30.41300
H  35.47500 50.83500 29.96100
H  33.37500 48.96400 30.35800
H  32.82000 50.07800 29.21600
H  33.48500 50.54800 30.82100
H  37.30500 50.01400 30.98800
H  38.05300 48.52100 30.42900
H  37.98100 48.77300 32.79400
H  37.16500 47.33500 32.23900
H  33.02800 53.81900 26.04600
H  34.23000 54.97900 25.42300
H  34.47100 54.08500 26.92600
H  33.86800 55.10600 23.10000
H  35.05200 55.61000 21.90200
H  35.48300 55.56700 23.61300
H  37.33200 49.51400 20.59900
H  36.70600 46.61500 20.86800
H  35.10300 49.61700 19.67300
H  34.63300 48.06000 20.47600
H  35.74600 48.10500 19.06600
H  38.73800 47.69500 19.76100
H  39.05900 46.36500 20.81400
H  40.70500 47.75200 21.59300
H  39.44800 48.51300 22.60400
H  39.89300 49.16700 21.00800
H  37.69000 42.82000 24.45300
H  39.03300 42.94700 25.67100
H  39.15800 43.78300 24.21000
H  37.83500 46.10900 29.90200
H  34.85200 43.57500 32.32100
H  34.34400 45.17500 32.06900
H  35.63900 44.84000 33.22700
Mg 0.79500 42.10000 26.45200
C  2.28100 42.23600 29.50200
C  -2.23100 41.43700 28.11000
C  -0.68600 41.68000 23.46500
C  3.86300 42.70400 24.94500
N  0.15400 41.83000 28.59800
C  0.89100 42.04200 29.68000
C  0.05200 42.02100 30.92600
C  -1.39400 41.61300 30.56700
C  -1.16400 41.62000 29.01300
C  -1.96900 40.31200 31.26500
C  0.14000 43.39300 31.79500
C  0.07500 43.38300 33.35100
H  -0.35400 42.01200 34.09500
N  -1.09200 41.42300 25.92900
C  -2.18900 41.28900 26.68300
C  -3.27700 40.82400 25.87400
C  -2.90500 41.01000 24.52900
C  -1.50500 41.42800 24.58400
C  -4.63000 40.36000 26.42400
C  -3.79400 40.80600 23.22800
O  -3.36600 40.86700 22.08700
C  -5.23800 40.37200 23.41300
N  1.45700 42.29800 24.50400
C  0.69500 41.98700 23.43600
C  1.32800 42.16500 22.09900
C  2.74700 42.49700 22.51300
C  2.73500 42.62000 24.07900
C  1.24200 40.90500 21.16200
C  3.44700 43.62200 21.76700
C  3.29500 43.63300 20.20700
N  2.72900 42.44300 27.05900
C  3.93600 42.71000 26.35600
C  5.06400 42.77800 27.21400
C  4.41400 42.53200 28.50900
C  3.03200 42.39000 28.32000
C  6.47900 42.86500 26.88700
C  4.71000 42.34900 29.91600
O  5.77200 42.29500 30.51400
C  3.29700 42.27000 30.66900
C  3.37900 41.06600 31.48500
O  3.16100 39.94000 31.13700
O  3.90400 41.36200 32.78700
C  4.17800 40.25300 33.74200
H  -3.22900 41.29100 28.53000
H  -1.24900 41.56800 22.53700
H  4.82400 42.96100 24.49300
H  0.53200 41.17300 31.41400
H  -2.06500 42.45700 30.72900
H  -2.93600 40.61200 31.67000
H  -1.34800 39.96000 32.08900
H  -2.25000 39.62800 30.46500
H  -0.69600 43.98400 31.42100
H  1.09000 43.86600 31.54200
H  -0.69800 44.12500 33.55000
H  1.05200 43.71600 33.70400
H  -5.06000 39.43600 26.03700
H  -5.31100 41.20900 26.36100
H  -4.57300 40.20400 27.50100
H  -5.69900 41.06200 24.12000
H  -5.32900 39.31300 23.65500
H  -5.84100 40.51100 22.51500
H  1.04600 43.13000 21.67800
H  3.43200 41.69600 22.23500
H  0.68500 41.26200 20.29500
H  0.59700 40.21200 21.70200
H  2.16200 40.36600 20.93500
H  4.50100 43.58000 22.04100
H  2.93200 44.46200 22.23100
H  3.08000 44.64600 19.87000
H  2.42300 43.04000 19.93000
H  4.15000 43.24600 19.65400
H  6.86600 41.85100 26.78900
H  7.03300 43.32100 27.70800
H  6.59600 43.41900 25.95600
H  3.18800 43.14900 31.30600
H  5.25600 40.13200 33.84700
H  3.59300 39.35700 33.53200
H  3.72500 40.73400 34.60900

