158

Mg 8.07700 3.50900 27.44000
C  9.36700 2.27900 30.42000
C  5.99400 5.43900 29.35900
C  6.42600 4.35200 24.69100
C  9.55400 0.86800 25.79500
N  7.58800 3.68300 29.66400
C  8.35400 3.23900 30.68300
C  7.91000 3.84400 32.00700
C  6.80500 4.82200 31.62700
C  6.71100 4.55500 30.10100
C  5.41300 4.70400 32.40500
C  9.21400 4.49600 32.71600
C  9.44900 4.14000 34.21400
H  10.16000 5.21400 35.06600
N  6.51300 4.85200 27.03400
C  5.83900 5.56800 27.98600
C  4.85900 6.41800 27.35800
C  5.11600 6.25900 25.90000
C  6.06600 5.17900 25.82000
C  3.90500 7.36100 28.05100
C  4.50700 6.97400 24.68100
O  4.76400 6.66500 23.54300
C  3.52300 8.13700 24.84300
N  8.06300 2.78600 25.56100
C  7.20200 3.22300 24.61000
C  7.49800 2.60800 23.22200
C  8.45200 1.46600 23.54100
C  8.69400 1.71900 25.02800
C  6.27000 2.27800 22.40500
C  9.63900 1.59200 22.60800
C  10.74900 2.70200 22.95200
N  9.34700 1.91100 27.93800
C  9.83000 0.91600 27.17100
C  10.54500 0.01800 27.94800
C  10.49300 0.55800 29.24700
C  9.70300 1.68300 29.17400
C  11.43800 -1.14100 27.48800
C  10.96100 0.48000 30.61100
O  11.80000 -0.23400 31.07700
C  10.18600 1.55300 31.43700
C  9.38800 0.82600 32.43200
O  8.31800 0.31400 32.24100
O  10.10600 0.85000 33.61800
C  9.43700 0.26600 34.73500
H  5.47300 6.18400 29.96400
H  5.99800 4.56100 23.70800
H  10.06500 0.00700 25.36000
H  7.58100 3.03200 32.65500
H  7.15200 5.84500 31.77400
H  5.19200 5.49300 33.12300
H  5.45200 3.70000 32.82900
H  4.63800 4.75400 31.64000
H  9.14900 5.58400 32.66900
H  10.15100 4.29700 32.19600
H  10.15000 3.30600 34.18500
H  8.52500 3.85700 34.71700
H  2.96600 7.29900 27.50100
H  4.23200 8.39800 27.97100
H  3.68300 7.10900 29.08800
H  3.08200 8.42900 23.88900
H  4.10400 9.00000 25.16500
H  2.74400 7.92200 25.57400
H  7.94800 3.37900 22.59700
H  8.00500 0.47200 23.54800
H  5.36800 2.47800 22.98300
H  6.23000 1.22500 22.12600
H  6.43300 2.86700 21.50300
H  9.25000 1.81800 21.61500
H  10.12700 0.62200 22.70500
H  10.55900 3.19200 23.90700
H  10.77000 3.47400 22.18300
H  11.74900 2.27700 23.03300
H  12.40500 -0.72000 27.21400
H  11.03500 -1.64800 26.61100
H  11.45500 -1.77100 28.37700
H  10.82400 2.25600 31.97300
H  9.01200 -0.69200 34.43800
H  8.65400 0.87100 35.19500
H  10.27300 0.10400 35.41500
Mg 50.01900 47.34300 43.37500
C  46.50600 47.69600 42.95500
C  49.91200 44.52500 41.67400
C  53.35100 47.29200 43.37300
C  50.06200 50.56200 44.84300
N  48.35400 46.41200 42.22800
C  47.03000 46.60000 42.28700
C  46.19700 45.50000 41.64500
C  47.24700 44.33100 41.50000
C  48.59700 45.12600 41.77500
C  47.04600 43.16800 42.56500
C  45.62600 45.92500 40.27000
C  44.24300 45.29000 39.96400
H  43.85800 45.07600 38.55300
N  51.50200 46.05400 42.56900
C  51.21600 44.89100 41.99900
C  52.40600 44.15500 41.77300
C  53.53100 44.97600 42.11800
C  52.84000 46.17400 42.76400
C  52.51300 42.86200 41.15600
C  54.96200 44.60900 42.09500
O  55.26700 43.56000 41.63000
C  56.12100 45.37200 42.50200
N  51.52600 48.73600 43.95700
C  52.83900 48.39300 43.98200
C  53.72200 49.42100 44.68200
C  52.66900 50.44400 45.13700
C  51.32400 49.89800 44.54900
C  54.71700 48.90600 45.74200
C  53.07300 51.89900 44.77300
C  54.03000 52.56500 45.80800
N  48.57700 48.87400 43.90800
C  48.78000 50.11400 44.44700
C  47.44700 50.70000 44.58300
C  46.53500 49.77300 44.09300
C  47.28400 48.70600 43.62700
C  47.07600 51.92600 45.29100
C  45.10600 49.43700 43.92400
O  44.04800 50.00900 44.23500
C  45.03300 48.08000 43.12900
C  44.40100 46.99600 43.99800
O  44.74600 46.60700 45.05300
O  43.25600 46.48000 43.36500
C  42.42100 45.55300 44.00200
H  49.86300 43.45800 41.44700
H  54.43400 47.15600 43.40600
H  50.19800 51.49200 45.39800
H  45.34500 45.34100 42.30600
H  47.32500 43.99600 40.46600
H  47.23800 42.21600 42.07000
H  45.97700 43.06700 42.75200
H  47.55300 43.38000 43.50600
H  46.31400 45.65300 39.47000
H  45.52800 47.00900 40.21300
H  43.50100 46.04500 40.22400
H  44.18400 44.35800 40.52700
H  53.06100 42.94100 40.21700
H  51.57700 42.46900 40.75900
H  52.91700 42.00800 41.69900
H  56.16900 46.34300 42.00900
H  56.99000 44.79700 42.18400
H  56.06300 45.70200 43.53900
H  54.25200 49.89700 43.85800
H  52.57800 50.36700 46.22100
H  55.73100 48.89800 45.34100
H  54.33300 47.93900 46.06700
H  54.70300 49.45900 46.68200
H  52.10800 52.40200 44.84600
H  53.55600 52.01900 43.80400
H  53.70600 53.56900 46.07900
H  54.96800 52.65600 45.26200
H  54.34300 51.89300 46.60700
H  46.78900 51.73100 46.32500
H  46.18900 52.26700 44.75700
H  47.92000 52.61500 45.26800
H  44.62300 48.23200 42.13100
H  42.43600 45.54500 45.09200
H  42.63000 44.53800 43.66300
H  41.39500 45.73600 43.68200

