158

Mg 35.31700 0.21800 29.12800
C  33.05700 1.43500 31.36400
C  37.88400 0.31200 31.37900
C  37.45300 -0.69300 26.66700
C  32.70800 0.53700 26.70800
N  35.45600 0.88300 31.13000
C  34.39800 1.24200 31.91100
C  34.84900 1.49500 33.39400
C  36.36100 1.18200 33.33300
C  36.58100 0.69300 31.83200
C  37.24600 2.35600 33.76000
C  34.02200 0.64200 34.42100
C  34.05200 0.85700 35.89300
H  35.00500 1.94100 36.46300
N  37.41700 -0.15300 29.09200
C  38.27800 -0.13200 30.12800
C  39.57800 -0.53500 29.65600
C  39.46500 -1.00100 28.33400
C  38.06900 -0.59600 27.94200
C  40.78800 -0.56600 30.58200
C  40.47200 -1.74200 27.48000
O  40.25700 -2.13600 26.35100
C  41.84000 -2.12000 27.97900
N  35.11500 -0.01100 26.96100
C  36.21600 -0.41800 26.19100
C  35.73400 -0.60100 24.70700
C  34.17700 -0.61500 24.95900
C  33.95200 0.11000 26.21700
C  36.19600 0.49800 23.83800
C  33.59500 -1.99500 25.03400
C  32.57000 -2.24200 23.89300
N  33.28500 0.89700 28.94400
C  32.36000 0.97400 27.92800
C  31.08700 1.50800 28.37600
C  31.27700 1.68200 29.74900
C  32.64000 1.22000 30.05800
C  29.76700 1.58500 27.63700
C  30.65400 2.02400 30.98400
O  29.50200 2.41000 31.18500
C  31.76800 1.86800 32.08000
C  31.79900 3.13500 32.89400
O  32.25800 4.23300 32.59100
O  31.26000 2.88800 34.17200
C  31.15500 4.06700 35.03600
H  38.77100 0.35200 32.01500
H  38.07800 -0.93800 25.80600
H  31.85800 0.48000 26.02500
H  34.67200 2.54800 33.61100
H  36.54600 0.35200 34.01400
H  37.74100 2.16200 34.71200
H  36.72300 3.30600 33.86900
H  37.98200 2.51100 32.97200
H  34.41100 -0.36600 34.27200
H  32.98500 0.67600 34.08500
H  34.20300 -0.05900 36.46500
H  33.08900 1.24500 36.22500
H  41.07800 -1.57400 30.87700
H  40.62800 0.06800 31.45400
H  41.60100 -0.06000 30.06100
H  42.47700 -1.29300 28.29200
H  42.32400 -2.66200 27.16700
H  41.63000 -2.80400 28.80100
H  36.10100 -1.52600 24.26300
H  33.64900 -0.05300 24.18800
H  36.57900 0.03800 22.92700
H  37.03500 1.03000 24.28700
H  35.32200 1.07000 23.52500
H  33.17800 -2.18400 26.02300
H  34.37300 -2.75800 24.99800
H  31.63800 -2.60000 24.33000
H  32.91800 -3.01400 23.20600
H  32.36900 -1.37000 23.27200
H  29.09200 0.79100 27.95600
H  30.04100 1.75300 26.59500
H  29.23800 2.51100 27.86000
H  31.57200 1.03700 32.75800
H  31.99100 4.08900 35.73400
H  30.18100 4.11500 35.52200
H  31.23300 5.02800 34.52700
Mg 6.26500 54.24000 41.04400
C  5.84300 50.83600 41.18300
C  9.65800 53.71100 40.07800
C  6.61900 57.50800 40.59200
C  2.78600 54.66600 41.43100
N  7.54800 52.42700 40.68600
C  7.16500 51.13900 40.80400
C  8.28000 50.14400 40.31500
C  9.46000 51.16200 40.54800
C  8.85500 52.53900 40.33800
C  10.03100 51.00600 41.93100
C  8.22600 49.65600 38.85400
C  7.36700 50.47100 37.88600
H  6.60000 49.63400 36.82200
N  7.85400 55.43400 40.53600
C  9.12800 55.08600 40.09200
C  9.90100 56.21000 39.87200
C  9.06900 57.33200 40.04800
C  7.72600 56.75900 40.34000
C  11.43500 56.09500 39.68900
C  9.56500 58.77400 39.91400
O  10.69800 59.03900 39.63000
C  8.67600 59.86200 40.16400
N  4.88400 55.85900 41.09200
C  5.29000 57.13100 40.87000
C  4.14400 58.12900 41.05300
C  2.97200 57.17900 41.43500
C  3.55300 55.81700 41.33700
C  4.40900 59.36500 41.96300
C  1.64900 57.46000 40.73300
C  0.45900 57.82200 41.62300
N  4.55900 53.04600 41.38600
C  3.23700 53.30200 41.59200
C  2.49900 52.07200 41.82300
C  3.48100 51.06000 41.79500
C  4.70400 51.71000 41.45700
C  1.09300 51.98600 41.98900
C  3.77100 49.67100 41.80200
O  2.97900 48.73100 41.98800
C  5.28000 49.47000 41.50000
C  5.19300 48.57000 40.30700
O  4.82200 48.99200 39.22300
O  5.51000 47.27000 40.54300
C  5.23800 46.34400 39.42300
H  10.73000 53.50900 40.03000
H  6.71400 58.58900 40.47200
H  1.70600 54.80200 41.51900
H  8.20400 49.24200 40.92100
H  10.21400 51.06900 39.76700
H  9.83300 50.02700 42.36700
H  9.72100 51.76500 42.64900
H  11.09000 50.99000 41.67200
H  7.64400 48.74700 39.00800
H  9.24000 49.56100 38.46700
H  8.14400 51.08500 37.43200
H  6.65800 51.17000 38.32900
H  11.93400 55.47700 40.43600
H  11.96600 57.04600 39.73900
H  11.64900 55.66000 38.71200
H  8.22200 59.69100 41.14100
H  8.05000 59.78500 39.27600
H  9.28100 60.76400 40.07500
H  3.92600 58.43900 40.03100
H  2.78900 57.27800 42.50500
H  5.41500 59.60300 42.30800
H  3.72800 59.19900 42.79800
H  3.98900 60.17800 41.37100
H  1.36800 56.54800 40.20600
H  1.66700 58.31300 40.05600
H  -0.54200 57.69800 41.20900
H  0.64500 58.77900 42.11000
H  0.46200 57.05500 42.39700
H  1.03200 51.30800 42.84000
H  0.59400 51.56300 41.11700
H  0.80900 52.99300 42.29600
H  5.80300 48.96100 42.31000
H  4.24600 45.89300 39.41400
H  5.98000 45.56100 39.58100
H  5.32600 46.82300 38.44800

