158

Mg 16.64600 52.16000 26.39200
C  18.52300 50.78100 28.91600
C  14.23000 53.07400 28.88100
C  14.65300 53.47500 23.94900
C  18.76400 50.66300 24.05300
N  16.40100 51.92700 28.61300
C  17.35700 51.29500 29.39100
C  17.10200 51.57800 30.87400
C  15.55700 52.07100 30.87800
C  15.44300 52.49500 29.37600
C  14.52400 51.09700 31.44800
C  17.96400 52.68300 31.44700
C  18.10400 52.68900 33.00500
H  17.25800 51.75600 33.86800
N  14.62000 53.19100 26.41600
C  13.88200 53.48000 27.53200
C  12.77700 54.30900 27.11600
C  12.93900 54.45500 25.65800
C  14.12000 53.72600 25.26000
C  11.64500 54.71400 28.09900
C  11.99800 55.15800 24.58100
O  12.34800 55.35900 23.41500
C  10.58700 55.57900 25.02100
N  16.68600 52.02900 24.28300
C  15.81600 52.72200 23.54100
C  16.13700 52.52700 22.04800
C  17.46500 51.71700 22.10400
C  17.71400 51.47100 23.56200
C  15.00200 52.04900 21.11500
C  18.71400 52.43300 21.40600
C  19.35900 51.65800 20.22400
N  18.29300 51.06700 26.42500
C  19.10300 50.46100 25.42700
C  20.15100 49.61500 26.03100
C  20.00900 49.79900 27.42300
C  18.89100 50.73900 27.58300
C  21.15500 48.82000 25.33300
C  20.55600 49.51500 28.74200
O  21.50600 48.87100 29.01600
C  19.57000 50.01000 29.71300
C  18.97600 48.89700 30.48000
O  18.06800 48.25500 30.02600
O  19.53500 48.80900 31.70100
C  18.90500 47.79800 32.58100
H  13.56900 53.42400 29.67600
H  14.18900 53.88600 23.05100
H  19.38300 50.15400 23.31100
H  17.19000 50.69400 31.50500
H  15.39100 52.98400 31.44900
H  15.06400 50.25400 31.88000
H  13.84400 50.79500 30.65100
H  13.96500 51.59100 32.24200
H  17.63200 53.66300 31.10400
H  18.99900 52.48300 31.17000
H  18.08200 53.73400 33.31300
H  19.07900 52.22500 33.15600
H  11.40900 55.77400 28.00300
H  11.91300 54.58400 29.14700
H  10.72600 54.17900 27.86100
H  9.87600 55.26100 24.25900
H  10.54100 56.65000 25.22000
H  10.38500 54.99200 25.91600
H  16.29900 53.56200 21.74900
H  17.31100 50.70900 21.72000
H  15.22800 51.13800 20.56100
H  14.67800 52.83300 20.43100
H  14.16500 51.72200 21.73200
H  19.38100 52.59400 22.25300
H  18.52300 53.46600 21.11500
H  19.18600 52.16600 19.27600
H  18.96900 50.64500 20.12800
H  20.43400 51.59500 20.39200
H  21.84900 49.43100 24.75600
H  20.54700 48.26000 24.62300
H  21.81200 48.17900 25.92100
H  20.07200 50.60700 30.47400
H  18.92500 46.86600 32.01600
H  17.90000 48.01700 32.93900
H  19.55700 47.53600 33.41400
Mg -11.15000 16.76900 42.67400
C  -7.71500 17.83800 43.19400
C  -12.15300 19.96800 42.37700
C  -14.24000 15.46700 42.34600
C  -9.83100 13.49600 42.67900
N  -9.96300 18.61900 42.51200
C  -8.65000 18.91700 42.90600
C  -8.46600 20.39900 42.63100
C  -9.85900 21.00200 42.90700
C  -10.75300 19.76200 42.59900
C  -9.99600 21.65100 44.31000
C  -7.94400 20.56600 41.14500
C  -6.49700 21.03800 41.01200
H  -5.48900 20.35900 40.06300
N  -12.93300 17.61400 42.26600
C  -13.18600 19.00300 42.13600
C  -14.54400 19.26400 41.90200
C  -15.11500 18.00100 41.86700
C  -14.14200 16.92000 42.26800
C  -15.14700 20.66700 41.89600
C  -16.59600 17.80600 41.70100
O  -17.35000 18.76000 41.57600
C  -17.25800 16.45100 41.76300
N  -11.89500 14.83200 42.50000
C  -13.20900 14.52300 42.42200
C  -13.56000 13.00800 42.47400
C  -12.12100 12.36500 42.66100
C  -11.21700 13.67400 42.54400
C  -14.65100 12.59700 43.50500
C  -11.83600 11.21300 41.62900
C  -12.34500 9.78900 41.87400
N  -9.23800 15.85800 42.94900
C  -8.91800 14.48600 42.88500
C  -7.48900 14.37600 43.07000
C  -7.00600 15.62400 43.35800
C  -8.09900 16.54700 43.11300
C  -6.55100 13.14500 42.86900
C  -5.86700 16.40600 43.65400
O  -4.67000 16.08900 43.87800
C  -6.32300 17.88500 43.59400
C  -6.03200 18.61400 44.86700
O  -6.50600 18.42700 45.99000
O  -4.92900 19.33200 44.64400
C  -4.13000 19.89100 45.73700
H  -12.69200 20.91600 42.43300
H  -15.23500 15.05000 42.17500
H  -9.52200 12.46600 42.48900
H  -7.78000 20.90100 43.31300
H  -10.10500 21.70500 42.11200
H  -10.79900 21.18700 44.88300
H  -10.34800 22.66700 44.13200
H  -9.10000 21.75000 44.92400
H  -8.47700 21.21800 40.45300
H  -7.97200 19.61400 40.61500
H  -6.01200 20.96500 41.98500
H  -6.55000 22.10200 40.77800
H  -15.93000 20.82600 42.63800
H  -15.71600 20.84300 40.98300
H  -14.53700 21.57000 41.90600
H  -18.34600 16.48700 41.80700
H  -17.04700 15.95300 42.70900
H  -16.99900 15.92500 40.84400
H  -14.00300 12.87700 41.48700
H  -12.01100 11.97300 43.67200
H  -15.12400 13.54900 43.74400
H  -14.13600 12.33700 44.43000
H  -15.41600 11.92300 43.11900
H  -10.84200 11.14000 41.18800
H  -12.34300 11.62400 40.75600
H  -12.93700 9.85300 42.78700
H  -11.62300 8.97400 41.92900
H  -13.02800 9.38200 41.12900
H  -5.50100 13.31600 42.63300
H  -6.96600 12.43100 42.15700
H  -6.55000 12.67600 43.85200
H  -5.64100 18.28900 42.84600
H  -3.18800 20.38000 45.48800
H  -3.95000 18.97200 46.29400
H  -4.66600 20.56600 46.40300

