158

Mg 51.51500 46.28600 42.30200
C  48.40500 47.43500 40.60400
C  51.14800 43.52900 40.51400
C  54.77400 45.67200 43.16300
C  51.90100 49.71500 43.24600
N  49.95400 45.65300 40.66200
C  48.78800 46.16200 40.32200
C  47.92500 45.14100 39.54200
C  48.84300 43.85600 39.48200
C  50.11900 44.38600 40.23500
C  48.12600 42.53900 39.93200
C  47.32800 45.57700 38.12200
C  45.77800 45.33500 38.00100
H  45.48800 44.20600 37.02200
N  52.75300 44.76500 41.95300
C  52.33300 43.62600 41.21200
C  53.37200 42.65500 41.34500
C  54.48800 43.26700 42.08400
C  54.05800 44.61300 42.46400
C  53.28800 41.27900 40.75800
C  55.77000 42.57100 42.44000
O  56.00600 41.47900 41.89600
C  56.72500 43.03800 43.46300
N  53.04900 47.53700 43.11100
C  54.24300 46.96300 43.49500
C  55.09300 48.01500 44.27800
C  54.12500 49.20200 44.36700
C  52.98400 48.89200 43.42500
C  55.59000 47.53500 45.73100
C  54.79700 50.54900 44.09400
C  55.13500 51.39500 45.42100
N  50.40500 48.24100 42.11000
C  50.66800 49.52000 42.65200
C  49.53500 50.33600 42.44500
C  48.69200 49.61700 41.57300
C  49.19600 48.31400 41.44000
C  49.39200 51.76900 43.01300
C  47.35100 49.67100 40.96900
O  46.47100 50.50400 41.04200
C  47.12300 48.26700 40.26400
C  45.92900 47.77400 40.89900
O  45.80600 47.32100 42.01400
O  44.86300 47.89100 40.03900
C  43.48300 47.74600 40.54300
H  50.93900 42.52500 40.14000
H  55.83500 45.56000 43.39700
H  52.10100 50.73300 43.58600
H  47.12200 45.04600 40.27200
H  49.21300 43.75200 38.46200
H  48.17500 41.81100 39.12300
H  47.14100 42.74500 40.34900
H  48.59100 42.15900 40.84200
H  47.86400 45.00700 37.36300
H  47.54400 46.63100 37.94900
H  45.46600 46.33500 37.70100
H  45.20200 45.07500 38.88900
H  53.00200 41.24000 39.70700
H  52.42200 40.82000 41.23500
H  54.07700 40.55500 40.96500
H  56.21400 43.31500 44.38500
H  57.25000 43.85800 42.97400
H  57.42200 42.21000 43.60100
H  55.90600 48.29400 43.60700
H  53.69900 49.18800 45.37000
H  54.89800 47.74500 46.54800
H  56.50400 48.06200 46.00400
H  55.69100 46.46400 45.55800
H  54.24600 51.18200 43.39900
H  55.69100 50.43500 43.48100
H  55.84200 50.87800 46.07000
H  54.26500 51.62600 46.03600
H  55.64600 52.31900 45.15400
H  48.53000 52.20000 42.50400
H  50.30900 52.35800 43.01500
H  49.05700 51.49500 44.01400
H  47.09600 48.55100 39.21200
H  43.31100 46.90000 41.20800
H  42.78800 47.88500 39.71400
H  43.29600 48.61300 41.17600
Mg 35.79800 49.26300 25.91500
C  35.91300 47.37300 28.68900
C  34.93100 52.15200 27.83500
C  35.40600 51.16800 23.15300
C  36.62400 46.48200 23.98300
N  35.24700 49.61700 28.01200
C  35.51700 48.74200 29.00000
C  35.32100 49.28300 30.39100
C  34.77400 50.77700 30.06100
C  34.98100 50.91000 28.51000
C  33.34200 51.05700 30.46700
C  36.65200 49.24700 31.22700
C  36.72300 48.58600 32.56400
H  36.91600 49.58500 33.77900
N  35.36000 51.38600 25.57700
C  35.08900 52.35100 26.46200
C  35.01100 53.62100 25.84500
C  35.08700 53.40500 24.44900
C  35.24300 51.96800 24.33600
C  34.68400 54.93100 26.51900
C  35.08500 54.41200 23.26400
O  35.22900 54.02600 22.14300
C  34.84500 55.90500 23.47100
N  35.94800 48.86600 23.86800
C  35.63800 49.83400 22.95100
C  35.85700 49.16500 21.49800
C  36.41500 47.77800 21.81400
C  36.34000 47.71000 23.30600
C  34.54500 49.16500 20.62100
C  37.92000 47.61700 21.39300
C  38.20200 46.20200 20.67200
N  36.04900 47.25300 26.21000
C  36.42400 46.27600 25.37800
C  36.70900 45.11800 26.16400
C  36.43000 45.48800 27.46000
C  36.09100 46.78300 27.44800
C  37.21000 43.81700 25.76100
C  36.53700 44.99900 28.77000
O  36.93100 43.96900 29.28400
C  36.19900 46.20400 29.67500
C  35.05500 45.76100 30.56400
O  33.84100 45.73400 30.18300
O  35.49300 45.52400 31.89100
C  34.53600 45.17600 32.96400
H  34.90000 53.01900 28.49700
H  35.23300 51.67400 22.20100
H  36.91400 45.66700 23.31600
H  34.59000 48.78200 31.02600
H  35.31000 51.64000 30.45500
H  33.34300 51.48900 31.46800
H  32.71600 50.17000 30.36800
H  32.94900 51.87000 29.85600
H  36.94300 50.28200 31.41000
H  37.37700 48.84900 30.51700
H  37.46200 47.79700 32.42100
H  35.86000 47.93800 32.71600
H  33.88300 55.40900 25.95500
H  35.51400 55.63700 26.52600
H  34.25900 54.85300 27.52000
H  35.62700 56.41400 24.03500
H  33.87300 55.97800 23.95800
H  34.73900 56.48100 22.55100
H  36.59600 49.83200 21.05600
H  35.80700 47.01100 21.33500
H  33.80300 49.84700 21.03500
H  34.31600 48.15100 20.29400
H  34.82200 49.77400 19.76000
H  38.62000 47.75200 22.21800
H  38.20200 48.36500 20.65200
H  39.19400 45.90500 21.01100
H  38.25000 46.25700 19.58400
H  37.51600 45.43600 21.03300
H  38.02500 44.09800 25.09400
H  36.46800 43.24900 25.20000
H  37.77800 43.31600 26.54500
H  37.07900 46.45200 30.26800
H  33.48500 45.30000 32.70600
H  34.80700 45.80100 33.81500
H  34.76200 44.12000 33.11400

