158

Mg 1.45100 8.60200 27.23700
C  2.15400 10.60400 30.11500
C  1.40200 5.81700 29.17000
C  1.09600 6.94500 24.39800
C  1.96700 11.51400 25.36800
N  1.82600 8.21000 29.46700
C  1.90600 9.22500 30.46800
C  1.76700 8.53600 31.82400
C  1.78200 6.95600 31.45900
C  1.71400 6.94700 29.92600
C  2.92400 6.08500 32.05900
C  0.43600 9.00100 32.57700
C  0.34600 8.98000 34.06900
H  1.45200 8.31800 34.94400
N  1.11900 6.63700 26.84500
C  1.09900 5.60600 27.77200
C  0.68900 4.42800 27.10100
C  0.58900 4.71600 25.70600
C  0.99800 6.14000 25.57200
C  0.51900 3.09300 27.85200
C  0.07300 3.82400 24.61100
O  0.08300 4.30300 23.46000
C  -0.70100 2.47700 24.80000
N  1.60800 9.15100 25.23200
C  1.44200 8.25800 24.18500
C  1.74900 8.95000 22.85200
C  1.41100 10.44600 23.19400
C  1.67900 10.37400 24.67700
C  3.15000 8.82300 22.25800
C  -0.08400 10.71100 23.08800
C  -0.61900 12.02200 22.54100
N  2.09400 10.60800 27.62800
C  2.25200 11.62700 26.74600
C  2.63500 12.87800 27.42100
C  2.57800 12.49100 28.77700
C  2.24200 11.15100 28.82100
C  2.72800 14.27400 26.81200
C  2.74500 12.99900 30.08800
O  2.91700 14.16400 30.45300
C  2.42000 11.76000 31.01500
C  3.63200 11.57500 31.87400
O  4.67400 11.04500 31.61200
O  3.29000 12.03100 33.14300
C  4.13900 11.80200 34.30600
H  1.39200 4.86800 29.71100
H  0.78800 6.46500 23.46700
H  1.94000 12.41200 24.74700
H  2.49500 8.88200 32.55900
H  0.83900 6.54500 31.82000
H  2.46400 5.19900 32.49700
H  3.55300 6.51200 32.83900
H  3.66100 5.77100 31.32100
H  -0.30900 8.34100 32.13500
H  0.02700 9.89000 32.09900
H  -0.54900 8.46300 34.41600
H  0.17800 10.01500 34.36700
H  1.13400 3.08600 28.75200
H  0.83600 2.30100 27.17300
H  -0.55600 2.95600 27.96800
H  -0.03100 1.75800 25.27200
H  -0.92500 2.15800 23.78200
H  -1.58100 2.82200 25.34400
H  1.04100 8.61000 22.09700
H  1.97000 11.25300 22.72200
H  3.37500 9.73100 21.69800
H  3.17300 8.02600 21.51500
H  3.86800 8.73000 23.07300
H  -0.52600 10.44300 24.04800
H  -0.53700 9.94400 22.46100
H  -0.28000 12.88400 23.11700
H  -1.70700 11.97800 22.58100
H  -0.41400 12.12400 21.47500
H  1.74300 14.68600 26.59400
H  3.31600 14.12200 25.90700
H  3.09300 15.08000 27.44800
H  1.52100 12.05700 31.55500
H  3.43500 11.40700 35.03900
H  4.54400 12.68800 34.79400
H  4.94000 11.09500 34.09100
Mg 48.92900 34.97200 27.62400
C  46.78500 33.43800 29.93800
C  49.36600 37.64500 29.97300
C  50.88700 36.50400 25.42800
C  48.22300 32.40900 25.39300
N  48.18600 35.48900 29.64600
C  47.42500 34.58700 30.45400
C  47.50600 35.08600 31.84700
C  47.73500 36.61300 31.67300
C  48.49500 36.60600 30.37000
C  46.47300 37.46200 31.59900
C  48.59800 34.35300 32.68700
C  48.25000 33.91300 34.10200
H  47.08100 34.68900 34.80800
N  49.92900 36.77400 27.67900
C  50.04600 37.69700 28.74200
C  50.98100 38.75100 28.39500
C  51.53600 38.37500 27.13900
C  50.79600 37.15900 26.71600
C  51.34700 40.00300 29.16400
C  52.74900 38.98300 26.28700
O  53.14800 38.56500 25.21700
C  53.58800 40.15000 26.78200
N  49.22600 34.67500 25.57700
C  50.20800 35.42300 24.92500
C  50.57400 34.77600 23.58400
C  49.87400 33.35900 23.62900
C  49.07000 33.41600 24.96800
C  50.18700 35.76800 22.35900
C  50.92800 32.25000 23.56600
C  50.45100 31.00200 22.79800
N  47.66300 33.32000 27.56500
C  47.54100 32.35300 26.61700
C  46.58100 31.32200 27.11400
C  46.24000 31.76100 28.37600
C  46.90900 32.90200 28.63500
C  46.09400 30.11900 26.37700
C  45.39600 31.49900 29.45600
O  44.50700 30.71500 29.66300
C  45.73200 32.52300 30.54700
C  46.10700 31.79100 31.76200
O  46.99200 30.97000 31.78500
O  45.28500 31.99200 32.79400
C  45.33700 31.02400 33.94800
H  49.38000 38.42100 30.74100
H  51.61900 36.89900 24.72000
H  48.27900 31.58400 24.68000
H  46.50800 34.99400 32.27500
H  48.42300 37.05300 32.39500
H  46.37900 37.92300 30.61600
H  46.38900 38.13000 32.45700
H  45.60000 36.81500 31.68300
H  49.52200 34.92600 32.61300
H  48.88400 33.47100 32.11400
H  49.07000 34.07400 34.80200
H  47.94500 32.87100 34.20500
H  50.72700 39.87600 30.05100
H  51.15000 40.86400 28.52500
H  52.37100 39.88500 29.51600
H  53.09600 40.95800 27.32400
H  54.09200 40.68600 25.97900
H  54.43300 39.80700 27.37900
H  51.65000 34.71200 23.42500
H  49.14700 33.29300 22.82000
H  49.70300 36.63200 22.81300
H  49.64100 35.21000 21.59700
H  51.10200 36.13200 21.89200
H  51.09700 32.05900 24.62600
H  51.86100 32.59100 23.11800
H  50.55100 30.04000 23.29900
H  50.98300 30.99700 21.84600
H  49.38200 31.02600 22.59000
H  46.63400 30.01700 25.43500
H  45.07500 30.15800 25.99100
H  46.37900 29.31000 27.04800
H  44.88400 33.13500 30.85700
H  44.85300 31.57800 34.75300
H  46.30800 30.70500 34.32800
H  44.90700 30.08600 33.59900

