158

Mg 2.85300 -1.81200 44.27600
C  6.39300 -1.21800 43.79300
C  2.25600 0.86800 42.17100
C  -0.20800 -2.93400 43.84300
C  3.78500 -5.07400 45.44400
N  4.20000 -0.42500 42.99500
C  5.59200 -0.34300 43.04400
C  6.16600 0.68800 42.09700
C  4.84800 1.54100 41.80400
C  3.68700 0.65200 42.42000
C  4.79100 2.93600 42.47900
C  6.83500 -0.03800 40.87900
C  8.29100 0.28000 40.65400
H  8.66500 0.68100 39.24500
N  1.14300 -0.99200 43.39400
C  1.07400 0.10900 42.52900
C  -0.26600 0.33300 42.10700
C  -1.03000 -0.66000 42.71200
C  -0.03400 -1.62000 43.33500
C  -0.62800 1.50300 41.11800
C  -2.51300 -0.76900 42.53700
O  -3.04600 -0.08900 41.65600
C  -3.32600 -1.77500 43.33900
N  1.97200 -3.86700 44.38300
C  0.62900 -3.91600 44.38500
C  0.06700 -5.10500 45.17500
C  1.35800 -5.90400 45.51100
C  2.49500 -4.91800 45.07600
C  -0.75300 -4.74900 46.41700
C  1.57300 -7.13300 44.71500
C  1.27000 -8.43200 45.52100
N  4.66000 -2.85200 44.68200
C  4.87000 -4.13200 45.28300
C  6.26900 -4.26700 45.65900
C  6.84700 -3.12400 45.12900
C  5.86500 -2.35100 44.44100
C  6.94600 -5.35600 46.51200
C  8.16700 -2.52600 45.02600
O  9.23500 -2.90600 45.56000
C  7.97200 -1.24200 44.14200
C  8.34100 0.00400 44.98300
O  7.86800 0.31300 46.04400
O  9.19400 0.73400 44.22800
C  9.26200 2.11800 44.78700
H  2.06200 1.62100 41.40400
H  -1.19800 -3.35400 43.65300
H  3.99200 -6.05000 45.88800
H  6.92200 1.21700 42.67700
H  4.74100 1.66800 40.72700
H  4.02300 3.01000 43.24900
H  4.43100 3.62800 41.71800
H  5.71300 3.28900 42.94100
H  6.37100 0.15700 39.91200
H  6.61700 -1.10600 40.84900
H  8.89800 -0.62200 40.72800
H  8.65600 1.05800 41.32400
H  -1.39200 1.27300 40.37500
H  0.24100 1.80400 40.53300
H  -1.02400 2.35600 41.66700
H  -2.90300 -1.60300 44.32900
H  -3.16000 -2.75500 42.89200
H  -4.36600 -1.47300 43.21400
H  -0.60200 -5.56900 44.45000
H  1.40000 -6.13400 46.57600
H  -0.89800 -5.56800 47.12100
H  -1.74200 -4.50100 46.03000
H  -0.32000 -3.87500 46.90200
H  2.58600 -7.23100 44.32600
H  0.89700 -7.10100 43.86000
H  2.12900 -9.10400 45.52400
H  0.50700 -8.82100 44.84800
H  0.77300 -8.25200 46.47400
H  7.35400 -5.94900 45.69200
H  6.22500 -5.89200 47.12800
H  7.65700 -4.84300 47.15900
H  8.68600 -1.43700 43.34200
H  8.33000 2.66700 44.65400
H  9.87400 2.86000 44.27500
H  9.57400 1.87600 45.80300
Mg 47.48300 16.80300 28.31300
C  45.25600 16.35700 31.06500
C  49.53600 18.52200 30.22700
C  49.25500 17.49500 25.54100
C  45.34200 14.85800 26.42200
N  47.27200 17.46300 30.39700
C  46.38100 17.08400 31.36500
C  46.91500 17.50800 32.77400
C  48.23400 18.27100 32.41100
C  48.41400 18.12200 30.94600
C  48.15000 19.81300 32.80500
C  47.03900 16.34100 33.85000
C  46.57300 16.53000 35.30500
H  46.23600 17.86900 35.86200
N  49.29300 17.77700 27.93900
C  49.97200 18.43700 28.86800
C  51.09700 19.06000 28.28600
C  51.09100 18.75100 26.87600
C  49.85300 17.99400 26.68900
C  52.09700 19.79900 29.14900
C  52.02600 19.07500 25.85900
O  51.93900 18.68000 24.71400
C  53.25400 19.89000 26.27500
N  47.27800 16.25200 26.28200
C  48.16000 16.60900 25.34900
C  47.68600 16.20900 23.99400
C  46.47800 15.28200 24.22500
C  46.39500 15.36000 25.74100
C  47.29000 17.42800 23.13100
C  46.66400 13.78000 23.70000
C  45.43700 12.99900 23.18700
N  45.67100 15.91900 28.55600
C  44.87400 15.21000 27.70100
C  43.60900 14.76100 28.30400
C  43.76200 15.25700 29.57600
C  44.95000 15.91300 29.70700
C  42.48000 13.92700 27.69900
C  43.07900 15.16800 30.84400
O  42.06900 14.58000 31.18100
C  44.09200 15.84700 31.89500
C  43.22700 16.80600 32.60700
O  42.78800 17.87100 32.19600
O  42.92300 16.32600 33.87200
C  42.04100 17.14100 34.76300
H  50.25100 18.96800 30.92200
H  49.70100 17.76500 24.58200
H  44.50600 14.31300 25.97700
H  46.17500 18.18200 33.20600
H  49.01000 17.71100 32.93300
H  48.65900 20.39800 32.03900
H  48.91400 19.94900 33.57000
H  47.17200 20.19400 33.09800
H  48.07800 16.05600 33.68400
H  46.41900 15.51700 33.49500
H  47.18400 16.07400 36.08400
H  45.68300 15.90200 35.30600
H  52.29000 19.26500 30.07900
H  51.78800 20.81800 29.38600
H  53.10400 19.66500 28.75400
H  53.57300 20.38300 25.35700
H  54.04400 19.29100 26.72700
H  52.90100 20.75400 26.83900
H  48.46500 15.63600 23.49200
H  45.54000 15.70800 23.86800
H  47.04100 18.29100 23.74700
H  46.43900 17.17800 22.49700
H  48.09700 17.54900 22.40800
H  47.04400 13.07900 24.44300
H  47.36000 13.78200 22.86100
H  45.66600 12.72300 22.15800
H  44.54100 13.61900 23.20700
H  45.24200 12.08600 23.75000
H  42.82400 13.40800 26.80500
H  41.61000 14.49600 27.37300
H  42.04700 13.26600 28.45000
H  44.54900 15.22600 32.66600
H  41.08400 16.69400 35.03300
H  41.88600 18.14000 34.35600
H  42.58300 17.24400 35.70200

