158

Mg 48.14700 16.04600 28.71800
C  46.12400 16.08300 31.55700
C  50.40200 18.10500 30.53000
C  49.64200 17.01700 25.83100
C  45.54300 14.71200 26.98700
N  48.35000 16.83800 30.88700
C  47.35100 16.73200 31.80300
C  47.83800 17.29700 33.09900
C  48.94900 18.28600 32.59100
C  49.27600 17.72400 31.21600
C  48.64000 19.78500 32.62000
C  48.22800 16.07600 34.03300
C  47.74000 16.28300 35.45800
H  47.32700 17.65500 35.97600
N  49.81600 17.27200 28.31900
C  50.75000 17.82100 29.17800
C  51.87500 18.36900 28.45700
C  51.60700 18.18700 27.08200
C  50.25000 17.46000 27.02700
C  53.09800 19.02000 29.12000
C  52.40500 18.63400 25.81700
O  52.06500 18.35700 24.69300
C  53.66000 19.57600 25.95000
N  47.59300 16.05700 26.72100
C  48.40000 16.36600 25.72400
C  47.96800 15.90900 24.35800
C  46.81300 15.01100 24.71800
C  46.64800 15.19100 26.23300
C  47.49300 17.06300 23.45900
C  47.12200 13.46500 24.48900
C  45.95700 12.64700 23.94300
N  46.28700 15.19200 29.23200
C  45.34800 14.62900 28.39600
C  44.20700 14.15500 29.15500
C  44.45300 14.64400 30.46700
C  45.67500 15.40100 30.43500
C  42.93200 13.63300 28.52600
C  43.88500 14.90300 31.75600
O  42.86700 14.55300 32.30600
C  45.05000 15.72500 32.56200
C  44.39700 16.84500 33.33100
O  44.04900 17.93800 32.84300
O  44.25900 16.44900 34.61000
C  43.33700 17.34300 35.37900
H  51.14200 18.67500 31.09500
H  50.25600 17.16500 24.94000
H  44.71800 14.18700 26.50100
H  47.05100 17.92700 33.51300
H  49.84800 18.16200 33.19400
H  47.67800 20.07400 33.04200
H  48.77100 20.24800 31.64200
H  49.33800 20.29400 33.28500
H  49.31200 15.96000 34.01700
H  47.66500 15.23700 33.62300
H  48.54400 16.05400 36.15700
H  46.98200 15.51900 35.62900
H  53.21000 20.01000 28.67700
H  53.90300 18.32100 28.89000
H  52.85800 19.22100 30.16400
H  53.88400 19.86600 24.92300
H  54.49100 19.05500 26.42500
H  53.37300 20.50500 26.44300
H  48.80400 15.36000 23.92500
H  45.88600 15.12000 24.15500
H  46.53100 16.85400 22.99200
H  48.29600 17.11700 22.72400
H  47.39500 17.95200 24.08300
H  47.40700 13.11100 25.47900
H  47.97400 13.43300 23.80900
H  46.31100 12.07100 23.08800
H  45.01600 13.15900 23.74200
H  45.74100 12.00200 24.79400
H  42.09300 14.13500 29.00700
H  42.87700 12.56700 28.74800
H  42.86700 13.75400 27.44500
H  45.38400 15.05200 33.35200
H  42.56200 17.73900 34.72200
H  43.87900 18.10600 35.93700
H  42.82300 16.86900 36.21600
Mg 9.88000 47.68800 25.51700
C  7.84700 47.93000 28.49700
C  12.44300 48.77300 27.23600
C  11.63400 47.35900 22.71100
C  6.83400 47.28300 23.73800
N  9.99600 48.31500 27.60200
C  9.22200 48.27000 28.68600
C  9.83500 48.69100 30.05400
C  11.20800 49.21000 29.49900
C  11.23500 48.72600 28.02400
C  11.57900 50.70200 29.67600
C  9.96900 47.49200 31.08600
C  9.53300 47.81100 32.46900
H  9.62600 46.60500 33.45600
N  11.85800 47.98300 25.02600
C  12.77500 48.35900 25.95000
C  14.07600 48.20500 25.34700
C  13.88000 47.87800 23.95100
C  12.39700 47.74800 23.81800
C  15.32600 48.51500 26.07300
C  14.89500 47.59600 22.83600
O  14.59000 47.34600 21.69500
C  16.37000 47.52600 23.10900
N  9.28300 47.42900 23.56200
C  10.24000 47.18000 22.54100
C  9.64000 46.49500 21.24700
C  8.15500 46.51600 21.73500
C  8.09800 47.15700 23.11600
C  9.82700 47.37900 19.90100
C  7.41600 45.11100 21.67300
C  7.79200 44.20500 22.80400
N  7.74400 47.41400 26.03000
C  6.64400 47.37400 25.16400
C  5.40400 47.35600 25.94800
C  5.86200 47.52000 27.32400
C  7.26800 47.62600 27.26600
C  4.07500 47.18300 25.30000
C  5.45500 47.59500 28.74100
O  4.33800 47.40700 29.22400
C  6.73600 47.85300 29.49800
C  6.77200 46.62700 30.24900
O  7.29700 45.55900 29.95400
O  6.25100 46.90500 31.49200
C  6.18700 45.85600 32.54600
H  13.18800 49.17000 27.92900
H  12.22100 47.23700 21.79800
H  5.96100 47.13200 23.09900
H  9.16100 49.49100 30.35800
H  12.03600 48.62200 29.89500
H  12.40800 50.74700 30.38300
H  10.75600 51.33600 30.00500
H  12.02400 50.99600 28.72600
H  11.03500 47.27100 31.13800
H  9.45100 46.62300 30.68200
H  8.45100 47.94500 32.49700
H  10.04200 48.71700 32.79800
H  15.20400 48.35400 27.14400
H  15.68200 49.53600 25.93600
H  16.12000 47.84600 25.74100
H  16.46100 46.70900 23.82400
H  16.66400 48.50200 23.49500
H  16.86000 47.28800 22.16500
H  10.11700 45.53600 21.04400
H  7.53200 47.15800 21.11200
H  8.93000 47.84300 19.49000
H  10.29300 46.89600 19.04200
H  10.42600 48.25400 20.14800
H  7.84500 44.57000 20.83000
H  6.36200 45.20400 21.41400
H  8.50100 44.59700 23.53400
H  8.32800 43.35000 22.39200
H  6.89800 43.87400 23.33200
H  3.91000 46.32900 24.64300
H  3.82100 48.08200 24.73800
H  3.30900 46.97100 26.04600
H  6.62900 48.82300 29.98300
H  5.48700 45.12400 32.14200
H  5.69400 46.31900 33.40100
H  7.14300 45.41400 32.82700

