158

Mg 24.39600 -3.99700 45.01600
C  26.31900 -1.26000 43.48300
C  21.65700 -3.12800 43.21300
C  23.25500 -7.15700 45.37700
C  27.67300 -5.11800 46.03600
N  24.05700 -2.43600 43.46500
C  24.95300 -1.42600 43.01300
C  24.19200 -0.56000 41.96700
C  22.73900 -1.15300 42.05000
C  22.79700 -2.29300 42.97400
C  21.66300 -0.07200 42.43700
C  24.70800 -0.49800 40.50000
C  25.66900 -1.70400 40.15600
H  25.65600 -2.07100 38.65600
N  22.59400 -4.93300 44.55200
C  21.49500 -4.34700 43.87400
C  20.43100 -5.25300 43.87500
C  20.92000 -6.43800 44.57200
C  22.31600 -6.23100 44.87700
C  19.07700 -5.02200 43.14800
C  20.00400 -7.63600 44.72400
O  18.89200 -7.66200 44.32300
C  20.40000 -8.81800 45.66000
N  25.36400 -5.84900 45.59300
C  24.60400 -6.95100 45.78100
C  25.42400 -8.03300 46.43800
C  26.94800 -7.43500 46.60300
C  26.64700 -6.07000 46.02200
C  24.92600 -8.71300 47.76500
C  28.06100 -8.24800 45.76400
C  28.25800 -9.56500 46.28700
N  26.47600 -3.21900 45.10500
C  27.65700 -3.85400 45.50600
C  28.78200 -3.00200 45.25900
C  28.23300 -1.90400 44.55800
C  26.90100 -2.14300 44.34800
C  30.27000 -3.09200 45.65100
C  28.59500 -0.57500 44.00700
O  29.58900 0.15300 44.13900
C  27.34500 -0.12400 43.17500
C  27.00000 1.31100 43.63100
O  26.17900 1.65100 44.51300
O  27.87500 2.10000 42.90600
C  27.99000 3.50800 43.23400
H  20.77000 -2.81400 42.65800
H  22.86500 -8.16600 45.52700
H  28.63400 -5.62700 46.13100
H  24.21400 0.42700 42.42900
H  22.61100 -1.47300 41.01600
H  20.65500 -0.33000 42.11400
H  21.89500 0.90400 42.01000
H  21.63600 0.03800 43.52100
H  25.37300 0.35900 40.39100
H  23.91500 -0.46700 39.75400
H  25.32200 -2.56800 40.72300
H  26.66600 -1.38300 40.45500
H  18.86200 -5.52300 42.20400
H  18.86700 -3.97800 42.91100
H  18.29900 -5.29600 43.86000
H  19.45700 -9.29600 45.92600
H  20.98800 -8.53900 46.53400
H  20.96100 -9.50600 45.02800
H  25.51900 -8.83300 45.70400
H  27.24500 -7.35200 47.64900
H  25.70000 -8.83600 48.52300
H  24.51400 -9.67500 47.46000
H  24.11200 -8.04600 48.04900
H  28.98000 -7.67700 45.90100
H  27.92000 -8.21700 44.68400
H  29.27500 -9.67900 46.66200
H  28.08200 -10.28700 45.49000
H  27.52100 -9.78900 47.05800
H  30.39000 -2.24200 46.32200
H  30.94500 -2.86100 44.82700
H  30.40900 -4.00600 46.22900
H  27.67700 -0.19900 42.14000
H  28.18200 4.16700 42.38700
H  28.89800 3.53600 43.83600
H  27.19500 3.93800 43.84400
Mg 29.42800 57.89000 41.48000
C  26.57800 56.30600 40.07100
C  31.43400 55.61300 39.94800
C  31.97800 60.08100 41.79300
C  27.21200 60.42600 42.45800
N  29.06700 56.27200 40.03000
C  27.81700 55.74600 39.66200
C  27.98100 54.53900 38.77100
C  29.42200 54.08800 39.20700
C  30.03600 55.40300 39.75800
C  29.48600 52.92100 40.23900
C  27.92500 55.00500 37.25400
C  27.08700 54.09400 36.35900
H  26.97300 54.28600 34.83800
N  31.48000 57.86000 40.94000
C  32.10000 56.79700 40.41200
C  33.53200 57.12500 40.29200
C  33.66300 58.38700 40.89000
C  32.34100 58.82000 41.29900
C  34.52800 56.05900 39.90800
C  35.03400 59.08000 40.99200
O  35.96500 58.58200 40.47300
C  35.25300 60.44200 41.68100
N  29.59100 60.00000 41.91600
C  30.76400 60.64900 42.18700
C  30.57000 62.07900 42.84600
C  29.03800 61.99200 43.18900
C  28.52200 60.73700 42.43300
C  31.53700 62.22700 43.99100
C  28.26400 63.31100 42.66400
C  27.18000 63.89200 43.66500
N  27.24400 58.25500 41.48800
C  26.54500 59.30700 41.95400
C  25.17500 59.15600 41.71300
C  25.05900 57.89000 41.09700
C  26.39600 57.45500 40.82600
C  24.09400 60.10300 42.02800
C  24.12500 56.90500 40.57100
O  22.95400 56.90300 40.62100
C  25.09000 55.85200 39.83500
C  24.79700 54.52000 40.42400
O  25.44400 53.95700 41.34700
O  23.64000 54.08200 39.94100
C  23.09600 52.88600 40.57000
H  31.98400 54.72900 39.61900
H  32.76400 60.80000 42.03300
H  26.50900 61.12200 42.91900
H  27.25100 53.80200 39.10500
H  29.95800 53.72000 38.33200
H  30.02800 53.25300 41.12500
H  29.95500 52.14000 39.64100
H  28.46100 52.63300 40.47000
H  28.94000 55.10100 36.86700
H  27.52500 56.01900 37.24000
H  26.08500 54.21400 36.77100
H  27.46900 53.08100 36.48200
H  35.55400 56.26000 40.21400
H  34.47500 56.11300 38.82100
H  34.20700 55.09500 40.30300
H  34.81900 61.05700 40.89200
H  36.31300 60.66600 41.80100
H  34.67500 60.37500 42.60300
H  30.82000 62.69000 41.97900
H  28.90300 61.95800 44.27000
H  32.26900 62.98600 43.71400
H  32.06600 61.28100 44.10100
H  31.07000 62.55900 44.91800
H  27.98700 63.18900 41.61700
H  28.98800 64.10700 42.48800
H  27.69200 64.50600 44.40700
H  26.66900 63.09100 44.20000
H  26.42900 64.45500 43.11200
H  24.46700 60.94200 41.44100
H  24.06100 60.47700 43.05100
H  23.11100 59.81500 41.65600
H  24.90000 55.88300 38.76300
H  23.80900 52.22200 41.05800
H  22.42300 52.35400 39.89800
H  22.49900 53.21400 41.42200

