158

Mg 44.17300 4.85600 48.25800
C  42.38300 7.88100 48.14400
C  41.19600 3.15000 48.07400
C  45.94500 2.06300 47.93200
C  47.13300 6.73900 47.69400
N  42.09300 5.45200 47.86700
C  41.55500 6.72400 47.91600
C  40.04500 6.77800 47.72900
C  39.71400 5.29900 48.02400
C  41.10300 4.54100 47.96900
C  38.94700 5.11800 49.27100
C  39.60200 7.44900 46.44300
C  40.46000 7.35000 45.12300
H  39.74400 6.73600 43.90900
N  43.64600 2.86700 47.95200
C  42.40800 2.40600 47.99000
C  42.46000 0.95200 47.92800
C  43.80300 0.60800 47.89000
C  44.55000 1.88000 47.93900
C  41.27200 0.09600 47.61100
C  44.31900 -0.82900 47.69500
O  43.50600 -1.76800 47.57700
C  45.67000 -1.14700 47.46300
N  46.25300 4.47500 47.62700
C  46.72300 3.22500 47.85900
C  48.29200 3.19600 47.82000
C  48.62400 4.75500 47.72200
C  47.27800 5.33400 47.61100
C  48.96700 2.38200 48.93100
C  49.70700 5.24300 46.75000
C  50.87800 5.91100 47.47900
N  44.69300 6.90500 48.15700
C  45.94100 7.46600 47.93200
C  45.84600 8.88800 47.89000
C  44.41200 9.15100 48.01600
C  43.80600 7.90300 48.10000
C  46.98400 10.00300 47.65100
C  43.34400 10.16900 48.06200
O  43.38900 11.42100 48.12900
C  41.98900 9.35000 48.12900
C  41.25700 9.74800 49.39200
O  41.07700 9.05200 50.39400
O  40.58100 10.93600 49.14900
C  39.72800 11.45000 50.21400
H  40.25600 2.65800 48.33100
H  46.58000 1.17500 47.94400
H  48.04800 7.33400 47.72900
H  39.67400 7.35800 48.57400
H  39.08700 4.89200 47.23100
H  38.40800 6.04600 49.46200
H  39.56500 4.76700 50.09700
H  38.16900 4.38300 49.06500
H  39.33900 8.50300 46.53200
H  38.61900 6.98400 46.36100
H  41.36700 6.74600 45.11300
H  40.84400 8.33600 44.86400
H  41.27700 -0.36100 46.62200
H  40.33300 0.62200 47.78200
H  41.32100 -0.70200 48.35200
H  46.32800 -1.21700 48.32900
H  46.11000 -0.37300 46.83500
H  45.62600 -2.09300 46.92300
H  48.47100 2.72100 46.85500
H  48.98200 4.84900 48.74700
H  49.48500 1.52200 48.50700
H  48.28800 2.21000 49.76600
H  49.88100 2.82600 49.32600
H  49.39700 6.01800 46.04800
H  50.00100 4.28400 46.32600
H  50.44900 6.41800 48.34400
H  51.29200 6.60300 46.74700
H  51.63400 5.15200 47.68000
H  47.96800 9.63800 47.94400
H  46.70400 10.76700 48.37700
H  47.02500 10.42700 46.64800
H  41.33400 9.54400 47.28000
H  38.93000 11.92900 49.64800
H  40.27300 12.28300 50.65700
H  39.26300 10.69300 50.84600
Mg -11.97600 15.17700 41.87600
C  -8.77900 14.05700 41.35800
C  -11.21900 18.23800 40.34700
C  -15.25700 15.94900 42.09400
C  -12.87000 11.71300 42.36100
N  -10.19900 16.03800 40.86600
C  -8.97300 15.35700 40.91200
C  -7.90100 16.24500 40.15800
C  -8.73400 17.66800 40.01400
C  -10.14800 17.32400 40.38600
C  -8.16300 18.99700 40.67400
C  -7.61100 15.62700 38.70800
C  -6.08600 15.55400 38.38800
H  -5.51900 16.40500 37.26100
N  -13.09200 16.80200 41.33900
C  -12.58200 18.00500 40.80900
C  -13.65900 18.97600 40.71000
C  -14.81000 18.37800 41.35900
C  -14.40500 17.01600 41.70400
C  -13.47400 20.38600 40.05100
C  -16.25800 19.02400 41.48800
O  -16.44200 20.14400 40.97900
C  -17.38600 18.36900 42.13100
N  -13.77300 14.05300 42.06000
C  -14.94000 14.60800 42.25500
C  -16.03900 13.56100 42.57700
C  -15.34200 12.23800 42.05600
C  -13.91300 12.68600 42.29600
C  -16.35300 13.53100 44.11000
C  -15.56900 11.93800 40.57500
C  -16.25400 10.57600 40.21100
N  -11.04800 13.20000 42.15700
C  -11.51200 11.99100 42.26800
C  -10.44200 11.01900 42.33700
C  -9.30300 11.73200 41.97700
C  -9.72200 13.08400 41.86200
C  -10.66300 9.53700 42.73300
C  -7.90500 11.67500 41.65000
O  -7.18700 10.65700 41.58900
C  -7.52600 13.13600 41.28000
C  -6.57600 13.64800 42.27100
O  -6.73200 13.60400 43.46200
O  -5.62000 14.34000 41.56500
C  -4.42300 14.74500 42.36900
H  -10.98800 19.24100 39.98100
H  -16.32200 16.17200 42.18400
H  -13.19400 10.67500 42.46200
H  -7.02800 16.46400 40.77300
H  -8.74700 17.85800 38.94000
H  -8.34600 19.76900 39.92700
H  -7.08300 18.84900 40.66200
H  -8.63200 19.28100 41.61600
H  -8.11700 16.17500 37.91200
H  -8.00000 14.61600 38.58800
H  -5.75700 14.51900 38.30100
H  -5.54600 15.80600 39.30100
H  -14.23200 21.07800 40.41700
H  -13.64800 20.28900 38.97900
H  -12.51000 20.78300 40.37100
H  -18.27400 18.98100 41.97600
H  -17.20400 18.16300 43.18600
H  -17.66600 17.54000 41.48100
H  -16.88100 13.66200 41.89200
H  -15.50300 11.38700 42.71800
H  -15.85100 14.27200 44.73200
H  -16.21400 12.53200 44.52100
H  -17.42600 13.61800 44.27800
H  -14.65100 12.04400 39.99700
H  -16.23900 12.66500 40.11700
H  -15.77600 9.74600 40.73100
H  -16.21400 10.44100 39.13000
H  -17.31300 10.56100 40.46600
H  -11.30300 9.02000 42.01800
H  -11.25200 9.40100 43.64000
H  -9.67100 9.08800 42.78400
H  -7.04500 13.15900 40.30200
H  -4.60100 15.67900 42.90400
H  -3.54900 14.94300 41.75000
H  -4.16700 13.94900 43.06800

