158

Mg 35.74000 3.58200 30.15300
C  33.14300 4.09000 32.63700
C  37.97600 3.38100 32.70800
C  37.95800 2.81100 27.82700
C  33.30300 3.98600 27.59900
N  35.56400 3.94000 32.44900
C  34.44200 4.01500 33.19200
C  34.83500 3.95900 34.74800
C  36.39100 4.08600 34.69400
C  36.72300 3.69300 33.21300
C  37.08100 5.43400 35.14100
C  34.41900 2.65600 35.39900
C  33.74700 2.71000 36.76400
H  34.31600 3.72000 37.70000
N  37.75200 3.18500 30.31200
C  38.52800 3.21000 31.45300
C  39.88800 2.98600 30.98000
C  39.84600 2.61400 29.57500
C  38.45500 2.88700 29.17100
C  41.14100 3.12500 31.85300
C  40.91900 2.12500 28.62500
O  40.67100 2.02900 27.43100
C  42.38700 1.99500 29.06500
N  35.75500 3.71700 27.98600
C  36.79500 3.16400 27.22900
C  36.37100 2.90400 25.75200
C  34.85100 3.21100 25.79000
C  34.59000 3.65600 27.23400
C  37.13500 3.80700 24.81500
C  34.11100 1.87900 25.52600
C  33.09000 1.82700 24.37700
N  33.67600 4.07300 30.09400
C  32.80500 4.15700 28.96800
C  31.41900 4.33100 29.42400
C  31.50400 4.35800 30.83000
C  32.86600 4.15800 31.19100
C  30.16300 4.29000 28.52600
C  30.74500 4.39500 32.12100
O  29.55200 4.53900 32.24800
C  31.80500 4.23700 33.30400
C  31.71300 5.46500 34.13500
O  32.17700 6.54700 33.83200
O  31.24100 5.07000 35.33900
C  31.17600 6.08500 36.38700
H  38.74300 3.27600 33.47800
H  38.60300 2.57800 26.97700
H  32.48400 3.94300 26.87800
H  34.37000 4.81800 35.23200
H  36.82900 3.33400 35.35000
H  37.91200 5.71800 34.49600
H  37.50200 5.37500 36.14500
H  36.34400 6.23800 35.15700
H  35.28700 1.99800 35.44300
H  33.83200 2.17000 34.62000
H  33.87200 1.69900 37.15100
H  32.67600 2.84900 36.61500
H  41.49800 2.11800 32.06800
H  40.95500 3.66500 32.78100
H  41.94500 3.60200 31.29200
H  43.07600 1.58200 28.32800
H  42.28800 1.40300 29.97500
H  42.67700 3.01800 29.30600
H  36.63900 1.87800 25.50100
H  34.49100 3.99900 25.12900
H  36.45700 4.39500 24.19600
H  37.64200 3.12200 24.13600
H  37.81300 4.49100 25.32500
H  33.60500 1.50300 26.41500
H  34.72500 1.03100 25.22300
H  32.98100 2.75000 23.80700
H  32.16400 1.40700 24.77000
H  33.37200 1.15700 23.56500
H  30.09900 5.27400 28.06200
H  29.23200 4.20200 29.08700
H  30.26000 3.46400 27.82100
H  31.65900 3.40100 33.98800
H  30.47900 6.84700 36.03700
H  32.13600 6.57500 36.54900
H  30.69100 5.69000 37.28000
Mg -5.34600 25.82200 25.47800
C  -4.43300 27.14000 28.54400
C  -7.14500 23.34900 27.16000
C  -6.09000 24.34600 22.55300
C  -3.16700 28.11900 23.84000
N  -5.70000 25.33300 27.61300
C  -5.41800 26.14700 28.75300
C  -5.92900 25.56000 30.06800
C  -6.73100 24.35400 29.53400
C  -6.52700 24.35500 27.99700
C  -6.19700 22.97400 29.99100
C  -6.78200 26.50500 30.96900
C  -6.76400 26.42200 32.52700
H  -6.39800 25.17300 33.35400
N  -6.48600 24.06300 24.95500
C  -7.15500 23.16700 25.78200
C  -7.87400 22.22100 24.98200
C  -7.45100 22.44200 23.65800
C  -6.64700 23.69000 23.64400
C  -8.70200 21.12600 25.59800
C  -7.66100 21.63400 22.32100
O  -6.98900 21.85100 21.31800
C  -8.69300 20.49200 22.14000
N  -4.75100 26.24500 23.48300
C  -5.17400 25.44900 22.42300
C  -4.39800 25.82400 21.17000
C  -3.58100 27.11400 21.57000
C  -3.92200 27.26700 23.05300
C  -3.50600 24.61300 20.69700
C  -3.78000 28.45400 20.78100
C  -2.47900 28.89600 19.97800
N  -4.19000 27.41900 26.02900
C  -3.31000 28.22700 25.21800
C  -2.50800 29.02100 26.17700
C  -2.92700 28.65300 27.51900
C  -3.89700 27.66800 27.33300
C  -1.54400 30.05800 25.73400
C  -2.75500 28.96500 28.88400
O  -1.96800 29.75800 29.44200
C  -3.81600 27.99400 29.65500
C  -2.99700 27.19500 30.56400
O  -2.33500 26.20400 30.22100
O  -3.09000 27.60800 31.93000
C  -2.36500 26.85100 32.94000
H  -7.81600 22.70100 27.72800
H  -6.09700 23.95700 21.53300
H  -2.46800 28.76100 23.30000
H  -5.16400 25.32000 30.80700
H  -7.76900 24.37400 29.86700
H  -5.49700 23.23700 30.78400
H  -5.72200 22.35000 29.23400
H  -7.06500 22.55100 30.49800
H  -7.78600 26.47700 30.54600
H  -6.44800 27.51700 30.74000
H  -7.74100 26.81800 32.80600
H  -6.11000 27.25500 32.78300
H  -8.47900 20.12800 25.22000
H  -9.73100 21.37800 25.34100
H  -8.62800 21.16400 26.68500
H  -9.25200 20.18600 23.02400
H  -8.15700 19.64100 21.72100
H  -9.40300 20.76700 21.35900
H  -5.05500 26.14900 20.36300
H  -2.51700 26.87700 21.55700
H  -3.77700 24.48400 19.65000
H  -3.55000 23.69800 21.28800
H  -2.46700 24.88800 20.88100
H  -4.00100 29.27600 21.46200
H  -4.68100 28.31800 20.18300
H  -1.92000 29.78900 20.26000
H  -2.82400 28.98800 18.94900
H  -1.78300 28.07500 20.15200
H  -1.15200 29.88100 24.73300
H  -0.81000 30.27500 26.51100
H  -2.19400 30.91900 25.57600
H  -4.53200 28.49000 30.31000
H  -1.69600 26.09700 32.52700
H  -3.16100 26.55600 33.62300
H  -1.76000 27.53700 33.53300

