158

Mg 1.76300 -0.95800 43.97700
C  5.07400 -0.39900 43.12500
C  1.00000 2.00300 42.46300
C  -1.51300 -1.90000 44.08700
C  2.72000 -4.16900 44.87800
N  2.94000 0.50800 42.89500
C  4.24000 0.60700 42.60400
C  4.71600 1.85200 41.88100
C  3.41500 2.66900 42.00100
C  2.41300 1.69000 42.55800
C  3.51800 4.01100 42.74500
C  5.25200 1.54100 40.38400
C  6.47400 2.44200 40.03500
H  6.28500 3.38900 38.87700
N  0.01400 -0.12000 43.34800
C  -0.11800 1.15900 42.77600
C  -1.46200 1.53000 42.61400
C  -2.19000 0.42700 43.09200
C  -1.22500 -0.61500 43.51600
C  -1.96300 2.81600 41.93000
C  -3.71500 0.39100 43.13400
O  -4.43900 1.34900 42.82300
C  -4.50500 -0.86200 43.52600
N  0.77600 -2.76200 44.48000
C  -0.55700 -2.86900 44.49600
C  -1.03200 -4.31400 44.95600
C  0.26800 -5.04500 45.08900
C  1.31100 -3.98700 44.73300
C  -1.92900 -4.29700 46.26000
C  0.30400 -6.39000 44.18600
C  0.60000 -7.68100 44.98900
N  3.57500 -2.04300 44.17800
C  3.75000 -3.30400 44.69000
C  5.17200 -3.62500 44.68000
C  5.76400 -2.48500 44.10700
C  4.74200 -1.60000 43.74700
C  5.83100 -4.99400 45.18500
C  7.00700 -1.86400 43.71800
O  8.19100 -2.12300 43.84800
C  6.61400 -0.44900 43.00500
C  7.33300 0.50600 43.77200
O  7.05200 0.92400 44.87400
O  8.47000 0.75100 43.07100
C  9.20600 1.97900 43.48800
H  0.73500 3.02100 42.16800
H  -2.58200 -2.11600 44.03100
H  2.99000 -5.19600 45.13300
H  5.56300 2.32500 42.37800
H  2.98600 3.01300 41.06000
H  2.91900 4.04400 43.65600
H  3.08600 4.76800 42.09000
H  4.48900 4.22700 43.19000
H  4.48500 1.84300 39.67200
H  5.40700 0.46400 40.32500
H  7.34400 1.81400 39.84000
H  6.70400 3.05300 40.90700
H  -3.00500 3.03600 42.15900
H  -1.89100 2.83900 40.84300
H  -1.29600 3.59200 42.30400
H  -5.56900 -0.65000 43.41900
H  -4.31000 -0.93700 44.59600
H  -4.24700 -1.75400 42.95600
H  -1.69700 -4.70300 44.18400
H  0.35800 -5.19900 46.16400
H  -1.55100 -4.96000 47.03800
H  -2.84100 -4.77600 45.90400
H  -2.18100 -3.30100 46.62400
H  1.02500 -6.17600 43.39700
H  -0.66700 -6.54300 43.71500
H  1.43800 -8.23100 44.56300
H  -0.26300 -8.33300 45.12900
H  0.86700 -7.27500 45.96500
H  6.91400 -4.87500 45.18500
H  5.60700 -5.68200 44.37000
H  5.52700 -5.36000 46.16600
H  6.92700 -0.40900 41.96200
H  10.14100 1.66400 43.95000
H  8.68300 2.47800 44.30500
H  9.47000 2.71800 42.73200
Mg 15.92500 51.21800 25.60700
C  17.57600 50.12500 28.52800
C  13.33400 52.43400 27.53500
C  14.37100 51.89300 22.84100
C  18.63000 49.72700 23.67600
N  15.58600 51.33700 27.83000
C  16.38400 50.83400 28.80200
C  15.80200 51.20700 30.18700
C  14.35400 51.79300 29.82700
C  14.36700 51.81600 28.27600
C  13.24000 50.80500 30.33000
C  16.69600 52.18700 30.92800
C  16.86200 52.05600 32.50800
H  15.98900 51.17900 33.43400
N  14.14500 52.13200 25.26100
C  13.21400 52.63400 26.13400
C  12.13200 53.23800 25.43400
C  12.53500 53.25000 24.03400
C  13.72000 52.35700 24.00700
C  10.93000 53.83200 26.13900
C  11.91000 53.90300 22.85900
O  12.43600 53.77400 21.74200
C  10.85400 54.73800 23.07400
N  16.46800 50.85300 23.56400
C  15.52000 51.11700 22.66400
C  15.93900 50.74900 21.26000
C  17.34400 50.14300 21.45800
C  17.53700 50.28600 22.99200
C  14.89400 49.83900 20.47200
C  18.58300 50.61200 20.64100
C  19.40800 49.50400 19.95200
N  17.67400 50.05500 25.95900
C  18.69500 49.52300 25.06500
C  19.79600 49.05700 25.89100
C  19.38500 49.24500 27.25300
C  18.11200 49.88100 27.25900
C  21.07400 48.42200 25.39500
C  19.74700 48.97100 28.59300
O  20.74100 48.41000 29.05200
C  18.63600 49.60900 29.53100
C  18.13600 48.44300 30.35300
O  17.31400 47.58000 30.05100
O  18.88100 48.42600 31.50800
C  18.52800 47.22800 32.33800
H  12.59400 52.88000 28.20200
H  13.89900 51.98100 21.86000
H  19.48200 49.25300 23.18300
H  15.79200 50.29200 30.77900
H  14.23100 52.80100 30.22300
H  13.54800 50.15100 31.14600
H  12.85000 50.21200 29.50300
H  12.35700 51.37600 30.61900
H  16.43400 53.23300 30.76800
H  17.71700 52.04800 30.57300
H  16.93500 53.06500 32.91300
H  17.90300 51.73900 32.57300
H  10.65200 53.27000 27.03000
H  10.05100 53.85300 25.49500
H  11.21900 54.83300 26.46000
H  10.00500 54.07900 23.25500
H  10.49000 55.31200 22.22200
H  11.14200 55.34300 23.93400
H  16.01400 51.68300 20.70400
H  17.35700 49.05400 21.48000
H  14.90600 48.75000 20.53100
H  14.95300 50.12200 19.42100
H  13.84800 50.01400 20.72500
H  19.28600 51.16500 21.26400
H  18.18300 51.28500 19.88200
H  20.30000 49.41100 20.57000
H  19.61800 49.90000 18.95800
H  18.92600 48.52700 19.91400
H  21.00600 47.33700 25.32300
H  21.82600 48.39900 26.18300
H  21.59200 48.75600 24.49700
H  19.16700 50.38800 30.07900
H  17.49300 47.17500 32.67600
H  19.27600 47.31500 33.12600
H  18.78400 46.30100 31.82500

