158

Mg 35.42900 49.18300 25.91400
C  35.95300 47.50800 28.93800
C  34.38000 51.86900 27.60000
C  34.93000 50.57800 22.94500
C  36.50900 46.24300 24.19300
N  35.16700 49.62900 28.11500
C  35.40600 48.80900 29.09500
C  35.14100 49.55200 30.43400
C  34.38500 50.83100 29.93700
C  34.69900 50.80600 28.49000
C  32.91000 50.73000 30.19000
C  36.45900 49.82600 31.26000
C  36.54200 49.15700 32.64100
H  36.31200 50.05500 33.86400
N  34.79600 51.02600 25.30900
C  34.53000 52.01400 26.14700
C  34.21900 53.23500 25.41000
C  34.25100 52.81300 24.04000
C  34.66200 51.39600 24.06500
C  33.87300 54.62400 26.08700
C  33.96200 53.65400 22.83900
O  34.10600 53.22300 21.70200
C  33.51700 55.11500 22.93800
N  35.80300 48.54800 23.92100
C  35.41000 49.26500 22.83800
C  35.49000 48.59200 21.46300
C  36.29300 47.32300 21.94600
C  36.29100 47.35600 23.47400
C  34.09100 48.25700 20.95100
C  37.73500 47.32800 21.43900
C  37.87400 47.02900 19.91800
N  35.98500 47.23900 26.42600
C  36.38700 46.16800 25.60600
C  36.66200 45.03500 26.39700
C  36.51800 45.47100 27.71200
C  36.12500 46.83700 27.66600
C  37.22800 43.60800 26.00700
C  36.63900 45.18500 29.14400
O  37.00700 44.12100 29.64200
C  36.44300 46.51600 29.95200
C  35.46300 46.13600 30.88300
O  34.32200 45.93200 30.56900
O  36.00500 45.96600 32.14300
C  35.00200 45.36500 33.03100
H  33.90600 52.73700 28.06300
H  34.68700 50.90700 21.93200
H  36.81000 45.33500 23.66600
H  34.50100 48.99400 31.11700
H  34.80900 51.74300 30.35700
H  32.53500 49.80500 30.62700
H  32.41500 50.87500 29.23000
H  32.62800 51.58400 30.80500
H  36.53000 50.90700 31.37300
H  37.32500 49.51500 30.67600
H  37.55200 48.75300 32.69900
H  35.80100 48.35800 32.60400
H  34.76800 55.15200 25.75800
H  33.79700 54.50500 27.16700
H  33.02600 55.04300 25.54300
H  34.27900 55.73900 23.40500
H  32.62200 55.10100 23.56100
H  33.15900 55.55100 22.00500
H  35.97200 49.23400 20.72500
H  35.75700 46.42000 21.65500
H  33.33500 48.52000 21.69000
H  33.85900 47.24900 20.60800
H  33.93500 48.99400 20.16300
H  38.33400 46.69200 22.09100
H  38.06300 48.35200 21.61600
H  38.25700 47.84800 19.30900
H  36.86300 46.87900 19.53700
H  38.38200 46.07500 19.78100
H  36.45200 42.98000 25.56900
H  37.64600 43.03700 26.83600
H  38.07700 43.58400 25.32400
H  37.34700 46.92300 30.40500
H  35.00900 44.27900 32.94600
H  33.98000 45.65900 32.79200
H  35.30800 45.59000 34.05300
Mg -11.04000 38.62900 41.86300
C  -9.15400 35.74800 40.99300
C  -8.85600 40.48100 39.98200
C  -13.29500 41.24800 41.74100
C  -13.61900 36.44800 43.01700
N  -9.43900 38.02800 40.30000
C  -8.75900 36.83500 40.24600
C  -7.46200 37.02300 39.35900
C  -7.37600 38.60500 39.22700
C  -8.64000 39.12600 39.91600
C  -6.08900 39.20900 39.72900
C  -7.70000 36.26600 37.95700
C  -6.62900 35.28400 37.55300
H  -5.68600 35.92100 36.47700
N  -10.96600 40.61200 41.15600
C  -9.97700 41.15500 40.49500
C  -10.20600 42.60200 40.30500
C  -11.46200 42.85500 40.89000
C  -11.99400 41.51600 41.16300
C  -9.28400 43.50100 39.50700
C  -12.17200 44.20500 40.94300
O  -11.59200 45.24000 40.70800
C  -13.55200 44.35700 41.50300
N  -13.12100 38.75200 42.11000
C  -13.81700 39.96800 42.08800
C  -15.28200 39.78500 42.46800
C  -15.40500 38.32100 42.79300
C  -13.92700 37.81200 42.68900
C  -15.67400 40.77700 43.61200
C  -16.17900 37.44500 41.80600
C  -17.19900 36.44200 42.45600
N  -11.36100 36.48300 42.03900
C  -12.33800 35.78500 42.70400
C  -11.87000 34.45600 42.94900
C  -10.66700 34.39900 42.36700
C  -10.37900 35.62300 41.73400
C  -12.64800 33.44200 43.72200
C  -9.59800 33.59800 41.97300
O  -9.41000 32.38900 42.14700
C  -8.55000 34.38100 41.07200
C  -7.16000 34.34000 41.75000
O  -6.37300 33.41800 41.59200
O  -6.86900 35.58000 42.34400
C  -5.52400 35.75700 42.83900
H  -8.24700 41.03600 39.26600
H  -14.07600 42.00800 41.81700
H  -14.40600 35.85600 43.48900
H  -6.62400 36.54200 39.86500
H  -7.45300 38.95000 38.19600
H  -6.25300 39.89700 40.55800
H  -5.59700 39.77900 38.94000
H  -5.30000 38.47700 39.90600
H  -7.89800 37.05800 37.23500
H  -8.56600 35.61900 38.10100
H  -6.96500 34.32900 37.14900
H  -5.98500 34.90800 38.34900
H  -9.90600 44.21400 38.96600
H  -8.77200 42.85100 38.79700
H  -8.62400 44.08200 40.15200
H  -13.82700 45.41100 41.45400
H  -13.68200 44.06700 42.54600
H  -14.11300 43.77700 40.77100
H  -16.01900 40.06100 41.71400
H  -15.84200 38.15900 43.77800
H  -15.94300 41.74600 43.19200
H  -14.85600 40.97700 44.30400
H  -16.52000 40.46300 44.22400
H  -15.49400 36.82000 41.23300
H  -16.73400 38.07300 41.10900
H  -18.23400 36.73400 42.28000
H  -17.06900 36.51000 43.53600
H  -17.05300 35.44300 42.04600
H  -13.64400 33.25100 43.32200
H  -12.76000 34.02400 44.63600
H  -11.99500 32.58000 43.85800
H  -8.39200 33.86700 40.12400
H  -5.55900 36.44400 43.68400
H  -4.79500 36.06500 42.08900
H  -5.22000 34.80600 43.27800

