158

Mg 8.43400 3.59700 27.32400
C  9.58400 2.26700 30.36000
C  6.50600 5.72600 29.01600
C  7.12300 4.35700 24.40800
C  10.05300 0.73500 25.69900
N  8.06100 3.94100 29.42100
C  8.82500 3.40700 30.47500
C  8.34600 4.00600 31.79900
C  7.22500 5.00900 31.42800
C  7.25200 4.91900 29.87300
C  5.84600 4.58200 31.94900
C  9.43400 4.63900 32.61300
C  9.16600 4.77100 34.11600
H  10.38900 4.88100 35.09800
N  7.21100 4.98400 26.77500
C  6.47400 5.76800 27.59600
C  5.74900 6.67600 26.79900
C  5.85300 6.29700 25.48600
C  6.77400 5.17000 25.48200
C  4.95600 7.76900 27.50300
C  5.21100 6.87800 24.32600
O  5.45700 6.42000 23.20500
C  4.40400 8.07200 24.41900
N  8.76100 2.74700 25.32600
C  8.11300 3.31600 24.28500
C  8.31700 2.49700 22.98300
C  9.19600 1.30400 23.34800
C  9.36700 1.61500 24.87000
C  6.97900 2.13800 22.27900
C  10.61900 1.15200 22.66400
C  10.68900 0.10700 21.53000
N  9.67700 1.94100 27.84000
C  10.28400 0.91000 27.08900
C  11.12300 0.05900 27.94200
C  10.89300 0.59500 29.22800
C  10.00300 1.68300 29.11200
C  11.93900 -1.06600 27.32500
C  11.22600 0.45500 30.65200
O  11.92000 -0.31500 31.27200
C  10.40600 1.58300 31.48400
C  9.72900 0.89700 32.51300
O  8.84800 0.06200 32.24300
O  10.27900 1.16500 33.72300
C  9.72600 0.39600 34.84600
H  5.88700 6.47000 29.52300
H  6.91500 4.61600 23.36800
H  10.59400 -0.07200 25.20000
H  7.84700 3.18200 32.30900
H  7.46900 6.01800 31.75900
H  5.22800 4.10300 31.18900
H  5.22800 5.42300 32.26500
H  5.88700 3.93700 32.82600
H  9.49200 5.68200 32.30200
H  10.43300 4.26500 32.38900
H  8.66900 3.81600 34.28800
H  8.48400 5.57700 34.38900
H  4.93600 8.68200 26.91000
H  5.17300 7.94700 28.55700
H  3.93300 7.39100 27.50100
H  3.96000 8.27800 23.44500
H  5.08200 8.86900 24.72800
H  3.64700 7.79800 25.15400
H  8.72300 3.21600 22.27100
H  8.60000 0.39400 23.27900
H  6.11300 2.36500 22.90000
H  6.92000 1.05600 22.16800
H  6.96400 2.59100 21.28800
H  11.41600 0.90500 23.36600
H  10.82000 2.08900 22.14500
H  9.72000 -0.36800 21.37500
H  11.39500 -0.70000 21.72500
H  10.93600 0.61800 20.60000
H  12.70400 -1.49300 27.97300
H  12.40700 -0.62100 26.44700
H  11.24500 -1.87700 27.10100
H  11.20600 2.18500 31.91600
H  9.36200 -0.60700 34.62200
H  8.89100 0.84900 35.38200
H  10.48700 0.22100 35.60700
Mg 1.32500 41.41800 26.14400
C  3.52300 41.73500 29.10400
C  -1.19500 40.81800 28.23000
C  -0.27600 41.01400 23.37400
C  4.25500 42.22500 24.21900
N  1.27100 41.29900 28.40100
C  2.17000 41.55700 29.44400
C  1.46500 41.62800 30.80700
C  0.12800 40.80000 30.47600
C  -0.00400 41.00800 28.95000
C  0.18100 39.36700 31.09400
C  1.29500 43.09300 31.34100
C  1.32900 43.17300 32.88400
H  1.22000 41.84800 33.66600
N  -0.51100 40.96000 25.82500
C  -1.46700 40.75000 26.81700
C  -2.68500 40.30400 26.12900
C  -2.44600 40.36300 24.74200
C  -1.04900 40.80200 24.55900
C  -4.02300 40.21900 26.89400
C  -3.22600 39.81300 23.54500
O  -2.84400 39.76000 22.39100
C  -4.60000 39.31300 23.70400
N  1.83900 41.87700 24.15000
C  1.01000 41.58800 23.16200
C  1.63400 41.70500 21.79200
C  2.95600 42.37500 22.09800
C  3.07800 42.08300 23.51200
C  1.72100 40.43500 20.86300
C  3.01500 43.91400 21.85600
C  2.31700 44.86300 22.79800
N  3.45900 41.83800 26.48900
C  4.47100 42.13700 25.60700
C  5.72000 42.37800 26.33300
C  5.37400 42.19800 27.66100
C  4.01100 41.90100 27.79000
C  7.06000 42.73100 25.78600
C  5.94300 42.13200 28.94500
O  7.14300 42.22300 29.11600
C  4.77500 42.06500 29.94500
C  5.09600 41.06600 30.96700
O  5.20900 39.83500 30.75400
O  5.00900 41.62400 32.17300
C  5.31100 40.74100 33.26800
H  -2.02200 40.58300 28.90300
H  -0.81700 40.73600 22.46800
H  5.13400 42.24800 23.57200
H  2.03500 40.96900 31.46200
H  -0.65800 41.27700 31.06200
H  0.76300 39.40900 32.01500
H  0.70300 38.74100 30.37000
H  -0.82000 39.01900 31.34700
H  0.27100 43.25500 31.00500
H  1.96300 43.86300 30.95300
H  0.64600 43.96800 33.18400
H  2.31300 43.54900 33.16400
H  -4.35100 39.18500 26.99700
H  -4.80300 40.77000 26.36900
H  -3.84100 40.57800 27.90800
H  -4.76700 38.60400 24.51500
H  -4.87500 38.75900 22.80600
H  -5.22000 40.18000 23.93300
H  0.94900 42.39800 21.30400
H  3.71200 41.81900 21.54300
H  2.66600 40.53100 20.32900
H  0.89200 40.53700 20.16200
H  1.60500 39.43000 21.26900
H  2.52000 44.08800 20.90000
H  4.05900 44.20500 21.74000
H  2.59400 45.87500 22.50100
H  2.61800 44.75800 23.84000
H  1.27200 44.55500 22.79000
H  6.90600 43.40500 24.94400
H  7.60100 41.87600 25.37900
H  7.75400 43.25500 26.44200
H  4.55400 42.99300 30.47300
H  5.45100 41.37500 34.14400
H  6.26300 40.38800 32.87200
H  4.59300 39.93600 33.42300

