158

Mg 48.87000 45.48200 42.99900
C  45.33700 45.66700 42.08100
C  48.88500 42.48400 41.65100
C  52.24600 45.68700 43.14100
C  48.51600 48.77400 44.22000
N  47.29700 44.38300 41.80200
C  46.00800 44.58800 41.55200
C  45.36600 43.40600 40.78100
C  46.48200 42.31000 40.98500
C  47.61000 43.07900 41.62700
C  46.10000 41.07900 41.80300
C  45.02600 43.86000 39.31400
C  43.67000 43.37900 38.77200
H  43.71500 42.33000 37.60500
N  50.35200 44.23400 42.45100
C  50.17300 42.96400 41.91200
C  51.46400 42.22900 41.92500
C  52.44500 43.16900 42.32200
C  51.69600 44.43400 42.68700
C  51.70900 40.76300 41.41000
C  53.95200 42.86600 42.52400
O  54.38200 41.84800 42.00100
C  54.87900 43.62900 43.25700
N  50.22600 47.07500 43.39600
C  51.57400 46.92100 43.50000
C  52.26100 48.23100 44.05000
C  51.00300 49.21500 44.24300
C  49.81200 48.19400 44.13000
C  53.28100 48.11100 45.17300
C  51.00200 50.34300 43.16300
C  51.43900 51.73500 43.53000
N  47.26000 46.74000 43.33800
C  47.32900 48.07200 43.87500
C  45.90500 48.57500 43.88100
C  45.16500 47.62000 43.27600
C  46.01300 46.58300 42.86100
C  45.51300 49.97800 44.42500
C  43.79700 47.36300 42.80300
O  42.71000 47.88700 43.06300
C  43.88300 46.10800 41.92800
C  42.79600 45.08900 42.26600
O  41.91000 44.70800 41.48900
O  42.88300 44.65000 43.59800
C  41.67700 43.89300 44.03700
H  48.89000 41.41500 41.42900
H  53.29000 45.67200 43.46200
H  48.33800 49.80300 44.54000
H  44.46000 43.00300 41.23400
H  46.86400 41.93100 40.03700
H  46.25800 40.21500 41.15800
H  45.02500 41.13700 41.97800
H  46.59300 40.88100 42.75400
H  45.78800 43.40900 38.67800
H  45.08100 44.94900 39.29100
H  43.16000 44.23000 38.31900
H  43.06100 43.09900 39.63100
H  52.46500 40.67300 40.63000
H  50.74000 40.39300 41.07700
H  52.02200 40.18900 42.28200
H  55.02900 44.56500 42.71800
H  55.84000 43.12000 43.33700
H  54.50200 43.92400 44.23600
H  52.88500 48.59500 43.23300
H  50.90700 49.66700 45.23000
H  52.69600 48.19300 46.08900
H  53.95300 48.94900 44.98800
H  53.76900 47.13800 45.23000
H  50.08000 50.25900 42.59000
H  51.81600 50.14300 42.46600
H  51.45700 51.77600 44.61900
H  50.62500 52.34300 43.13600
H  52.43600 52.00900 43.18400
H  45.86500 50.73100 43.72000
H  45.86400 50.15300 45.44200
H  44.42400 49.94500 44.47500
H  43.59100 46.42500 40.92700
H  41.81600 42.84200 43.78400
H  40.76100 44.26900 43.58100
H  41.56200 44.03500 45.11100
Mg 26.67700 50.04300 26.92500
C  24.62300 51.33500 29.63200
C  28.94100 49.05300 29.40600
C  28.69500 49.22800 24.53700
C  24.38100 51.53700 24.70200
N  26.73700 50.18200 29.27100
C  25.68200 50.66800 30.11700
C  26.05200 50.43600 31.58300
C  27.49100 49.71700 31.47200
C  27.76900 49.62900 29.93200
C  28.59900 50.48300 32.20500
C  25.00300 49.58700 32.33800
C  24.37300 50.26300 33.66100
H  24.59200 49.48600 34.94700
N  28.48200 49.22800 26.95100
C  29.27400 48.84500 28.02200
C  30.53000 48.23400 27.63000
C  30.51800 48.28800 26.13900
C  29.17200 48.88100 25.80100
C  31.51900 47.57800 28.61700
C  31.52700 47.86400 25.18700
O  31.33200 48.06900 24.01800
C  32.81900 47.27200 25.56100
N  26.52000 50.36400 24.93200
C  27.51800 49.88200 24.12700
C  27.13900 49.99100 22.61700
C  25.79400 50.76000 22.71700
C  25.46900 50.85200 24.21000
C  28.17700 50.81600 21.73700
C  24.58400 50.03600 21.96900
C  24.05200 48.63500 22.34000
N  24.88400 51.16300 27.08000
C  24.09700 51.74300 26.08100
C  22.94500 52.54400 26.62600
C  23.17000 52.37300 28.05200
C  24.34500 51.56600 28.24500
C  21.82200 53.24000 25.80800
C  22.60100 52.67900 29.36200
O  21.57800 53.26100 29.67500
C  23.52800 52.04100 30.44400
C  23.93600 53.16300 31.33600
O  24.73400 54.04000 31.09100
O  23.20500 53.11500 32.53200
C  23.66000 54.00200 33.60100
H  29.54000 48.57700 30.18500
H  29.20500 48.87700 23.63800
H  23.70800 52.07600 24.03200
H  26.17300 51.39600 32.08600
H  27.62000 48.72500 31.90300
H  29.54900 50.00000 31.97700
H  28.56200 50.65100 33.28100
H  28.65700 51.43400 31.67700
H  25.47200 48.64200 32.61300
H  24.15500 49.35300 31.69300
H  23.31400 50.42300 33.46100
H  24.77500 51.27100 33.75900
H  31.38500 47.88700 29.65300
H  32.55400 47.86300 28.42800
H  31.37200 46.49800 28.60200
H  33.29200 47.70300 26.44400
H  33.53600 47.35400 24.74400
H  32.60500 46.21400 25.71500
H  26.89900 49.03300 22.15600
H  25.81600 51.77400 22.31500
H  29.07800 51.05400 22.30100
H  27.79900 51.76800 21.36500
H  28.34900 50.18700 20.86300
H  24.89700 49.95500 20.92800
H  23.84300 50.83600 21.98600
H  24.61300 48.22400 23.17900
H  24.20300 48.03300 21.44400
H  23.00100 48.74900 22.60400
H  21.38700 52.67100 24.98500
H  22.05500 54.22000 25.39100
H  21.04700 53.37400 26.56200
H  22.94900 51.30200 30.99800
H  22.88600 54.12900 34.35800
H  23.87900 54.96300 33.13500
H  24.53700 53.64200 34.13900

