158

Mg -0.77300 17.82800 27.07900
C  -1.48700 15.81300 30.02600
C  -1.28900 20.59300 29.21300
C  -0.65200 19.69700 24.39100
C  -1.03800 14.95400 25.14000
N  -1.20200 18.17300 29.43500
C  -1.44400 17.22500 30.35900
C  -1.65400 17.85400 31.76000
C  -2.02000 19.32400 31.38800
C  -1.52700 19.39400 29.92700
C  -3.61000 19.54500 31.61600
C  -0.50000 17.68600 32.76200
C  -0.91000 16.98900 33.99800
H  0.11400 16.38100 35.05700
N  -0.75700 19.94000 26.81300
C  -0.91700 20.87700 27.81900
C  -0.77600 22.17300 27.15600
C  -0.56300 21.93200 25.73600
C  -0.65200 20.44700 25.57700
C  -1.00800 23.54000 27.79400
C  -0.32000 22.91200 24.57900
O  -0.11900 22.54900 23.40300
C  -0.23900 24.42300 24.91800
N  -0.62700 17.39200 25.07900
C  -0.67100 18.34000 24.15200
C  -0.59600 17.67800 22.75900
C  -0.63000 16.18100 23.05700
C  -0.68700 16.13800 24.54600
C  -1.55200 18.20300 21.75600
C  0.53500 15.41400 22.38500
C  1.92900 15.54200 22.99700
N  -1.16500 15.77600 27.48000
C  -1.23300 14.76000 26.51100
C  -1.49300 13.57200 27.20500
C  -1.61600 13.87500 28.58100
C  -1.47500 15.31700 28.68200
C  -1.77500 12.21500 26.64600
C  -1.91500 13.36900 29.89200
O  -2.09100 12.15900 30.18100
C  -1.75000 14.56000 30.92500
C  -0.77100 14.23400 31.90800
O  0.33900 14.67400 31.92000
O  -1.30600 13.45600 32.90700
C  -0.26700 13.12100 33.90600
H  -1.41100 21.52700 29.76500
H  -0.73400 20.18400 23.41700
H  -1.05900 14.05100 24.52700
H  -2.58300 17.35700 32.04000
H  -1.54000 20.05800 32.03600
H  -4.04300 19.62700 30.61900
H  -3.83200 20.44700 32.18500
H  -4.20800 18.74000 32.04200
H  -0.12800 18.64700 33.11700
H  0.43300 17.21900 32.44400
H  -1.82000 16.45000 33.73300
H  -1.32900 17.78300 34.61500
H  -1.72200 24.22600 27.33700
H  -0.10500 24.13000 27.95100
H  -1.35800 23.39000 28.81500
H  -1.20200 24.82000 25.23900
H  0.07300 24.88800 23.98300
H  0.57400 24.66400 25.60200
H  0.40600 17.91300 22.40200
H  -1.61200 15.82300 22.74900
H  -2.23400 18.95700 22.14800
H  -2.19700 17.45900 21.28700
H  -1.05500 18.75200 20.95600
H  0.59700 15.80600 21.36900
H  0.27900 14.36600 22.22900
H  1.96200 16.14300 23.90600
H  2.54800 15.99000 22.22000
H  2.24400 14.54100 23.29400
H  -1.53100 11.52500 27.45400
H  -1.03300 11.97100 25.88500
H  -2.80000 12.05700 26.31100
H  -2.71200 14.51100 31.43500
H  -0.19900 12.03300 33.87800
H  -0.70100 13.47200 34.84200
H  0.76200 13.47100 33.83100
Mg 8.09300 2.71500 29.31200
C  9.56000 1.12200 32.19100
C  6.42700 4.79800 31.45700
C  6.59300 4.00900 26.68900
C  9.75700 0.40100 27.39700
N  7.86600 2.71000 31.63000
C  8.71200 2.18800 32.52400
C  8.50900 2.86000 33.91100
C  7.28400 3.79000 33.68700
C  7.19200 3.79300 32.12100
C  5.96100 3.41400 34.31800
C  9.78900 3.67000 34.35100
C  10.23700 3.61800 35.85900
H  9.15800 3.20000 36.98400
N  6.70000 4.20000 29.16800
C  6.19600 5.01500 30.11300
C  5.34700 6.05200 29.54000
C  5.36900 5.84700 28.15200
C  6.20700 4.64400 27.91900
C  4.56100 7.05100 30.29600
C  4.73800 6.68300 26.96400
O  4.91900 6.39300 25.81500
C  3.93600 7.93400 27.15300
N  7.96800 2.05500 27.32500
C  7.38500 2.84600 26.39600
C  7.74100 2.37800 24.98600
C  8.77600 1.28200 25.19000
C  8.88800 1.26300 26.72300
C  6.50400 1.94200 24.14500
C  10.06900 1.56100 24.34600
C  11.16700 2.57500 24.98900
N  9.32000 1.07000 29.64200
C  9.91800 0.20000 28.74300
C  10.75300 -0.77000 29.45200
C  10.63400 -0.46300 30.75700
C  9.79800 0.70400 30.87400
C  11.64800 -1.77000 28.68500
C  11.20200 -0.73100 32.10800
O  11.99100 -1.59700 32.49800
C  10.57500 0.32200 33.08500
C  9.87400 -0.43800 34.14200
O  8.92700 -1.20500 34.01700
O  10.45300 -0.22900 35.31300
C  9.79200 -0.84400 36.50500
H  5.90400 5.44100 32.16800
H  6.40300 4.52200 25.74400
H  10.34600 -0.32200 26.82800
H  8.12500 2.10500 34.59800
H  7.48600 4.80300 34.03500
H  5.33600 2.88800 33.59600
H  5.37000 4.23200 34.72900
H  6.10500 2.62600 35.05800
H  9.67600 4.74100 34.17700
H  10.62900 3.24800 33.79900
H  10.57400 4.58700 36.22600
H  11.06900 2.92200 35.97000
H  4.87800 7.08100 31.33800
H  3.51000 6.76800 30.36800
H  4.62000 8.05000 29.86300
H  3.18700 7.79000 27.93100
H  3.28100 8.13100 26.30400
H  4.56100 8.73800 27.54200
H  8.27300 3.17100 24.46000
H  8.39100 0.29300 24.94300
H  5.72400 1.84200 24.90000
H  6.64500 0.91600 23.80600
H  6.19700 2.54900 23.29300
H  9.86200 1.87900 23.32500
H  10.63200 0.64000 24.19000
H  12.04500 1.96800 25.20900
H  10.69400 2.91200 25.91200
H  11.31200 3.44000 24.34200
H  10.97300 -2.30400 28.01600
H  12.14400 -2.50800 29.31500
H  12.38400 -1.32300 28.01600
H  11.36200 1.00000 33.41500
H  10.55600 -1.48400 36.94600
H  8.88900 -1.44300 36.38700
H  9.43700 -0.05900 37.17200

