158

Mg 1.67100 -1.90800 44.50300
C  5.04300 -1.00400 44.39200
C  0.91000 0.76000 42.61900
C  -1.36200 -3.19300 44.25500
C  2.74300 -4.87100 46.16200
N  2.86500 -0.42500 43.48100
C  4.18600 -0.12300 43.64000
C  4.61900 1.09700 42.84000
C  3.26700 1.80900 42.50100
C  2.31400 0.57200 42.77700
C  2.85900 3.04500 43.29600
C  5.49200 0.82900 41.59200
C  6.68100 1.70000 41.16300
H  6.90100 2.09400 39.68400
N  -0.05900 -1.27200 43.68900
C  -0.20600 -0.11600 43.01300
C  -1.65500 0.16100 42.88100
C  -2.30700 -0.97100 43.28900
C  -1.26600 -1.87900 43.78800
C  -2.20900 1.40400 42.20200
C  -3.71300 -1.16700 43.18400
O  -4.38700 -0.37300 42.64300
C  -4.33400 -2.39800 43.73300
N  0.84500 -3.85900 44.99900
C  -0.47800 -4.03700 44.89900
C  -0.87600 -5.44700 45.28800
C  0.42000 -5.93000 45.94600
C  1.45100 -4.90200 45.69100
C  -2.06400 -5.59500 46.26000
C  0.89100 -7.33200 45.35300
C  0.05000 -8.52900 45.81600
N  3.48900 -2.80500 45.23400
C  3.81200 -3.94700 45.95100
C  5.19500 -3.90900 46.31100
C  5.71400 -2.79700 45.65800
C  4.66000 -2.14400 45.06200
C  5.87700 -4.92100 47.13700
C  6.93800 -2.01600 45.39300
O  8.10300 -2.23900 45.69000
C  6.58000 -0.80900 44.57000
C  7.04700 0.40000 45.30400
O  6.76500 0.75400 46.47400
O  7.87300 1.09100 44.45100
C  8.05800 2.50400 44.81400
H  0.70100 1.71000 42.12400
H  -2.32400 -3.70500 44.32500
H  3.02700 -5.78000 46.69600
H  5.13200 1.69800 43.59000
H  3.14000 2.07600 41.45200
H  3.60800 3.19500 44.07400
H  1.89300 2.92300 43.78600
H  2.88900 3.93500 42.66800
H  4.92700 0.95700 40.66800
H  5.84600 -0.20200 41.55900
H  7.59500 1.15300 41.39500
H  6.66200 2.53300 41.86600
H  -2.52400 1.17000 41.18500
H  -1.47500 2.20500 42.11800
H  -3.13100 1.60400 42.74800
H  -3.93200 -3.29900 43.26900
H  -5.41700 -2.42800 43.61400
H  -4.12900 -2.47700 44.80000
H  -1.12400 -5.95000 44.35300
H  0.40100 -6.06800 47.02700
H  -2.51800 -4.62000 46.43900
H  -1.65000 -5.90000 47.22100
H  -2.75000 -6.35400 45.88400
H  1.90400 -7.47500 45.72900
H  0.90100 -7.21800 44.26900
H  0.77100 -9.07500 46.42500
H  -0.29600 -9.14400 44.98600
H  -0.76000 -8.16700 46.44900
H  5.15700 -5.69000 47.41900
H  6.20600 -4.50300 48.08800
H  6.69600 -5.28700 46.51700
H  7.00500 -0.76700 43.56700
H  8.95100 2.85600 44.29600
H  8.13800 2.77000 45.86800
H  7.17100 3.04700 44.48900
Mg 24.74600 0.67000 29.97700
C  26.94000 0.35700 32.85600
C  22.11600 0.76800 32.17300
C  22.95300 1.22000 27.33300
C  27.60800 0.37100 27.96400
N  24.59200 0.36600 32.26500
C  25.56900 0.40300 33.19900
C  24.98800 0.46700 34.58500
C  23.48600 0.18100 34.39400
C  23.31000 0.46300 32.84000
C  23.06500 -1.30200 34.66800
C  25.41200 1.70700 35.33000
C  24.69100 2.02800 36.62400
H  25.59900 2.03300 37.81100
N  22.78300 0.85500 29.77300
C  21.87300 0.92900 30.75200
C  20.56300 1.19700 30.13800
C  20.78600 1.22400 28.75500
C  22.21000 1.08300 28.53900
C  19.30200 1.12400 30.93400
C  19.78700 1.53000 27.69000
O  20.07500 1.55400 26.47400
C  18.30600 1.79900 27.91800
N  25.18100 0.60900 27.93100
C  24.26300 0.96300 26.97900
C  24.86900 1.13300 25.53700
C  26.35200 0.94100 25.82500
C  26.36900 0.59700 27.34800
C  24.38400 0.10000 24.57700
C  27.21700 2.16300 25.47400
C  26.98100 3.47200 26.24000
N  26.79900 0.34800 30.32100
C  27.83900 0.22800 29.37400
C  29.08600 -0.06700 30.11100
C  28.77000 0.06800 31.48000
C  27.40700 0.28900 31.53100
C  30.36700 -0.14000 29.41400
C  29.35400 0.06600 32.76200
O  30.53800 -0.02100 33.07300
C  28.21600 0.27900 33.68500
C  28.19900 -0.91000 34.57000
O  27.85000 -2.02000 34.22100
O  28.53400 -0.50900 35.80500
C  28.55100 -1.55600 36.85700
H  21.21900 0.85400 32.78900
H  22.34300 1.68900 26.55800
H  28.53500 0.40900 27.38700
H  25.43500 -0.34000 35.16500
H  22.89800 0.84100 35.03300
H  22.49900 -1.79800 33.88000
H  22.66300 -1.66400 35.61400
H  24.01300 -1.83900 34.62800
H  25.34900 2.55400 34.64700
H  26.46800 1.63700 35.59200
H  23.94400 1.26800 36.85100
H  24.22000 2.98800 36.41300
H  18.92400 2.13400 31.09700
H  19.32300 0.50200 31.82900
H  18.57700 0.56000 30.34800
H  17.91500 0.78700 28.01800
H  17.81500 2.35700 27.12000
H  18.12400 2.37600 28.82500
H  24.63200 2.12900 25.16500
H  26.84700 0.16300 25.24400
H  24.67100 0.61000 23.65700
H  23.30000 0.03200 24.66300
H  24.92300 -0.82000 24.80000
H  26.91300 2.46600 24.47200
H  28.29800 2.06400 25.38000
H  27.89500 3.60600 26.81800
H  26.15300 3.60200 26.93800
H  26.77600 4.30100 25.56300
H  30.36300 -0.82600 28.56700
H  30.92600 -0.72400 30.14600
H  30.88900 0.78800 29.18100
H  28.38100 1.17700 34.28100
H  28.40200 -2.58600 36.53400
H  27.79800 -1.38200 37.62600
H  29.58600 -1.43200 37.17300

