158

Mg 8.54200 3.52300 27.48400
C  9.57900 1.96400 30.41700
C  6.48100 5.61300 29.33200
C  7.32800 4.81000 24.55500
C  9.97900 0.91200 25.58100
N  7.99700 3.76900 29.62200
C  8.65600 2.99900 30.61900
C  8.40300 3.56300 32.02500
C  7.33100 4.68400 31.66200
C  7.22200 4.70400 30.09700
C  6.01700 4.53800 32.41000
C  9.62000 4.22000 32.69700
C  9.59100 4.29200 34.25400
H  10.70200 3.53100 35.02100
N  7.16400 5.16800 27.00000
C  6.44700 5.88500 27.90200
C  5.80400 6.95900 27.15400
C  5.96300 6.75600 25.77000
C  6.87300 5.53200 25.72300
C  5.06300 8.05300 27.85900
C  5.39600 7.46100 24.59200
O  5.57100 7.17400 23.39100
C  4.50000 8.62500 24.85500
N  8.63400 2.85400 25.32700
C  8.03400 3.60800 24.37900
C  8.34500 2.99200 22.97600
C  9.40500 1.92300 23.36400
C  9.25800 1.81600 24.82800
C  7.10100 2.43600 22.23300
C  10.82500 2.21700 22.94500
C  11.45400 1.08800 22.07800
N  9.63700 1.87500 27.86200
C  10.09700 0.89500 27.00200
C  10.86100 -0.09700 27.81200
C  10.73500 0.38400 29.12900
C  9.93700 1.49300 29.16400
C  11.67300 -1.27300 27.36200
C  11.13800 0.12900 30.49300
O  11.90200 -0.68900 30.97700
C  10.31100 1.08500 31.40800
C  9.40600 0.16700 32.25100
O  8.59600 -0.65300 31.84600
O  9.66200 0.41300 33.56600
C  9.12300 -0.58700 34.49800
H  6.04400 6.43900 29.89600
H  6.99400 5.25400 23.61500
H  10.43400 0.04200 25.10300
H  7.94000 2.84600 32.70300
H  7.75200 5.66300 31.88700
H  5.23000 4.71700 31.67700
H  5.87300 5.29800 33.17800
H  6.01800 3.59700 32.96100
H  9.74300 5.25700 32.38400
H  10.45200 3.61400 32.33900
H  8.58200 4.10100 34.61900
H  9.79600 5.32100 34.54800
H  5.35000 9.09400 27.70900
H  5.12000 7.90200 28.93700
H  4.01100 7.98700 27.58100
H  3.50800 8.34100 25.20500
H  4.52100 9.29400 23.99500
H  4.89600 9.28400 25.62800
H  8.82300 3.69300 22.29000
H  9.15700 0.93600 22.97300
H  6.26800 2.66000 22.89900
H  7.13100 1.37700 21.97700
H  6.93900 3.04900 21.34700
H  11.40700 2.40300 23.84700
H  11.05000 3.13500 22.40200
H  10.94300 0.12500 22.10100
H  12.42400 0.72600 22.41800
H  11.45800 1.36600 21.02400
H  11.59200 -1.51000 26.30100
H  11.55200 -2.13500 28.01700
H  12.72700 -1.00100 27.42200
H  11.01900 1.59400 32.06300
H  9.95400 -1.22600 34.79500
H  8.35300 -1.22400 34.06400
H  8.68200 -0.17900 35.40700
Mg 47.77200 16.45900 28.70800
C  45.45500 15.80300 31.19000
C  49.41500 18.60700 30.81200
C  49.89600 17.15500 26.21800
C  45.73900 14.77400 26.42200
N  47.41300 17.21200 30.71500
C  46.44700 16.73300 31.61400
C  46.65700 17.21000 33.02600
C  47.78900 18.30700 32.83300
C  48.24700 18.05400 31.39100
C  47.27500 19.81100 32.99100
C  47.11900 16.00700 33.98900
C  46.75400 16.08000 35.47900
H  47.90000 16.03700 36.52000
N  49.41700 17.75400 28.54900
C  49.98500 18.54600 29.55200
C  51.15500 19.17900 29.07100
C  51.39800 18.62800 27.76000
C  50.21300 17.78600 27.47100
C  52.04800 20.18700 29.85600
C  52.59700 18.75600 26.83900
O  52.68000 18.20100 25.73000
C  53.76200 19.58200 27.29900
N  47.76000 16.09600 26.54700
C  48.83500 16.37400 25.78100
C  48.68500 15.83700 24.34800
C  47.39500 14.92000 24.44600
C  46.94400 15.19900 25.85900
C  48.49800 17.03400 23.35800
C  47.55100 13.48100 24.02900
C  47.47400 12.33900 25.04300
N  46.00500 15.52900 28.74200
C  45.26800 14.88600 27.73100
C  44.01800 14.35500 28.30500
C  44.04800 14.66900 29.67500
C  45.27100 15.31200 29.87700
C  42.90400 13.63100 27.53100
C  43.27600 14.64600 30.85800
O  42.14600 14.37300 31.11400
C  44.27800 15.32700 31.93200
C  43.51300 16.33000 32.70600
O  43.16400 17.36700 32.25400
O  43.40600 15.91900 34.04400
C  42.50900 16.83300 34.83900
H  49.89700 19.18800 31.60200
H  50.70300 17.15900 25.48200
H  45.09400 14.20000 25.75400
H  45.79100 17.79700 33.33300
H  48.62200 18.29600 33.53500
H  46.19400 19.94500 32.98700
H  47.67100 20.36600 32.14000
H  47.78200 20.13500 33.90000
H  48.20600 15.99900 33.92200
H  46.73600 15.04700 33.64100
H  46.15000 15.20700 35.72700
H  46.13500 16.97600 35.51800
H  51.39000 20.59800 30.62100
H  52.24600 20.97000 29.12500
H  52.88300 19.60300 30.24600
H  53.50600 20.64000 27.34000
H  54.55800 19.38700 26.58100
H  54.05900 19.23800 28.29000
H  49.60500 15.33900 24.04200
H  46.54700 15.30400 23.87900
H  49.06200 16.80600 22.45300
H  48.87100 17.96700 23.78000
H  47.46200 17.05700 23.01900
H  48.49700 13.39700 23.49400
H  46.73400 13.20600 23.36300
H  46.93700 12.64700 25.94000
H  48.45000 11.97300 25.36000
H  46.86900 11.47100 24.77700
H  42.82200 12.62800 27.94800
H  43.17400 13.35200 26.51200
H  41.92700 14.11500 27.55200
H  44.65800 14.61600 32.66600
H  42.50900 16.41600 35.84600
H  41.46300 16.82500 34.53100
H  42.97500 17.81500 34.91200

