158

Mg 45.22700 5.50300 48.76900
C  42.80600 7.97700 47.91000
C  42.73200 3.19800 47.80100
C  47.58700 3.14500 48.80000
C  47.60800 8.02300 48.73800
N  42.99200 5.55500 47.84800
C  42.20600 6.67700 47.83300
C  40.76200 6.32200 47.50300
C  40.81400 4.80700 47.68700
C  42.23500 4.47400 47.83700
C  39.89700 4.27400 48.81200
C  40.34700 6.77200 46.00000
C  38.85600 6.77400 45.63400
H  38.46700 6.56500 44.17300
N  45.20900 3.48500 48.39600
C  44.06400 2.73400 48.06000
C  44.57200 1.33100 48.03800
C  45.91900 1.26100 48.33700
C  46.26800 2.67000 48.53500
C  43.61300 0.21400 47.66800
C  46.69600 -0.05500 48.22100
O  46.29400 -1.06600 47.67900
C  48.08500 -0.16100 48.82200
N  47.27300 5.61900 48.75100
C  48.07300 4.47500 48.87600
C  49.49600 4.77100 49.04600
C  49.44600 6.37100 49.27100
C  47.99500 6.72900 48.76400
C  50.15800 4.03500 50.21400
C  50.68800 7.09700 48.56700
C  51.00800 8.45200 49.23900
N  45.21700 7.55200 48.40300
C  46.28200 8.43000 48.46600
C  45.82900 9.77400 48.32000
C  44.43700 9.68300 48.10000
C  44.12000 8.32000 48.16700
C  46.69500 10.94400 48.44000
C  43.24700 10.39700 48.01000
O  43.03600 11.60600 48.06100
C  42.08400 9.30500 47.88300
C  41.15300 9.66000 49.06700
O  41.14500 9.17300 50.17300
O  40.10200 10.34100 48.52700
C  38.99800 10.43300 49.36900
H  41.94600 2.44100 47.83500
H  48.32100 2.34100 48.88600
H  48.28600 8.82400 49.03900
H  40.06800 6.82400 48.17700
H  40.33100 4.38500 46.80500
H  40.52900 3.74000 49.52200
H  39.16500 3.60600 48.35800
H  39.46500 5.09500 49.38400
H  41.03600 6.31100 45.29300
H  40.62900 7.80100 45.77800
H  38.36200 7.70300 45.91600
H  38.38000 6.08400 46.33000
H  43.77700 -0.75300 48.14300
H  43.58300 0.07100 46.58800
H  42.59200 0.47400 47.94700
H  48.83400 0.32900 48.20000
H  48.33500 -1.20800 48.99700
H  47.95100 0.42200 49.73300
H  50.07300 4.56400 48.14400
H  49.34600 6.60500 50.33000
H  49.41500 3.35000 50.62200
H  50.56100 4.55700 51.08200
H  50.99400 3.42500 49.87200
H  50.48200 7.33200 47.52300
H  51.53900 6.42500 48.45500
H  52.03800 8.34800 49.58000
H  50.29700 8.69800 50.02800
H  51.08700 9.24000 48.49000
H  47.43300 10.96900 47.63800
H  47.32100 10.91800 49.33200
H  46.18500 11.90500 48.36800
H  41.55200 9.55400 46.96400
H  38.54700 9.45400 49.20400
H  38.38700 11.16200 48.83700
H  39.17500 10.64000 50.42500
Mg 28.28900 56.81100 39.66200
C  26.36900 53.84700 39.29900
C  31.08100 54.89800 38.70100
C  29.98800 59.65000 39.39600
C  25.35700 58.50100 40.25000
N  28.65000 54.64500 38.97400
C  27.71000 53.69500 38.93500
C  28.31600 52.41200 38.39900
C  29.84500 52.61100 38.45900
C  29.90300 54.13900 38.76400
C  30.47300 51.77300 39.57100
C  27.79600 51.95200 36.97700
C  27.21600 52.98800 35.93000
H  27.47900 52.76700 34.38000
N  30.29100 57.19700 39.27100
C  31.24400 56.29500 38.83900
C  32.48100 57.06700 38.64000
C  32.15500 58.43900 38.83700
C  30.74500 58.46600 39.21300
C  33.76700 56.38300 38.25800
C  33.22400 59.55500 38.70600
O  34.33400 59.34600 38.32300
C  33.02900 60.98100 39.24900
N  27.71800 58.75400 39.67500
C  28.61500 59.74800 39.72000
C  28.03400 61.02900 40.14800
C  26.49100 60.74200 40.03700
C  26.54200 59.21500 40.11200
C  28.50900 61.50500 41.56400
C  25.78300 61.24300 38.71900
C  24.74800 62.38000 38.86100
N  26.26300 56.34300 39.68400
C  25.15900 57.09300 39.95700
C  23.94200 56.28100 40.05700
C  24.39300 54.93700 39.83100
C  25.77400 55.08200 39.59400
C  22.60900 56.79300 40.47200
C  24.04400 53.58800 39.80600
O  22.94400 53.03900 39.87900
C  25.27600 52.79000 39.53300
C  25.40100 51.91200 40.67600
O  24.70100 50.93100 40.84700
O  26.44100 52.22500 41.47400
C  26.69600 51.38000 42.65300
H  31.93600 54.30600 38.36800
H  30.45700 60.63300 39.48500
H  24.44200 59.08100 40.38400
H  27.94500 51.73600 39.16900
H  30.33300 52.47400 37.49400
H  29.95700 50.85800 39.86200
H  30.47600 52.40600 40.45800
H  31.43700 51.39000 39.23400
H  27.03100 51.26100 37.33200
H  28.47000 51.23000 36.51600
H  27.81900 53.86200 36.17400
H  26.16700 53.26000 36.04600
H  33.98600 56.47800 37.19500
H  33.78500 55.29600 38.34400
H  34.61800 56.78500 38.80900
H  32.47600 60.86100 40.18100
H  32.44800 61.61200 38.57600
H  34.03500 61.36500 39.42200
H  28.35700 61.86400 39.52600
H  25.91900 61.05500 40.91100
H  27.70000 61.44200 42.29100
H  28.85500 62.52900 41.42500
H  29.41200 60.92500 41.75300
H  25.23100 60.42500 38.25600
H  26.51200 61.51700 37.95700
H  24.71400 62.80100 37.85600
H  25.25000 63.10000 39.50700
H  23.80300 62.03900 39.28600
H  22.05900 57.25900 39.65400
H  22.79800 57.54300 41.23900
H  22.07200 55.94900 40.90400
H  25.07700 52.22700 38.62100
H  27.49900 51.95800 43.11100
H  27.17100 50.47100 42.28400
H  25.78800 51.13400 43.20300

