158

Mg 7.73300 2.73700 27.58900
C  9.16600 1.36300 30.44000
C  5.95400 4.86400 29.50600
C  6.50600 3.95400 24.74900
C  9.33500 0.21500 25.77500
N  7.56500 3.02400 29.65000
C  8.27100 2.37900 30.65000
C  7.85600 2.88900 32.05000
C  6.67100 3.78500 31.80800
C  6.73300 3.90200 30.21600
C  5.31900 3.23400 32.38200
C  9.15900 3.53800 32.81200
C  9.45100 3.01700 34.23500
H  9.94900 4.04900 35.29400
N  6.51700 4.27900 27.17700
C  5.82600 5.05200 28.09500
C  5.14800 6.09200 27.44300
C  5.31800 5.93000 26.02700
C  6.16100 4.66900 25.90500
C  4.38700 7.07700 28.16000
C  4.82900 6.74100 24.90400
O  4.96800 6.37800 23.77200
C  4.14800 7.98700 25.08200
N  7.89400 2.13300 25.51400
C  7.15400 2.69000 24.61300
C  7.38100 2.05300 23.21600
C  8.35000 0.84900 23.50200
C  8.63300 1.10600 25.00000
C  5.99800 1.77900 22.55500
C  9.67600 0.89700 22.72200
C  9.70500 0.27200 21.35000
N  9.00900 1.03700 27.98600
C  9.62400 0.15900 27.14900
C  10.35900 -0.80600 27.89300
C  10.27200 -0.32300 29.18600
C  9.44600 0.79700 29.20900
C  11.17700 -1.97600 27.37200
C  10.70400 -0.54700 30.56200
O  11.54500 -1.34900 31.00400
C  10.02600 0.58500 31.39800
C  9.35500 -0.04900 32.43200
O  8.18800 -0.51100 32.38500
O  10.25100 -0.04500 33.49200
C  9.79000 -0.69900 34.74100
H  5.46000 5.57800 30.16800
H  6.09200 4.19800 23.76800
H  9.73200 -0.62000 25.19400
H  7.62300 1.95300 32.55700
H  6.71300 4.77700 32.25900
H  4.63900 3.33600 31.53600
H  4.97100 3.82300 33.23100
H  5.40500 2.20800 32.74000
H  9.07800 4.62500 32.80700
H  10.09700 3.23600 32.34600
H  10.25800 2.29400 34.11700
H  8.55800 2.52400 34.61700
H  4.70700 7.09400 29.20200
H  3.34600 6.76300 28.23500
H  4.38000 8.07900 27.73100
H  3.21000 7.93900 25.63600
H  4.21700 8.38200 24.06800
H  4.85700 8.54300 25.69500
H  7.84800 2.80700 22.58200
H  7.95900 -0.16800 23.54500
H  5.23700 1.89300 23.32700
H  5.82000 0.73700 22.29000
H  5.66000 2.48800 21.79900
H  10.46700 0.42800 23.30700
H  9.85700 1.96200 22.57800
H  9.76700 1.10100 20.64600
H  8.80600 -0.22600 20.98600
H  10.50500 -0.45700 21.21600
H  10.95200 -2.66300 28.18800
H  12.24400 -1.81500 27.21200
H  10.73800 -2.36900 26.45500
H  10.87200 1.12300 31.82700
H  9.08000 -1.51900 34.63700
H  9.32100 0.02900 35.40200
H  10.63200 -1.09700 35.30800
Mg -13.05400 16.96500 41.84800
C  -10.01800 15.08000 41.23800
C  -11.48200 19.67900 40.68600
C  -15.93700 18.56700 42.14600
C  -14.60000 13.95300 42.50000
N  -10.99100 17.27400 41.02500
C  -9.93700 16.47300 40.94300
C  -8.73100 17.32000 40.49400
C  -9.30800 18.73100 40.34400
C  -10.67000 18.53700 40.76800
C  -8.63700 19.90000 40.98700
C  -7.96800 16.76200 39.18200
C  -6.55600 16.22500 39.38400
H  -6.01800 15.24200 38.40600
N  -13.62400 18.86800 41.56200
C  -12.84900 19.85100 41.08400
C  -13.60000 21.10400 40.99100
C  -14.97200 20.77600 41.45200
C  -14.90000 19.37000 41.75600
C  -13.07400 22.35500 40.45200
C  -16.15800 21.74900 41.65600
O  -15.98900 22.91700 41.33900
C  -17.60600 21.44700 42.10700
N  -15.02000 16.34200 42.20600
C  -16.03400 17.16700 42.33500
C  -17.40600 16.47100 42.42800
C  -16.91500 14.98300 42.55900
C  -15.40700 15.09300 42.44200
C  -18.26100 17.08200 43.52900
C  -17.62600 13.85800 41.75800
C  -17.37100 13.93600 40.22700
N  -12.42800 14.91300 41.93800
C  -13.23000 13.81100 42.23400
C  -12.42400 12.61300 42.10100
C  -11.15800 13.03000 41.68200
C  -11.21900 14.43300 41.66900
C  -12.91600 11.17900 42.25000
C  -9.81600 12.59500 41.35100
O  -9.22400 11.51100 41.35300
C  -8.99700 13.96600 41.10500
C  -7.76400 14.17700 42.00700
O  -7.44800 15.21300 42.55900
O  -6.99700 13.05100 42.05700
C  -5.58900 13.23700 42.59300
H  -11.02400 20.58100 40.27400
H  -16.93100 19.00800 42.24200
H  -15.27000 13.11800 42.71500
H  -8.06400 17.46400 41.34300
H  -9.31900 19.05000 39.30100
H  -7.62600 19.60700 41.27300
H  -9.07400 20.01000 41.97900
H  -8.57700 20.78900 40.36000
H  -7.90500 17.61000 38.50000
H  -8.50700 15.93400 38.72000
H  -6.42400 15.77800 40.37000
H  -5.82300 17.03100 39.41200
H  -12.35200 22.05400 39.69200
H  -12.67500 23.03600 41.20300
H  -13.86600 22.92900 39.97000
H  -18.14700 22.39300 42.11300
H  -17.46900 21.06000 43.11600
H  -18.14100 20.63400 41.61600
H  -17.82100 16.64300 41.43600
H  -17.05500 14.79700 43.62400
H  -18.38300 16.48000 44.42900
H  -19.26200 17.17100 43.10700
H  -18.01000 18.05200 43.95900
H  -18.66900 14.17100 41.80700
H  -17.34100 12.90500 42.20300
H  -18.31300 14.20500 39.75000
H  -17.00000 12.95700 39.92400
H  -16.70300 14.75200 39.95000
H  -13.24000 10.94400 41.23600
H  -13.71000 11.16000 42.99600
H  -12.06000 10.55800 42.51500
H  -8.45500 14.01200 40.16100
H  -5.17200 12.23000 42.58000
H  -5.52600 13.57000 43.62900
H  -5.16200 13.95500 41.89200

