158

Mg 26.26300 0.78400 28.73700
C  28.09200 -0.05400 31.69800
C  23.52900 1.22600 30.66200
C  24.47300 0.84100 25.85600
C  29.11500 -0.30900 26.89700
N  25.93500 0.61900 30.92000
C  26.82400 0.41700 31.96500
C  26.22100 0.82900 33.32600
C  24.71800 1.01000 32.95300
C  24.71000 0.95300 31.42700
C  23.77000 -0.00800 33.71200
C  27.03400 1.98200 33.93200
C  27.55100 1.71000 35.31000
H  27.49500 2.81800 36.27600
N  24.24500 1.00500 28.33900
C  23.29200 1.23900 29.22200
C  22.03100 1.43300 28.50000
C  22.29400 1.23300 27.14300
C  23.70000 1.09700 27.06100
C  20.73500 1.71800 29.25000
C  21.36200 1.24500 25.93800
O  21.71100 1.11500 24.77300
C  19.89000 1.49800 26.24600
N  26.76900 0.30800 26.70500
C  25.85800 0.75300 25.69200
C  26.53700 0.58700 24.29900
C  28.06200 0.51500 24.69300
C  27.99000 0.09400 26.15800
C  26.02700 -0.65700 23.45400
C  28.90400 1.79800 24.34600
C  29.28500 1.90400 22.85400
N  28.14300 -0.00800 29.11300
C  29.18900 -0.47300 28.29200
C  30.28100 -0.95500 29.11800
C  29.90500 -0.72900 30.38700
C  28.63300 -0.21100 30.38800
C  31.58400 -1.35300 28.59400
C  30.37900 -0.86100 31.72500
O  31.41600 -1.24700 32.18000
C  29.22700 -0.44200 32.71600
C  28.83600 -1.42600 33.78300
O  27.95100 -2.22500 33.78600
O  29.62400 -1.21800 34.91100
C  29.39200 -2.11500 35.99100
H  22.85000 1.75200 31.33600
H  23.96400 1.02300 24.90700
H  30.07400 -0.52700 26.42200
H  26.43800 -0.04800 33.93700
H  24.41000 2.03700 33.14700
H  24.42400 -0.72100 34.21500
H  23.15700 -0.50200 32.95900
H  23.18100 0.53900 34.44800
H  26.47100 2.91400 33.88800
H  27.93400 2.10900 33.33000
H  28.60000 1.44700 35.17400
H  27.13100 0.80800 35.75600
H  19.98900 0.92500 29.21900
H  20.41100 2.74400 29.07400
H  21.11600 1.81600 30.26700
H  19.48700 0.94100 27.09200
H  19.38700 1.18200 25.33300
H  19.76300 2.54500 26.52100
H  26.25600 1.50500 23.78300
H  28.63400 -0.27900 24.21300
H  26.71000 -1.47600 23.23100
H  25.46900 -0.26900 22.60100
H  25.17200 -0.99400 24.03900
H  29.74700 1.93200 25.02300
H  28.29000 2.66200 24.59700
H  28.88800 1.14600 22.17900
H  30.36000 1.77200 22.73300
H  28.88300 2.83900 22.46500
H  32.34900 -1.10000 29.32800
H  31.91200 -0.77700 27.72900
H  31.55400 -2.42500 28.39900
H  29.67200 0.35900 33.30500
H  28.44500 -1.82000 36.44200
H  30.24400 -2.10900 36.67200
H  29.32400 -3.16100 35.69300
Mg 6.07600 54.17000 41.46700
C  5.28900 50.63600 41.09500
C  9.21100 53.32900 40.44200
C  6.61600 57.51500 41.12600
C  2.72300 54.72700 42.23300
N  7.05300 52.16700 40.71000
C  6.57000 50.89600 40.61000
C  7.64500 49.90100 40.22800
C  8.89200 50.75300 40.46700
C  8.33100 52.20600 40.54400
C  9.71400 50.48300 41.76500
C  7.66000 49.29100 38.75800
C  7.24800 50.24200 37.63100
H  5.76400 50.29500 37.18500
N  7.62900 55.30500 40.73500
C  8.88400 54.76500 40.47900
C  9.80300 55.80500 40.14900
C  9.10600 57.07400 40.43600
C  7.71000 56.71600 40.80600
C  11.23700 55.49000 39.83800
C  9.68700 58.50100 40.39000
O  10.90900 58.61800 40.24900
C  8.80600 59.73300 40.65200
N  4.82300 55.81400 41.66100
C  5.32100 57.08000 41.54000
C  4.23000 58.14000 41.86900
C  3.00700 57.25500 42.20000
C  3.51900 55.82000 42.03600
C  4.73300 59.11800 42.94900
C  1.71300 57.65400 41.38100
C  0.43900 57.89500 42.22200
N  4.32900 53.00800 41.87500
C  3.05800 53.36100 42.10100
C  2.17500 52.21600 42.19900
C  3.04700 51.13200 41.97400
C  4.33600 51.62900 41.64600
C  0.66900 52.16800 42.47400
C  3.11500 49.62700 41.85300
O  2.30600 48.75900 42.14200
C  4.53600 49.32900 41.34100
C  4.28000 48.68500 40.04600
O  3.74500 49.02200 39.03300
O  4.69800 47.34100 40.17400
C  4.85000 46.53400 38.94800
H  10.28300 53.15900 40.31700
H  6.59500 58.60100 41.01000
H  1.67100 54.96900 42.40100
H  7.62000 49.12800 40.99600
H  9.58200 50.66300 39.62800
H  9.68800 51.26800 42.52100
H  10.75300 50.35100 41.46500
H  9.46000 49.51500 42.19600
H  6.92500 48.48600 38.73600
H  8.64200 48.92900 38.45600
H  7.81800 49.92400 36.75800
H  7.56600 51.27900 37.73500
H  11.36000 54.46700 39.48100
H  11.91700 55.45700 40.69000
H  11.66400 56.14700 39.08100
H  8.05800 59.70200 39.85900
H  9.38200 60.65300 40.55500
H  8.28900 59.68100 41.61000
H  4.12500 58.71900 40.95100
H  2.74600 57.41700 43.24600
H  3.99700 59.30100 43.73300
H  4.83100 60.13500 42.56900
H  5.65100 58.70800 43.37000
H  1.48800 56.98500 40.55100
H  1.87000 58.62400 40.91000
H  0.39800 57.34000 43.15900
H  -0.40700 57.71400 41.55900
H  0.48800 58.93700 42.53700
H  0.07400 51.99300 41.57700
H  0.42500 53.12500 42.93500
H  0.35700 51.39900 43.18100
H  5.14000 48.70700 42.00100
H  5.77600 45.96100 38.97700
H  4.78000 47.20900 38.09500
H  4.05800 45.78800 39.01200

