158

Mg 55.71700 23.98000 44.97100
C  53.21500 26.40200 44.32300
C  53.44400 21.57800 44.08600
C  58.18700 21.63900 44.88800
C  57.87700 26.51600 45.67100
N  53.56700 23.99800 44.28200
C  52.76500 25.06000 44.01700
C  51.38700 24.64100 43.51200
C  51.41300 23.12300 43.85300
C  52.86500 22.82700 44.14900
C  50.32900 22.77000 45.05000
C  51.01600 24.83900 42.00900
C  49.56800 25.24600 41.63100
H  49.24200 25.12100 40.10300
N  55.81300 21.90100 44.57300
C  54.75500 21.14100 44.22300
C  55.10200 19.74000 44.13200
C  56.46500 19.68600 44.50600
C  56.88300 21.13800 44.65600
C  54.11300 18.63400 43.92500
C  57.21300 18.45500 44.82400
O  56.71600 17.35800 44.72500
C  58.69400 18.37500 45.41100
N  57.71000 24.04200 45.18400
C  58.56100 22.99500 45.20500
C  60.01000 23.37900 45.57600
C  59.92800 24.95600 45.76800
C  58.37600 25.19600 45.51700
C  60.51600 22.66200 46.86200
C  60.90400 25.85000 44.96100
C  61.57400 26.89400 45.79400
N  55.51400 26.06200 45.18000
C  56.52600 26.93600 45.53900
C  55.99600 28.26000 45.42500
C  54.67700 28.13100 45.00600
C  54.42200 26.76700 44.81100
C  56.76500 29.47600 45.81000
C  53.46600 28.79000 44.70300
O  53.11700 29.96500 44.85100
C  52.44100 27.67200 44.15900
C  52.21000 28.10900 42.73300
O  52.84600 27.73300 41.79400
O  51.08800 28.94900 42.67400
C  50.58400 29.24500 41.30500
H  52.78100 20.74700 43.83800
H  58.99400 20.91300 45.00400
H  58.63800 27.19600 46.06000
H  50.56600 25.20400 43.95700
H  51.22000 22.44800 43.01900
H  50.15100 21.69700 44.97300
H  49.42600 23.37900 45.10100
H  50.83200 22.91600 46.00600
H  51.17300 23.87900 41.51800
H  51.75500 25.52300 41.59300
H  49.36100 26.29600 41.83800
H  48.79900 24.62800 42.09500
H  54.71000 17.72300 43.89600
H  53.57200 18.70700 42.98200
H  53.37400 18.58900 44.72600
H  59.29100 18.53700 44.51400
H  58.90400 17.43000 45.91200
H  58.88000 19.10600 46.19800
H  60.62800 22.96400 44.78000
H  60.00200 25.22600 46.82200
H  61.40100 22.05200 46.68400
H  59.82400 21.96200 47.32900
H  60.84100 23.31800 47.66900
H  60.52900 26.22000 44.00600
H  61.72000 25.20800 44.63100
H  62.63300 26.81400 45.55000
H  61.51900 26.71000 46.86700
H  61.28000 27.91100 45.53500
H  57.30100 29.26200 46.73500
H  56.04700 30.28500 45.93700
H  57.52500 29.70300 45.06200
H  51.53000 27.75900 44.75200
H  50.35800 30.30900 41.24200
H  49.63600 28.77500 41.04500
H  51.31700 29.02000 40.53100
Mg -5.97700 25.19400 26.01900
C  -4.63000 26.51100 29.16400
C  -7.65500 22.83800 27.97100
C  -6.48700 23.60000 23.38400
C  -3.81300 27.48700 24.50100
N  -6.10600 24.73600 28.30300
C  -5.47600 25.38400 29.34700
C  -5.92500 24.83100 30.79300
C  -6.64400 23.44300 30.29300
C  -6.88000 23.65400 28.76000
C  -5.86500 22.18000 30.64600
C  -6.74500 25.96000 31.47600
C  -6.65100 26.15500 32.99400
H  -6.07800 24.98400 33.77600
N  -7.15300 23.56300 25.64300
C  -7.80700 22.70800 26.54400
C  -8.51800 21.76600 25.85000
C  -8.23800 21.90300 24.43500
C  -7.26500 23.02800 24.43200
C  -9.44000 20.78000 26.57700
C  -8.75000 21.14100 23.27900
O  -8.30300 21.43300 22.14000
C  -9.86900 20.16300 23.42200
N  -5.33200 25.57700 24.24500
C  -5.63300 24.71100 23.25000
C  -4.91700 25.03600 21.89100
C  -4.22500 26.40200 22.33800
C  -4.51000 26.55700 23.81100
C  -3.92900 23.92700 21.47000
C  -4.74600 27.54000 21.41700
C  -3.73400 28.56000 20.93400
N  -4.66500 26.81900 26.67900
C  -3.95300 27.68700 25.88600
C  -3.24700 28.64500 26.71200
C  -3.42400 28.22300 27.99500
C  -4.30200 27.08000 27.92200
C  -2.42300 29.75900 26.09200
C  -3.09200 28.48200 29.35900
O  -2.44000 29.33400 29.89400
C  -3.93300 27.41300 30.17100
C  -2.99300 26.65500 31.07400
O  -2.19300 25.82400 30.70800
O  -3.16700 26.94100 32.37200
C  -2.34200 26.39500 33.38300
H  -8.14800 22.14200 28.65300
H  -6.56100 23.03500 22.45300
H  -3.27500 28.23300 23.91300
H  -4.99900 24.58100 31.31000
H  -7.58200 23.35000 30.84000
H  -4.88800 22.38500 31.08300
H  -5.74000 21.60400 29.72800
H  -6.47000 21.55800 31.30500
H  -7.80600 25.78100 31.30300
H  -6.45100 26.95600 31.14600
H  -7.67200 26.30200 33.34500
H  -5.98400 26.98600 33.22100
H  -10.50400 20.86600 26.35600
H  -9.38900 20.73900 27.66500
H  -9.03900 19.79800 26.32700
H  -9.59800 19.36900 24.11700
H  -9.99900 19.68300 22.45200
H  -10.77200 20.66300 23.77000
H  -5.72000 25.17500 21.16700
H  -3.15600 26.33900 22.13200
H  -4.09500 23.74500 20.40800
H  -4.10100 22.99500 22.00900
H  -2.91600 24.30300 21.61700
H  -5.41400 28.17100 22.00400
H  -5.22100 27.24400 20.48200
H  -4.15800 29.56300 20.98600
H  -3.41300 28.23300 19.94500
H  -2.95300 28.53700 21.69300
H  -2.99200 30.33200 25.36000
H  -1.56400 29.31900 25.58500
H  -2.09200 30.39000 26.91800
H  -4.59200 28.02400 30.78900
H  -1.96900 25.41700 33.07900
H  -2.78700 26.11100 34.33700
H  -1.50000 27.04900 33.60900

