158

Mg 47.50100 14.76600 27.52200
C  45.53400 14.86600 30.49500
C  49.48600 17.28000 28.81100
C  49.10700 14.84300 24.61000
C  45.06000 12.64700 26.22800
N  47.48400 15.87600 29.42300
C  46.71800 15.68000 30.58600
C  47.23100 16.40700 31.77900
C  48.44800 17.28300 31.23200
C  48.48000 16.85700 29.71800
C  48.39200 18.83000 31.49500
C  47.57700 15.44700 32.86400
C  47.31400 15.94000 34.26700
H  48.38400 15.71100 35.36000
N  49.16300 15.90500 26.79000
C  49.79000 16.93300 27.44400
C  50.75400 17.57400 26.53200
C  50.81100 16.65700 25.34900
C  49.66600 15.75700 25.52100
C  51.61800 18.82200 26.83100
C  51.76200 16.76700 24.15200
O  51.67000 16.01700 23.14900
C  52.92700 17.79400 24.15700
N  47.11400 13.85800 25.69700
C  47.92600 14.02200 24.65700
C  47.57100 13.06000 23.51100
C  46.36000 12.25900 24.09000
C  46.17700 12.89400 25.44800
C  47.21600 13.84200 22.16400
C  46.71700 10.66600 24.24400
C  47.28900 9.95300 22.99000
N  45.55600 13.99700 28.14800
C  44.74400 13.14800 27.47100
C  43.54500 12.97200 28.33100
C  43.89300 13.56600 29.54000
C  45.12100 14.18900 29.35700
C  42.28800 12.15400 27.99200
C  43.36700 13.84300 30.85700
O  42.31200 13.53400 31.37000
C  44.38300 14.68000 31.55400
C  43.77100 15.96000 31.94900
O  43.48100 16.87100 31.23500
O  43.56000 15.91900 33.27700
C  42.81700 16.99300 33.90400
H  50.15000 18.04100 29.22600
H  49.71900 14.65000 23.72600
H  44.39500 11.95000 25.71300
H  46.45200 17.06100 32.17100
H  49.34800 16.79800 31.61000
H  48.49900 19.37900 30.56000
H  49.20800 19.03500 32.18800
H  47.48000 19.22300 31.94500
H  48.61400 15.13500 32.74400
H  47.12600 14.45600 32.80700
H  46.37700 15.53400 34.64900
H  47.18800 17.02200 34.29500
H  51.26500 19.59300 26.14500
H  52.70500 18.78200 26.76200
H  51.50900 19.22200 27.83900
H  53.26200 17.76500 23.12000
H  53.72100 17.37300 24.77300
H  52.48100 18.76000 24.39400
H  48.46400 12.50000 23.23400
H  45.47800 12.53100 23.51100
H  47.92300 14.55600 21.74200
H  46.21900 14.27300 22.25100
H  47.01100 13.13100 21.36400
H  45.81100 10.21600 24.64900
H  47.40100 10.33900 25.02700
H  46.75000 9.06700 22.65500
H  48.26800 9.51300 23.17600
H  47.23500 10.61800 22.12800
H  42.56200 11.19000 27.56300
H  41.84600 12.70100 27.16000
H  41.65800 12.15400 28.88100
H  44.85500 14.18900 32.40500
H  43.46100 17.42300 34.67200
H  41.87700 16.68400 34.36000
H  42.66000 17.84500 33.24300
Mg 40.96300 41.58700 27.13700
C  39.77500 43.78900 29.56700
C  41.41800 39.31700 29.61400
C  42.20500 39.41100 24.82400
C  40.53200 44.05400 24.72000
N  40.58100 41.59100 29.37700
C  40.05000 42.55200 30.12100
C  40.15900 42.18100 31.70500
C  40.64400 40.74400 31.58300
C  40.95300 40.53400 30.11700
C  41.74800 40.17900 32.47400
C  38.82300 42.49600 32.42300
C  38.27400 41.54000 33.45300
H  37.56900 42.31900 34.54200
N  41.76100 39.58100 27.14600
C  41.81900 38.85800 28.32000
C  42.23100 37.50500 28.00800
C  42.37600 37.44800 26.59700
C  42.15400 38.87100 26.07200
C  42.33900 36.36000 29.01800
C  42.87200 36.32300 25.63500
O  42.97500 36.42300 24.38400
C  43.17600 35.07500 26.18000
N  41.39100 41.72100 25.06300
C  41.92000 40.73500 24.36300
C  41.89100 41.03800 22.86700
C  41.32600 42.49600 22.81100
C  41.01700 42.82900 24.25100
C  43.20900 40.73700 21.99500
C  40.13900 42.58300 21.85400
C  38.87100 41.79600 22.22600
N  40.30500 43.46700 27.12900
C  40.19400 44.40800 26.04000
C  39.72100 45.67100 26.46500
C  39.46600 45.46400 27.82500
C  39.88700 44.12000 28.19700
C  39.67700 46.94600 25.67700
C  38.99800 46.10200 29.06500
O  38.58700 47.18500 29.33000
C  39.26200 45.10100 30.22600
C  40.26300 45.76500 31.15200
O  41.44800 45.96900 30.86900
O  39.61900 46.09700 32.28800
C  40.36900 46.72700 33.36900
H  41.24100 38.60100 30.41900
H  42.53700 38.79900 23.98300
H  40.39100 44.94000 24.09900
H  40.98300 42.70900 32.18600
H  39.74600 40.14800 31.74700
H  42.70800 40.18900 31.95900
H  41.39300 39.21100 32.82800
H  41.83700 40.70100 33.42600
H  38.09500 42.52900 31.61300
H  38.85600 43.52800 32.77300
H  39.01600 40.96700 34.00800
H  37.51700 40.86200 33.05800
H  41.81400 36.63600 29.93300
H  43.40400 36.12900 29.02300
H  41.84100 35.44400 28.69900
H  43.89900 35.11900 26.99400
H  43.58000 34.45100 25.38300
H  42.27400 34.58700 26.54900
H  41.11900 40.40800 22.42400
H  42.03200 43.22700 22.41800
H  43.89700 40.64500 22.83500
H  43.24100 41.55600 21.27600
H  43.14100 39.81800 21.41300
H  40.46200 42.12200 20.92100
H  39.84700 43.60700 21.61900
H  38.04400 42.37700 21.81900
H  38.74200 41.59000 23.28900
H  38.84200 40.79500 21.79700
H  40.66600 47.21800 25.31000
H  39.33200 47.71700 26.36600
H  39.00900 46.91600 24.81600
H  38.28700 44.90500 30.67300
H  41.43800 46.84800 33.19500
H  40.20400 46.14300 34.27500
H  39.98700 47.73800 33.51300

