158

Mg 47.99600 34.80400 26.82200
C  46.33900 33.39800 29.64400
C  48.22000 37.73900 28.77500
C  49.07500 36.28200 24.19100
C  47.49200 31.80400 25.13500
N  47.53400 35.45900 29.02900
C  46.89200 34.64600 29.95100
C  46.94600 35.29700 31.31100
C  47.10200 36.77700 30.95000
C  47.62200 36.71000 29.51400
C  45.84600 37.68000 31.10500
C  48.12200 34.65200 32.10100
C  48.09700 34.79100 33.64800
H  47.05000 35.68000 34.40200
N  48.67900 36.68500 26.53800
C  48.75700 37.70900 27.46300
C  49.36600 38.80900 26.77900
C  49.62600 38.49000 25.40300
C  49.14800 37.11900 25.31500
C  49.79800 40.15100 27.49700
C  50.39100 39.19300 24.27400
O  50.52800 38.74100 23.13100
C  50.91000 40.58800 24.53300
N  48.33200 34.10400 24.94500
C  48.75400 34.97700 23.96700
C  48.82000 34.17300 22.65100
C  48.70800 32.68500 23.02100
C  48.07200 32.87900 24.41200
C  47.77000 34.68400 21.61600
C  50.07300 31.86100 22.88500
C  51.16100 31.89300 24.04200
N  47.03400 32.99400 27.18300
C  46.94400 31.84700 26.44900
C  46.18900 30.81700 27.18800
C  45.89100 31.44400 28.41800
C  46.42800 32.73400 28.38600
C  45.75500 29.40100 26.71300
C  45.13900 31.28800 29.64500
O  44.42400 30.32800 29.99800
C  45.29600 32.59700 30.44000
C  45.47900 32.40100 31.89900
O  46.50400 32.05200 32.50700
O  44.25500 32.36600 32.56300
C  44.08400 32.01000 33.97400
H  48.16600 38.73100 29.22900
H  49.48300 36.74200 23.28800
H  47.47100 30.89300 24.53200
H  46.01500 35.13200 31.85400
H  47.84100 37.28200 31.57200
H  45.89400 38.28100 32.01300
H  45.00300 37.00100 31.23300
H  45.60500 38.28300 30.22900
H  49.01300 35.21400 31.81900
H  48.31500 33.60700 31.86200
H  49.14300 35.03800 33.83000
H  48.00400 33.75200 33.96600
H  50.87400 40.31600 27.55600
H  49.24800 40.09100 28.43700
H  49.40700 40.98100 26.91000
H  50.22300 41.24800 25.06400
H  50.93400 41.02800 23.53500
H  51.87600 40.54000 25.03500
H  49.74600 34.31000 22.09200
H  47.95100 32.26500 22.35900
H  48.10200 34.61500 20.58000
H  47.41400 35.71100 21.69200
H  46.83600 34.12200 21.65800
H  50.43000 32.19900 21.91200
H  49.56600 30.90800 22.73100
H  50.98300 30.96300 24.58100
H  50.88500 32.75100 24.65600
H  52.15900 32.08500 23.64700
H  45.90400 29.38600 25.63300
H  44.68200 29.34800 26.89900
H  46.16400 28.54900 27.25500
H  44.46000 33.29500 30.38200
H  43.10700 31.55800 34.14200
H  44.26900 32.85500 34.63800
H  44.87100 31.30000 34.23100
Mg 36.32200 49.54200 24.36700
C  36.68300 47.73500 27.25200
C  35.28200 52.24600 26.05900
C  35.55200 50.95000 21.42100
C  37.43300 46.66100 22.57200
N  35.80800 49.83500 26.47300
C  36.08900 48.96000 27.50200
C  35.68200 49.68300 28.76700
C  35.05500 51.05900 28.30800
C  35.41600 51.07900 26.84900
C  33.55300 51.18100 28.68800
C  36.90500 49.84200 29.78500
C  36.59300 50.18300 31.26900
H  35.41800 49.58600 32.15600
N  35.74200 51.44900 23.86200
C  35.36200 52.48600 24.68000
C  35.04700 53.65800 23.93900
C  34.91100 53.21300 22.58900
C  35.41400 51.78500 22.56100
C  34.86900 54.97400 24.56300
C  34.47500 53.90100 21.35400
O  34.43000 53.39400 20.26600
C  34.05500 55.40400 21.49100
N  36.40700 48.85300 22.26400
C  36.03200 49.65400 21.25600
C  36.19400 48.86800 19.92200
C  36.92400 47.58600 20.26900
C  37.01000 47.73100 21.80200
C  34.90600 48.57300 19.06500
C  38.31800 47.54400 19.55800
C  39.44900 48.46800 20.01400
N  37.00700 47.56300 24.78600
C  37.45600 46.56600 23.96200
C  37.92300 45.43700 24.77600
C  37.62600 45.84600 26.07400
C  37.11200 47.16000 26.01900
C  38.34400 44.11700 24.24600
C  37.57600 45.42200 27.44000
O  37.95500 44.33400 27.97500
C  36.91400 46.56000 28.23200
C  35.70200 46.24900 28.95800
O  34.53200 46.35200 28.54500
O  36.11200 45.83200 30.19800
C  35.04500 45.45100 31.13000
H  34.97300 53.19600 26.50100
H  35.22800 51.27300 20.43000
H  37.87100 45.74500 22.17000
H  35.01500 48.98200 29.26900
H  35.59800 51.88800 28.76300
H  33.15100 50.27900 29.14900
H  33.06300 51.49400 27.76600
H  33.47600 51.97700 29.42800
H  37.36500 50.74000 29.37200
H  37.58500 48.99300 29.72400
H  36.53400 51.25200 31.47300
H  37.45300 49.83600 31.84100
H  35.35800 55.73500 23.95400
H  35.31300 54.97300 25.55800
H  33.83900 55.30200 24.70100
H  33.51800 55.51000 20.54900
H  34.93300 56.03600 21.62700
H  33.30400 55.40400 22.28100
H  36.77300 49.40400 19.17000
H  36.37800 46.64500 20.20500
H  34.69400 47.51400 18.92200
H  35.06200 48.93500 18.04800
H  34.03700 49.11100 19.44400
H  38.12500 47.51900 18.48500
H  38.72200 46.56000 19.79900
H  39.83800 48.93200 19.10700
H  40.26100 47.83300 20.36800
H  39.15300 49.17500 20.78800
H  37.94000 44.02600 23.23800
H  37.84300 43.34500 24.83100
H  39.40500 43.86800 24.26000
H  37.66700 46.87800 28.95300
H  34.09200 45.87800 30.81700
H  35.32100 45.69000 32.15700
H  34.98400 44.36400 31.08300

