158

Mg 26.04300 -0.90000 29.28500
C  28.00200 -0.89100 32.25800
C  23.26300 -0.58500 31.29800
C  24.20700 -0.66100 26.58700
C  28.90400 -1.16400 27.45700
N  25.69800 -0.84500 31.53800
C  26.64300 -0.76800 32.52200
C  26.02000 -0.53500 33.90800
C  24.49300 -0.46100 33.59700
C  24.45500 -0.59000 32.06600
C  23.68000 -1.57700 34.21200
C  26.54300 0.77600 34.59600
C  25.94400 1.17000 35.92000
H  26.89500 1.30400 37.13800
N  24.02900 -0.65000 28.98800
C  23.03500 -0.68800 29.92500
C  21.76600 -0.66700 29.34800
C  21.99600 -0.47000 27.90600
C  23.46200 -0.64800 27.72300
C  20.52900 -0.56300 30.21000
C  20.98200 -0.32700 26.79500
O  21.30700 -0.09500 25.58300
C  19.48800 -0.29900 27.11600
N  26.45500 -1.17000 27.26100
C  25.54800 -0.84500 26.34400
C  26.18000 -0.71700 24.93000
C  27.67300 -0.73800 25.25800
C  27.68000 -1.09600 26.76400
C  25.71500 -1.92600 24.03000
C  28.46200 0.55800 24.90700
C  29.84100 0.37800 24.15500
N  28.05400 -1.11600 29.72000
C  29.10400 -1.28600 28.86200
C  30.36100 -1.30300 29.60000
C  30.00100 -1.20800 30.93500
C  28.56300 -1.07000 30.92800
C  31.71100 -1.38300 28.96500
C  30.51500 -1.19500 32.33700
O  31.65400 -1.52900 32.73400
C  29.24000 -0.89400 33.22900
C  29.08000 -1.84800 34.37500
O  28.62900 -2.95300 34.28100
O  29.52600 -1.25200 35.55700
C  29.41300 -2.12500 36.72700
H  22.40500 -0.47900 31.96600
H  23.79500 -0.68600 25.57600
H  29.80700 -1.15800 26.84400
H  26.41200 -1.29100 34.58800
H  24.09500 0.49300 33.94200
H  24.17800 -2.29800 34.86000
H  23.11800 -2.18100 33.50000
H  22.98400 -1.26300 34.99000
H  26.46500 1.62500 33.91600
H  27.58500 0.57300 34.84300
H  25.04200 0.59100 36.12000
H  25.45600 2.13600 35.78500
H  19.82500 -1.31600 29.85700
H  20.20800 0.46600 30.04500
H  20.47400 -0.72900 31.28600
H  18.96200 0.22900 26.32100
H  19.25100 0.26700 28.01700
H  19.18700 -1.33100 27.29700
H  25.82700 0.25500 24.58600
H  28.19100 -1.50600 24.68400
H  26.58600 -2.41600 23.59500
H  25.04500 -1.63900 23.21900
H  25.20100 -2.70200 24.59600
H  28.72400 1.12700 25.79900
H  27.87800 1.15700 24.20800
H  29.70700 0.33000 23.07400
H  30.18600 -0.63400 24.36900
H  30.65100 1.06800 24.38900
H  31.78200 -2.32700 28.42600
H  32.37700 -1.34600 29.82700
H  31.91800 -0.61600 28.21800
H  29.36100 0.12900 33.58400
H  30.12000 -1.78200 37.48200
H  29.61900 -3.17200 36.50500
H  28.38700 -1.92600 37.03600
Mg -4.53700 24.65100 26.96600
C  -2.91300 26.52900 29.43100
C  -5.47700 22.43700 29.42800
C  -6.00300 22.80600 24.67900
C  -3.13900 26.74700 24.54900
N  -4.26600 24.54800 29.19000
C  -3.70200 25.47600 29.95200
C  -4.07100 25.22500 31.43400
C  -4.77600 23.84900 31.46800
C  -4.84600 23.56700 29.92200
C  -3.91700 22.75200 31.99100
C  -4.90800 26.35200 32.08600
C  -4.58100 26.51500 33.61800
H  -5.64300 26.11600 34.64900
N  -5.46200 22.75100 27.04400
C  -5.75000 21.97900 28.10100
C  -6.41900 20.79200 27.77700
C  -6.51000 20.81000 26.33400
C  -6.00300 22.14500 25.91100
C  -6.76200 19.73300 28.87600
C  -6.97400 19.73000 25.34700
O  -7.01100 19.97200 24.13300
C  -7.28000 18.39700 25.84100
N  -4.61000 24.82900 24.86800
C  -5.33200 23.91400 24.16800
C  -5.15000 24.10400 22.72100
C  -4.12700 25.36400 22.59100
C  -3.99500 25.70400 24.10800
C  -4.77900 22.84000 21.94700
C  -4.78000 26.53200 21.83400
C  -3.78600 27.41100 21.03000
N  -3.24200 26.28700 26.92400
C  -2.83600 27.07500 25.90200
C  -2.08400 28.26500 26.40000
C  -2.07800 28.05600 27.78400
C  -2.77100 26.82000 28.04800
C  -1.47400 29.38100 25.64800
C  -1.68100 28.63000 29.05700
O  -1.14900 29.67900 29.39600
C  -2.20600 27.64900 30.12800
C  -1.05200 27.14400 30.89200
O  -0.28100 26.20900 30.59900
O  -1.05000 27.80300 32.07600
C  0.06800 27.28300 32.94500
H  -6.01400 21.86600 30.18900
H  -6.45200 22.13100 23.94700
H  -2.76800 27.39500 23.75300
H  -3.07900 25.12300 31.87500
H  -5.77100 23.77700 31.90700
H  -3.24600 23.12300 32.76600
H  -3.42000 22.23600 31.17000
H  -4.54400 22.08000 32.57700
H  -5.97200 26.20800 31.89800
H  -4.73800 27.29500 31.56600
H  -4.29800 27.55900 33.75400
H  -3.73000 25.90000 33.91100
H  -5.89000 19.28300 29.35100
H  -7.36700 18.96700 28.39100
H  -7.35200 20.15200 29.69100
H  -8.22200 18.41200 26.39000
H  -6.52800 17.96900 26.50400
H  -7.25600 17.74000 24.97200
H  -6.11900 24.57600 22.55700
H  -3.15400 25.09900 22.17600
H  -4.15000 22.18000 22.54500
H  -4.28100 23.04900 21.00000
H  -5.69600 22.43900 21.51700
H  -5.09700 27.29700 22.54200
H  -5.65200 26.23800 21.25000
H  -3.59500 28.40200 21.44200
H  -4.04300 27.44500 19.97100
H  -2.83500 26.88400 20.96000
H  -0.68400 28.97400 25.01800
H  -1.02000 30.08000 26.35100
H  -2.27700 29.74100 25.00600
H  -2.87000 28.24800 30.75100
H  1.06300 27.54900 32.58900
H  0.06000 26.21400 33.16100
H  -0.15200 27.83800 33.85700

