158

Mg 34.97600 2.28900 29.89400
C  32.68100 3.22600 32.34800
C  37.52200 2.81700 32.28600
C  37.09100 1.38900 27.52900
C  32.31900 2.40600 27.56000
N  35.05300 2.90800 32.08900
C  34.00800 3.11000 32.86300
C  34.34700 3.23400 34.32700
C  35.91000 3.45300 34.26300
C  36.23400 3.02100 32.80000
C  36.34200 4.88000 34.65900
C  33.81300 1.94900 35.10100
C  33.44800 2.17500 36.63500
H  34.33400 3.22400 37.25100
N  36.97800 2.07100 29.84700
C  37.81900 2.28300 30.92500
C  39.19800 1.87700 30.47300
C  39.04800 1.32100 29.16600
C  37.66200 1.55000 28.84000
C  40.40400 2.06200 31.41600
C  40.12200 0.63200 28.31500
O  39.84500 0.15000 27.24900
C  41.58300 0.42200 28.86200
N  34.79300 2.17300 27.77600
C  35.79300 1.60000 27.06300
C  35.49100 1.52400 25.57900
C  33.86500 1.55800 25.64400
C  33.60900 2.12600 27.04600
C  36.06400 2.67900 24.70000
C  33.14700 0.21900 25.31500
C  31.73100 0.23900 24.68900
N  32.88800 2.68500 29.89800
C  31.93800 2.70700 28.88700
C  30.65900 2.90200 29.42800
C  30.89900 3.16000 30.83700
C  32.27000 3.03800 31.00900
C  29.33100 3.18700 28.60600
C  30.21800 3.50600 32.12600
O  29.05100 3.61500 32.41900
C  31.43500 3.54400 33.17400
C  31.35100 4.82000 33.87000
O  31.58500 5.94200 33.44700
O  31.12200 4.62500 35.14900
C  30.90900 5.81900 36.05200
H  38.30400 2.97500 33.03200
H  37.81000 1.05200 26.77900
H  31.55800 2.24200 26.79500
H  33.91700 4.19200 34.62200
H  36.50700 2.81200 34.91200
H  36.87500 5.25300 33.78500
H  37.02300 4.88200 35.51100
H  35.55000 5.58100 34.92400
H  34.45700 1.07700 34.98100
H  32.91100 1.52800 34.65800
H  33.57300 1.28200 37.24800
H  32.45500 2.62400 36.67000
H  40.07300 2.85400 32.08800
H  41.36600 2.36600 31.00400
H  40.53600 1.13200 31.97100
H  41.59800 0.34000 29.94900
H  42.12500 1.35900 28.74000
H  42.07600 -0.44200 28.41600
H  35.99900 0.63900 25.19500
H  33.50200 2.36300 25.00400
H  36.94300 3.10400 25.18300
H  35.29900 3.44000 24.54700
H  36.31500 2.24600 23.73200
H  33.07300 -0.26600 26.28800
H  33.78100 -0.46200 24.74600
H  31.81300 -0.28900 23.73900
H  31.40200 1.26500 24.52700
H  30.98200 -0.25300 25.31000
H  29.40500 2.76100 27.60600
H  29.20000 4.26900 28.58900
H  28.47800 2.89400 29.21800
H  31.13200 2.82000 33.93000
H  29.83500 5.86900 36.23000
H  31.13700 6.81000 35.65800
H  31.33600 5.55500 37.01900
Mg -11.80700 37.49600 41.85700
C  -9.31700 35.15400 40.92400
C  -9.65000 39.98700 40.62200
C  -14.33100 39.47300 42.11500
C  -13.81400 34.82100 42.95400
N  -9.72700 37.49000 40.90100
C  -8.92800 36.45400 40.60600
C  -7.65900 36.94400 39.92300
C  -7.59400 38.52800 40.15700
C  -9.05000 38.70300 40.65100
C  -6.50500 39.00100 41.13500
C  -7.66300 36.53300 38.42100
C  -6.40600 35.79500 37.84600
H  -5.90900 36.25900 36.45300
N  -12.01700 39.44300 41.41600
C  -11.02600 40.33900 40.91700
C  -11.71200 41.59000 40.74800
C  -12.99800 41.50100 41.29200
C  -13.12500 40.11500 41.64500
C  -10.99500 42.81000 40.16900
C  -14.05700 42.58400 41.27200
O  -13.77700 43.70200 40.97200
C  -15.47300 42.27900 41.63500
N  -13.86900 37.15700 42.29900
C  -14.68100 38.18800 42.38600
C  -15.98000 37.79600 43.00400
C  -15.85000 36.28200 43.33800
C  -14.44900 36.03300 42.87000
C  -16.47900 38.68500 44.17700
C  -16.85700 35.32400 42.62500
C  -17.71800 34.42400 43.54200
N  -11.62700 35.51600 41.94300
C  -12.49400 34.55800 42.50000
C  -11.95300 33.24600 42.43300
C  -10.78000 33.45100 41.74500
C  -10.53700 34.88000 41.57600
C  -12.47400 31.92500 42.91200
C  -9.47000 32.80000 41.27200
O  -9.14900 31.62800 41.24300
C  -8.60400 33.82700 40.70200
C  -7.32700 33.64600 41.40100
O  -6.46100 32.88100 41.03400
O  -7.28000 34.54100 42.47100
C  -5.98200 34.45800 43.13900
H  -9.07900 40.77100 40.12000
H  -15.25900 40.04100 42.20300
H  -14.48800 34.03400 43.30000
H  -6.85900 36.39500 40.41900
H  -7.40400 39.03500 39.21100
H  -5.58400 38.42900 41.01800
H  -6.72600 38.89500 42.19700
H  -6.28900 40.04300 40.90100
H  -8.05500 37.42900 37.94000
H  -8.47600 35.80800 38.39200
H  -6.66100 34.73600 37.88100
H  -5.51900 35.86100 38.47600
H  -11.44300 43.05500 39.20700
H  -9.92500 42.61900 40.07900
H  -11.09100 43.67100 40.83100
H  -16.00900 43.22800 41.61900
H  -15.62000 41.95500 42.66600
H  -15.95800 41.63300 40.90400
H  -16.67800 37.84800 42.16800
H  -15.61500 36.04300 44.37500
H  -17.44000 39.03800 43.80200
H  -15.76800 39.48200 44.39200
H  -16.68700 38.01700 45.01200
H  -16.29300 34.65500 41.97600
H  -17.66200 35.82700 42.09000
H  -18.77500 34.69000 43.54600
H  -17.31300 34.76500 44.49400
H  -17.47800 33.36200 43.48200
H  -11.76000 31.37500 43.52500
H  -12.79900 31.36800 42.03400
H  -13.27200 32.08400 43.63700
H  -8.47400 33.64600 39.63500
H  -5.28000 34.61200 42.32000
H  -5.87200 33.43600 43.50300
H  -6.07300 35.13700 43.98600

