158

Mg 47.33900 15.83000 27.57800
C  45.59100 15.74100 30.49400
C  49.98400 17.34400 29.19000
C  48.77400 16.55800 24.64200
C  44.39800 14.76900 25.75100
N  47.64900 16.57600 29.56600
C  46.79600 16.37800 30.65000
C  47.49300 16.69200 32.02800
C  48.82000 17.36700 31.55500
C  48.88700 17.01200 29.99500
C  48.97800 18.87800 31.81200
C  47.68100 15.46200 32.86600
C  47.27800 15.64000 34.36600
H  47.20800 17.08400 35.01000
N  49.10800 16.76300 27.03700
C  50.15000 17.18100 27.81000
C  51.37700 17.43100 27.07500
C  50.91200 17.25100 25.74700
C  49.53600 16.70900 25.73200
C  52.68900 17.67500 27.70900
C  51.81100 17.44600 24.38400
O  51.31900 17.10000 23.26900
C  53.09800 17.99700 24.35400
N  46.59400 15.73700 25.55200
C  47.42400 16.19800 24.55800
C  46.62700 16.17400 23.27500
C  45.42400 15.31800 23.55700
C  45.48500 15.23300 25.05400
C  46.30300 17.70900 22.94700
C  45.40300 13.87500 23.01800
C  44.08600 13.44900 22.33100
N  45.36400 15.28600 27.97700
C  44.29800 14.82000 27.15800
C  43.21200 14.43500 28.01500
C  43.64500 14.74900 29.36800
C  44.98300 15.26900 29.22600
C  41.93700 13.62900 27.62700
C  43.30500 14.70100 30.76900
O  42.32900 14.28700 31.35200
C  44.54100 15.28700 31.52100
C  44.02100 16.42000 32.34900
O  43.76300 17.50000 31.94700
O  43.67800 15.95000 33.63100
C  42.68300 16.77000 34.31600
H  50.80300 17.79100 29.75800
H  49.14200 16.72300 23.62700
H  43.49600 14.45200 25.22300
H  46.87800 17.46600 32.48700
H  49.64100 16.77500 31.96000
H  49.10800 19.46100 30.90000
H  49.88500 19.04800 32.39200
H  48.16000 19.19500 32.45800
H  48.74400 15.22000 32.86600
H  47.12300 14.65600 32.38800
H  47.92200 14.98700 34.95600
H  46.27200 15.22200 34.39300
H  53.37500 16.90600 27.35400
H  52.51800 17.45200 28.76300
H  52.92600 18.72100 27.51900
H  53.04100 18.77300 23.59100
H  53.76500 17.19200 24.04700
H  53.40500 18.44300 25.30100
H  47.25400 15.70100 22.51900
H  44.53400 15.90700 23.33300
H  47.21000 18.20100 22.59700
H  45.97800 18.26800 23.82500
H  45.50900 17.69100 22.20100
H  45.71700 13.09200 23.70900
H  46.12800 13.61500 22.24700
H  43.35100 14.25300 22.36600
H  43.75000 12.47900 22.69700
H  44.27600 13.24000 21.27800
H  41.04700 14.24900 27.52200
H  41.64600 12.76000 28.21700
H  42.29400 13.20900 26.68700
H  44.96500 14.43600 32.05400
H  41.78800 16.99100 33.73400
H  43.15300 17.63700 34.78100
H  42.26100 16.16400 35.11800
Mg 30.55800 57.34600 40.83000
C  27.87700 55.78700 39.33100
C  32.59300 55.14600 39.21600
C  33.07100 59.41500 41.51200
C  28.24600 59.92800 41.79300
N  30.21500 55.76500 39.33700
C  29.04700 55.17500 38.97500
C  29.20300 54.09400 37.90500
C  30.73500 53.66900 38.23100
C  31.19100 54.93400 38.96600
C  30.80000 52.34600 39.04800
C  29.04700 54.62300 36.43000
C  28.61100 53.59600 35.38100
H  27.82500 54.05000 34.16500
N  32.59600 57.28600 40.52300
C  33.22200 56.25300 39.93100
C  34.60600 56.31600 40.19200
C  34.85500 57.65600 40.67600
C  33.50600 58.19700 41.00700
C  35.57000 55.36400 39.58800
C  36.24300 58.32400 40.90400
O  37.24500 57.75700 40.56900
C  36.37100 59.57800 41.67200
N  30.61400 59.36000 41.60200
C  31.76100 59.90600 41.80900
C  31.63700 61.29700 42.53200
C  30.06600 61.35400 42.80000
C  29.61000 60.12600 41.99900
C  32.56600 61.67000 43.72600
C  29.37600 62.75700 42.51200
C  28.19300 63.22400 43.41400
N  28.42400 57.74400 40.84500
C  27.64400 58.79200 41.22700
C  26.26300 58.58900 40.91100
C  26.30700 57.39700 40.18400
C  27.62200 56.90200 40.19100
C  25.09100 59.49400 41.24300
C  25.46400 56.45800 39.47200
O  24.24900 56.55300 39.25900
C  26.47000 55.35300 38.86500
C  26.10100 54.05000 39.46100
O  26.82700 53.33800 40.10900
O  24.96900 53.65200 38.88500
C  24.47700 52.28100 39.00200
H  33.22800 54.28600 38.99500
H  33.82300 60.13400 41.84500
H  27.45600 60.63400 42.05700
H  28.53600 53.26000 38.12200
H  31.28800 53.62500 37.29400
H  31.79300 52.21300 39.47900
H  30.51100 51.55900 38.35100
H  30.01300 52.27200 39.79900
H  30.03300 54.95300 36.10000
H  28.41000 55.50600 36.45900
H  28.03100 52.79000 35.83000
H  29.46500 53.10700 34.91000
H  35.48000 55.55100 38.51800
H  35.33200 54.31900 39.78600
H  36.61500 55.54200 39.84600
H  37.40100 59.91400 41.79400
H  36.02000 59.46500 42.69800
H  35.69400 60.29900 41.21200
H  31.87000 62.08200 41.81300
H  29.93700 61.05400 43.84000
H  32.01900 62.06100 44.58400
H  33.32900 62.39800 43.44900
H  33.27100 60.89400 44.02300
H  29.04100 62.65700 41.48000
H  30.14200 63.52200 42.64300
H  27.75400 62.30200 43.79700
H  27.45700 63.79600 42.84800
H  28.53300 63.67700 44.34500
H  25.22000 60.06000 42.16600
H  24.18900 58.88900 41.14800
H  24.97900 60.21000 40.42900
H  26.38800 55.50800 37.78900
H  24.94800 51.73900 39.82200
H  24.32900 51.82400 38.02300
H  23.47100 52.49100 39.36700

