158

Mg 17.49000 -1.40700 28.20900
C  16.22000 0.63500 30.84300
C  19.38300 -3.07200 30.51900
C  19.09900 -2.73100 25.67500
C  15.63400 0.69600 26.06400
N  17.67400 -1.22200 30.45900
C  17.08000 -0.36000 31.31400
C  17.47700 -0.74300 32.78600
C  18.72700 -1.69600 32.59600
C  18.60700 -2.02100 31.09600
C  20.10800 -0.97500 32.92600
C  16.26700 -1.33000 33.53100
C  15.94200 -0.65800 34.95000
H  17.17600 -0.05500 35.63000
N  18.96100 -2.73600 28.08000
C  19.56900 -3.39200 29.14200
C  20.32100 -4.55600 28.69500
C  20.23700 -4.49600 27.24100
C  19.42000 -3.27400 26.91000
C  21.07700 -5.47400 29.59600
C  21.06700 -5.29900 26.18200
O  20.94800 -5.20400 24.94600
C  22.02100 -6.38500 26.65700
N  17.50800 -1.03400 26.17100
C  18.23400 -1.70000 25.31700
C  18.13400 -1.12200 23.96100
C  16.89000 -0.15900 23.98600
C  16.69400 -0.08200 25.55600
C  19.33600 -0.46800 23.33100
C  15.58200 -0.71100 23.29300
C  14.94800 0.21000 22.27700
N  16.16200 0.26400 28.34700
C  15.40100 0.94500 27.39500
C  14.44000 1.87700 28.01300
C  14.69800 1.64300 29.39800
C  15.80300 0.76200 29.52800
C  13.60600 2.91600 27.38500
C  14.30800 2.10000 30.70400
O  13.39300 2.87500 30.95200
C  15.36900 1.51000 31.66600
C  16.15300 2.54100 32.34200
O  17.37400 2.69400 32.29300
O  15.34000 3.15200 33.28800
C  15.98300 3.99100 34.27400
H  19.97600 -3.64200 31.23800
H  19.57800 -3.35900 24.92000
H  15.17900 1.43000 25.39600
H  17.74600 0.18900 33.28500
H  18.54400 -2.55100 33.24700
H  20.66400 -1.59000 33.63400
H  20.08300 0.05500 33.28300
H  20.74100 -0.79700 32.05700
H  16.24400 -2.41900 33.49400
H  15.42700 -1.07500 32.88500
H  15.44200 -1.35800 35.62000
H  15.24800 0.13900 34.68300
H  20.88800 -6.46800 29.19100
H  20.58300 -5.43900 30.56700
H  22.08200 -5.07500 29.72800
H  22.13400 -7.13700 25.87700
H  21.70100 -7.01800 27.48400
H  22.99300 -5.91800 26.81400
H  17.92100 -2.04300 23.41900
H  17.10900 0.80300 23.52100
H  19.44600 0.53100 23.75200
H  19.31600 -0.39100 22.24400
H  20.20000 -1.04500 23.65900
H  14.87800 -1.04800 24.05300
H  15.74800 -1.65500 22.77300
H  14.93300 -0.26100 21.29400
H  15.42500 1.18900 22.30100
H  13.90900 0.38200 22.55800
H  12.57400 2.64200 27.60600
H  13.72300 3.15000 26.32700
H  13.67300 3.87400 27.90000
H  14.75200 1.11100 32.47200
H  16.27900 4.93400 33.81500
H  16.84500 3.52500 34.75200
H  15.20000 4.25100 34.98700
Mg 45.45200 3.61400 48.12600
C  43.59600 6.47900 47.35400
C  42.57800 1.69500 47.31900
C  47.41800 0.79200 47.89800
C  48.28600 5.50200 48.15500
N  43.22100 4.11800 47.64200
C  42.73200 5.33600 47.31000
C  41.15900 5.24900 46.98100
C  40.88500 3.72200 47.29400
C  42.31100 3.12400 47.41300
C  40.10300 3.47000 48.58100
C  40.75400 5.65500 45.50600
C  39.59200 6.62800 45.27700
H  38.70000 6.35800 43.99800
N  45.03400 1.54600 47.68800
C  43.84300 0.97200 47.36800
C  43.94200 -0.49800 47.25000
C  45.33600 -0.82200 47.52100
C  46.02800 0.54100 47.74400
C  42.75300 -1.36700 46.93400
C  45.93400 -2.22400 47.49500
O  45.21700 -3.19200 47.26100
C  47.42300 -2.48600 47.68200
N  47.55200 3.15400 48.23000
C  48.11100 1.96000 48.04300
C  49.62300 2.06200 48.24900
C  49.90100 3.61500 48.10300
C  48.49300 4.10800 48.27400
C  49.99000 1.41900 49.57300
C  50.57300 4.05100 46.75200
C  51.93400 4.70700 46.76800
N  45.90800 5.61400 47.89300
C  47.05200 6.29300 47.98100
C  46.89100 7.67200 47.56600
C  45.52000 7.77400 47.32200
C  44.98700 6.55700 47.61000
C  48.00300 8.71400 47.56700
C  44.40900 8.66000 46.98200
O  44.36700 9.91500 46.81300
C  43.11000 7.83000 46.91800
C  42.13600 8.44500 47.88200
O  41.86800 8.03400 49.01900
O  41.51200 9.47100 47.18900
C  40.53600 10.36100 47.91000
H  41.75300 1.05000 47.00900
H  48.12600 -0.03700 47.83600
H  49.07500 6.23700 47.97600
H  40.62700 5.92400 47.65100
H  40.36200 3.23400 46.47100
H  39.64800 4.39800 48.92700
H  40.74100 3.01200 49.33700
H  39.19400 2.88700 48.44100
H  40.40400 4.76400 44.98400
H  41.68800 5.94000 45.02300
H  39.93900 7.65400 45.15900
H  38.96200 6.44600 46.14800
H  42.82400 -1.64400 45.88200
H  41.79000 -0.89300 47.12300
H  42.96000 -2.20800 47.59600
H  48.04400 -2.36700 46.79400
H  47.33600 -3.54900 47.90400
H  47.66800 -1.94900 48.59800
H  50.12900 1.43300 47.51600
H  50.45200 4.06600 48.92800
H  50.72100 2.04400 50.08500
H  50.45900 0.46100 49.34900
H  49.09700 1.23500 50.17100
H  49.92700 4.71700 46.18100
H  50.67600 3.19500 46.08400
H  52.63800 4.07900 46.22300
H  52.34100 4.81300 47.77300
H  51.86900 5.65800 46.23800
H  47.92200 9.57800 46.90800
H  49.04500 8.40300 47.63900
H  47.90900 9.10700 48.58000
H  42.63600 7.87100 45.93800
H  39.97300 9.83300 48.68000
H  39.83600 10.71200 47.15100
H  41.02200 11.27000 48.26300

