158

Mg 52.74800 23.90300 44.76200
C  49.77800 25.85800 44.01200
C  51.11900 21.10500 43.86000
C  55.67400 22.36800 44.76600
C  54.23900 26.93000 45.56900
N  50.64300 23.62500 43.83900
C  49.58400 24.47600 43.73500
C  48.23800 23.67200 43.47200
C  48.67000 22.19500 43.64200
C  50.22400 22.25800 43.86500
C  47.99900 21.40700 44.79800
C  47.66500 24.00000 42.10700
C  48.69600 23.81500 40.87900
H  48.03700 23.25700 39.54200
N  53.36800 22.01000 44.27900
C  52.57300 20.98400 43.89500
C  53.32200 19.76800 43.72000
C  54.74300 20.13800 43.88900
C  54.70200 21.53800 44.34200
C  52.62900 18.52200 43.28600
C  55.95000 19.18700 43.70900
O  55.73400 18.00000 43.50800
C  57.37700 19.58900 43.79400
N  54.73900 24.58800 45.15100
C  55.80100 23.75200 45.04500
C  57.09600 24.52600 45.13100
C  56.68400 26.00900 45.50700
C  55.13000 25.88900 45.37300
C  58.17900 23.85900 46.08700
C  57.22500 27.17300 44.58000
C  58.25500 28.20400 45.13100
N  52.16000 25.93700 44.96500
C  52.85000 27.02800 45.38600
C  52.04800 28.26200 45.48700
C  50.80300 27.79200 44.93900
C  50.94900 26.37300 44.59500
C  52.42300 29.59500 45.91300
C  49.51700 28.23200 44.57900
O  48.95400 29.34600 44.62200
C  48.75400 26.96800 43.99700
C  48.35200 27.33100 42.58300
O  49.13100 27.31000 41.59500
O  47.01400 27.68800 42.50800
C  46.52200 27.88400 41.18900
H  50.59200 20.14900 43.89300
H  56.68000 21.95900 44.65100
H  54.71300 27.89000 45.78700
H  47.52700 23.88800 44.27000
H  48.39800 21.64200 42.74300
H  48.66100 20.62300 45.16500
H  47.12100 20.92800 44.36500
H  47.75900 22.09900 45.60500
H  47.00900 24.86900 42.06600
H  46.87000 23.26100 42.01300
H  49.43100 23.04500 41.11000
H  49.21700 24.75800 40.70900
H  51.55500 18.60900 43.12300
H  52.80000 17.70900 43.99200
H  53.07800 18.12600 42.37600
H  57.59400 20.28400 42.98300
H  57.94200 18.67300 43.62100
H  57.67000 20.00200 44.75900
H  57.56900 24.64200 44.15600
H  56.91800 26.09100 46.56800
H  57.85800 22.88400 46.45300
H  58.46400 24.47100 46.94300
H  59.01400 23.77900 45.39100
H  56.39200 27.78000 44.22200
H  57.65800 26.75700 43.67000
H  58.87700 27.72000 45.88500
H  57.74900 29.11200 45.45900
H  58.71100 28.53800 44.19900
H  52.79300 30.31900 45.18700
H  53.06900 29.41700 46.77200
H  51.49600 29.99100 46.32800
H  47.89100 26.72600 44.61700
H  46.79900 27.17600 40.40800
H  46.91700 28.83100 40.82200
H  45.43700 27.95500 41.26200
Mg -8.81100 18.18200 43.35600
C  -5.35300 17.65100 43.30800
C  -8.28100 21.43100 42.54200
C  -12.03600 18.43200 42.63300
C  -9.17400 14.53000 43.70000
N  -7.01200 19.28400 42.71700
C  -5.69900 18.87000 42.79200
C  -4.72500 20.09400 42.68200
C  -5.72900 21.25800 42.83300
C  -7.09200 20.64500 42.58500
C  -5.68100 22.01000 44.22300
C  -3.94300 20.08600 41.38000
C  -4.31700 19.12500 40.16400
H  -3.79000 19.47600 38.71500
N  -10.02400 19.71400 42.83200
C  -9.62300 20.97600 42.57500
C  -10.77500 21.80900 42.28200
C  -11.84700 20.99900 42.08200
C  -11.37300 19.66100 42.51900
C  -10.66700 23.30700 42.11600
C  -13.18800 21.34900 41.63800
O  -13.41100 22.54700 41.46800
C  -14.33700 20.40900 41.46900
N  -10.44500 16.63100 43.18300
C  -11.69500 17.08400 42.96000
C  -12.60700 15.86900 43.14700
C  -11.74800 14.55400 43.34900
C  -10.36800 15.30200 43.41600
C  -13.64000 16.10400 44.23900
C  -11.72700 13.48000 42.15900
C  -11.85600 12.04900 42.66900
N  -7.54200 16.48300 43.49200
C  -7.84900 15.07700 43.77400
C  -6.59700 14.39800 44.03100
C  -5.57000 15.36700 43.77800
C  -6.20300 16.62800 43.55200
C  -6.48800 12.91700 44.32800
C  -4.16700 15.59300 43.78200
O  -3.24100 14.85400 43.96000
C  -3.94800 17.15900 43.57700
C  -3.20200 17.89100 44.64100
O  -2.02700 18.28500 44.54500
O  -4.00300 18.09100 45.77700
C  -3.65400 19.23600 46.59900
H  -7.96000 22.46600 42.40700
H  -13.08400 18.60700 42.37800
H  -9.25700 13.49300 44.03100
H  -4.02100 20.13600 43.51200
H  -5.63400 21.98200 42.02300
H  -6.53000 22.64400 44.47800
H  -4.82900 22.68600 44.16500
H  -5.56300 21.29200 45.03500
H  -2.92400 19.82700 41.66800
H  -3.74000 21.08200 40.98800
H  -5.39900 19.00200 40.12400
H  -3.88400 18.13700 40.31800
H  -11.12500 23.57300 41.16400
H  -9.61500 23.59400 42.13700
H  -11.32900 23.75300 42.85800
H  -14.65100 20.04600 42.44800
H  -14.17200 19.54800 40.82100
H  -15.19000 20.99900 41.13600
H  -13.16600 15.71900 42.22300
H  -11.89100 14.15900 44.35500
H  -13.16300 16.09400 45.21900
H  -14.34300 15.27200 44.23400
H  -14.34300 16.92100 44.07500
H  -10.82700 13.54300 41.54800
H  -12.56100 13.68100 41.48600
H  -12.84200 11.67800 42.39200
H  -11.84500 11.89000 43.74700
H  -11.10700 11.43300 42.17100
H  -5.58100 12.77200 44.91600
H  -6.28700 12.40500 43.38700
H  -7.35400 12.51500 44.85400
H  -3.41600 17.24100 42.63000
H  -3.35200 20.13700 46.06400
H  -2.78000 18.99000 47.20100
H  -4.52000 19.46700 47.21800

