158

Mg 41.79000 8.26500 29.48300
C  43.54900 9.29200 32.21800
C  39.59100 6.56000 31.65400
C  39.85000 7.23900 26.88500
C  44.03500 9.52800 27.38400
N  41.73700 7.82800 31.67400
C  42.48300 8.49400 32.59400
C  41.91300 8.28200 34.03600
C  40.76300 7.17900 33.76900
C  40.68800 7.18500 32.25200
C  40.90700 5.78400 34.40700
C  41.47500 9.62500 34.72800
C  40.70000 9.67400 36.10300
H  41.27500 10.47900 37.27200
N  39.83700 7.11400 29.27200
C  39.09600 6.50000 30.28700
C  37.83200 6.11300 29.77100
C  37.90300 6.30800 28.32900
C  39.24600 6.86100 28.13800
C  36.76100 5.56500 30.74400
C  36.80200 6.12800 27.24300
O  36.92600 6.34000 26.08300
C  35.34500 5.71200 27.71600
N  42.09900 8.10300 27.51000
C  41.14800 7.67100 26.57000
C  41.60100 7.72300 25.17500
C  42.68800 8.78400 25.25300
C  42.99700 8.80600 26.80800
C  42.22400 6.35600 24.88200
C  42.18000 10.14700 24.70900
C  43.14300 10.87200 23.75500
N  43.59500 9.10000 29.69800
C  44.42000 9.63400 28.76600
C  45.57600 10.22500 29.37200
C  45.23500 10.15700 30.76900
C  44.03100 9.45400 30.87400
C  46.85900 10.85100 28.74300
C  45.62200 10.58300 32.13100
O  46.56600 11.24300 32.49600
C  44.47300 10.06400 33.13100
C  45.07200 9.29900 34.24500
O  45.70200 8.28200 34.14700
O  44.75600 9.80600 35.44000
C  45.19000 9.11600 36.60700
H  38.90700 6.18000 32.41600
H  39.25100 6.97900 26.01000
H  44.67000 10.00000 26.63100
H  42.80600 7.86600 34.50300
H  39.80200 7.58900 34.07900
H  41.73400 5.76200 35.11800
H  41.13200 5.01300 33.67100
H  39.98400 5.56800 34.94400
H  41.01700 10.28600 33.99300
H  42.41900 10.14500 34.89300
H  40.42800 8.68600 36.47300
H  39.76900 10.15600 35.80500
H  37.00800 5.50700 31.80400
H  36.36600 4.57600 30.51100
H  35.91500 6.22500 30.55200
H  34.91800 6.65000 28.07100
H  35.44800 4.93900 28.47800
H  34.80500 5.35400 26.83900
H  40.82800 7.82400 24.41200
H  43.58000 8.64200 24.64300
H  43.29500 6.46300 24.71200
H  41.96600 6.03600 23.87300
H  41.98200 5.56600 25.59300
H  41.98000 10.82700 25.53700
H  41.25500 10.09200 24.13500
H  44.05000 10.28700 23.59800
H  43.42900 11.83600 24.17500
H  42.70300 11.08000 22.78000
H  47.14200 11.75900 29.27500
H  46.77900 10.99300 27.66500
H  47.63500 10.13800 29.02000
H  43.95200 10.95000 33.49400
H  46.21800 9.46800 36.68400
H  45.11500 8.02800 36.57900
H  44.58700 9.47000 37.44300
Mg 5.73300 54.63900 40.93000
C  5.25900 51.22200 41.21900
C  8.81000 54.15600 39.76400
C  5.74200 57.89300 39.93100
C  2.27400 55.06700 41.89700
N  6.78100 52.81600 40.18400
C  6.48100 51.54100 40.55200
C  7.62900 50.66200 40.04900
C  8.81300 51.57600 40.29300
C  8.12500 52.96000 40.16000
C  9.62700 51.40200 41.61400
C  7.49800 50.19400 38.50200
C  6.51600 50.96100 37.50000
H  7.10300 51.88800 36.42900
N  7.11900 55.90600 40.02900
C  8.39600 55.47400 39.59500
C  9.01700 56.58600 38.81500
C  8.00400 57.64000 38.73400
C  6.88800 57.19600 39.62600
C  10.31400 56.57800 38.16900
C  8.15400 58.96300 37.87700
O  9.17700 59.21200 37.28400
C  7.16800 60.06900 37.96500
N  4.26200 56.34400 41.00900
C  4.54100 57.55800 40.59700
C  3.39600 58.49400 40.86800
C  2.40900 57.63700 41.63400
C  2.95000 56.26000 41.51800
C  3.68800 59.91200 41.45900
C  0.91100 57.73900 41.03700
C  0.14000 59.14800 41.08700
N  4.02100 53.42200 41.49800
C  2.76800 53.72800 41.84900
C  2.07100 52.43400 42.08600
C  3.05800 51.46000 41.93900
C  4.21400 52.09000 41.46700
C  0.64400 52.19700 42.57900
C  3.25600 50.07500 42.12100
O  2.50400 49.20800 42.53900
C  4.64000 49.80500 41.47100
C  4.45100 49.15900 40.15200
O  3.57400 49.40700 39.33200
O  5.32500 48.10100 40.13300
C  5.03900 47.07000 39.12300
H  9.87400 54.05000 39.54200
H  5.67800 58.93400 39.60800
H  1.29100 55.31000 42.30800
H  7.69700 49.74900 40.64100
H  9.58900 51.44900 39.53800
H  9.55400 52.22300 42.32700
H  10.67000 51.19900 41.37100
H  9.26300 50.52200 42.14300
H  7.22400 49.13900 38.46700
H  8.52000 50.27000 38.13100
H  5.76900 51.52600 38.05700
H  5.88900 50.20400 37.02900
H  10.92400 57.31900 38.68700
H  10.24900 56.86100 37.11800
H  10.73200 55.57400 38.24700
H  6.29700 59.66700 37.44700
H  7.63200 60.89400 37.42400
H  7.00200 60.52600 38.94100
H  2.83600 58.73400 39.96400
H  2.29400 57.91200 42.68200
H  3.19800 60.00700 42.42700
H  3.19100 60.63800 40.81500
H  4.77500 59.99000 41.49500
H  0.30900 56.97200 41.52500
H  0.93600 57.37900 40.00800
H  -0.93200 59.02900 40.93000
H  0.60600 59.85400 40.39900
H  0.35400 59.46300 42.10800
H  0.75600 51.74300 43.56400
H  0.10200 51.54000 41.89900
H  0.04600 53.09200 42.75100
H  5.31800 49.22200 42.09400
H  5.45800 46.10700 39.41400
H  5.61300 47.34700 38.23800
H  3.96500 46.99200 38.95400

