158

Mg 43.37300 41.30800 26.27800
C  42.59500 43.84200 28.60500
C  44.31200 39.36600 28.95300
C  44.19100 39.08000 23.97700
C  42.80100 43.60900 23.69200
N  43.45200 41.64000 28.58400
C  43.10700 42.68900 29.26300
C  43.24400 42.50500 30.77500
C  44.03400 41.12700 30.83400
C  43.88300 40.65800 29.35900
C  45.47000 41.14500 31.34100
C  41.82400 42.33300 31.45100
C  41.69300 41.99800 32.94200
H  41.29000 43.10500 33.89500
N  44.10300 39.49800 26.46300
C  44.35900 38.81700 27.66200
C  44.66000 37.45500 27.35100
C  44.72500 37.31600 25.91100
C  44.39100 38.68700 25.34900
C  45.03200 36.36200 28.43000
C  45.01900 36.00700 25.01200
O  44.94200 36.09000 23.79100
C  45.23500 34.79800 25.72900
N  43.54700 41.42100 24.16100
C  43.87100 40.28200 23.45400
C  43.80000 40.48400 21.84300
C  42.96200 41.79000 21.88300
C  43.08700 42.33600 23.32200
C  45.16600 40.67200 21.27700
C  41.65000 41.55700 21.20100
C  41.37100 42.27900 19.88400
N  42.81800 43.34000 26.11800
C  42.70600 44.16900 25.01400
C  42.12400 45.43900 25.43100
C  42.11400 45.35700 26.81000
C  42.57600 44.04800 27.18400
C  41.90900 46.60500 24.52800
C  41.74700 46.05400 28.04700
O  41.30800 47.24900 28.17300
C  42.03400 45.09200 29.27000
C  43.08400 45.74800 30.07300
O  44.27400 45.82700 29.80800
O  42.44800 46.36400 31.18800
C  43.36300 47.09200 32.03800
H  44.62000 38.66700 29.73300
H  44.38100 38.25200 23.29100
H  42.40000 44.32500 22.97100
H  43.82300 43.27200 31.28800
H  43.49700 40.36000 31.39100
H  46.14700 40.83700 30.54400
H  45.64200 40.55800 32.24300
H  45.62400 42.20400 31.54800
H  41.24100 41.60800 30.88300
H  41.37800 43.30200 31.23000
H  42.69400 41.90300 33.36400
H  41.03900 41.12800 33.00600
H  44.87200 36.65600 29.46700
H  46.08700 36.12200 28.30000
H  44.39300 35.48500 28.33200
H  44.36100 34.56800 26.33800
H  46.16200 35.00700 26.26100
H  45.42400 33.98900 25.02200
H  43.28800 39.64500 21.37200
H  43.53600 42.45500 21.23900
H  45.33400 41.66200 20.85400
H  45.31400 39.94600 20.47700
H  45.82600 40.53900 22.13400
H  40.88300 41.87000 21.91000
H  41.32400 40.54900 20.94400
H  40.69500 41.78200 19.18900
H  42.26700 42.28700 19.26200
H  40.90600 43.23200 20.13700
H  42.77300 46.91500 23.94000
H  41.50300 47.43300 25.10800
H  41.10300 46.26600 23.87700
H  41.16600 45.07600 29.92900
H  43.10800 48.13400 31.85000
H  44.44600 47.11100 31.91700
H  43.27400 46.88300 33.10400
Mg -12.35700 38.19200 43.64000
C  -10.34100 35.66200 42.05800
C  -10.33400 40.50400 42.18700
C  -14.58200 40.43100 44.54100
C  -14.70700 35.56900 44.28000
N  -10.56100 38.05200 42.24000
C  -9.82200 36.96700 41.74400
C  -8.57000 37.36400 41.09700
C  -8.52300 38.92100 41.31000
C  -9.85200 39.19300 41.98300
C  -7.27900 39.47500 42.03600
C  -8.41600 36.94000 39.58000
C  -6.89500 36.78000 39.13900
H  -6.38800 35.64400 38.22300
N  -12.48900 40.19600 43.36300
C  -11.55200 40.93700 42.80700
C  -11.88400 42.35500 42.91500
C  -13.06800 42.38800 43.65600
C  -13.43200 40.97400 43.90100
C  -11.05000 43.49100 42.34600
C  -13.85700 43.63800 43.98800
O  -13.36500 44.75900 43.80800
C  -15.28300 43.43400 44.32100
N  -14.34400 38.04100 44.36800
C  -15.05900 39.14000 44.69500
C  -16.31900 38.77000 45.53000
C  -16.48700 37.23900 45.20000
C  -15.10800 36.95500 44.59400
C  -16.16700 38.98000 47.10000
C  -17.55500 36.81300 44.21600
C  -18.94400 36.90300 44.75800
N  -12.51200 36.02300 43.37300
C  -13.49900 35.13600 43.67800
C  -13.12900 33.83800 43.36800
C  -11.85100 33.91600 42.68700
C  -11.56300 35.36500 42.72200
C  -13.81200 32.57900 43.69500
C  -10.84000 33.20200 42.03000
O  -10.57300 32.05000 41.92200
C  -9.79100 34.33600 41.60100
C  -8.47700 33.97800 42.34900
O  -8.32100 33.93400 43.55600
O  -7.58800 33.57700 41.41300
C  -6.35200 32.97500 41.94900
H  -9.60600 41.16500 41.71300
H  -15.25400 41.18600 44.95300
H  -15.45500 34.82600 44.56300
H  -7.76800 36.94200 41.70200
H  -8.63900 39.60200 40.46600
H  -7.52400 39.86300 43.02500
H  -6.86200 40.30300 41.46300
H  -6.59500 38.66400 42.28600
H  -8.86300 37.75300 39.00700
H  -8.87800 35.96700 39.41300
H  -6.20200 36.66000 39.97200
H  -6.62300 37.70200 38.62500
H  -10.91400 44.24700 43.11900
H  -11.59500 43.91800 41.50500
H  -10.06100 43.30000 41.92900
H  -15.83800 42.65300 43.80100
H  -15.72300 44.38000 44.00700
H  -15.42700 43.43300 45.40100
H  -17.21200 39.27400 45.16000
H  -16.51600 36.70100 46.14700
H  -17.06800 39.42200 47.52500
H  -15.45000 39.80100 47.11200
H  -15.69100 38.19400 47.68700
H  -17.41700 35.75600 43.99000
H  -17.50700 37.40700 43.30300
H  -19.42700 35.98200 45.08600
H  -19.50800 37.52700 44.06500
H  -19.00100 37.41200 45.72100
H  -14.01600 32.56000 44.76600
H  -13.08600 31.77300 43.59100
H  -14.76200 32.31600 43.23100
H  -9.51900 34.25600 40.54800
H  -6.43100 31.88900 41.99800
H  -6.02300 33.42400 42.88600
H  -5.64600 33.28000 41.17700

