158

Mg 23.93900 -6.71600 47.05100
C  26.51600 -4.59300 45.93600
C  21.86300 -5.29400 44.63700
C  21.73300 -9.33600 47.31000
C  26.35500 -8.48500 48.75300
N  24.18300 -4.98700 45.55400
C  25.34500 -4.30700 45.28800
C  25.11400 -3.39000 44.07900
C  23.55100 -3.60300 43.70100
C  23.13700 -4.70100 44.69200
C  22.72800 -2.28700 43.73200
C  26.11400 -3.67800 42.87200
C  27.11000 -2.48700 42.54300
H  27.05900 -1.78500 41.23300
N  22.06100 -7.17600 46.20200
C  21.35900 -6.39600 45.33600
C  20.02000 -6.98200 45.03400
C  19.97500 -8.18400 45.79700
C  21.24600 -8.26400 46.54600
C  19.01200 -6.30800 44.08200
C  18.71900 -9.08700 45.91900
O  17.62700 -8.87800 45.40700
C  18.80300 -10.37600 46.77400
N  24.00000 -8.65600 47.76400
C  22.98500 -9.50700 47.93300
C  23.31100 -10.73300 48.87500
C  24.83500 -10.41700 49.32500
C  25.08000 -9.05300 48.62600
C  22.30100 -10.81200 50.07100
C  25.75200 -11.62300 49.03100
C  26.68700 -12.14300 50.19300
N  25.96600 -6.57200 47.44800
C  26.83300 -7.33700 48.20000
C  28.12200 -6.71800 48.23700
C  28.03300 -5.67100 47.33900
C  26.74200 -5.61500 46.88900
C  29.37600 -7.07700 49.05100
C  28.76200 -4.52900 46.77800
O  29.89000 -4.09500 46.98500
C  27.82800 -3.74000 45.77400
C  27.60400 -2.38200 46.41000
O  26.82400 -2.10700 47.33100
O  28.28500 -1.38600 45.78400
C  27.88600 0.05100 46.12000
H  21.17000 -4.75100 43.99100
H  21.07200 -10.14800 47.62100
H  27.03800 -8.94700 49.46900
H  25.21900 -2.33200 44.32400
H  23.37100 -3.99500 42.70000
H  23.40100 -1.49100 43.41500
H  22.43400 -2.20300 44.77900
H  21.92300 -2.42300 43.00900
H  25.70400 -3.97100 41.90600
H  26.72500 -4.54500 43.12600
H  28.12900 -2.86100 42.63800
H  27.02500 -1.81500 43.39700
H  19.15100 -5.22800 44.02100
H  17.96800 -6.46600 44.35200
H  19.16900 -6.90500 43.18300
H  18.95400 -10.08200 47.81300
H  19.66700 -10.88300 46.34400
H  17.91700 -11.01100 46.75100
H  23.25500 -11.65000 48.28800
H  24.83900 -10.06000 50.35500
H  21.52800 -10.04400 50.07400
H  22.80700 -10.75000 51.03500
H  21.76700 -11.76100 50.01000
H  26.47900 -11.34700 48.26800
H  25.16500 -12.46700 48.66800
H  27.63000 -11.59700 50.21000
H  26.74200 -13.23000 50.24900
H  26.13600 -11.77100 51.05800
H  30.02400 -6.20300 49.11100
H  29.69700 -7.95100 48.48500
H  29.15900 -7.48900 50.03600
H  28.19200 -3.70200 44.74700
H  27.99900 0.59200 45.18000
H  28.54000 0.49200 46.87200
H  26.85700 0.29900 46.38100
Mg 40.90900 9.01900 29.62600
C  42.74200 10.40100 32.22300
C  38.92100 7.47400 31.97000
C  39.44900 7.38800 27.02300
C  43.61600 9.88200 27.45000
N  40.92900 8.87800 31.94400
C  41.55800 9.68800 32.72800
C  41.04400 9.60000 34.22200
C  40.00000 8.44700 34.11400
C  39.93400 8.25500 32.54200
C  40.45400 7.06700 34.74300
C  40.54800 11.00500 34.64100
C  39.72000 11.10100 35.94300
H  40.13900 12.08200 37.12800
N  39.31100 7.72300 29.53900
C  38.58200 7.22700 30.61200
C  37.39500 6.67200 30.07900
C  37.53100 6.56200 28.67800
C  38.80200 7.20800 28.35200
C  36.27300 6.22200 30.96100
C  36.61100 5.92600 27.63500
O  36.86000 5.83400 26.46100
C  35.28200 5.23200 27.99300
N  41.49500 8.59700 27.45100
C  40.64400 7.98900 26.61200
C  41.32800 7.95700 25.18000
C  42.51300 8.96400 25.30000
C  42.58200 9.12100 26.81300
C  41.68300 6.57400 24.72900
C  42.18500 10.23500 24.47300
C  41.32200 11.36200 25.19200
N  42.73700 10.00100 29.71800
C  43.72100 10.25200 28.78000
C  44.75600 11.00000 29.38600
C  44.44700 11.06100 30.74600
C  43.17700 10.48600 30.87400
C  46.08500 11.35700 28.81900
C  44.91400 11.52300 32.04000
O  45.96700 11.97000 32.46100
C  43.75600 11.15400 33.08100
C  44.40200 10.35100 34.11600
O  44.86700 9.21300 33.97900
O  44.27400 11.05600 35.25700
C  44.37200 10.28100 36.47900
H  38.33200 7.06100 32.79200
H  38.91500 7.00700 26.15000
H  44.40000 10.27700 26.80100
H  41.81900 9.26800 34.91400
H  39.07400 8.74700 34.60500
H  41.47500 7.26600 35.07000
H  40.38600 6.27000 34.00200
H  39.73700 6.85100 35.53500
H  40.15700 11.53300 33.77100
H  41.48700 11.50700 34.87500
H  39.73600 10.15100 36.47700
H  38.68000 11.34300 35.72000
H  36.34600 5.15000 31.14400
H  35.37200 6.46000 30.39700
H  36.23600 6.74500 31.91700
H  34.98800 4.64300 27.12400
H  34.59800 5.93000 28.47500
H  35.59000 4.57300 28.80500
H  40.70900 8.30500 24.35300
H  43.50800 8.62000 25.01900
H  41.16700 5.71500 25.15800
H  42.77000 6.55900 24.81400
H  41.58600 6.53600 23.64400
H  41.78200 9.93800 23.50400
H  43.18800 10.61400 24.27700
H  41.78100 12.34800 25.27000
H  41.02000 11.05400 26.19300
H  40.42000 11.45500 24.58800
H  46.26000 12.42900 28.90800
H  46.25900 11.06400 27.78400
H  46.84300 10.81000 29.37900
H  43.33900 12.07600 33.48600
H  43.60700 10.77200 37.08100
H  45.39100 10.42600 36.83700
H  43.93900 9.29400 36.32000

