158

Mg 45.51700 3.68700 47.48800
C  43.21800 6.16600 46.88200
C  43.02700 1.32900 47.01900
C  47.92100 1.32400 46.98000
C  48.05200 6.04900 47.19700
N  43.43400 3.76500 46.83700
C  42.62300 4.92100 46.67300
C  41.17600 4.64000 46.53500
C  41.12400 3.04500 46.81000
C  42.60100 2.65000 46.94900
C  40.14800 2.58000 47.96700
C  40.60700 5.01300 45.15100
C  39.54900 6.10100 45.13400
H  39.67000 7.18800 44.05500
N  45.53200 1.71300 47.22900
C  44.35100 0.93100 47.06500
C  44.80800 -0.46100 47.10900
C  46.19500 -0.48300 47.00700
C  46.60200 0.89200 47.09700
C  43.85500 -1.61600 47.03700
C  46.97300 -1.80000 46.73200
O  46.38500 -2.86600 46.74100
C  48.47700 -1.86100 46.36300
N  47.74200 3.69300 47.10500
C  48.47200 2.58600 46.91100
C  49.93500 2.88300 46.58900
C  50.06400 4.39800 46.85000
C  48.54500 4.74700 47.03600
C  51.05900 1.98800 47.27900
C  50.80000 5.15500 45.74500
C  52.33400 5.22500 45.79300
N  45.67800 5.71000 47.31300
C  46.77700 6.53900 47.40800
C  46.35400 7.94600 47.36200
C  44.89500 7.81700 47.12800
C  44.60100 6.46800 47.15000
C  47.18900 9.08600 47.49000
C  43.65000 8.56500 47.01100
O  43.49400 9.77400 47.13500
C  42.54600 7.53800 46.73200
C  41.56400 7.76100 47.74400
O  41.64100 7.39800 48.94800
O  40.47900 8.36900 47.20000
C  39.34800 8.63500 48.10200
H  42.30900 0.50700 46.99500
H  48.58300 0.47100 47.14300
H  48.90100 6.73100 47.12500
H  40.68000 5.27600 47.26800
H  40.87700 2.57200 45.85900
H  39.62200 1.73000 47.53200
H  39.47400 3.43000 48.06200
H  40.65600 2.29600 48.88900
H  40.15500 4.11500 44.73100
H  41.44700 5.32300 44.53000
H  39.40100 6.50800 46.13400
H  38.64900 5.51000 44.96300
H  42.80900 -1.31200 47.07000
H  44.09900 -2.36100 47.79500
H  44.00300 -2.07200 46.05800
H  48.69700 -2.78600 45.82900
H  48.98200 -1.76600 47.32400
H  48.72800 -1.03100 45.70200
H  50.02100 2.75800 45.51000
H  50.47600 4.52800 47.85100
H  51.67700 1.40500 46.59700
H  50.67900 1.28900 48.02300
H  51.79500 2.60900 47.78800
H  50.54700 6.21500 45.76000
H  50.50700 4.78000 44.76500
H  52.80400 4.51800 45.11000
H  52.73100 4.96400 46.77400
H  52.68300 6.21000 45.48300
H  46.68900 9.90400 46.97300
H  48.14300 8.87700 47.00500
H  47.36300 9.37800 48.52500
H  42.20500 7.77300 45.72300
H  38.78000 9.43700 47.63000
H  39.59500 8.85800 49.14000
H  38.69900 7.76200 48.02800
Mg 41.18000 9.57400 29.53400
C  43.16800 10.49200 32.27300
C  39.07100 7.84500 31.70600
C  39.62500 8.30900 26.87900
C  43.86500 10.54700 27.41700
N  41.14800 9.18900 31.70300
C  41.96500 9.83000 32.66400
C  41.41400 9.63900 34.12500
C  40.30400 8.55600 33.87600
C  40.14800 8.47800 32.35300
C  40.65300 7.24700 34.59900
C  40.87600 11.02100 34.69900
C  41.73400 11.72000 35.69400
H  40.90500 12.35600 36.80600
N  39.49500 8.43200 29.35600
C  38.82700 7.75900 30.31000
C  37.70500 7.14900 29.68700
C  37.73800 7.41500 28.30400
C  39.02200 8.08900 28.10200
C  36.65700 6.29300 30.36500
C  36.79300 7.01500 27.17500
O  36.95500 7.28000 25.98800
C  35.55400 6.23500 27.50600
N  41.71600 9.34600 27.46800
C  40.87300 8.83800 26.57200
C  41.37600 8.94800 25.13400
C  42.57500 9.85700 25.30800
C  42.77600 9.91200 26.84100
C  41.74600 7.61900 24.47000
C  42.46900 11.20400 24.63600
C  43.55100 11.55800 23.57500
N  43.09100 10.40000 29.76200
C  44.04700 10.68700 28.79800
C  45.23700 11.15300 29.44000
C  44.88900 11.19900 30.80000
C  43.61500 10.64600 30.93700
C  46.55100 11.56000 28.84300
C  45.45600 11.53900 32.10900
O  46.48100 12.12500 32.37000
C  44.23800 11.16100 33.17900
C  44.73100 10.40200 34.37600
O  44.84800 9.18200 34.41800
O  44.92000 11.29200 35.37600
C  45.28800 10.55700 36.61200
H  38.42300 7.25300 32.35600
H  39.22900 7.83400 25.97900
H  44.56400 10.96800 26.69000
H  42.21600 9.24500 34.74800
H  39.29000 8.81800 34.17900
H  41.59000 7.29600 35.15400
H  40.75500 6.45100 33.86200
H  39.79400 7.02500 35.23200
H  39.81500 10.86800 34.89400
H  40.89100 11.73000 33.87100
H  42.29600 12.51000 35.19700
H  42.51500 11.06500 36.07900
H  35.68500 6.78500 30.32900
H  36.98200 6.17700 31.39900
H  36.63500 5.30000 29.91700
H  35.98100 5.24500 27.66900
H  34.88200 6.14700 26.65200
H  34.92500 6.67500 28.27900
H  40.60600 9.44400 24.54400
H  43.51700 9.43100 24.96300
H  41.12900 7.52200 23.57700
H  41.39300 6.88800 25.19800
H  42.79200 7.50500 24.18400
H  42.41500 11.98200 25.39800
H  41.48900 11.20300 24.15900
H  43.12800 11.36500 22.59000
H  44.40900 10.89200 23.67100
H  43.85600 12.60100 23.65800
H  46.54600 12.64400 28.73000
H  46.84200 11.03700 27.93200
H  47.20800 11.38300 29.69400
H  43.77400 12.06300 33.57800
H  46.10800 11.07900 37.10600
H  45.67700 9.55900 36.41300
H  44.45900 10.48900 37.31600

