158

Mg 48.65400 46.77200 42.44500
C  45.41000 46.82800 41.16600
C  48.97600 43.49900 41.06900
C  51.92100 46.84600 42.95900
C  48.48000 50.21000 42.94300
N  47.44500 45.47600 41.12500
C  46.11800 45.65400 40.82600
C  45.52500 44.45900 40.13100
C  46.49100 43.30900 40.37600
C  47.74700 44.12800 40.90700
C  45.98200 42.23700 41.38500
C  45.34200 44.83700 38.65800
C  43.90700 44.56900 38.05400
H  43.96600 43.66800 36.76600
N  50.24100 45.39300 42.11100
C  50.17300 44.09600 41.57100
C  51.52000 43.49000 41.46200
C  52.46500 44.42100 42.04700
C  51.55600 45.62300 42.33900
C  51.76200 42.05000 40.90400
C  53.93900 44.21500 42.21000
O  54.46800 43.11900 41.93000
C  54.80600 45.31700 42.72200
N  50.02700 48.39400 42.95900
C  51.31100 48.08000 43.20100
C  52.05100 49.30200 43.75300
C  51.03500 50.48800 43.34200
C  49.74800 49.69600 43.15800
C  52.36700 49.03400 45.22300
C  51.40600 51.28100 42.05000
C  52.68800 52.24300 42.24400
N  47.18000 48.19000 42.33700
C  47.27700 49.55000 42.62000
C  45.89400 50.04500 42.46300
C  45.13500 49.01700 41.91300
C  45.98600 47.91700 41.81100
C  45.57100 51.39500 42.99200
C  43.78900 48.66600 41.49900
O  42.73500 49.35800 41.39600
C  43.90900 47.16900 41.09500
C  43.15100 46.38600 42.07300
O  43.61700 45.88100 43.06500
O  41.84400 46.15500 41.55700
C  41.02600 45.14800 42.19100
H  49.06400 42.47000 40.71600
H  52.96900 46.83800 43.26700
H  48.33400 51.29000 42.88100
H  44.53400 44.18800 40.49700
H  46.70900 42.81700 39.42800
H  46.11500 42.62200 42.39600
H  46.61400 41.38300 41.14300
H  44.96400 41.99500 41.08000
H  46.01400 44.25900 38.02300
H  45.58300 45.88800 38.50200
H  43.44300 45.54600 37.91900
H  43.24700 44.03800 38.74000
H  52.45500 41.49800 41.53900
H  52.19100 42.15500 39.90700
H  50.85200 41.45200 40.86600
H  54.50900 46.23800 42.22000
H  55.84900 45.06000 42.53500
H  54.72100 45.50100 43.79200
H  52.90200 49.45800 43.09100
H  50.93500 51.13200 44.21500
H  51.90200 49.67600 45.97100
H  53.42800 49.19900 45.40700
H  52.02700 48.01200 45.39000
H  50.62400 52.01000 41.83900
H  51.45200 50.64300 41.16800
H  53.35900 52.06700 41.40400
H  53.04700 52.13000 43.26700
H  52.39400 53.28000 42.08600
H  46.22000 51.74500 43.79400
H  44.55800 51.53800 43.36800
H  45.75100 52.09800 42.17900
H  43.33600 47.03000 40.17800
H  40.41500 45.63200 42.95200
H  41.57100 44.43600 42.81200
H  40.41800 44.78600 41.36200
Mg 16.53700 52.09000 26.20100
C  18.90200 50.67500 28.56600
C  14.59200 52.72500 28.96600
C  14.30500 53.38700 24.10700
C  18.79600 51.43600 23.70800
N  16.82200 51.84200 28.39100
C  17.79400 51.21400 29.14200
C  17.51400 51.15600 30.59700
C  16.03500 51.54100 30.68300
C  15.82800 52.12100 29.28200
C  14.98300 50.46100 31.09600
C  18.42900 51.96200 31.52000
C  18.60800 51.42500 32.98100
H  17.76900 52.12500 34.07200
N  14.64800 53.03300 26.54700
C  14.04300 53.12800 27.73000
C  12.72500 53.75700 27.50300
C  12.62700 54.01200 26.05300
C  13.91500 53.47000 25.47100
C  11.65000 54.03100 28.64500
C  11.43000 54.63500 25.26200
O  11.43900 54.74000 24.02100
C  10.13600 55.10800 26.01100
N  16.54100 52.27300 24.20400
C  15.44600 52.78400 23.52500
C  15.65300 52.56700 22.06500
C  17.18300 52.31700 21.91600
C  17.58800 52.05200 23.36000
C  14.86000 51.32100 21.39500
C  18.03000 53.44300 21.38600
C  18.90700 53.08900 20.15300
N  18.48700 51.26800 26.08900
C  19.20200 51.00300 24.99200
C  20.35300 50.23700 25.31700
C  20.35200 50.11300 26.73000
C  19.15500 50.76900 27.17000
C  21.35500 49.71900 24.41600
C  21.04000 49.56600 27.89300
O  22.06300 48.89300 27.97200
C  20.18000 49.99900 29.19900
C  19.93500 48.76800 30.07900
O  19.13300 47.85800 29.88500
O  20.68200 48.85200 31.18900
C  20.30800 47.90600 32.26600
H  13.96200 52.85000 29.84900
H  13.49700 53.57200 23.39600
H  19.44600 51.26100 22.84800
H  17.56000 50.11300 30.90900
H  15.88000 52.35100 31.39600
H  13.95000 50.75500 31.27700
H  15.33600 50.38200 32.12500
H  15.18300 49.56400 30.50900
H  18.05100 52.98400 31.50100
H  19.47200 51.98600 31.20100
H  19.66400 51.58200 33.20000
H  18.47700 50.34400 32.93000
H  11.99400 53.62800 29.59600
H  10.69600 53.62400 28.31000
H  11.59200 55.10600 28.81600
H  10.42400 55.79500 26.80600
H  9.53700 54.27700 26.38200
H  9.54700 55.61400 25.24600
H  15.21000 53.45400 21.61200
H  17.38300 51.44600 21.29300
H  14.52200 51.60500 20.39800
H  13.93800 51.19300 21.96200
H  15.46400 50.41600 21.33300
H  18.65300 53.94300 22.12700
H  17.27700 54.15200 21.04100
H  19.81000 53.69600 20.22400
H  18.46400 53.45400 19.22600
H  19.15800 52.03000 20.08900
H  20.97700 50.02500 23.44000
H  21.36900 48.63000 24.46200
H  22.38400 50.07500 24.44300
H  20.89400 50.67800 29.66400
H  20.74500 46.94300 32.00200
H  19.22600 47.88300 32.39100
H  20.66100 48.32200 33.21000

