158

Mg 40.48200 9.11500 29.30200
C  42.15200 10.41800 32.07100
C  38.31500 7.53300 31.61200
C  38.92200 7.73600 26.69300
C  43.04800 10.14100 27.25900
N  40.28900 9.03500 31.55800
C  41.00100 9.79200 32.46300
C  40.34500 9.75400 33.88700
C  39.24800 8.71300 33.60900
C  39.33900 8.35100 32.21800
C  39.20400 7.46900 34.59900
C  39.99200 11.17200 34.43800
C  39.27000 11.17000 35.82300
H  39.97000 11.91600 36.96200
N  38.74200 7.89500 29.15200
C  38.00200 7.37100 30.21700
C  36.90100 6.77800 29.60000
C  36.99900 6.84300 28.19200
C  38.28200 7.49300 27.92300
C  35.82000 6.13000 30.46600
C  36.05500 6.40500 27.11700
O  36.29400 6.58800 25.93100
C  34.79200 5.72800 27.53000
N  40.93200 8.95700 27.35700
C  40.05000 8.49200 26.41400
C  40.55100 8.56700 24.97900
C  41.86100 9.43200 25.11400
C  41.98600 9.55900 26.66400
C  40.81200 7.13300 24.37100
C  41.89800 10.78400 24.38600
C  41.10600 12.01200 24.94900
N  42.23300 10.13200 29.58200
C  43.17300 10.52400 28.61700
C  44.26900 11.27900 29.26200
C  43.84900 11.33900 30.61100
C  42.67100 10.52800 30.76900
C  45.49400 11.83300 28.64600
C  44.21000 11.88000 31.89700
O  45.18600 12.52300 32.23200
C  43.09500 11.31200 32.90000
C  43.76900 10.53300 34.03400
O  44.72000 9.82500 33.82400
O  43.23400 10.93700 35.23800
C  43.68200 10.12400 36.36400
H  37.60000 7.15500 32.34500
H  38.40300 7.37700 25.80100
H  43.81300 10.46200 26.54800
H  41.15100 9.25700 34.42700
H  38.33300 9.28000 33.77800
H  38.17600 7.42300 34.95900
H  39.83300 7.63800 35.47300
H  39.63400 6.58700 34.12400
H  39.34600 11.64400 33.69900
H  40.91000 11.74000 34.58800
H  39.18800 10.12500 36.12100
H  38.31400 11.67200 35.67200
H  35.96500 6.36700 31.52000
H  35.90900 5.07000 30.22900
H  34.81200 6.48900 30.25700
H  34.06500 6.48200 27.82900
H  34.85700 4.94500 28.28600
H  34.36600 5.21700 26.66700
H  39.75900 9.06000 24.41800
H  42.74500 8.86600 24.81900
H  41.86300 6.85200 24.31700
H  40.36000 7.06900 23.38100
H  40.33200 6.36800 24.98300
H  41.30200 10.59100 23.49400
H  42.91300 11.11400 24.16300
H  40.76000 11.90400 25.97700
H  40.22700 12.33800 24.39300
H  41.79100 12.85600 25.03400
H  45.25600 12.86400 28.38200
H  45.81600 11.32400 27.73800
H  46.28700 11.89500 29.39000
H  42.59600 12.23200 33.20400
H  44.74400 9.88600 36.29700
H  42.87400 9.42400 36.57900
H  43.54600 10.84000 37.17500
Mg 26.93100 50.80600 26.58500
C  25.04500 51.92600 29.25500
C  29.44700 50.16600 28.79100
C  28.96800 50.23600 23.94100
C  24.36200 51.51800 24.39900
N  27.24300 51.05400 28.70400
C  26.27800 51.41800 29.68700
C  26.74700 51.12500 31.17400
C  28.28700 50.92900 30.94300
C  28.33000 50.72400 29.37800
C  29.19600 52.05300 31.43200
C  26.02900 49.87800 31.81600
C  25.34600 50.11700 33.23200
H  26.17500 50.67100 34.38500
N  28.93400 50.10000 26.34900
C  29.85900 49.84200 27.42100
C  31.08300 49.36900 26.86400
C  30.94000 49.33100 25.44800
C  29.56200 49.90700 25.20400
C  32.40500 49.14800 27.64900
C  31.88500 48.87000 24.36600
O  31.55000 48.80600 23.19300
C  33.25400 48.35000 24.72900
N  26.73600 50.99000 24.50900
C  27.64800 50.61500 23.61100
C  27.21400 50.78500 22.16100
C  25.66600 50.94500 22.34400
C  25.55700 51.23900 23.82300
C  28.00800 51.91100 21.37300
C  24.85600 49.62900 21.89400
C  25.22700 48.37600 22.68600
N  25.16400 51.68800 26.69200
C  24.18900 51.86300 25.73300
C  23.02500 52.42200 26.35500
C  23.26100 52.43500 27.71800
C  24.55200 51.97900 27.93700
C  21.77000 52.76700 25.74100
C  22.68700 52.58200 29.01300
O  21.58000 52.91600 29.37300
C  23.80200 52.21700 30.07300
C  24.05200 53.29000 31.00600
O  24.74400 54.28400 30.78500
O  23.45800 53.08400 32.25100
C  23.95000 53.98300 33.31800
H  30.28500 49.93500 29.45100
H  29.56000 50.17900 23.02500
H  23.53100 51.53200 23.69000
H  26.47800 51.93300 31.85500
H  28.61000 50.04100 31.48600
H  28.73100 52.86500 31.99000
H  29.50200 52.53000 30.50000
H  29.95600 51.53200 32.01500
H  26.82500 49.14600 31.68500
H  25.18300 49.69100 31.15500
H  24.83300 49.19200 33.49700
H  24.46600 50.75800 33.19100
H  33.22500 49.66600 27.15300
H  32.56500 48.07000 27.63200
H  32.21700 49.58000 28.63200
H  33.79000 47.83200 23.93300
H  33.10400 47.61900 25.52400
H  33.86400 49.15400 25.14000
H  27.43100 49.84700 21.65100
H  25.31700 51.80000 21.76400
H  28.44600 51.45000 20.48800
H  28.68600 52.47200 22.01600
H  27.30900 52.66700 21.01400
H  25.09600 49.44400 20.84700
H  23.79800 49.87300 21.98700
H  25.74500 48.75000 23.56800
H  25.90200 47.79300 22.06000
H  24.38000 47.81400 23.08000
H  20.90300 52.45500 26.32200
H  21.72700 52.36400 24.72900
H  21.71600 53.84100 25.56200
H  23.36000 51.28700 30.43100
H  24.89900 53.51100 33.57300
H  23.32100 54.04200 34.20700
H  24.08700 54.99500 32.93700

