158

Mg 53.64700 24.24900 44.18400
C  50.89400 26.53900 43.87700
C  51.53600 21.79900 43.12300
C  56.33800 22.28200 43.90400
C  55.63700 26.98600 45.03400
N  51.54500 24.24800 43.29800
C  50.58600 25.26200 43.42900
C  49.19000 24.72700 43.17600
C  49.36400 23.18900 43.42100
C  50.91800 23.04900 43.32900
C  48.68100 22.77200 44.76500
C  48.64500 25.23500 41.82700
C  48.56500 24.28200 40.59900
H  48.60700 24.84200 39.18800
N  53.91200 22.25300 43.61500
C  52.91800 21.43700 43.20500
C  53.50700 20.10200 43.01000
C  54.94000 20.22300 43.03800
C  55.13400 21.65000 43.51800
C  52.75300 18.91300 42.70900
C  55.98700 19.13600 42.81600
O  55.61900 17.97900 42.40900
C  57.38800 19.47800 42.87200
N  55.70600 24.66200 44.28300
C  56.66200 23.62600 44.21500
C  58.02200 24.12600 44.65700
C  57.74800 25.63100 45.01100
C  56.31000 25.79600 44.72500
C  58.84800 23.30400 45.66400
C  58.57000 26.67900 44.22100
C  59.53400 27.46800 45.12800
N  53.36800 26.27100 44.53700
C  54.28900 27.24100 44.89900
C  53.61200 28.46100 45.17200
C  52.26400 28.16300 44.90800
C  52.17500 26.86100 44.34000
C  54.16700 29.77600 45.72700
C  50.97100 28.73100 44.75300
O  50.59400 29.88500 45.03400
C  50.02800 27.73500 44.05500
C  49.49200 28.34600 42.75100
O  50.17700 28.58800 41.73700
O  48.17600 28.46900 42.92500
C  47.45400 28.98000 41.70600
H  50.92400 20.92700 42.88400
H  57.18300 21.61500 44.09200
H  56.28500 27.74700 45.47300
H  48.60700 25.16900 43.98300
H  48.97600 22.52000 42.65300
H  47.95700 23.50800 45.11300
H  49.53100 22.61700 45.43000
H  48.08300 21.87900 44.58600
H  49.39200 25.94000 41.46000
H  47.83400 25.94700 41.98100
H  47.70100 23.65100 40.80400
H  49.35900 23.53500 40.58200
H  53.04100 18.64300 41.69300
H  51.68600 19.12800 42.77600
H  53.09300 18.12100 43.37500
H  57.60500 20.46000 42.45200
H  57.88600 18.68800 42.31000
H  57.75200 19.38800 43.89500
H  58.55700 24.17500 43.70900
H  57.89600 25.65400 46.09100
H  59.91400 23.17200 45.47400
H  58.58500 22.25700 45.81400
H  58.81100 23.84400 46.61000
H  57.90700 27.40600 43.75100
H  59.15100 26.17700 43.44700
H  59.34400 27.14900 46.15300
H  59.33800 28.53900 45.07500
H  60.55100 27.22500 44.82100
H  53.40100 30.51700 45.50100
H  55.12800 29.87100 45.22000
H  54.26100 29.70200 46.81000
H  49.19200 27.66000 44.75100
H  47.72400 30.01200 41.47700
H  46.39800 28.71900 41.78200
H  47.70800 28.51000 40.75600
Mg -10.19800 40.17500 42.80300
C  -9.39200 36.70200 42.19700
C  -7.14700 40.99200 41.09800
C  -11.16400 43.26800 42.49900
C  -13.47000 39.10500 43.66600
N  -8.56300 38.93900 41.70100
C  -8.47400 37.55400 41.71600
C  -7.15500 37.14100 41.15800
C  -6.33000 38.51000 41.09200
C  -7.43000 39.56400 41.27700
C  -5.34800 38.58600 42.28600
C  -7.30000 36.29700 39.87400
C  -6.15400 35.32800 39.55000
H  -5.04700 35.89700 38.52600
N  -9.25300 41.94500 42.01900
C  -8.07300 42.04900 41.42100
C  -7.77800 43.47500 41.18700
C  -8.95700 44.19300 41.39000
C  -9.86500 43.12000 41.95500
C  -6.49600 43.96700 40.50000
C  -9.14000 45.73000 41.22700
O  -8.24400 46.41800 40.75200
C  -10.39000 46.52500 41.57300
N  -12.08500 41.04200 42.97100
C  -12.15700 42.43000 43.01100
C  -13.58800 42.83200 43.49100
C  -14.30200 41.53500 43.91100
C  -13.26900 40.46300 43.42900
C  -13.65500 43.99000 44.56300
C  -15.72900 41.38200 43.15400
C  -16.73400 42.48600 43.38500
N  -11.28400 38.33000 43.01900
C  -12.53300 38.06600 43.36700
C  -12.82300 36.62800 43.39200
C  -11.60300 36.06800 42.94600
C  -10.73600 37.13700 42.69900
C  -14.16800 35.91400 43.55000
C  -10.92400 34.84000 42.58800
O  -11.30900 33.71700 42.67300
C  -9.39700 35.20200 42.27700
C  -8.51900 34.58200 43.38200
O  -9.03700 34.33900 44.45000
O  -7.23400 34.42100 43.05000
C  -6.35300 33.73100 44.00900
H  -6.21400 41.21300 40.57600
H  -11.54400 44.28300 42.36100
H  -14.38900 38.75400 44.13800
H  -6.88400 36.43500 41.94200
H  -5.78900 38.59100 40.15000
H  -5.55300 37.81300 43.02700
H  -5.48800 39.53700 42.79900
H  -4.31100 38.58700 41.95200
H  -7.28700 37.06900 39.10500
H  -8.23800 35.74500 39.82000
H  -6.60900 34.43700 39.11700
H  -5.64100 35.15200 40.49500
H  -6.79600 44.36200 39.52900
H  -5.75600 43.18300 40.33700
H  -5.90300 44.70700 41.03800
H  -10.31500 47.53300 41.16400
H  -10.57400 46.51700 42.64700
H  -11.28700 46.02500 41.20800
H  -14.00800 43.09500 42.52000
H  -14.38500 41.47600 44.99600
H  -12.73800 44.57500 44.48600
H  -13.76600 43.64700 45.59100
H  -14.48000 44.64600 44.28200
H  -16.16600 40.51900 43.65400
H  -15.72600 41.15900 42.08700
H  -17.78600 42.20300 43.41000
H  -16.55000 43.34300 42.73700
H  -16.57300 42.82500 44.40800
H  -14.18200 34.93300 43.07600
H  -14.82500 36.60800 43.02600
H  -14.49100 35.97800 44.58900
H  -9.15800 34.69700 41.34100
H  -6.62300 32.67600 44.06000
H  -6.49500 34.14500 45.00700
H  -5.34800 33.79400 43.59200

