158

Mg 16.94800 -1.74400 27.76500
C  15.70900 0.64300 30.29000
C  18.74100 -3.21800 30.12200
C  18.60800 -3.31200 25.24700
C  15.47300 0.48000 25.38100
N  17.24400 -1.22700 29.91300
C  16.59500 -0.36200 30.79600
C  17.07600 -0.57400 32.26400
C  18.03800 -1.83000 32.19000
C  18.07100 -2.07300 30.61900
C  19.49000 -1.74700 32.86400
C  15.86500 -0.64200 33.16200
C  15.97900 -0.07600 34.56700
H  17.35700 0.31600 35.17500
N  18.44700 -3.12900 27.71400
C  19.04000 -3.65600 28.84500
C  19.88800 -4.74800 28.45200
C  19.82700 -4.83800 27.04100
C  18.90400 -3.75800 26.60600
C  20.59400 -5.64000 29.43900
C  20.31500 -5.89500 26.15500
O  20.18000 -5.83600 24.90600
C  21.04300 -7.13300 26.74100
N  16.93600 -1.54700 25.66200
C  17.70900 -2.32200 24.87000
C  17.70800 -1.82100 23.44600
C  16.53300 -0.71800 23.39300
C  16.30400 -0.56900 24.91300
C  19.16900 -1.35900 23.00800
C  15.29400 -1.14000 22.46000
C  14.09700 -1.78100 23.18200
N  15.67000 -0.00100 27.77400
C  15.17000 0.71200 26.74800
C  14.34300 1.85100 27.22500
C  14.58200 1.80800 28.63100
C  15.32800 0.68400 28.91000
C  13.47100 2.81600 26.43100
C  14.38400 2.49300 29.83500
O  13.79100 3.58600 29.99500
C  15.02600 1.77600 30.98400
C  16.07400 2.59300 31.68200
O  17.17800 2.78600 31.24400
O  15.49700 3.09800 32.87000
C  16.50000 3.93500 33.56600
H  19.02200 -3.79800 31.00400
H  19.26000 -3.66000 24.44300
H  15.06400 1.23200 24.70300
H  17.63600 0.35100 32.40300
H  17.59200 -2.71400 32.64400
H  19.48600 -0.81700 33.43100
H  20.25200 -1.59400 32.10000
H  19.64300 -2.53800 33.59900
H  15.53600 -1.65800 33.37800
H  15.00500 -0.18800 32.66900
H  15.57900 -0.80200 35.27500
H  15.32800 0.79700 34.61900
H  20.20800 -6.65900 29.39500
H  20.36300 -5.19300 30.40600
H  21.66200 -5.64000 29.22300
H  21.21200 -7.76600 25.87000
H  20.29400 -7.59500 27.38500
H  21.99800 -6.79100 27.13900
H  17.51300 -2.62800 22.73900
H  16.78400 0.21800 22.89400
H  19.90100 -1.44900 23.81000
H  19.14500 -0.30500 22.73000
H  19.59600 -2.00200 22.23900
H  15.56500 -1.76600 21.60900
H  14.86100 -0.21800 22.06900
H  13.28200 -1.07000 23.31400
H  14.48800 -2.08400 24.15300
H  13.79500 -2.70500 22.69000
H  13.03100 3.53000 27.12800
H  12.61400 2.28700 26.01500
H  14.03700 3.27200 25.61900
H  14.16100 1.46900 31.57200
H  16.73400 4.81300 32.96400
H  17.43200 3.42100 33.80500
H  16.06500 4.27000 34.50800
Mg 42.76900 3.91000 46.63500
C  40.89000 6.90400 46.61300
C  39.78400 2.12200 46.72200
C  44.53900 1.28200 45.83200
C  45.61200 5.97100 46.15000
N  40.67600 4.45000 46.77800
C  40.14200 5.75200 46.78700
C  38.62900 5.68500 47.04500
C  38.29100 4.16400 47.08100
C  39.65600 3.52700 46.90500
C  37.69100 3.69700 48.44300
C  37.59200 6.51100 46.20200
C  37.40900 6.09600 44.73800
H  37.86600 7.00300 43.67200
N  42.26900 1.93100 46.42600
C  40.99100 1.38800 46.42400
C  41.07600 -0.02700 46.09400
C  42.45100 -0.28700 45.89100
C  43.12200 1.00600 45.95200
C  39.88900 -0.99800 46.04100
C  42.98500 -1.65000 45.62400
O  42.24100 -2.61500 45.87900
C  44.48200 -1.97500 45.27400
N  44.82200 3.71500 46.08100
C  45.29400 2.43300 46.00200
C  46.82000 2.47700 45.84800
C  47.14900 4.00800 45.94400
C  45.79900 4.60900 46.10200
C  47.51000 1.60600 46.96600
C  48.09100 4.58700 44.90100
C  49.26900 5.48000 45.43500
N  43.24500 6.02300 46.49800
C  44.41700 6.68500 46.24100
C  44.27100 8.15000 46.24000
C  42.84500 8.23900 46.34400
C  42.26800 6.91600 46.50000
C  45.22600 9.29900 45.98600
C  41.71300 9.20900 46.27700
O  41.71800 10.43100 46.12400
C  40.45600 8.32200 46.61000
C  39.87500 8.72400 47.96200
O  40.44100 8.50700 48.99900
O  38.76200 9.50200 47.78600
C  38.17000 9.77200 49.10400
H  38.87400 1.52600 46.81800
H  45.26400 0.46900 45.75400
H  46.51200 6.50800 45.84500
H  38.59500 6.14000 48.03500
H  37.66200 3.70300 46.32000
H  37.17100 4.51100 48.94900
H  38.37100 3.15900 49.10300
H  36.84400 3.08400 48.13600
H  37.67500 7.59300 46.30600
H  36.63100 6.34200 46.68700
H  36.35900 5.88200 44.54100
H  37.98200 5.18000 44.59100
H  38.94300 -0.45900 45.99200
H  39.85400 -1.65000 46.91400
H  40.08000 -1.54300 45.11600
H  45.20800 -1.67800 46.03100
H  44.72000 -1.47800 44.33400
H  44.46300 -3.03900 45.03900
H  47.14200 1.92400 44.96600
H  47.63400 4.16400 46.90800
H  46.83800 1.29800 47.76600
H  48.27800 2.20900 47.45100
H  47.92700 0.70400 46.52000
H  47.61000 5.12700 44.08500
H  48.57000 3.67300 44.55200
H  50.20200 5.23400 44.93000
H  49.45600 5.32700 46.49800
H  49.04700 6.54100 45.31600
H  45.86700 9.55300 46.83000
H  44.73500 10.18700 45.58700
H  45.89600 9.10100 45.14900
H  39.66900 8.53700 45.88700
H  37.16800 10.15600 48.91700
H  38.74500 10.57900 49.55600
H  38.12500 8.90300 49.76100

