158

Mg -2.21400 16.36900 26.80400
C  -2.67500 14.02400 29.30200
C  -2.59400 18.84400 29.35300
C  -2.21500 18.76700 24.38100
C  -2.19900 13.79300 24.43700
N  -2.67100 16.42800 29.05300
C  -2.60300 15.35200 29.84400
C  -2.75700 15.80000 31.30700
C  -2.99300 17.31000 31.22600
C  -2.73800 17.55200 29.80700
C  -4.48000 17.74200 31.66800
C  -1.65500 15.28900 32.37700
C  -1.29900 16.13100 33.64900
H  -0.93900 15.33300 34.97200
N  -2.15300 18.44700 26.90400
C  -2.31300 19.26200 27.99600
C  -2.09900 20.57500 27.55700
C  -2.07900 20.60500 26.13900
C  -2.13600 19.20700 25.76900
C  -2.20600 21.76600 28.51000
C  -2.04800 21.74800 25.25900
O  -2.02300 21.67800 24.05100
C  -2.17400 23.06800 25.81000
N  -2.22000 16.23800 24.71900
C  -2.16700 17.35900 23.89200
C  -2.07900 17.07200 22.36800
C  -1.94300 15.48500 22.44300
C  -2.14800 15.11100 23.96100
C  -3.38300 17.48300 21.60300
C  -0.64700 14.91900 21.70800
C  0.64300 14.82600 22.59300
N  -2.54100 14.39300 26.81100
C  -2.42100 13.45100 25.76800
C  -2.60900 12.02700 26.18300
C  -2.65100 12.24400 27.61300
C  -2.58000 13.68200 27.93600
C  -2.85800 10.85300 25.35000
C  -2.74200 11.58700 28.89600
O  -2.95100 10.39200 29.11100
C  -2.76500 12.67700 30.02400
C  -1.68200 12.41100 30.90900
O  -0.49100 12.65700 30.61800
O  -2.09100 11.61600 31.92200
C  -1.11200 11.42300 32.95000
H  -2.62400 19.59100 30.14800
H  -2.29200 19.47900 23.55600
H  -2.11200 12.95500 23.74200
H  -3.68900 15.34100 31.63600
H  -2.29800 17.85800 31.86200
H  -4.91100 16.87900 32.17500
H  -5.13100 18.08400 30.86300
H  -4.40200 18.63900 32.28200
H  -0.70800 15.04600 31.89500
H  -2.12500 14.36700 32.71800
H  -2.10200 16.83500 33.86500
H  -0.34500 16.60600 33.41700
H  -1.27300 22.32800 28.49700
H  -2.32700 21.53600 29.56900
H  -3.06300 22.38500 28.24500
H  -3.05800 23.20700 26.43300
H  -2.12100 23.80100 25.00500
H  -1.29000 23.14200 26.44400
H  -1.21200 17.56600 21.92700
H  -2.84400 15.05300 22.00500
H  -3.11500 18.41100 21.09800
H  -4.10300 17.68800 22.39500
H  -3.78500 16.81500 20.84200
H  -0.35400 15.66900 20.97400
H  -0.90600 14.07500 21.06800
H  0.58300 14.33400 23.56400
H  1.16900 15.77100 22.73300
H  1.34500 14.22100 22.02000
H  -2.30000 11.04800 24.43400
H  -3.90800 10.80200 25.06200
H  -2.55700 9.95600 25.89100
H  -3.73700 12.53400 30.49500
H  -1.64200 10.68400 33.55200
H  -0.91000 12.33800 33.50600
H  -0.17600 10.96200 32.63600
Mg -0.23700 7.04100 25.97100
C  0.68300 8.88800 28.87600
C  -0.74000 4.25800 27.95600
C  -0.69300 5.25200 23.26100
C  0.08600 9.87700 24.17500
N  -0.08300 6.62200 28.16500
C  0.33900 7.50200 29.09000
C  0.22000 6.78500 30.56400
C  -0.21000 5.32400 30.20100
C  -0.37100 5.42400 28.66600
C  0.68600 4.19100 30.74700
C  -0.71300 7.54800 31.56500
C  -0.14400 7.80600 32.96500
H  1.04800 6.97500 33.53200
N  -0.57300 5.03200 25.65200
C  -0.78100 4.03100 26.56700
C  -1.06900 2.72700 25.88500
C  -0.90300 3.03800 24.48100
C  -0.70300 4.46900 24.40900
C  -1.26700 1.38600 26.61800
C  -0.89200 2.08400 23.27300
O  -0.68800 2.47200 22.12100
C  -1.02600 0.48900 23.46500
N  -0.32900 7.53600 24.00400
C  -0.44700 6.61000 23.06300
C  -0.38600 7.20400 21.64100
C  -0.52300 8.72700 21.97100
C  -0.28700 8.70100 23.48000
C  0.93400 6.90700 20.89400
C  -1.89400 9.38000 21.65500
C  -1.78700 10.82800 21.14000
N  0.39600 8.95000 26.29400
C  0.48500 10.00700 25.52400
C  1.01200 11.15000 26.17900
C  1.15200 10.76200 27.48600
C  0.72500 9.43000 27.56200
C  1.30900 12.51300 25.57400
C  1.49300 11.22200 28.77200
O  1.87800 12.32300 29.20400
C  1.18100 10.02000 29.75600
C  2.43100 9.46700 30.40700
O  3.18200 8.56600 30.05500
O  2.76400 10.33200 31.41900
C  3.93000 10.08800 32.24200
H  -1.11600 3.39000 28.50200
H  -0.95000 4.77200 22.31400
H  0.15600 10.77900 23.56300
H  1.23300 6.66500 30.94800
H  -1.22900 5.16500 30.55400
H  0.13200 3.54100 31.42500
H  1.56400 4.53900 31.29100
H  0.88100 3.65200 29.82000
H  -1.60600 6.94300 31.72500
H  -0.94800 8.52000 31.13300
H  -1.01800 7.59200 33.58000
H  0.10800 8.82800 33.24700
H  -2.33200 1.18200 26.73200
H  -0.82300 1.38100 27.61300
H  -0.78700 0.62200 26.00600
H  -1.18800 0.06100 22.47500
H  -1.92300 0.13700 23.97600
H  -0.15300 0.02300 23.92100
H  -1.19500 6.75100 21.06900
H  0.32400 9.21200 21.48700
H  0.64500 6.15900 20.15500
H  1.67600 6.59100 21.62800
H  1.35500 7.75400 20.35200
H  -2.54500 9.39000 22.53000
H  -2.35600 8.76900 20.88000
H  -0.73900 11.12100 21.09300
H  -2.28500 11.50500 21.83500
H  -2.23900 10.82100 20.14900
H  2.26600 12.91400 25.90600
H  0.46000 13.19200 25.65800
H  1.30400 12.28700 24.50800
H  0.59600 10.24100 30.64900
H  4.44800 10.99100 32.56400
H  4.64800 9.57100 31.60600
H  3.72200 9.30500 32.97100

