158

Mg 31.24900 57.51400 38.63000
C  28.47400 55.45600 37.60700
C  33.24900 54.70900 38.00400
C  33.88400 59.50000 38.91800
C  29.12800 60.19000 38.73100
N  30.87300 55.35300 37.67200
C  29.68700 54.73200 37.56700
C  29.79300 53.24900 37.25900
C  31.32800 53.00400 37.56700
C  31.83400 54.41100 37.82000
C  31.62400 51.98900 38.64500
C  29.28000 52.70400 35.93100
C  29.68700 53.52000 34.67500
H  28.63000 54.08500 33.76900
N  33.33000 57.12600 38.62700
C  33.91200 55.96600 38.31000
C  35.35300 56.20000 38.11400
C  35.62500 57.59900 38.34600
C  34.25700 58.15300 38.63800
C  36.41800 55.14300 37.84500
C  36.96700 58.31100 38.22600
O  38.03700 57.77700 37.81300
C  37.11900 59.71800 38.78800
N  31.39800 59.53700 38.79200
C  32.66400 60.13300 38.96000
C  32.48000 61.61200 39.23600
C  30.91100 61.90600 39.26400
C  30.39700 60.48000 38.90900
C  33.30400 62.42000 40.32700
C  30.46100 63.00300 38.31900
C  29.78600 64.18700 38.97300
N  29.21200 57.85600 38.23200
C  28.46500 58.99000 38.45200
C  27.04500 58.73700 38.30000
C  27.05400 57.36300 37.96900
C  28.37400 56.88100 37.88100
C  25.87100 59.59700 38.54100
C  26.17500 56.27200 37.59500
O  24.99600 56.32900 37.41600
C  27.07000 54.99600 37.48200
C  26.55200 54.06700 38.48800
O  27.24000 53.74800 39.41800
O  25.44900 53.43900 37.95800
C  25.02800 52.18600 38.59200
H  33.96500 53.89500 37.87400
H  34.70400 60.21900 38.86600
H  28.46000 61.03600 38.90300
H  29.26200 52.77200 38.08300
H  31.79600 52.67800 36.63900
H  32.01100 52.51500 39.51800
H  32.34300 51.30700 38.19000
H  30.70200 51.47900 38.92700
H  28.20600 52.79000 36.09700
H  29.62600 51.67300 35.86300
H  30.25700 52.84700 34.03600
H  30.22600 54.43300 34.93000
H  37.12800 55.40000 37.05900
H  35.96400 54.24900 37.41700
H  37.02400 54.90000 38.71800
H  36.55300 59.81000 39.71500
H  36.71600 60.29600 37.95600
H  38.13900 60.01600 39.02900
H  32.95900 61.97800 38.32700
H  30.67800 62.04600 40.31900
H  33.76300 63.32000 39.91800
H  34.11300 61.85500 40.78900
H  32.62000 62.85500 41.05700
H  29.79800 62.45000 37.65300
H  31.33000 63.38700 37.78500
H  30.53800 64.97100 38.88000
H  29.58800 64.06800 40.03800
H  28.86600 64.37300 38.41900
H  24.96500 58.99200 38.54200
H  25.86500 60.48000 37.90100
H  26.10900 60.03100 39.51200
H  26.92400 54.59100 36.48100
H  25.19200 52.06200 39.66200
H  25.34400 51.33200 37.99300
H  23.96600 52.02900 38.40400
Mg -10.83300 17.24200 41.08800
C  -7.25500 17.13800 40.89500
C  -10.60400 20.50000 40.30900
C  -13.94100 17.03400 40.01100
C  -10.72000 13.73500 41.18300
N  -9.09500 18.55300 40.38600
C  -7.75900 18.37700 40.60300
C  -6.96900 19.56900 40.14900
C  -8.02600 20.68300 40.42500
C  -9.34700 19.86700 40.37600
C  -7.82200 21.56100 41.75600
C  -6.54400 19.40000 38.60400
C  -5.08000 19.08400 38.43200
H  -4.76500 17.93500 37.49300
N  -12.13600 18.61100 40.20800
C  -11.89400 19.93800 40.15100
C  -13.05100 20.65400 39.81200
C  -14.08700 19.66200 39.77900
C  -13.44000 18.33300 40.04500
C  -12.99300 22.13700 39.47000
C  -15.59700 19.92500 39.28300
O  -15.95300 21.08100 38.94300
C  -16.59200 18.76600 39.16600
N  -12.14300 15.48400 40.48400
C  -13.38800 15.72700 40.20200
C  -14.24300 14.46100 40.25800
C  -13.21900 13.35400 40.70500
C  -12.00300 14.22900 40.86500
C  -15.57200 14.52900 41.02500
C  -12.95700 12.03800 39.93900
C  -13.60100 10.82600 40.58500
N  -9.42400 15.67600 41.40500
C  -9.50200 14.33000 41.48800
C  -8.15300 13.80400 41.74300
C  -7.31300 14.86900 41.51900
C  -8.08700 16.01300 41.27300
C  -7.74100 12.38700 41.94400
C  -5.83700 15.20000 41.50200
O  -4.84500 14.46600 41.59000
C  -5.76300 16.76200 41.17200
C  -5.15200 17.53400 42.36200
O  -3.96100 17.72100 42.41400
O  -6.12100 17.95600 43.27100
C  -5.53800 18.72900 44.38100
H  -10.62100 21.58400 40.17700
H  -15.02800 17.10200 40.08900
H  -10.68400 12.67600 41.44400
H  -6.05800 19.61500 40.74500
H  -8.03600 21.35600 39.56700
H  -6.87300 21.33600 42.24300
H  -8.59600 21.34000 42.49100
H  -7.88600 22.63200 41.56600
H  -6.70700 20.32300 38.04900
H  -7.08800 18.58800 38.12200
H  -4.66300 19.08000 39.43900
H  -4.57000 19.93800 37.98700
H  -13.01400 22.65500 40.42900
H  -13.86700 22.53700 38.95600
H  -12.10000 22.40400 38.90500
H  -16.26000 17.98400 38.48200
H  -17.49200 19.08200 38.64000
H  -16.95700 18.47600 40.15100
H  -14.51400 14.26900 39.22000
H  -13.50100 13.05900 41.71600
H  -16.32800 14.25200 40.29000
H  -15.85900 15.46500 41.50400
H  -15.56300 13.71700 41.75200
H  -11.88500 11.88600 39.81100
H  -13.40200 12.24600 38.96600
H  -14.40800 10.41300 39.98000
H  -13.86100 11.01300 41.62700
H  -12.76900 10.12300 40.62200
H  -8.62100 11.75800 41.81000
H  -7.45300 12.29700 42.99200
H  -6.93100 11.93900 41.36800
H  -5.05700 16.87800 40.35000
H  -6.33800 18.83800 45.11300
H  -5.15500 19.69900 44.06200
H  -4.68100 18.23200 44.83600

