158

Mg 41.52400 7.35900 29.55300
C  43.32200 9.08400 32.04200
C  39.02200 6.64300 31.81000
C  39.79100 5.87100 27.07300
C  44.15700 7.98200 27.39700
N  41.20300 7.86100 31.68000
C  42.14500 8.47600 32.50900
C  41.58100 8.55400 33.94600
C  40.15700 7.90700 33.80100
C  40.12000 7.41500 32.38400
C  39.80400 6.79300 34.85100
C  41.63400 9.99800 34.50600
C  40.66000 10.34900 35.57500
H  41.01100 11.41200 36.63300
N  39.73800 6.30400 29.48800
C  38.84200 6.13800 30.54600
C  37.61600 5.53300 30.06100
C  37.89600 5.19500 28.73500
C  39.20000 5.84100 28.33700
C  36.42400 5.25100 30.89700
C  37.04100 4.43900 27.71000
O  37.39600 4.17000 26.54900
C  35.70000 3.93900 28.15500
N  41.96100 6.80000 27.52600
C  41.05000 6.30900 26.67700
C  41.63900 6.14800 25.29900
C  42.88500 6.97900 25.33300
C  43.05300 7.29600 26.83300
C  41.78400 4.64800 24.82600
C  42.82900 8.31700 24.46000
C  41.93300 9.36700 25.07500
N  43.40100 8.33400 29.65300
C  44.31300 8.58500 28.64700
C  45.34100 9.43900 29.09500
C  45.06100 9.58500 30.49600
C  43.78100 8.99100 30.71600
C  46.48000 9.90300 28.27900
C  45.53500 10.16800 31.74900
O  46.55600 10.83600 31.96200
C  44.41700 9.89600 32.78800
C  44.97000 9.09500 33.98600
O  45.05500 7.90300 34.00200
O  45.20900 9.92100 34.96900
C  45.39400 9.36400 36.29900
H  38.19300 6.65600 32.52000
H  39.21900 5.50800 26.21700
H  44.93700 8.15100 26.65200
H  42.26600 7.93800 34.52900
H  39.50700 8.77500 33.91200
H  38.86500 7.05800 35.33700
H  40.51500 6.55900 35.64400
H  39.72900 5.81600 34.37400
H  41.58400 10.68400 33.66100
H  42.58600 10.12100 35.02100
H  40.53400 9.44400 36.16900
H  39.78900 10.75400 35.06100
H  36.31500 4.16800 30.96200
H  35.53700 5.77300 30.53700
H  36.45800 5.58800 31.93300
H  35.65200 3.25700 29.00400
H  35.16800 3.50700 27.30900
H  35.13000 4.81000 28.48100
H  40.90700 6.57200 24.61100
H  43.68400 6.31000 25.01400
H  41.43600 3.91800 25.55600
H  42.82100 4.42000 24.57700
H  41.13800 4.44900 23.97100
H  42.40600 7.92300 23.53600
H  43.85300 8.68900 24.50000
H  42.51700 10.27500 25.21900
H  41.52200 9.06700 26.03900
H  41.10500 9.52500 24.38400
H  46.96600 10.70400 28.83600
H  46.15500 10.31300 27.32300
H  47.24800 9.13900 28.16300
H  43.89500 10.79500 33.11600
H  45.39700 8.27600 36.36200
H  44.62800 9.66500 37.01400
H  46.38000 9.64100 36.67400
Mg 7.14700 54.12600 41.58900
C  6.78300 50.54900 41.76900
C  10.37700 53.51100 40.67200
C  7.28500 57.24300 40.89000
C  3.70100 54.26300 42.39600
N  8.34600 52.28900 41.14100
C  8.02000 50.95600 41.23700
C  9.13100 49.94900 40.82300
C  10.32300 50.94100 40.86900
C  9.63600 52.34200 40.91000
C  11.42200 50.79800 42.00000
C  8.92000 49.35000 39.44200
C  8.38400 50.30800 38.41000
H  8.20800 49.68200 36.98600
N  8.65700 55.28900 40.91200
C  10.00200 54.86600 40.64100
C  10.75200 56.04500 40.43800
C  9.86700 57.13900 40.35800
C  8.52400 56.59500 40.68300
C  12.13000 55.99200 40.09100
C  10.19200 58.59900 39.98400
O  11.28600 58.98500 39.62100
C  9.16800 59.67200 39.92900
N  5.52300 55.49900 41.28700
C  5.96500 56.81600 41.16400
C  4.81000 57.83600 41.57600
C  3.64200 56.78700 41.88300
C  4.33300 55.44700 41.88800
C  5.26800 58.84500 42.62300
C  2.42800 56.81100 40.95500
C  1.04700 57.04900 41.60700
N  5.52300 52.72600 41.99200
C  4.22700 52.99200 42.41800
C  3.64000 51.76400 42.95600
C  4.64900 50.73500 42.65600
C  5.72600 51.39800 42.06500
C  2.33100 51.54700 43.65600
C  4.98400 49.33100 42.81800
O  4.39000 48.44200 43.39000
C  6.31300 49.12000 42.06100
C  5.93800 48.27900 40.86700
O  5.38000 48.68600 39.84000
O  6.16500 46.97500 41.13800
C  5.68900 46.04500 40.11900
H  11.43100 53.40600 40.40700
H  7.32400 58.33300 40.92200
H  2.64600 54.39000 42.64800
H  9.25300 49.23100 41.63400
H  10.65200 50.99200 39.83100
H  12.37700 51.10000 41.57000
H  11.37500 49.85500 42.54500
H  11.16000 51.60400 42.68500
H  8.30100 48.46700 39.59800
H  9.89900 49.01300 39.10000
H  9.08400 51.13800 38.30900
H  7.40800 50.75700 38.59100
H  12.34000 55.25700 39.31400
H  12.69400 55.77400 40.99800
H  12.38500 56.97700 39.70000
H  8.94100 59.91100 40.96800
H  8.27300 59.44800 39.34900
H  9.49600 60.59600 39.45200
H  4.42500 58.46600 40.77500
H  3.28700 57.09500 42.86600
H  6.27800 58.68400 42.99900
H  4.50200 58.98000 43.38700
H  5.38100 59.80300 42.11600
H  2.42600 55.87700 40.39300
H  2.62100 57.53500 40.16300
H  0.50300 57.78300 41.01300
H  1.16700 57.39200 42.63500
H  0.43600 56.16100 41.77000
H  1.63600 50.96100 43.05400
H  1.75100 52.42700 43.93300
H  2.39600 50.87300 44.50900
H  7.02700 48.58900 42.69000
H  6.41700 45.99800 39.31000
H  4.72700 46.31400 39.68200
H  5.56000 45.00900 40.43200

