158

Mg 50.40600 45.13100 41.52600
C  47.11800 45.71500 40.36000
C  50.03400 41.81700 40.62500
C  53.72100 44.69800 41.96900
C  50.80100 48.62000 42.02600
N  48.73300 43.93600 40.62400
C  47.42800 44.35200 40.38800
C  46.53800 43.18400 39.89000
C  47.44600 41.93400 40.15600
C  48.82400 42.57600 40.51400
C  46.78300 41.04200 41.29200
C  46.09600 43.29000 38.40600
C  44.57400 43.11500 38.12800
H  43.94400 43.82300 36.96900
N  51.77100 43.47900 41.14300
C  51.38400 42.20000 40.85400
C  52.61900 41.38500 40.87100
C  53.71400 42.27700 41.21900
C  53.06800 43.54500 41.51900
C  52.67900 39.97200 40.49100
C  55.22900 41.92600 41.27200
O  55.55200 40.75400 41.12300
C  56.32800 42.83500 41.57700
N  52.02500 46.52200 41.85600
C  53.29100 46.03100 42.11800
C  54.20600 47.18000 42.51600
C  53.34700 48.48500 42.42800
C  51.95400 47.83300 42.09600
C  54.93500 47.14500 43.89500
C  53.84200 49.53900 41.44400
C  54.21000 50.94100 41.96200
N  49.21100 46.83700 41.50100
C  49.56400 48.15400 41.57800
C  48.40800 48.99800 41.29200
C  47.43400 48.03600 40.81500
C  47.97900 46.76400 40.93100
C  48.27000 50.48400 41.46500
C  46.10300 47.95100 40.31700
O  45.31600 48.87400 40.06400
C  45.81100 46.38800 40.15100
C  44.70000 46.02300 41.05600
O  44.80200 45.65800 42.24700
O  43.49300 46.08300 40.40700
C  42.25800 45.82900 41.22900
H  50.03900 40.76100 40.34400
H  54.76900 44.52800 42.22500
H  50.85200 49.71100 42.04100
H  45.65300 43.13800 40.52400
H  47.52500 41.31800 39.26100
H  47.11800 40.01400 41.15500
H  45.71100 41.11900 41.11000
H  47.04200 41.43400 42.27500
H  46.56100 42.45100 37.88800
H  46.44400 44.26200 38.05700
H  44.06100 43.37000 39.05600
H  44.39400 42.04700 38.00300
H  53.48400 39.91600 39.75800
H  51.74400 39.49000 40.20700
H  52.99100 39.40400 41.36700
H  56.26200 42.81600 42.66500
H  56.20200 43.80600 41.09700
H  57.33400 42.54200 41.27500
H  54.90000 47.15600 41.67500
H  53.24100 48.91500 43.42400
H  55.96000 47.49700 44.00300
H  54.84900 46.11400 44.23800
H  54.48800 47.83000 44.61500
H  53.13300 49.43600 40.62300
H  54.78500 49.17100 41.04100
H  53.44100 51.70100 41.82500
H  55.18600 51.30600 41.64100
H  54.27000 50.86300 43.04700
H  47.26100 50.89500 41.43800
H  48.84300 51.05300 40.73300
H  48.63400 50.62300 42.48300
H  45.50600 46.16300 39.12900
H  42.34600 44.87800 41.75500
H  41.50800 45.82000 40.43900
H  41.97200 46.58100 41.96500
Mg 26.09700 50.27600 27.03600
C  23.92800 51.68500 29.43500
C  28.29400 49.44700 29.65100
C  28.20900 49.13800 24.73100
C  23.92500 51.45400 24.58100
N  26.11500 50.57200 29.29800
C  25.08300 51.11000 30.00900
C  25.31000 50.76300 31.52500
C  26.76800 50.30500 31.59900
C  27.07500 50.11100 30.10000
C  27.83000 51.25900 32.30700
C  24.29000 49.64400 32.05900
C  23.70100 49.86600 33.46800
H  24.62500 50.55700 34.53400
N  28.01900 49.39100 27.13900
C  28.75000 49.15200 28.30900
C  30.04800 48.49500 27.94400
C  29.97500 48.29300 26.51900
C  28.70200 48.95600 26.06500
C  31.14200 48.08500 29.02200
C  30.89000 47.50300 25.61400
O  30.62500 47.30200 24.46400
C  32.27800 46.96000 26.13600
N  26.05400 50.23000 24.94000
C  27.00300 49.65000 24.24500
C  26.71400 49.80500 22.69300
C  25.22000 50.29800 22.66500
C  25.04800 50.72500 24.11600
C  27.81100 50.62000 21.93900
C  24.03400 49.28300 22.38200
C  22.98500 49.84200 21.45600
N  24.30900 51.46700 26.98700
C  23.59900 51.87100 25.88700
C  22.39700 52.50100 26.30800
C  22.49100 52.48000 27.75700
C  23.68200 51.83800 28.06600
C  21.31800 53.11300 25.39700
C  21.78800 52.82800 29.00900
O  20.65500 53.31600 29.21400
C  22.72500 52.22100 30.14900
C  23.03700 53.26600 31.16900
O  23.68400 54.22500 30.88000
O  22.46400 53.08900 32.36300
C  22.71500 54.00700 33.43300
H  29.02000 49.12700 30.40200
H  28.95100 48.94100 23.95500
H  23.33000 51.66900 23.69100
H  25.24900 51.67500 32.12000
H  26.78900 49.30800 32.03900
H  28.45100 51.69300 31.52300
H  28.35700 50.72000 33.09400
H  27.29400 52.04200 32.84400
H  24.62200 48.61200 32.17100
H  23.45900 49.62900 31.35500
H  23.44200 48.90000 33.90000
H  22.78400 50.45500 33.44000
H  31.33500 47.03100 28.82300
H  30.80100 48.00300 30.05500
H  31.99700 48.73000 28.81900
H  32.97400 46.53200 25.41500
H  32.04300 46.04000 26.67200
H  32.81600 47.59600 26.83800
H  26.75400 48.79100 22.29600
H  25.05000 51.21600 22.10200
H  27.35600 51.54900 21.59400
H  28.21000 50.03400 21.11100
H  28.59500 50.91800 22.63500
H  23.61100 48.90000 23.31100
H  24.47500 48.42000 21.88300
H  21.96700 49.53000 21.68900
H  23.13100 49.46300 20.44400
H  22.97800 50.93200 21.43200
H  20.50100 52.49600 25.77200
H  21.50300 52.83500 24.36000
H  21.14700 54.17000 25.60100
H  22.33400 51.36700 30.70100
H  22.69900 55.03700 33.07600
H  23.73700 53.99900 33.81200
H  21.90300 53.86800 34.14700

