158

Mg -2.28800 17.39500 24.90800
C  -2.60800 15.07800 27.64900
C  -3.22400 19.82900 27.08600
C  -1.87700 19.38800 22.49400
C  -2.14900 14.53600 22.77700
N  -2.69100 17.44700 27.19300
C  -2.76200 16.43600 28.04800
C  -3.32200 16.93200 29.39700
C  -4.04200 18.35200 29.01200
C  -3.31400 18.57300 27.63300
C  -5.57200 18.32500 28.77800
C  -2.31900 16.99400 30.55600
C  -2.62100 16.17600 31.92100
H  -1.44900 15.88800 32.82800
N  -2.32700 19.31500 24.85300
C  -2.77100 20.21800 25.77000
C  -2.56800 21.59700 25.32000
C  -2.15200 21.45300 24.00500
C  -2.06700 20.04900 23.73000
C  -2.85500 22.78500 26.19900
C  -1.90400 22.53000 22.90800
O  -1.74800 22.17800 21.72200
C  -1.88400 23.95000 23.44400
N  -2.13500 16.97600 22.83500
C  -1.89300 18.08500 22.04400
C  -1.85700 17.68400 20.58100
C  -1.99600 16.11600 20.66400
C  -2.06400 15.84600 22.17100
C  -2.82200 18.30200 19.61500
C  -0.71300 15.42800 20.03500
C  0.49400 15.26800 20.95100
N  -2.29600 15.26600 25.12100
C  -2.21400 14.27400 24.14600
C  -2.25800 12.91600 24.83400
C  -2.35800 13.19600 26.18500
C  -2.33000 14.61300 26.32600
C  -2.25000 11.70800 24.16300
C  -2.49700 12.56600 27.44800
O  -2.53800 11.38300 27.66000
C  -2.67100 13.75300 28.47500
C  -1.65500 13.69200 29.49300
O  -0.50100 14.17600 29.48400
O  -2.22700 12.92400 30.47900
C  -1.35900 12.45700 31.56800
H  -3.67600 20.58200 27.73600
H  -1.82500 20.05300 21.62900
H  -1.98800 13.72500 22.06400
H  -4.07700 16.22800 29.74700
H  -3.87700 19.18100 29.70000
H  -6.08600 19.12000 29.31900
H  -5.97400 17.46000 29.30600
H  -5.84000 18.11700 27.74200
H  -1.99800 17.96100 30.94200
H  -1.43400 16.51900 30.13300
H  -3.11200 15.25900 31.59500
H  -3.34700 16.81700 32.42200
H  -2.12300 23.58500 26.08100
H  -2.93400 22.55000 27.26000
H  -3.82400 23.23700 25.99000
H  -1.52000 24.66200 22.70200
H  -1.14200 24.06200 24.23400
H  -2.86400 24.21300 23.84200
H  -0.87300 17.99300 20.22700
H  -2.97100 15.75400 20.33900
H  -3.38700 19.10600 20.08700
H  -3.52200 17.55200 19.24600
H  -2.34900 18.67700 18.70700
H  -0.45700 16.05300 19.17900
H  -1.13000 14.47000 19.72400
H  0.34500 15.80500 21.88800
H  1.32300 15.70000 20.39100
H  0.57200 14.20200 21.16200
H  -2.33400 11.94800 23.10300
H  -3.13400 11.17200 24.50900
H  -1.32400 11.18600 24.40100
H  -3.61800 13.62400 28.99900
H  -1.36900 11.36900 31.50200
H  -1.79400 12.87000 32.47800
H  -0.30900 12.73100 31.46300
Mg 0.97900 8.22200 24.80300
C  1.56600 9.96300 27.68200
C  1.63900 5.26700 26.56000
C  0.55900 6.47200 21.99300
C  1.18800 11.22700 23.00700
N  1.42600 7.69800 26.92900
C  1.48000 8.57300 27.94200
C  1.60300 7.81300 29.31800
C  1.92000 6.31000 28.85800
C  1.64800 6.41300 27.32600
C  3.41200 5.90300 29.11900
C  0.29500 7.98900 30.15000
C  0.56800 8.36600 31.60400
H  1.61100 7.56400 32.36000
N  0.93300 6.16100 24.33000
C  1.27100 5.12600 25.15600
C  1.02300 3.87600 24.45600
C  0.59500 4.19200 23.11800
C  0.64100 5.68100 23.08500
C  1.15100 2.51100 25.06300
C  0.21300 3.34500 21.83700
O  -0.07700 3.81500 20.73200
C  0.36500 1.83400 21.91800
N  0.86800 8.83700 22.80000
C  0.76100 7.87800 21.80400
C  0.77400 8.52800 20.39100
C  0.94400 10.07300 20.74900
C  0.90000 10.10200 22.29600
C  1.84800 8.07600 19.36700
C  -0.04700 11.11200 20.12300
C  0.37500 11.82900 18.82000
N  1.36000 10.23800 25.11700
C  1.39900 11.34100 24.37500
C  1.45400 12.54000 25.17000
C  1.60300 11.99200 26.48100
C  1.49200 10.60900 26.41300
C  1.44800 14.01300 24.72100
C  1.79900 12.34600 27.74500
O  2.07000 13.44200 28.23800
C  1.66900 11.13800 28.65100
C  2.91000 10.98800 29.46200
O  4.07300 10.87400 29.02900
O  2.49800 11.13100 30.72600
C  3.54100 11.38900 31.70700
H  1.98700 4.30300 26.93900
H  0.50900 6.02700 20.99700
H  1.25600 12.11400 22.37400
H  2.38600 8.32500 29.87700
H  1.16500 5.60500 29.20500
H  4.03200 6.55500 29.73400
H  3.86800 5.67400 28.15600
H  3.34700 4.87800 29.48600
H  -0.25200 7.04600 30.15500
H  -0.39700 8.74300 29.77400
H  -0.37000 8.04800 32.05800
H  0.83700 9.41300 31.74400
H  1.70700 2.66100 25.98900
H  1.77300 1.89400 24.41500
H  0.15700 2.07500 25.16000
H  -0.01400 1.22300 22.73700
H  1.43700 1.66100 21.81800
H  -0.01100 1.44700 20.97100
H  -0.24300 8.40100 20.02100
H  1.90800 10.34600 20.32100
H  2.37200 7.34700 19.98500
H  2.42800 8.92700 19.01000
H  1.45400 7.55800 18.49200
H  -0.47400 11.93300 20.69900
H  -0.96300 10.59200 19.84300
H  1.43400 11.74600 18.57700
H  0.47700 12.90300 18.97700
H  -0.17700 11.64100 17.89900
H  1.26300 14.62300 25.60500
H  0.64000 14.16100 24.00400
H  2.43600 14.29400 24.35500
H  0.74800 11.33500 29.20000
H  3.30500 12.26900 32.30500
H  4.51200 11.49400 31.22200
H  3.59900 10.50400 32.34100

