158

Mg 7.35900 1.77700 27.75300
C  9.28200 0.60900 30.58200
C  5.81300 4.06000 29.75600
C  5.82800 2.90300 25.04700
C  8.84000 -0.77700 25.95800
N  7.40200 2.04500 30.05800
C  8.32400 1.57900 30.96600
C  8.21200 2.46400 32.25700
C  6.92200 3.35200 32.00800
C  6.65600 3.10000 30.51600
C  5.76800 2.98700 33.01100
C  9.54200 3.25600 32.48000
C  9.53800 4.17000 33.73800
H  10.42000 3.75800 34.90400
N  6.04700 3.27000 27.40400
C  5.50800 4.13200 28.33000
C  4.61300 5.10000 27.65700
C  4.73700 4.87700 26.31400
C  5.57400 3.62700 26.19100
C  3.72300 6.11700 28.40300
C  4.16900 5.71000 25.16500
O  4.46800 5.45300 23.98100
C  3.23300 6.77800 25.34400
N  7.48900 1.25700 25.67200
C  6.60100 1.74900 24.83300
C  6.66900 1.05000 23.49700
C  7.67300 -0.05200 23.77200
C  8.08300 0.14300 25.20100
C  5.35300 0.56200 23.00900
C  8.76200 -0.25500 22.76900
C  8.62100 -1.59000 22.11100
N  8.84200 0.24900 28.05500
C  9.37400 -0.71300 27.24300
C  10.42500 -1.48700 27.93300
C  10.47000 -0.90400 29.20800
C  9.42300 0.05000 29.29400
C  11.27200 -2.58300 27.29700
C  11.05100 -1.06200 30.50800
O  11.94700 -1.79500 30.92000
C  10.36600 -0.07200 31.38600
C  9.83600 -0.62600 32.63800
O  8.97400 -1.46700 32.78300
O  10.50800 -0.00900 33.67600
C  10.14800 -0.54000 35.05400
H  5.31600 4.84500 30.33000
H  5.36800 3.33600 24.15600
H  9.34500 -1.55300 25.38000
H  8.12600 1.78600 33.10600
H  7.18800 4.39500 32.17900
H  6.05400 2.11000 33.59100
H  4.97400 2.78700 32.29100
H  5.59100 3.85400 33.64800
H  9.95800 3.64100 31.54800
H  10.28300 2.50500 32.75500
H  8.52200 4.04300 34.11200
H  9.71700 5.22100 33.50800
H  3.82300 7.16800 28.13200
H  3.84600 5.96900 29.47600
H  2.81100 5.65800 28.02000
H  2.43300 6.24200 25.85500
H  2.78200 6.93300 24.36400
H  3.61500 7.70300 25.77600
H  7.00100 1.73400 22.71700
H  7.14800 -1.00500 23.83500
H  4.42000 0.72400 23.54900
H  5.40800 -0.52600 23.04400
H  5.32500 0.81000 21.94800
H  9.79700 -0.13000 23.08600
H  8.64300 0.57400 22.07100
H  7.76400 -1.77400 21.46300
H  8.74000 -2.32800 22.90400
H  9.47800 -1.74100 21.45500
H  11.84100 -2.09000 26.50900
H  10.75000 -3.36400 26.74400
H  11.94100 -3.05900 28.01300
H  11.12900 0.69400 31.52400
H  10.45500 -1.57900 35.17400
H  9.11800 -0.50400 35.40900
H  10.79700 0.04300 35.70800
Mg 46.87600 25.79200 28.55300
C  47.80500 27.82200 31.27000
C  45.62200 23.52300 30.83800
C  46.24500 23.76800 25.95700
C  48.52900 28.00500 26.35700
N  46.75300 25.70600 30.79200
C  47.13300 26.69300 31.71800
C  46.80900 26.18500 33.17300
C  46.13400 24.84100 32.95000
C  46.16800 24.66900 31.41900
C  46.80800 23.65600 33.74500
C  45.97900 27.32100 33.98500
C  46.59200 27.98900 35.13500
H  45.69400 28.52900 36.26100
N  46.08600 23.87200 28.45500
C  45.54600 23.15700 29.45500
C  44.93500 21.92100 28.93500
C  45.11300 21.94600 27.55700
C  45.85700 23.23900 27.21000
C  44.08200 20.93300 29.67900
C  44.52000 21.05900 26.50400
O  44.73400 21.18300 25.33800
C  43.75600 19.86000 26.86400
N  47.39200 25.84800 26.47600
C  46.94700 24.86900 25.64200
C  47.24300 25.20300 24.12900
C  47.74300 26.71800 24.24900
C  48.00000 26.83700 25.76100
C  48.25100 24.24100 23.43500
C  46.62800 27.75000 23.79000
C  47.04600 28.66500 22.60800
N  47.88100 27.56900 28.70800
C  48.53900 28.30500 27.74700
C  49.15600 29.38600 28.35600
C  48.85800 29.29000 29.70300
C  48.14300 28.09200 29.87900
C  50.10200 30.34400 27.69000
C  49.04400 29.91500 30.94800
O  49.51000 31.03400 31.22100
C  48.47900 28.92500 32.12000
C  49.59800 28.44300 32.98900
O  50.52500 27.74500 32.61500
O  49.59400 29.02000 34.23100
C  50.55200 28.54600 35.23700
H  45.20800 22.83900 31.58200
H  46.03500 23.18500 25.05800
H  48.95300 28.75300 25.68400
H  47.78500 25.98900 33.61600
H  45.08800 24.83800 33.25700
H  47.45400 23.94600 34.57300
H  47.29700 22.91200 33.11600
H  46.02000 23.02200 34.15200
H  45.07800 26.83400 34.36000
H  45.73900 28.19200 33.37500
H  47.05100 28.91400 34.78500
H  47.47600 27.49500 35.53800
H  43.07700 21.09600 29.29000
H  44.06200 21.32900 30.69500
H  44.45300 19.91100 29.60400
H  44.39100 19.37800 27.60700
H  43.51500 19.22000 26.01500
H  42.84000 20.22100 27.33300
H  46.25400 25.09900 23.68300
H  48.65600 26.99600 23.72300
H  48.24600 23.31200 24.00500
H  49.22400 24.65600 23.17300
H  47.85900 23.91000 22.47400
H  46.39400 28.44900 24.59300
H  45.66400 27.24900 23.70100
H  46.46800 28.57200 21.68800
H  48.08400 28.52200 22.30800
H  46.92200 29.71400 22.87900
H  50.79800 29.89800 26.98000
H  50.63100 30.83300 28.50800
H  49.51400 31.13500 27.22500
H  47.87000 29.57300 32.75000
H  51.18600 27.71300 34.93300
H  49.97800 28.24700 36.11500
H  51.26000 29.31900 35.53600

