158

Mg 47.62500 25.98600 27.63200
C  48.55400 28.22900 30.18800
C  46.36300 23.91600 30.04800
C  47.19900 23.68000 25.27400
C  49.49600 28.05900 25.41600
N  47.59100 26.00400 29.81900
C  47.87000 27.11800 30.69200
C  47.36600 26.89200 32.10900
C  47.00200 25.33100 32.06700
C  46.86700 25.11400 30.54200
C  47.94600 24.33700 32.81800
C  46.17200 27.90900 32.54000
C  46.36700 28.65400 33.83300
H  45.36900 28.41500 34.97600
N  46.77200 24.04900 27.60700
C  46.26900 23.37500 28.71400
C  45.64700 22.11200 28.23600
C  45.86600 22.08600 26.83600
C  46.66300 23.29800 26.49100
C  44.87100 21.08100 29.10900
C  45.47500 21.02400 25.86400
O  45.83800 21.06800 24.67200
C  44.52400 19.90100 26.32500
N  48.58600 25.74400 25.70900
C  48.06800 24.70700 24.92600
C  48.47300 24.98400 23.43200
C  48.99800 26.48500 23.41500
C  49.02400 26.82100 24.96000
C  49.42800 23.96100 22.78100
C  48.07300 27.44900 22.54100
C  48.65400 27.82000 21.12300
N  48.72900 27.80400 27.70500
C  49.40000 28.51100 26.73300
C  49.98300 29.69800 27.28900
C  49.65400 29.67400 28.68400
C  48.90700 28.50600 28.88600
C  50.71200 30.78200 26.62400
C  49.74400 30.36700 30.00500
O  50.24400 31.46000 30.26400
C  48.96100 29.51500 30.97200
C  49.86700 29.15100 32.17700
O  50.89200 28.42600 32.09300
O  49.55700 29.86000 33.26900
C  50.32300 29.50100 34.47700
H  45.93800 23.28400 30.83000
H  47.03800 23.05000 24.39700
H  50.04600 28.73900 24.76200
H  48.16600 26.94900 32.84600
H  46.05100 25.06000 32.52600
H  47.54300 23.67900 33.58800
H  48.79400 24.78300 33.33800
H  48.33000 23.68200 32.03700
H  45.19300 27.43000 32.54700
H  46.03600 28.67200 31.77300
H  46.40600 29.71200 33.57200
H  47.40000 28.44200 34.10800
H  43.88000 20.95300 28.67300
H  44.75000 21.39100 30.14700
H  45.35300 20.10800 29.20100
H  45.01300 19.28500 27.08000
H  44.20500 19.23000 25.52800
H  43.67200 20.39200 26.79600
H  47.55100 25.03800 22.85400
H  50.02400 26.53000 23.05100
H  48.95100 23.32300 22.03700
H  49.75500 23.25300 23.54300
H  50.29200 24.41300 22.29600
H  48.00300 28.37300 23.11600
H  47.07500 27.02700 22.42200
H  49.39400 27.06300 20.86200
H  49.20300 28.76000 21.07500
H  47.85200 27.84100 20.38600
H  51.55900 31.15800 27.19800
H  50.17900 31.71100 26.42200
H  51.10700 30.37400 25.69300
H  48.08600 30.08400 31.28700
H  49.72900 28.83000 35.09800
H  50.57500 30.43100 34.98600
H  51.29700 29.01500 34.41500
Mg 36.32900 49.47500 24.95700
C  36.18800 47.57600 27.98900
C  34.98300 52.10800 26.64000
C  36.12700 51.25100 22.12800
C  37.38200 46.63900 23.31300
N  35.79800 49.73900 27.04800
C  35.94500 48.89900 28.10200
C  35.59300 49.60800 29.38500
C  34.95800 50.93900 28.91400
C  35.34300 50.96600 27.46000
C  33.36200 51.04300 29.27700
C  36.80200 49.77300 30.39400
C  36.62400 49.64900 31.89300
H  35.18600 49.72100 32.40000
N  35.47800 51.40600 24.42500
C  35.06500 52.38200 25.28900
C  34.79400 53.61600 24.58200
C  35.18600 53.37200 23.23300
C  35.58100 51.95800 23.20700
C  34.04200 54.78500 25.15500
C  35.11900 54.41100 22.00800
O  35.41500 54.04700 20.88300
C  34.63100 55.85700 22.15900
N  36.69000 48.97200 22.98400
C  36.54800 49.90600 21.99900
C  36.79800 49.22300 20.61800
C  37.41200 47.79600 21.01400
C  37.17500 47.76100 22.54400
C  35.54900 49.22500 19.72300
C  38.95700 47.61300 20.69900
C  39.97300 48.61000 21.45500
N  36.80100 47.51000 25.48400
C  37.18100 46.46600 24.67200
C  37.27700 45.27700 25.50800
C  36.82500 45.66600 26.76000
C  36.49300 46.97400 26.72000
C  37.73100 43.85300 24.98200
C  36.63900 45.22900 28.13700
O  36.83400 44.12500 28.59700
C  36.29100 46.48900 29.00600
C  35.01400 46.14900 29.67600
O  33.86700 46.26100 29.20000
O  35.33400 45.49400 30.85000
C  34.21600 45.04700 31.71400
H  34.60400 52.96300 27.20500
H  36.13000 51.82000 21.19600
H  37.60900 45.69600 22.81100
H  34.93300 49.03200 30.03300
H  35.47000 51.78200 29.37800
H  32.76100 51.10500 28.36900
H  33.20300 51.96100 29.84300
H  33.05900 50.16900 29.85300
H  37.35800 50.70400 30.28600
H  37.55200 49.03600 30.10700
H  37.22900 50.50200 32.20400
H  37.16400 48.82900 32.36700
H  32.96400 54.76400 24.99800
H  34.37500 55.77600 24.84700
H  34.16300 54.84300 26.23700
H  34.57700 56.43600 21.23700
H  35.29400 56.40000 22.83200
H  33.71400 55.78700 22.74500
H  37.56200 49.77200 20.06700
H  36.94300 46.97900 20.46500
H  35.62400 49.79200 18.79500
H  34.68800 49.68100 20.21100
H  35.27100 48.23200 19.37000
H  39.11900 47.84600 19.64700
H  39.10700 46.55300 20.90200
H  40.06200 48.42600 22.52600
H  39.62700 49.63800 21.34500
H  40.96000 48.56500 20.99400
H  38.53500 43.97200 24.25600
H  36.84700 43.39500 24.53800
H  38.11600 43.36600 25.87700
H  37.05500 46.72000 29.74800
H  33.39100 45.75600 31.78800
H  34.67100 44.93000 32.69700
H  33.93300 44.09700 31.26200

