158

Mg 26.85400 50.91600 26.23100
C  25.25300 52.19700 29.01900
C  29.01800 49.25300 28.29500
C  28.58700 50.04700 23.47800
C  24.66100 52.55400 24.21800
N  27.01600 50.64400 28.44100
C  26.31300 51.32300 29.37700
C  26.81500 51.00400 30.79000
C  28.19700 50.37700 30.44800
C  28.00700 49.93600 28.95100
C  29.41600 51.33600 30.64400
C  25.77300 49.94800 31.50300
C  24.82500 50.47400 32.62000
H  24.96500 49.77600 33.95400
N  28.53500 49.69600 25.94000
C  29.27100 48.99600 26.87600
C  30.30500 48.21500 26.24900
C  30.26800 48.52800 24.80300
C  29.12100 49.51900 24.69800
C  31.16300 47.22800 27.07800
C  30.98200 47.79500 23.62800
O  30.86400 48.15100 22.44900
C  31.82400 46.61700 23.87300
N  26.81800 51.56600 24.17600
C  27.53500 50.90700 23.23000
C  27.21500 51.26400 21.75800
C  25.81000 51.94400 22.00300
C  25.72700 51.99500 23.56600
C  28.20600 52.26400 21.20900
C  24.72700 51.22600 21.20500
C  23.50500 52.11500 20.76800
N  25.37000 52.22300 26.46700
C  24.48500 52.77100 25.58500
C  23.48900 53.60800 26.30100
C  23.75700 53.33800 27.61200
C  24.87500 52.47600 27.67500
C  22.36100 54.21600 25.57400
C  23.35000 53.56300 28.97200
O  22.43100 54.20500 29.39200
C  24.32300 52.88900 29.91900
C  24.86300 53.90900 30.83900
O  25.81600 54.64800 30.72500
O  24.05200 53.93900 31.99900
C  24.36800 54.95300 33.11800
H  29.67500 48.69700 28.96700
H  29.11800 49.65600 22.60700
H  23.92400 52.95200 23.51800
H  26.84600 51.98500 31.26300
H  28.46100 49.53500 31.08800
H  29.71600 51.64100 29.64100
H  30.16900 50.68400 31.08700
H  29.11700 52.16000 31.29100
H  26.41900 49.14200 31.85100
H  25.00000 49.56800 30.83400
H  23.80900 50.37900 32.23900
H  25.11300 51.51400 32.77200
H  31.21800 47.45000 28.14400
H  32.12200 47.33300 26.57100
H  30.79100 46.23800 26.81200
H  32.69200 46.93600 24.45100
H  32.00100 46.04100 22.96400
H  31.14900 45.99000 24.45500
H  27.27800 50.40600 21.08900
H  25.72400 52.95900 21.61600
H  27.81400 53.08700 20.61200
H  28.93000 51.70600 20.61600
H  28.69500 52.68900 22.08600
H  24.31000 50.47000 21.87100
H  25.20200 50.73800 20.35400
H  22.75800 51.89200 21.53000
H  23.06000 51.85000 19.80900
H  23.78900 53.16700 20.75800
H  22.76300 54.88000 24.80900
H  21.82900 54.72000 26.38100
H  21.61900 53.55300 25.13000
H  23.73200 52.20800 30.53200
H  23.38300 55.04200 33.57600
H  24.67900 55.90600 32.68900
H  25.11400 54.55100 33.80400
Mg 5.83400 55.93600 41.01800
C  3.28500 53.35500 41.10900
C  7.91700 53.47800 39.39500
C  8.10000 58.36200 40.38000
C  3.49400 58.21700 41.89200
N  5.57300 53.61500 40.28600
C  4.45000 52.85600 40.45900
C  4.66800 51.44700 39.78700
C  6.27700 51.47600 39.54800
C  6.62400 52.96100 39.69900
C  7.06000 50.65100 40.51900
C  3.89200 51.41000 38.35500
C  3.15900 50.16600 37.96600
H  3.71100 49.43900 36.78200
N  7.75000 55.91400 40.06800
C  8.42400 54.80200 39.53900
C  9.77600 55.25600 39.20600
C  9.80400 56.65300 39.36600
C  8.51800 57.03700 39.90100
C  10.90800 54.27000 38.99400
C  11.00900 57.58300 39.06400
O  12.03300 57.02000 38.58200
C  11.10100 59.02600 39.32500
N  5.73000 58.02700 40.95100
C  6.85600 58.81000 40.78800
C  6.53000 60.33200 40.99600
C  5.08100 60.24200 41.49000
C  4.73700 58.75000 41.51000
C  7.49500 60.92600 42.01200
C  4.02800 61.15100 40.74400
C  3.61900 62.45900 41.55600
N  3.86000 55.87400 41.59900
C  3.00600 56.85400 41.96700
C  1.76500 56.25400 42.38300
C  1.82600 54.92700 42.06500
C  3.10400 54.72600 41.46300
C  0.62400 57.03900 42.84800
C  1.15800 53.62500 42.09800
O  0.03500 53.39000 42.52900
C  2.07900 52.56400 41.52500
C  1.27000 51.89900 40.49700
O  0.98100 52.46900 39.48300
O  1.04600 50.57900 40.74600
C  0.19200 49.82600 39.78000
H  8.66200 52.82100 38.94100
H  8.82400 59.17900 40.33200
H  2.79600 58.95300 42.29600
H  4.29400 50.63400 40.40900
H  6.48200 51.34200 38.48600
H  7.52000 51.30100 41.26400
H  7.87000 50.08300 40.06300
H  6.41600 50.04100 41.15200
H  4.62800 51.62300 37.57900
H  3.21700 52.26400 38.30800
H  2.15000 50.37300 37.60900
H  3.01000 49.43100 38.75700
H  11.19200 54.12900 37.95200
H  10.76500 53.25700 39.37100
H  11.75900 54.63400 39.57000
H  11.96900 59.56200 38.94000
H  11.04000 59.30900 40.37600
H  10.27900 59.46800 38.76200
H  6.60000 60.90800 40.07300
H  4.99600 60.46500 42.55400
H  8.19600 60.19000 42.40500
H  6.90400 61.29800 42.84900
H  8.13500 61.72700 41.64000
H  3.16100 60.53200 40.51400
H  4.47500 61.49500 39.81200
H  4.32300 62.72000 42.34700
H  2.61500 62.40300 41.97500
H  3.51500 63.25400 40.81700
H  0.99700 57.91900 43.37000
H  0.06100 56.39600 43.52500
H  -0.01200 57.35600 42.02100
H  2.32500 51.95800 42.39700
H  -0.74000 50.25600 40.14700
H  0.09400 48.74500 39.88400
H  0.31400 50.05000 38.72000

