158

Mg 1.39800 -0.71300 43.04800
C  4.92400 0.09500 42.69800
C  0.79300 2.14500 41.33000
C  -1.75300 -1.89500 42.62000
C  2.44400 -3.88300 44.24600
N  2.74200 0.83100 42.03500
C  4.05900 1.05600 42.14500
C  4.45500 2.33200 41.40800
C  3.11500 3.11300 41.15000
C  2.15700 1.96000 41.51700
C  2.90900 4.36600 41.99400
C  5.25600 1.98100 40.08200
C  6.70200 2.55500 39.85000
H  6.91000 3.19500 38.42000
N  -0.32200 0.09600 42.21100
C  -0.29600 1.23900 41.46500
C  -1.64600 1.49700 41.10500
C  -2.44000 0.34100 41.49900
C  -1.52900 -0.55600 42.12500
C  -2.02200 2.85000 40.51900
C  -3.88200 0.12200 41.20700
O  -4.63800 0.90800 40.57300
C  -4.72000 -1.03000 41.65000
N  0.45000 -2.63000 43.46900
C  -0.88800 -2.84400 43.23700
C  -1.35900 -4.20300 43.83800
C  0.07300 -4.96300 44.12600
C  1.06900 -3.77800 43.95600
C  -2.13600 -4.03100 45.19000
C  0.50900 -6.15300 43.13800
C  0.85800 -7.47400 43.85700
N  3.24900 -1.71600 43.48000
C  3.49700 -2.95200 44.02100
C  4.92100 -3.18800 44.11400
C  5.51700 -1.98600 43.65800
C  4.45300 -1.12000 43.27400
C  5.57400 -4.42300 44.66400
C  6.76300 -1.25700 43.51100
O  7.90800 -1.58500 43.81100
C  6.39400 0.12100 42.84000
C  6.97300 1.20300 43.71200
O  6.49000 1.49500 44.80700
O  8.08200 1.88400 43.15200
C  8.67700 2.99700 43.93200
H  0.48300 3.14500 41.02000
H  -2.79200 -2.23300 42.64600
H  2.69100 -4.91100 44.52100
H  5.13200 2.90400 42.04200
H  2.87100 3.49500 40.15900
H  3.88600 4.61200 42.41200
H  2.06600 4.23200 42.67200
H  2.60400 5.17800 41.33500
H  4.58600 2.25700 39.26800
H  5.36000 0.89600 40.04900
H  7.47600 1.79500 39.95400
H  6.76400 3.35700 40.58500
H  -2.31400 3.56400 41.28800
H  -2.90100 2.80500 39.87600
H  -1.23700 3.31900 39.92600
H  -5.76500 -0.72600 41.70800
H  -4.46100 -1.11900 42.70500
H  -4.53900 -1.98700 41.15900
H  -1.85600 -4.82300 43.09200
H  0.20900 -5.31000 45.15000
H  -3.01200 -4.67600 45.13100
H  -2.35500 -2.96400 45.22800
H  -1.49000 -4.41000 45.98200
H  1.31500 -5.81100 42.48900
H  -0.35500 -6.26900 42.48300
H  -0.00400 -8.12900 43.72600
H  1.06100 -7.19200 44.89000
H  1.75900 -7.83300 43.35900
H  5.44500 -5.33900 44.08700
H  5.11300 -4.55000 45.64300
H  6.63000 -4.25500 44.87500
H  6.92800 0.33100 41.91400
H  8.79700 2.71800 44.97900
H  8.02300 3.86800 43.90500
H  9.72000 3.18300 43.67500
Mg 16.03100 52.29900 24.84400
C  17.40000 51.45200 27.97600
C  13.09300 53.35300 26.52900
C  14.49400 52.87300 21.85800
C  18.70700 50.70700 23.23700
N  15.39800 52.49700 27.01100
C  16.12500 52.08300 28.09800
C  15.47300 52.35000 29.42200
C  14.06700 52.77400 28.92100
C  14.13800 52.92300 27.40200
C  12.89800 51.91100 29.34900
C  16.19500 53.33400 30.37700
C  16.43100 52.98100 31.85200
H  15.29700 52.10000 32.48200
N  14.10400 53.10700 24.29000
C  13.09800 53.47000 25.12500
C  12.00900 53.91700 24.34100
C  12.39700 53.82800 22.96300
C  13.69400 53.26100 22.98600
C  10.72300 54.35600 24.97500
C  11.74400 54.33600 21.67600
O  12.34900 54.29400 20.56900
C  10.39400 54.97400 21.76500
N  16.49700 51.71000 22.81300
C  15.73100 52.13300 21.72700
C  16.42100 51.74800 20.48400
C  17.94100 51.64200 20.92600
C  17.72600 51.32100 22.41800
C  15.84900 50.38500 19.93300
C  18.89900 52.94300 20.81000
C  19.31700 53.42500 19.43300
N  17.79700 51.41100 25.38800
C  18.75200 50.81600 24.65400
C  19.72100 50.23700 25.49500
C  19.24800 50.50700 26.81400
C  18.00700 51.11000 26.71500
C  21.03100 49.57800 25.06700
C  19.61900 50.31100 28.17700
O  20.57500 49.76700 28.71200
C  18.37000 50.91500 29.04500
C  17.74600 49.86300 29.90000
O  16.93000 49.05100 29.45600
O  18.29900 49.82700 31.20300
C  17.76700 48.78500 32.09900
H  12.31000 53.89700 27.06100
H  14.14500 53.00400 20.83100
H  19.65200 50.48700 22.73600
H  15.54800 51.39200 29.93600
H  13.86000 53.73900 29.38400
H  13.17200 51.10000 30.02300
H  12.36700 51.47800 28.50100
H  12.19100 52.59200 29.82300
H  15.80100 54.34800 30.44500
H  17.18000 53.41700 29.91900
H  16.63200 53.86100 32.46300
H  17.28300 52.30700 31.94300
H  10.06400 53.78800 24.31900
H  10.56400 55.42000 24.79700
H  10.52500 54.09500 26.01500
H  9.96400 55.00200 20.76400
H  10.37600 55.93300 22.28300
H  9.82400 54.21100 22.29500
H  16.35400 52.61600 19.82800
H  18.50200 50.91700 20.33500
H  14.91000 50.19800 20.45400
H  16.57400 49.57400 19.87300
H  15.64500 50.71500 18.91400
H  19.79800 52.81200 21.41300
H  18.46100 53.79000 21.33800
H  19.05000 54.45100 19.18100
H  18.91600 52.66900 18.75800
H  20.40700 53.44300 19.41900
H  20.81000 48.77600 24.36200
H  21.51300 49.14100 25.94200
H  21.71400 50.26800 24.57000
H  18.88400 51.63200 29.68600
H  17.06900 49.18100 32.83600
H  18.67500 48.40200 32.56500
H  17.43300 47.93300 31.50600

