158

Mg 36.30200 48.83400 26.34800
C  36.58700 46.75000 29.23100
C  35.00900 51.25600 28.39500
C  35.95700 50.74300 23.70100
C  37.66800 46.20600 24.45600
N  35.78700 49.01200 28.59200
C  36.00100 48.00700 29.56100
C  35.73000 48.58100 30.96400
C  34.96900 49.94300 30.60200
C  35.34300 50.13700 29.14400
C  33.37400 49.91000 30.94800
C  36.98100 48.73300 31.65600
C  36.93900 48.98900 33.19200
H  35.55200 49.14400 33.82200
N  35.67100 50.76700 26.11800
C  35.10700 51.58700 27.05100
C  34.66600 52.78500 26.47600
C  34.97500 52.69500 25.10500
C  35.57400 51.39300 24.87700
C  34.20000 54.05500 27.24400
C  34.72600 53.73500 23.99100
O  35.06800 53.57400 22.79100
C  33.82300 54.89500 24.20100
N  36.79900 48.49600 24.40100
C  36.47100 49.47800 23.43200
C  36.74200 48.95700 21.96900
C  37.40700 47.65100 22.29500
C  37.28100 47.43000 23.76400
C  35.42300 48.84100 21.11000
C  38.95600 47.45100 21.77000
C  39.93900 47.85500 22.90100
N  36.83800 46.76500 26.65300
C  37.42000 45.84600 25.79900
C  37.67500 44.59600 26.52200
C  37.46700 44.92900 27.90900
C  36.86000 46.20400 27.95800
C  38.08500 43.30300 25.87800
C  37.57300 44.42200 29.25500
O  37.97900 43.29400 29.65400
C  37.02700 45.56400 30.21900
C  35.87800 44.97500 30.96800
O  35.00700 44.29900 30.46600
O  35.95000 45.31400 32.28500
C  34.84500 44.93200 33.17200
H  34.76500 52.15900 28.95800
H  35.65000 51.31500 22.82300
H  38.06000 45.49600 23.72500
H  35.19400 47.80500 31.51100
H  35.41700 50.72100 31.22100
H  33.07500 50.65300 31.68700
H  33.12300 48.89000 31.24100
H  32.81600 50.14900 30.04300
H  37.43800 49.56900 31.12600
H  37.60000 47.84000 31.57200
H  37.51200 49.89000 33.40800
H  37.43600 48.19000 33.74200
H  33.32400 54.45000 26.73000
H  35.03600 54.75400 27.22000
H  33.92600 53.82000 28.27300
H  32.81900 54.53800 24.43400
H  33.88800 55.44500 23.26300
H  34.27400 55.58600 24.91400
H  37.40700 49.58000 21.37100
H  36.84900 46.82000 21.86500
H  34.46500 48.73200 21.61800
H  35.59600 47.91200 20.56700
H  35.34600 49.68500 20.42400
H  39.21600 47.84600 20.78800
H  39.00100 46.38500 21.54700
H  40.77500 48.28700 22.35100
H  40.38600 47.03600 23.46500
H  39.56000 48.62900 23.56900
H  39.02100 42.85800 26.21600
H  37.86500 43.24500 24.81200
H  37.39400 42.56000 26.27700
H  37.82100 45.82600 30.91800
H  34.18800 44.16500 32.76200
H  34.29800 45.84400 33.40900
H  35.29500 44.44000 34.03400
Mg -12.41700 39.11500 41.28800
C  -10.33400 36.33300 40.57400
C  -10.28100 41.07100 39.66500
C  -14.88300 41.59100 41.23000
C  -14.86800 36.78800 42.49700
N  -10.41600 38.79300 40.45500
C  -9.81800 37.56300 40.10200
C  -8.57200 37.66800 39.18900
C  -8.54900 39.23600 38.92900
C  -9.83500 39.74400 39.74000
C  -7.23200 39.95100 39.29600
C  -8.50100 36.77900 37.92700
C  -7.61300 35.51100 37.82500
H  -6.44300 35.67200 36.92500
N  -12.43300 41.13300 40.80900
C  -11.35700 41.76000 40.21700
C  -11.63500 43.13200 40.02600
C  -13.01800 43.33900 40.32900
C  -13.55100 41.99600 40.83100
C  -10.70500 44.19400 39.45800
C  -13.79000 44.66100 40.31000
O  -13.27100 45.65300 39.81600
C  -15.11500 44.80600 40.99800
N  -14.57000 39.15800 41.79400
C  -15.30700 40.36300 41.76400
C  -16.67500 40.14500 42.34000
C  -16.70000 38.60600 42.57700
C  -15.30900 38.11500 42.30600
C  -17.08100 41.03200 43.49000
C  -17.76700 37.85100 41.75900
C  -19.01800 37.66000 42.57000
N  -12.66300 36.96100 41.34900
C  -13.62600 36.21500 42.10200
C  -13.17500 34.87000 42.21600
C  -11.95100 34.83600 41.59600
C  -11.66300 36.15300 41.15600
C  -13.84200 33.67000 42.90900
C  -10.79300 34.06700 41.27100
O  -10.62600 32.83600 41.46300
C  -9.71700 34.94500 40.56400
C  -8.38300 34.84900 41.29700
O  -7.45200 34.07500 40.96000
O  -8.16400 35.82600 42.26000
C  -6.71400 36.03100 42.49200
H  -9.73800 41.63300 38.90200
H  -15.69100 42.32200 41.29300
H  -15.59400 36.12800 42.97700
H  -7.74700 37.34500 39.82300
H  -8.85800 39.48700 37.91400
H  -6.40700 39.24900 39.17100
H  -7.29300 40.10100 40.37400
H  -7.12400 40.90500 38.78100
H  -8.12200 37.42900 37.13800
H  -9.51600 36.60900 37.56800
H  -8.13700 34.57700 37.62600
H  -7.22100 35.22700 38.80200
H  -9.73300 43.76800 39.20900
H  -10.72300 44.99400 40.19900
H  -11.13200 44.48700 38.49900
H  -15.79100 44.64200 40.15900
H  -15.31500 45.77000 41.46600
H  -15.13800 44.13500 41.85700
H  -17.39300 40.28200 41.53100
H  -16.76700 38.45100 43.65400
H  -17.51200 40.43900 44.29600
H  -17.84600 41.76200 43.22500
H  -16.19300 41.54100 43.86600
H  -17.45300 36.80800 41.71800
H  -17.99200 38.37500 40.83000
H  -19.05800 38.50900 43.25200
H  -18.85100 36.72300 43.10000
H  -19.92500 37.73500 41.97000
H  -13.10000 32.96600 43.28500
H  -14.52500 33.32300 42.13400
H  -14.48700 33.95000 43.74200
H  -9.74500 34.55600 39.54600
H  -6.14200 36.28300 41.59900
H  -6.44600 35.18500 43.12600
H  -6.52600 36.90100 43.12000

