158

Mg 1.58000 8.83500 27.05200
C  2.23500 10.86000 29.68800
C  1.47800 6.08500 29.24600
C  1.19500 6.65100 24.41100
C  1.80900 11.44100 24.94200
N  1.82900 8.52700 29.25600
C  2.10000 9.49600 30.11900
C  1.88100 9.04200 31.51600
C  1.74500 7.42900 31.34300
C  1.61000 7.30700 29.81100
C  2.91500 6.61800 31.90100
C  0.59700 9.73600 32.13100
C  0.02400 9.15100 33.41300
H  0.91800 8.64700 34.50500
N  1.41100 6.67900 26.78800
C  1.37600 5.76300 27.85300
C  1.27300 4.44000 27.36200
C  1.37900 4.57600 25.95000
C  1.29000 6.03600 25.65900
C  1.41400 3.12300 28.15900
C  1.48300 3.51300 24.86500
O  1.51900 3.76300 23.66000
C  1.66100 2.03600 25.21600
N  1.45400 8.95600 24.98700
C  1.27700 8.01600 24.09700
C  1.14900 8.52400 22.75700
C  0.90800 10.07400 22.98700
C  1.44200 10.19300 24.42700
C  2.37700 8.33100 21.85400
C  -0.56700 10.45600 22.80900
C  -0.94200 11.67600 21.91000
N  2.08600 10.77900 27.25200
C  2.18500 11.72100 26.29500
C  2.38600 12.99400 26.92400
C  2.43700 12.65200 28.23400
C  2.22500 11.30400 28.37400
C  2.31600 14.31700 26.28800
C  2.61100 13.23300 29.56400
O  2.61800 14.40300 29.94400
C  2.33200 12.10500 30.53200
C  3.31700 12.13800 31.60900
O  4.39000 11.56400 31.71400
O  2.65000 12.70600 32.68100
C  3.06700 12.41000 34.09900
H  1.44700 5.29400 29.99800
H  1.01300 6.01300 23.54400
H  1.62800 12.26600 24.25100
H  2.78400 9.26100 32.08700
H  0.83300 7.09500 31.83900
H  3.43800 6.08500 31.10800
H  2.56500 5.82500 32.56200
H  3.54800 7.26500 32.50900
H  -0.25000 9.73300 31.44500
H  0.84100 10.74100 32.47400
H  -0.54700 8.28200 33.08700
H  -0.73500 9.80000 33.84900
H  2.35700 2.67900 27.83900
H  0.59800 2.40500 28.08100
H  1.32000 3.17300 29.24400
H  2.57000 1.93700 25.81000
H  1.86700 1.61000 24.23300
H  0.75600 1.58000 25.61700
H  0.30100 8.06100 22.25100
H  1.54900 10.67600 22.34300
H  2.14800 7.50900 21.17500
H  3.24000 8.00600 22.43500
H  2.68600 9.19700 21.26800
H  -0.95700 10.69700 23.79800
H  -1.09300 9.55600 22.49200
H  -1.40600 12.42000 22.55800
H  -1.72400 11.31800 21.24000
H  -0.09300 12.16400 21.43000
H  1.34100 14.68200 26.61000
H  2.17400 14.21400 25.21200
H  3.13700 14.95500 26.61400
H  1.31700 12.23300 30.90800
H  3.54100 11.43300 34.19200
H  2.32100 12.54500 34.88100
H  3.92200 13.04200 34.33700
Mg 35.89700 2.51900 29.86700
C  33.59600 3.31500 32.31200
C  38.30100 2.36400 32.25900
C  37.95500 1.68500 27.48800
C  33.21100 2.66000 27.50300
N  35.90300 2.79800 31.98300
C  34.86300 3.01500 32.82900
C  35.25500 3.03200 34.29500
C  36.79100 2.92500 34.29900
C  36.97100 2.62300 32.76100
C  37.55700 4.14900 34.85500
C  34.51500 1.97900 35.22100
C  33.90500 2.51500 36.47700
H  34.55800 3.62400 37.17100
N  37.92200 2.10500 29.85500
C  38.77200 2.07800 30.93800
C  40.18300 1.83700 30.46000
C  40.09900 1.58800 29.03100
C  38.62100 1.75700 28.73800
C  41.36400 1.74400 31.35200
C  41.17200 1.04600 28.01100
O  40.89600 0.71900 26.88800
C  42.57600 0.75600 28.53800
N  35.59100 2.09500 27.84500
C  36.62400 1.93200 27.04400
C  36.26100 1.82200 25.57800
C  34.78500 2.06100 25.58800
C  34.45200 2.30100 27.08600
C  36.97900 2.71200 24.55100
C  33.80400 1.13600 24.72800
C  33.20000 -0.04600 25.43100
N  33.80200 2.95800 29.88500
C  32.82600 2.93500 28.85200
C  31.49800 3.38700 29.40500
C  31.76600 3.61000 30.73000
C  33.14100 3.31100 30.98300
C  30.20400 3.56900 28.61000
C  31.14600 4.04500 31.98000
O  30.01500 4.37900 32.26500
C  32.32800 3.80000 33.07000
C  32.41800 5.00400 33.84200
O  32.99100 6.00400 33.52900
O  31.69900 4.87400 34.98100
C  31.68100 6.03000 35.92000
H  39.12200 2.38200 32.97800
H  38.53900 1.24300 26.67900
H  32.39400 2.70100 26.78000
H  34.96900 4.01900 34.66000
H  37.16000 2.02800 34.79700
H  37.18300 4.71200 35.71000
H  37.59800 4.87500 34.04300
H  38.55600 3.76800 35.06800
H  35.15800 1.13500 35.47100
H  33.73000 1.53900 34.60500
H  33.79700 1.65800 37.14100
H  32.85300 2.73400 36.29800
H  41.89700 0.80000 31.23600
H  41.19300 2.02000 32.39200
H  41.99800 2.47200 30.84600
H  43.16300 0.63000 27.62900
H  42.78700 -0.09000 29.19300
H  42.99600 1.50100 29.21400
H  36.54500 0.81800 25.26200
H  34.49800 3.00300 25.12100
H  36.32600 3.52700 24.24000
H  37.43000 2.07400 23.79000
H  37.84400 3.19100 25.00800
H  34.46300 0.73300 23.95900
H  33.00800 1.81600 24.42400
H  33.72700 -0.43200 26.30300
H  33.24900 -0.87900 24.72900
H  32.17200 0.15700 25.73300
H  29.39900 3.14900 29.21200
H  30.12400 3.11700 27.62200
H  29.98800 4.63000 28.47900
H  31.93900 3.02000 33.72400
H  30.91000 6.75800 35.66700
H  32.63600 6.55500 35.96600
H  31.35300 5.59100 36.86100

