158

Mg 47.42700 24.91600 28.50200
C  48.37600 27.11800 31.04300
C  46.42200 22.64000 31.00300
C  47.19600 22.59400 26.10700
C  49.17200 26.96500 26.20400
N  47.41700 24.97500 30.75500
C  47.72100 25.98400 31.53500
C  47.42600 25.66400 32.95400
C  47.00900 24.18400 32.96100
C  46.86700 23.87500 31.46500
C  47.90900 23.22200 33.72500
C  46.30200 26.64800 33.58100
C  46.64600 27.27400 34.97200
H  45.55200 27.17100 36.02100
N  46.66700 22.97200 28.53200
C  46.31900 22.21700 29.65400
C  45.84500 20.89400 29.15400
C  45.99800 20.96400 27.73300
C  46.66900 22.17900 27.42200
C  45.34700 19.80200 30.02800
C  45.62000 19.87700 26.69700
O  45.53200 19.98000 25.48500
C  45.24600 18.52200 27.22600
N  48.24200 24.72100 26.47000
C  47.96800 23.64500 25.69600
C  48.27200 23.83900 24.22800
C  48.86400 25.35700 24.23700
C  48.75200 25.73500 25.72000
C  49.25800 22.78200 23.70300
C  48.17300 26.31400 23.25100
C  46.81400 26.91900 23.66100
N  48.56400 26.71100 28.54100
C  49.15600 27.41500 27.52600
C  49.51300 28.72300 27.97800
C  49.39200 28.62600 29.39200
C  48.80500 27.33600 29.67100
C  49.85500 29.92000 27.14700
C  49.48200 29.35800 30.61700
O  49.88400 30.47000 30.80600
C  48.79800 28.39800 31.78200
C  49.85400 28.17500 32.74000
O  50.71900 27.28800 32.70600
O  49.63800 28.99200 33.82800
C  50.64900 28.80500 34.91300
H  46.13500 21.94500 31.79600
H  46.96200 21.92600 25.27500
H  49.73800 27.64500 25.56400
H  48.37400 25.83600 33.46300
H  46.00600 24.10200 33.37900
H  48.75600 23.72000 34.19700
H  48.33500 22.42300 33.11900
H  47.24000 22.76100 34.45200
H  45.39500 26.08200 33.79300
H  46.06900 27.53400 32.99100
H  46.75400 28.35100 34.84600
H  47.62400 26.94400 35.32200
H  45.86400 18.85800 29.85100
H  44.31800 19.70300 29.68300
H  45.33200 20.11500 31.07200
H  44.86000 17.84400 26.46500
H  44.37500 18.54500 27.88000
H  46.15600 18.07500 27.62800
H  47.34400 23.74500 23.66400
H  49.90600 25.30300 23.92200
H  48.86100 22.41600 22.75600
H  49.61800 21.93600 24.28800
H  50.20400 23.28800 23.50500
H  47.98800 25.74400 22.34100
H  48.90600 27.08000 22.99900
H  46.03000 26.66100 22.95000
H  46.88200 28.00600 23.71500
H  46.47700 26.56000 24.63300
H  49.82900 30.83000 27.74600
H  49.08400 29.91900 26.37700
H  50.86600 29.73800 26.78200
H  47.96100 28.92200 32.24400
H  50.46600 27.77400 35.21700
H  50.57600 29.52400 35.72900
H  51.67800 28.83500 34.55500
Mg 6.80600 53.38600 41.09200
C  6.33500 49.92300 40.61400
C  9.92000 52.92800 39.94800
C  7.00300 56.68200 40.94800
C  3.45500 53.55900 42.18600
N  8.01600 51.57000 40.23700
C  7.60800 50.28100 40.15500
C  8.78800 49.39900 39.66300
C  10.02100 50.35500 39.74200
C  9.29600 51.68900 39.91000
C  11.13000 50.04300 40.80700
C  8.65300 48.78600 38.20700
C  8.33900 49.82700 37.08100
H  7.20500 49.42600 36.24500
N  8.30400 54.65300 40.50500
C  9.53400 54.24500 40.12700
C  10.33700 55.41600 39.84200
C  9.52000 56.56200 40.08400
C  8.21500 56.00900 40.50000
C  11.74200 55.50900 39.18300
C  10.03000 57.97600 40.06900
O  11.20800 58.17200 39.86800
C  9.15800 59.10900 40.36500
N  5.38600 54.89800 41.32300
C  5.71400 56.20000 41.26600
C  4.56800 57.10500 41.78200
C  3.51000 56.13200 42.38500
C  4.12200 54.74600 41.92300
C  5.01100 58.16100 42.92700
C  2.00200 56.44600 42.03800
C  0.95400 56.30200 43.27300
N  5.17000 52.06300 41.31900
C  3.88000 52.26000 41.82400
C  3.15800 51.02800 41.96700
C  4.15100 50.08900 41.57900
C  5.29700 50.74700 41.16100
C  1.76800 50.72800 42.50600
C  4.32700 48.62700 41.49400
O  3.58200 47.69000 41.79900
C  5.81600 48.44900 41.00700
C  5.65600 47.55100 39.81900
O  5.00300 47.84700 38.87200
O  6.35000 46.37500 39.95500
C  6.37700 45.52200 38.68000
H  10.93800 52.78500 39.57900
H  6.95600 57.75600 41.13800
H  2.46000 53.67300 42.62000
H  8.81500 48.54400 40.33900
H  10.44000 50.42500 38.73800
H  11.05700 50.77800 41.60800
H  12.12200 50.03100 40.35400
H  10.87900 49.10300 41.29800
H  7.79200 48.12500 38.31300
H  9.54100 48.20400 37.96300
H  9.20900 49.87400 36.42700
H  8.24200 50.83700 37.47800
H  11.97700 54.58500 38.65400
H  12.52700 55.69200 39.91600
H  11.83300 56.29300 38.43200
H  8.28600 59.09700 39.71200
H  9.75400 60.02100 40.33800
H  8.82900 59.04100 41.40200
H  4.17200 57.67600 40.94200
H  3.62600 55.99500 43.46000
H  6.01700 57.99000 43.31200
H  4.37300 58.10300 43.80900
H  5.06300 59.15900 42.49200
H  1.67700 55.69900 41.31500
H  1.95700 57.42700 41.56400
H  0.30900 57.17800 43.34400
H  1.55100 56.26300 44.18300
H  0.34900 55.39600 43.31200
H  1.48400 49.75400 42.10900
H  1.03300 51.49200 42.25300
H  1.66200 50.67700 43.59000
H  6.35800 47.83500 41.72600
H  7.43100 45.26700 38.57300
H  6.15400 46.00300 37.72700
H  5.68600 44.68000 38.71800

