158

Mg 43.37500 5.07200 47.03500
C  40.93100 7.45900 46.96500
C  40.83000 2.63700 46.75800
C  45.68100 2.72100 46.58000
C  45.82000 7.52000 47.21100
N  41.09200 5.04100 46.79200
C  40.32100 6.16800 46.85300
C  38.90100 5.82100 46.88000
C  38.86200 4.26700 46.91600
C  40.34800 3.92900 46.81800
C  38.25000 3.62200 48.21000
C  38.10200 6.36000 45.67500
C  38.71200 6.09300 44.23100
H  38.94500 7.32600 43.23200
N  43.27600 2.98600 46.80200
C  42.13000 2.18600 46.73400
C  42.55200 0.79000 46.70800
C  43.99100 0.73900 46.70800
C  44.40400 2.16000 46.74700
C  41.63800 -0.47100 46.59400
C  44.87000 -0.52200 47.00500
O  44.45800 -1.64000 47.03600
C  46.35300 -0.37600 47.19300
N  45.51700 5.14200 47.09400
C  46.20400 4.03500 46.71500
C  47.76000 4.41900 46.42300
C  47.79800 5.82500 46.88200
C  46.30200 6.21700 47.08100
C  48.84500 3.52400 47.21000
C  48.63100 6.85300 45.97900
C  49.85600 7.43500 46.64900
N  43.37700 7.11300 47.14700
C  44.42600 7.96000 47.19100
C  43.88100 9.35400 47.06600
C  42.50200 9.15600 46.94600
C  42.27800 7.79000 47.10000
C  44.82800 10.54600 46.92900
C  41.36400 9.81500 46.85700
O  41.22100 11.03300 46.69300
C  40.21000 8.78800 46.86700
C  39.29200 9.00900 47.98000
O  39.53800 8.67000 49.14900
O  38.12200 9.63300 47.48800
C  37.14900 9.99200 48.59800
H  40.06900 1.86600 46.89800
H  46.44700 2.00200 46.28200
H  46.57600 8.30800 47.18300
H  38.36900 6.18400 47.75900
H  38.42100 3.96800 45.96500
H  38.86000 2.79700 48.58000
H  37.20400 3.43600 47.96600
H  38.22300 4.38500 48.98700
H  38.02000 7.43900 45.80600
H  37.12000 5.88900 45.67900
H  38.01200 5.47300 43.67100
H  39.62900 5.50900 44.30000
H  41.88500 -1.08000 45.72500
H  40.60900 -0.13100 46.47900
H  41.79600 -1.09700 47.47300
H  46.40500 0.31700 48.03300
H  46.84900 -0.01200 46.29400
H  46.68100 -1.34600 47.56800
H  47.90200 4.25600 45.35500
H  48.20300 5.83200 47.89400
H  49.30900 2.79400 46.54600
H  48.26600 2.94600 47.93000
H  49.67300 4.07200 47.65800
H  48.16600 7.81300 45.75800
H  48.94800 6.36900 45.05500
H  49.92900 8.51900 46.55300
H  50.79100 7.02800 46.26300
H  50.05100 7.14600 47.68100
H  45.64800 10.38900 46.22800
H  45.24900 10.78800 47.90500
H  44.19700 11.39100 46.65500
H  39.69000 8.92700 45.92000
H  36.80800 9.06700 49.06200
H  36.27600 10.46400 48.14600
H  37.69800 10.63200 49.28800
Mg 9.44100 47.19900 26.41100
C  7.65400 47.36600 29.42400
C  12.08800 48.57000 28.09300
C  11.05400 47.48700 23.44800
C  6.40600 46.83000 24.72000
N  9.76600 47.97600 28.59200
C  8.94000 47.83900 29.61600
C  9.63300 48.30600 30.92800
C  10.85300 49.08500 30.37400
C  10.90600 48.55600 28.94000
C  10.66200 50.62000 30.41400
C  10.00500 47.02700 31.74900
C  10.05100 47.28800 33.31300
H  9.98300 46.09700 34.27700
N  11.38900 47.75500 25.86200
C  12.35700 48.30400 26.71000
C  13.67800 48.25600 26.00800
C  13.39200 47.95900 24.60000
C  11.86400 47.69100 24.54400
C  14.99000 48.72800 26.67300
C  14.31100 47.94300 23.43000
O  13.90200 47.74400 22.31600
C  15.76100 48.19400 23.62900
N  8.78200 47.19800 24.42600
C  9.65200 47.31300 23.36500
C  8.92500 47.10900 22.01500
C  7.44100 46.93400 22.43800
C  7.51000 47.02800 23.91900
C  9.21400 48.29900 21.11400
C  6.69300 45.64600 22.00400
C  7.60600 44.32500 22.10800
N  7.43300 46.93900 26.92900
C  6.30600 46.83700 26.15900
C  5.09700 46.73800 27.10400
C  5.64100 46.88100 28.38100
C  6.99300 47.01900 28.22100
C  3.66700 46.42800 26.78400
C  5.22800 46.90900 29.74800
O  4.11600 46.89300 30.30700
C  6.59100 47.20100 30.52300
C  6.77400 46.07400 31.50000
O  6.94800 44.91500 31.06300
O  6.71900 46.46600 32.77900
C  6.90200 45.28300 33.69700
H  12.87600 49.06000 28.66900
H  11.52700 47.61700 22.47200
H  5.48300 46.66600 24.16000
H  8.96500 49.03500 31.38600
H  11.70300 48.69200 30.93200
H  9.82800 50.92900 31.04400
H  10.53200 50.87900 29.36300
H  11.58000 51.07900 30.78000
H  10.97500 46.69700 31.37900
H  9.31600 46.20700 31.54200
H  9.28200 47.96100 33.69300
H  10.96700 47.84300 33.51700
H  15.72500 47.92600 26.74000
H  14.86600 48.94000 27.73400
H  15.33500 49.64900 26.20400
H  16.36700 48.29400 22.72900
H  15.96200 47.22900 24.09500
H  16.01100 49.03600 24.27600
H  9.47300 46.33600 21.47600
H  6.99900 47.82900 22.00000
H  9.76600 49.08800 21.62600
H  8.26300 48.66000 20.72200
H  9.81200 48.02800 20.24400
H  6.53800 45.89500 20.95400
H  5.70700 45.42600 22.41400
H  7.88000 44.04900 21.09000
H  6.99500 43.57400 22.61000
H  8.56100 44.41200 22.62500
H  3.53200 46.19400 25.72800
H  3.01800 47.25600 27.06600
H  3.48000 45.52500 27.36500
H  6.39100 48.09500 31.11400
H  7.72700 44.63700 33.39700
H  6.03100 44.62800 33.70000
H  7.10400 45.62600 34.71200

