158

Mg 16.61700 -1.48700 28.51100
C  15.32500 0.60500 30.79900
C  18.47100 -3.08800 31.00700
C  18.17500 -3.13400 26.10900
C  15.03800 0.56200 25.98200
N  16.91000 -1.23600 30.62600
C  16.25400 -0.33100 31.38800
C  16.49500 -0.47300 32.90500
C  17.67200 -1.53200 32.89400
C  17.67200 -2.00800 31.39700
C  18.98200 -0.93000 33.46700
C  15.18700 -0.87100 33.72100
C  15.07800 -0.30600 35.15700
H  16.32300 0.06000 36.00900
N  18.02600 -3.00100 28.56000
C  18.70900 -3.54100 29.67700
C  19.60500 -4.54400 29.19400
C  19.48500 -4.57400 27.75900
C  18.49200 -3.53800 27.41500
C  20.41700 -5.29100 30.22200
C  20.39400 -5.26800 26.71900
O  20.10000 -5.37500 25.53400
C  21.60400 -6.04000 27.18500
N  16.78900 -1.18100 26.38200
C  17.44900 -2.03500 25.61600
C  17.30000 -1.71300 24.12600
C  16.11900 -0.64200 24.12100
C  15.94800 -0.39700 25.61100
C  18.65000 -1.34100 23.37200
C  14.89300 -1.02000 23.26900
C  13.83800 -1.80500 24.05100
N  15.22600 0.06700 28.36800
C  14.65100 0.79900 27.33700
C  13.67500 1.70300 27.88600
C  13.93900 1.75500 29.22800
C  14.82600 0.71600 29.48400
C  12.95600 2.67200 27.11300
C  13.66500 2.42900 30.53300
O  13.01500 3.44300 30.81500
C  14.52200 1.65100 31.53400
C  15.49300 2.62500 32.20500
O  16.63100 2.98100 31.82300
O  14.94600 3.08700 33.32000
C  15.67200 3.95600 34.24100
H  19.07900 -3.38200 31.86500
H  18.66000 -3.73200 25.33400
H  14.50900 1.18100 25.25500
H  16.63300 0.54000 33.28200
H  17.50200 -2.42600 33.49300
H  19.26500 -1.56700 34.30500
H  18.79000 0.06800 33.86200
H  19.74800 -0.96100 32.69300
H  15.14500 -1.93700 33.94500
H  14.25200 -0.71500 33.18200
H  14.57300 -1.10400 35.70200
H  14.39700 0.54500 35.13600
H  20.13300 -6.33900 30.13100
H  20.19700 -5.00600 31.25100
H  21.45900 -5.01100 30.06500
H  22.12500 -5.53100 27.99500
H  22.29400 -6.22400 26.36100
H  21.27000 -7.01200 27.54800
H  16.91000 -2.64500 23.71600
H  16.57700 0.21100 23.62000
H  19.36600 -1.24800 24.18900
H  18.40700 -0.50900 22.71100
H  18.91700 -2.10200 22.63900
H  15.01200 -1.34700 22.23600
H  14.42900 -0.03600 23.19400
H  13.08200 -1.07800 24.34700
H  14.28900 -2.17900 24.97000
H  13.44400 -2.58500 23.40000
H  12.54200 2.19400 26.22500
H  13.63700 3.40900 26.68800
H  12.11500 3.13800 27.62800
H  13.79500 1.28800 32.26000
H  15.63700 4.97200 33.84900
H  16.71300 3.64600 34.33800
H  15.21200 3.99300 35.22900
Mg 37.78200 50.00800 25.09300
C  38.21300 48.05100 28.00700
C  36.07000 52.35600 26.86200
C  36.78800 51.54700 22.15700
C  38.97900 47.34800 23.16000
N  37.05200 50.01800 27.25800
C  37.54000 49.29000 28.26900
C  37.22200 49.83500 29.65100
C  36.50400 51.22800 29.19900
C  36.58700 51.24500 27.70900
C  35.02000 51.22100 29.75600
C  38.55900 50.04300 30.49300
C  38.33300 49.73300 32.06000
H  36.90000 49.87600 32.69100
N  36.76900 51.89000 24.58300
C  36.07600 52.69100 25.46300
C  35.64600 53.82300 24.77200
C  35.83500 53.57100 23.37500
C  36.43100 52.29000 23.25700
C  35.09800 55.06400 25.45500
C  35.59000 54.48900 22.19000
O  35.79800 54.14500 21.04200
C  34.97500 55.89700 22.45900
N  37.70100 49.43800 22.96000
C  37.45900 50.34800 21.95100
C  37.89800 49.81200 20.56100
C  38.80900 48.60300 20.92100
C  38.47800 48.43800 22.43800
C  36.78000 49.53000 19.57300
C  40.20500 48.77700 20.31300
C  41.40700 49.25200 21.13600
N  38.36900 48.10900 25.41200
C  38.86100 47.15100 24.56300
C  39.32700 45.96900 25.25800
C  39.17800 46.33800 26.63000
C  38.49900 47.60000 26.67700
C  39.68800 44.66600 24.76300
C  39.27600 45.87800 28.00700
O  39.75500 44.80100 28.34600
C  38.64600 46.98400 29.01400
C  37.56900 46.33800 29.76400
O  36.42600 46.06000 29.39500
O  37.96900 46.13000 31.02000
C  36.95200 45.83100 31.98300
H  35.68900 53.11100 27.55300
H  36.51400 51.99000 21.19800
H  39.56600 46.65900 22.55000
H  36.50600 49.12400 30.06300
H  36.94200 52.13300 29.61900
H  34.89900 51.97200 30.53700
H  34.69600 50.24700 30.12200
H  34.36600 51.53200 28.94200
H  38.87400 51.08000 30.37700
H  39.37000 49.39100 30.16800
H  38.99900 50.43300 32.56500
H  38.59000 48.70200 32.30400
H  34.03600 54.82700 25.52100
H  35.42400 56.05900 25.15200
H  35.48400 55.08900 26.47400
H  33.97800 55.77100 22.88100
H  34.78000 56.43300 21.53000
H  35.67100 56.56400 22.96800
H  38.39500 50.67900 20.12700
H  38.41600 47.72500 20.40700
H  36.87000 50.28500 18.79100
H  35.85200 49.74500 20.10200
H  36.73300 48.52500 19.15400
H  40.12900 49.46400 19.47000
H  40.57500 47.84800 19.88100
H  41.28600 50.30700 21.38300
H  42.29100 49.27100 20.50000
H  41.55800 48.57600 21.97800
H  39.98500 44.06600 25.62300
H  40.47300 44.69200 24.00700
H  38.83200 44.10800 24.38200
H  39.42500 47.33400 29.69200
H  36.59200 44.85600 31.65500
H  36.14500 46.55800 32.07000
H  37.46600 45.61300 32.91900

