158

Mg -0.93700 18.29500 27.28600
C  -1.56300 16.07400 30.19100
C  -1.93900 20.81300 29.17700
C  -0.70600 19.98200 24.53000
C  -0.45900 15.23900 25.50600
N  -1.53700 18.42400 29.52400
C  -1.71800 17.39600 30.52500
C  -1.90500 18.00600 31.90500
C  -2.32900 19.48200 31.46700
C  -1.92200 19.62500 29.97600
C  -3.85200 19.67200 31.56900
C  -0.72000 18.07100 32.83700
C  -1.12000 17.73400 34.26800
H  -0.08900 17.77500 35.29300
N  -1.16500 20.19500 26.93800
C  -1.56900 21.08600 27.83300
C  -1.66500 22.46000 27.18800
C  -1.39500 22.20300 25.76100
C  -1.06600 20.74000 25.66200
C  -2.16200 23.58300 27.94900
C  -1.33500 23.17200 24.55200
O  -1.00700 22.79900 23.42900
C  -1.80600 24.57100 24.67600
N  -0.42600 17.71300 25.39100
C  -0.41700 18.67300 24.38400
C  -0.30000 17.93200 22.93800
C  0.05600 16.52100 23.40100
C  -0.24000 16.44300 24.88700
C  -1.55300 17.96600 21.97500
C  1.51300 16.03300 23.08900
C  2.66000 16.95400 23.67300
N  -1.11200 16.07700 27.60600
C  -1.01200 14.99700 26.76400
C  -1.26400 13.74300 27.50100
C  -1.42100 14.11800 28.78200
C  -1.29600 15.52800 28.87300
C  -1.26300 12.38200 26.90500
C  -1.63900 13.59800 30.08400
O  -1.80800 12.42100 30.41600
C  -1.71200 14.87500 31.01700
C  -0.59400 14.78300 31.90600
O  0.58600 15.20200 31.63600
O  -0.99600 14.13700 33.02200
C  0.05500 13.92300 34.00600
H  -2.35300 21.67400 29.70400
H  -0.68700 20.49900 23.56800
H  -0.19500 14.31800 24.98200
H  -2.65900 17.41400 32.42400
H  -1.83200 20.31300 31.96800
H  -4.37700 18.82900 32.01900
H  -4.24100 19.85500 30.56700
H  -4.11600 20.55600 32.14900
H  -0.32700 19.08500 32.89700
H  0.14300 17.45600 32.58200
H  -1.43000 16.69100 34.19900
H  -2.00900 18.31100 34.52000
H  -1.84500 23.59700 28.99200
H  -3.24500 23.49600 27.86400
H  -1.85900 24.55800 27.56800
H  -1.59000 25.12000 23.75900
H  -1.17500 25.11700 25.37700
H  -2.82800 24.73800 25.01700
H  0.54300 18.37800 22.41100
H  -0.51300 15.78200 22.83700
H  -2.31400 17.36700 22.47600
H  -1.42500 17.58900 20.96000
H  -1.68600 19.03600 21.81100
H  1.60100 15.92300 22.00900
H  1.67800 15.02700 23.47600
H  2.97300 17.66200 22.90500
H  3.54400 16.32500 23.77200
H  2.41100 17.27500 24.68400
H  -1.13200 12.24600 25.83200
H  -2.21000 11.92500 27.19200
H  -0.57400 11.75400 27.47000
H  -2.65300 15.01000 31.54900
H  0.46900 14.89200 34.28500
H  0.86200 13.36600 33.53100
H  -0.41600 13.54400 34.91300
Mg 41.34200 8.35600 29.83500
C  43.21200 9.67400 32.48500
C  38.87800 7.37800 32.04900
C  39.69800 6.93900 27.24400
C  43.95200 9.19000 27.65200
N  41.13900 8.54400 32.06000
C  41.98300 9.20200 32.95200
C  41.31400 9.21000 34.29000
C  40.06300 8.19200 34.15900
C  40.00600 7.97000 32.63700
C  40.12200 6.89500 35.08300
C  40.89000 10.61800 34.82600
C  40.70000 10.88200 36.30500
H  41.23800 12.25000 36.87000
N  39.55800 7.27500 29.71100
C  38.63000 7.01300 30.71900
C  37.46100 6.31200 30.18500
C  37.73700 6.16800 28.82200
C  39.06400 6.79900 28.51100
C  36.32300 5.86800 31.04700
C  36.73000 5.68500 27.69700
O  37.00100 5.74500 26.51400
C  35.43600 5.18700 28.18200
N  41.71000 8.22300 27.70300
C  40.90400 7.51000 26.84500
C  41.42800 7.63400 25.32900
C  42.67300 8.57800 25.57000
C  42.84100 8.62000 27.06100
C  41.71400 6.25900 24.60100
C  42.56500 9.99500 24.95300
C  43.77300 10.68000 24.31500
N  43.21600 9.32300 29.98700
C  44.17600 9.53700 29.01000
C  45.26900 10.22100 29.63100
C  45.05200 10.18300 30.97900
C  43.80000 9.63400 31.15800
C  46.41400 10.79300 28.94500
C  45.55600 10.49100 32.29700
O  46.63500 10.95700 32.62200
C  44.41200 10.15800 33.31900
C  44.94800 9.18600 34.18500
O  45.20200 7.98200 33.87200
O  45.31200 9.74000 35.35900
C  46.18200 8.92100 36.27900
H  38.05400 7.27900 32.75900
H  39.13900 6.47900 26.42700
H  44.67600 9.52500 26.90600
H  41.93800 8.82200 35.09600
H  39.14300 8.70200 34.44400
H  40.13200 5.94300 34.55200
H  39.41800 6.90700 35.91600
H  41.01400 6.87300 35.70800
H  39.92000 10.80500 34.36500
H  41.75600 11.22100 34.55200
H  41.24200 10.08000 36.80500
H  39.63400 10.74600 36.48800
H  36.48100 5.97300 32.12000
H  36.05000 4.81300 31.00500
H  35.45700 6.43100 30.69800
H  35.52500 4.21600 28.66700
H  34.77000 4.94800 27.35300
H  34.84100 5.87100 28.78900
H  40.65200 8.18700 24.80000
H  43.56000 8.14100 25.11100
H  42.72800 6.27000 24.20200
H  41.01000 5.91900 23.84100
H  41.73100 5.48600 25.36900
H  42.15200 10.68000 25.69400
H  41.74000 9.92300 24.24400
H  44.17300 11.52700 24.87200
H  43.41500 10.98300 23.33100
H  44.49800 9.87600 24.18700
H  46.54200 11.87200 29.03200
H  46.38800 10.65900 27.86300
H  47.32800 10.43800 29.42100
H  44.25800 11.03500 33.94800
H  46.60800 9.55700 37.05500
H  46.93700 8.30700 35.78800
H  45.46400 8.27500 36.78400

