158

Mg -2.16900 17.06000 26.83300
C  -2.90500 14.87100 29.57700
C  -2.68200 19.66000 29.03000
C  -1.76800 19.09600 24.33200
C  -2.35700 14.26300 24.74000
N  -2.79300 17.21000 29.06200
C  -2.86000 16.21100 30.03500
C  -2.83200 16.81800 31.41500
C  -3.01200 18.37500 31.21800
C  -2.80500 18.42300 29.64300
C  -4.38100 19.06000 31.64800
C  -1.61800 16.28300 32.20500
C  -1.13800 17.08100 33.33200
H  -0.57600 16.30700 34.51000
N  -2.17500 19.04400 26.74300
C  -2.37700 19.96200 27.69500
C  -2.13600 21.35900 27.18800
C  -1.81800 21.19100 25.82500
C  -1.90700 19.77500 25.58500
C  -2.44000 22.55800 27.98100
C  -1.56500 22.20700 24.75300
O  -1.55400 22.02400 23.51200
C  -1.32400 23.59700 25.26500
N  -2.43700 16.74000 24.75100
C  -2.01300 17.77000 23.92100
C  -1.71700 17.26700 22.47800
C  -1.87800 15.74200 22.64300
C  -2.20500 15.55200 24.16900
C  -2.76300 17.87400 21.45700
C  -0.73500 14.85700 22.13400
C  -0.71200 14.87400 20.57500
N  -2.53900 15.00000 27.01600
C  -2.50500 13.95700 26.09200
C  -2.73400 12.68100 26.74500
C  -2.92700 13.03500 28.06000
C  -2.80700 14.44600 28.23400
C  -2.77400 11.39600 25.99100
C  -3.13000 12.41300 29.34200
O  -3.25600 11.27200 29.69300
C  -3.16400 13.59800 30.42300
C  -2.04100 13.29400 31.35300
O  -0.86900 13.59800 31.14700
O  -2.43200 12.60400 32.49900
C  -1.28900 12.25200 33.38100
H  -2.73500 20.47900 29.75000
H  -1.54400 19.71200 23.45800
H  -2.33500 13.41900 24.04800
H  -3.69800 16.34500 31.87800
H  -2.20400 18.86200 31.76500
H  -5.05500 18.20600 31.58100
H  -4.80400 19.79700 30.96500
H  -4.37400 19.54400 32.62500
H  -0.79000 16.12300 31.51400
H  -1.89700 15.34500 32.68600
H  -1.79200 17.84200 33.75700
H  -0.24500 17.60500 32.99000
H  -3.38800 22.46900 28.51100
H  -2.53400 23.54500 27.52900
H  -1.60300 22.57400 28.67900
H  -0.67000 23.88400 24.44200
H  -0.83100 23.65100 26.23600
H  -2.24200 24.17900 25.18400
H  -0.71300 17.54900 22.16200
H  -2.69500 15.28800 22.08200
H  -3.29300 18.76900 21.78500
H  -3.46200 17.06600 21.24500
H  -2.27100 18.12200 20.51700
H  -0.86600 13.85900 22.55100
H  0.24400 15.13000 22.53100
H  -0.95100 13.88300 20.19000
H  0.30100 14.99000 20.19100
H  -1.28700 15.59500 19.99400
H  -1.79900 11.35200 25.50600
H  -3.57300 11.28300 25.25900
H  -2.63400 10.69900 26.81800
H  -4.09200 13.77500 30.96500
H  -0.61900 13.11100 33.43900
H  -0.72500 11.44200 32.91900
H  -1.68300 12.01300 34.36900
Mg 40.48100 9.64600 28.59100
C  42.19700 10.58200 31.53700
C  38.24300 7.89300 30.86200
C  38.68100 8.70700 25.96800
C  43.14400 10.69600 26.57200
N  40.26600 9.21300 31.00500
C  41.05900 9.79800 31.90700
C  40.57600 9.38300 33.32900
C  39.62600 8.19600 33.09600
C  39.36200 8.46600 31.59300
C  40.22900 6.80100 33.38500
C  39.99000 10.58500 34.11400
C  40.46100 10.70900 35.55600
H  40.88300 12.13600 35.89600
N  38.74200 8.57700 28.44700
C  38.02500 7.86800 29.40600
C  36.80800 7.28700 28.81200
C  36.80500 7.56300 27.39300
C  38.12100 8.34600 27.25700
C  35.79300 6.54200 29.65000
C  35.79300 7.26300 26.29600
O  35.94500 7.50100 25.08800
C  34.45300 6.75900 26.74600
N  40.96200 9.66400 26.53700
C  39.95200 9.36600 25.69200
C  40.43100 9.59500 24.19700
C  41.76100 10.33000 24.36600
C  42.03500 10.24100 25.88200
C  40.46900 8.31100 23.30300
C  41.93700 11.70700 23.72900
C  41.23800 12.89600 24.24400
N  42.35800 10.44500 28.93400
C  43.33700 10.83800 28.00600
C  44.31800 11.55200 28.81400
C  43.90300 11.52100 30.17700
C  42.71000 10.78200 30.22800
C  45.53500 12.14700 28.22200
C  44.22800 12.02400 31.55900
O  45.14900 12.72300 32.01900
C  43.16200 11.39200 32.46100
C  43.77100 10.39800 33.47000
O  44.27000 9.31000 33.22100
O  43.77600 10.94700 34.73000
C  44.18900 10.08000 35.84500
H  37.64100 7.21200 31.46800
H  38.03900 8.54900 25.09900
H  43.83000 11.11300 25.83200
H  41.45500 8.97800 33.83100
H  38.76100 8.25400 33.75700
H  41.28100 6.95500 33.62600
H  40.29700 6.28500 32.42700
H  39.72800 6.17700 34.12500
H  38.91400 10.42400 34.18400
H  40.21900 11.52300 33.60900
H  41.26400 10.04300 35.87200
H  39.57500 10.54000 36.16700
H  35.97200 6.36100 30.71000
H  35.63000 5.58300 29.15800
H  34.87500 7.11900 29.75500
H  33.95100 6.47600 25.82100
H  33.82000 7.57700 27.08900
H  34.54600 5.97200 27.49400
H  39.69500 10.28600 23.78600
H  42.56300 9.70900 23.96500
H  39.40400 8.22100 23.09000
H  40.65600 7.38900 23.85400
H  41.13100 8.38500 22.44100
H  41.75000 11.53800 22.66900
H  43.00000 11.89300 23.87800
H  40.59600 13.23700 23.43200
H  41.90300 13.71900 24.50700
H  40.56800 12.69700 25.08100
H  45.65000 13.05800 28.81000
H  45.40000 12.38300 27.16700
H  46.34300 11.41600 28.26400
H  42.72500 12.14700 33.11400
H  43.81600 10.51100 36.77400
H  45.27500 10.13400 35.92500
H  44.01300 9.00800 35.76100

