158

Mg 16.23200 -1.62000 26.80100
C  15.06700 0.19600 29.65600
C  18.18500 -3.48600 28.97500
C  17.46900 -3.14000 24.17000
C  14.43400 0.65600 24.73500
N  16.78400 -1.47200 29.00100
C  16.08800 -0.73400 29.97100
C  16.57300 -1.12700 31.39100
C  17.72800 -2.15400 31.09500
C  17.54900 -2.38900 29.56600
C  19.22000 -1.76500 31.43200
C  15.41500 -1.69000 32.27100
C  15.10700 -0.99800 33.60900
H  16.23300 -0.24100 34.33600
N  17.61400 -3.04400 26.61900
C  18.19400 -3.84200 27.62700
C  18.97700 -4.87900 27.05500
C  18.84200 -4.74100 25.63900
C  17.94000 -3.67300 25.41300
C  19.74400 -5.96000 27.82700
C  19.36600 -5.69800 24.57900
O  19.03000 -5.56500 23.41100
C  20.15500 -6.95100 24.93100
N  16.02700 -1.20000 24.57900
C  16.58900 -2.04900 23.76900
C  16.06600 -1.69100 22.38700
C  14.97700 -0.53700 22.50200
C  15.16400 -0.33000 24.05900
C  17.19500 -1.35400 21.45700
C  13.56800 -0.89800 22.10800
C  12.83700 0.09600 21.25000
N  15.00900 0.06300 27.06400
C  14.28300 0.82000 26.12100
C  13.52600 1.79300 26.85600
C  13.65700 1.54400 28.26100
C  14.68100 0.53000 28.34400
C  12.61000 2.81500 26.21400
C  13.21200 1.96500 29.62100
O  12.40900 2.83000 29.93800
C  14.10600 1.04900 30.59400
C  14.92300 2.10900 31.34100
O  15.95800 2.63600 30.94900
O  14.31200 2.31200 32.53700
C  14.79500 3.50000 33.32000
H  18.72500 -4.08800 29.70900
H  17.80100 -3.49700 23.19300
H  13.79400 1.29900 24.12800
H  16.88100 -0.21800 31.90800
H  17.56400 -3.10000 31.61100
H  19.72900 -2.45000 32.10900
H  19.25100 -0.87600 32.06300
H  19.78100 -1.64900 30.50500
H  15.58700 -2.75000 32.45700
H  14.50600 -1.65100 31.67200
H  14.81500 -1.82600 34.25500
H  14.35200 -0.22800 33.45300
H  20.75500 -6.23700 27.53200
H  19.22700 -6.90400 27.65600
H  19.66700 -5.60100 28.85300
H  20.45900 -7.46800 24.02100
H  19.47400 -7.66400 25.39800
H  21.10100 -6.69100 25.40600
H  15.64100 -2.59100 21.94200
H  15.33900 0.33200 21.95500
H  17.32100 -0.30300 21.19500
H  17.23200 -1.99600 20.57700
H  18.14900 -1.55100 21.94600
H  13.15800 -0.77200 23.11000
H  13.44700 -1.88400 21.66100
H  13.55300 0.60700 20.60500
H  12.34200 0.72200 21.99200
H  12.08600 -0.45600 20.68500
H  12.37400 3.59600 26.93500
H  11.68100 2.41700 25.80700
H  13.12100 3.28500 25.37400
H  13.48100 0.58100 31.35500
H  14.48800 4.49300 32.99400
H  15.88300 3.43800 33.34400
H  14.58300 3.32600 34.37500
Mg 53.94500 25.17300 44.27200
C  51.31200 27.57200 43.61200
C  51.86100 22.76700 43.06900
C  56.67900 23.24300 44.16200
C  55.97300 27.98000 45.20300
N  51.89100 25.25600 43.26400
C  51.00500 26.32400 43.09000
C  49.69800 25.85400 42.43600
C  49.85200 24.29300 42.61100
C  51.30500 24.04100 42.95100
C  48.87400 23.78900 43.74400
C  49.48500 26.22400 40.92100
C  50.75000 26.56000 40.09300
H  50.95200 25.64000 38.84400
N  54.25300 23.19200 43.65300
C  53.21800 22.33600 43.36000
C  53.79800 21.01700 43.17700
C  55.21700 21.12100 43.51100
C  55.47000 22.53400 43.84000
C  53.03900 19.77100 42.79500
C  56.19300 20.00300 43.54800
O  55.69100 18.84400 43.35500
C  57.60800 20.15300 43.89400
N  56.01100 25.59300 44.56600
C  56.94900 24.58300 44.43700
C  58.37400 25.10900 44.59900
C  58.10400 26.66600 44.68400
C  56.61100 26.78600 44.83400
C  59.27700 24.53600 45.75700
C  58.58300 27.52300 43.50100
C  59.28600 28.86600 43.83200
N  53.65100 27.33900 44.55700
C  54.56200 28.27400 45.07400
C  53.81300 29.52200 45.30900
C  52.60700 29.23000 44.74100
C  52.52000 27.92800 44.22500
C  54.44200 30.74200 45.80400
C  51.35100 29.79500 44.45600
O  51.04600 30.93100 44.70900
C  50.47600 28.77800 43.72000
C  50.10600 29.30000 42.35400
O  50.86600 29.28500 41.38600
O  48.75300 29.67500 42.35500
C  48.19000 30.11700 40.99600
H  51.31100 21.86400 42.79700
H  57.68500 22.82400 44.23400
H  56.54000 28.89300 45.39700
H  48.91500 26.25300 43.08100
H  49.80700 23.76300 41.66000
H  48.71900 24.51500 44.54200
H  49.34900 22.85600 44.04600
H  47.92200 23.62300 43.24000
H  48.87600 27.12700 40.87400
H  48.89300 25.50200 40.36000
H  51.72500 26.56300 40.58000
H  50.56600 27.59200 39.79300
H  52.17500 20.08300 42.20900
H  52.62400 19.33900 43.70600
H  53.62300 19.03000 42.24900
H  58.11000 19.28700 44.32600
H  57.80400 20.83100 44.72400
H  58.13000 20.57100 43.03300
H  58.94500 24.87200 43.70100
H  58.42300 27.08900 45.63600
H  58.64500 23.95400 46.42700
H  59.75400 25.27900 46.39600
H  60.07600 23.89400 45.38700
H  57.86600 27.60900 42.68400
H  59.36800 26.91400 43.05300
H  59.33500 29.42500 42.89700
H  60.27400 28.67200 44.25100
H  58.78200 29.43000 44.61700
H  55.09400 30.36900 46.59300
H  53.86200 31.63400 46.04200
H  54.99800 31.00800 44.90400
H  49.53200 28.62600 44.24500
H  48.44700 29.37700 40.23800
H  48.58400 31.10500 40.75700
H  47.10400 30.20400 41.04500

