158

Mg 9.34100 4.32700 27.90900
C  10.71200 2.67600 30.66700
C  7.24000 5.92500 29.95600
C  7.84900 5.72100 25.11100
C  10.93900 2.02000 25.74200
N  8.97700 4.20600 30.16700
C  9.71800 3.57800 31.13500
C  9.14800 3.88700 32.51900
C  7.93400 4.83900 32.23900
C  8.09300 5.03300 30.69800
C  6.48800 4.35000 32.59600
C  10.20800 4.30500 33.63400
C  9.58400 4.27200 35.03300
H  10.48000 4.37600 36.21900
N  7.85800 5.77600 27.63800
C  7.03500 6.20500 28.56800
C  6.11700 7.22300 28.02200
C  6.24000 7.16200 26.60300
C  7.42500 6.25900 26.37700
C  5.19300 8.06300 28.78800
C  5.45200 7.87400 25.44800
O  5.78300 7.82700 24.29600
C  4.32300 8.85000 25.69300
N  9.35600 3.98300 25.76500
C  8.63600 4.62100 24.84200
C  8.80100 4.00500 23.44300
C  9.80900 2.85200 23.67400
C  10.12400 3.02700 25.16600
C  7.49600 3.57400 22.73600
C  11.05300 2.75000 22.75500
C  11.04800 1.69500 21.63800
N  10.59700 2.66900 28.06200
C  11.20900 1.84300 27.12300
C  11.98900 0.90200 27.85700
C  11.98600 1.30900 29.22700
C  10.96700 2.29300 29.28800
C  12.80000 -0.23700 27.20400
C  12.46600 0.96300 30.55900
O  13.23000 0.08400 30.93700
C  11.72600 1.92700 31.50200
C  11.10800 1.16200 32.55800
O  10.11400 0.42200 32.44700
O  11.73400 1.41800 33.73000
C  11.22700 0.67700 34.85700
H  6.57600 6.47200 30.62800
H  7.31800 6.10800 24.23900
H  11.23700 1.24100 25.03600
H  8.89400 2.90500 32.91700
H  8.10500 5.85200 32.60300
H  6.43700 3.54200 33.32500
H  5.90000 4.09200 31.71500
H  5.88100 5.19700 32.91700
H  10.55300 5.31600 33.42000
H  11.07900 3.65600 33.54100
H  9.04200 3.32600 35.03600
H  8.80600 5.02900 35.13000
H  5.76300 8.98800 28.87000
H  4.86200 7.61500 29.72400
H  4.28500 8.33300 28.24900
H  3.88600 9.26300 24.78400
H  4.61000 9.72400 26.27800
H  3.51300 8.32000 26.19500
H  9.29200 4.81000 22.89600
H  9.25200 1.91700 23.62300
H  6.69900 3.64500 23.47700
H  7.52200 2.55200 22.35800
H  7.50100 4.35900 21.98000
H  11.94500 2.70500 23.38100
H  11.11500 3.73900 22.30100
H  10.06100 1.25200 21.50500
H  11.69400 0.88400 21.97400
H  11.33700 2.06300 20.65300
H  12.52500 -1.20300 27.62900
H  13.83800 0.07600 27.31500
H  12.54400 -0.38000 26.15400
H  12.43200 2.57700 32.01800
H  10.18700 0.36200 34.76500
H  11.23300 1.21000 35.80700
H  11.82000 -0.23500 34.92200
Mg 30.89900 58.55200 40.31100
C  28.26800 56.44300 38.87900
C  33.18400 56.35000 38.96900
C  33.28600 60.94600 40.47700
C  28.38300 61.13500 40.67000
N  30.70700 56.61800 38.85900
C  29.53900 55.89500 38.61400
C  29.92900 54.42000 38.15700
C  31.52800 54.33100 38.28100
C  31.87300 55.81600 38.69500
C  32.05000 53.21800 39.22700
C  29.39500 53.93100 36.76500
C  29.73000 54.78000 35.54400
H  28.63300 55.30700 34.64800
N  32.96400 58.61400 39.93100
C  33.74500 57.58000 39.50000
C  35.14200 57.99700 39.39900
C  35.20600 59.34500 39.84700
C  33.76200 59.70800 40.10900
C  36.25600 57.13400 38.84100
C  36.40700 60.27800 39.99500
O  37.47000 59.61700 39.94000
C  36.39400 61.77200 40.15400
N  30.80400 60.73200 40.53600
C  31.93400 61.47800 40.67600
C  31.67300 62.91100 41.02200
C  30.16100 62.89900 41.09900
C  29.70500 61.54300 40.68400
C  32.42100 63.40800 42.37800
C  29.32800 64.05100 40.49600
C  28.28500 64.81100 41.38100
N  28.70500 58.66200 40.17400
C  27.84600 59.78100 40.26800
C  26.49800 59.38100 39.90900
C  26.62200 58.10400 39.34600
C  27.95300 57.71100 39.53700
C  25.24400 60.25500 39.94000
C  25.91300 57.00000 38.69400
O  24.73700 56.99000 38.22900
C  26.93300 55.73700 38.62000
C  26.52900 54.69900 39.63500
O  27.22600 54.27500 40.54500
O  25.27500 54.31900 39.33400
C  24.79100 53.06600 40.00400
H  33.92000 55.58700 38.70700
H  34.08700 61.62800 40.76800
H  27.65000 61.92100 40.86500
H  29.49500 53.73700 38.88800
H  32.07200 54.28100 37.33800
H  32.92200 52.73800 38.78300
H  31.28200 52.48500 39.47300
H  32.43800 53.57400 40.18100
H  28.32900 53.71500 36.69900
H  29.78900 52.94000 36.53800
H  30.56800 54.32200 35.01900
H  30.20900 55.66300 35.96700
H  37.23900 57.53700 38.59800
H  35.93400 56.59800 37.94900
H  36.41200 56.43600 39.66400
H  36.09500 62.03100 41.16900
H  35.78800 62.24800 39.38200
H  37.39300 62.16900 39.97500
H  31.93100 63.57800 40.19900
H  29.98300 62.94900 42.17300
H  33.22300 64.09600 42.11000
H  32.82100 62.59100 42.97800
H  31.74800 64.01500 42.98300
H  28.86700 63.75800 39.55300
H  30.06300 64.80000 40.20100
H  28.53000 65.83900 41.64900
H  28.21900 64.21100 42.28900
H  27.37300 64.77900 40.78500
H  25.53000 61.20300 40.39400
H  24.42300 59.84200 40.52600
H  24.96100 60.48700 38.91400
H  26.84900 55.37100 37.59600
H  25.49900 52.26700 40.22400
H  23.89600 52.72200 39.48600
H  24.59600 53.42700 41.01400

