158

Mg 41.52600 40.51200 26.61600
C  40.62100 43.02100 28.83300
C  42.14700 38.37800 29.26400
C  42.56400 38.24000 24.34000
C  41.06100 42.82400 24.00300
N  41.38800 40.68000 28.74300
C  41.00100 41.80100 29.48100
C  40.98900 41.54700 30.98000
C  41.50900 40.07900 31.08700
C  41.80000 39.70100 29.62800
C  42.81300 39.77300 31.93600
C  39.54600 41.62200 31.66500
C  39.44200 42.77100 32.74200
H  38.81000 42.34400 34.04300
N  42.35500 38.57000 26.80000
C  42.36200 37.85800 27.96000
C  42.69300 36.47500 27.65000
C  43.00600 36.42500 26.20700
C  42.69700 37.79000 25.74400
C  42.69600 35.31900 28.64000
C  43.48700 35.33700 25.34400
O  43.88800 35.58600 24.23300
C  43.56700 33.90400 25.98300
N  41.81000 40.52200 24.51400
C  42.13500 39.46700 23.79400
C  42.18200 39.74000 22.27200
C  41.51000 41.12700 22.19800
C  41.49000 41.56100 23.67300
C  43.57800 39.43400 21.54000
C  40.04500 41.26000 21.54000
C  38.80600 40.70900 22.33600
N  40.96500 42.55900 26.41200
C  40.77500 43.32600 25.24800
C  40.27600 44.65100 25.61000
C  40.22500 44.58100 27.02400
C  40.61300 43.29900 27.41500
C  39.93000 45.82400 24.68900
C  39.95200 45.29800 28.23600
O  39.52800 46.41800 28.40300
C  40.16100 44.31800 29.44900
C  41.21600 44.94100 30.27000
O  42.39900 45.13600 29.98200
O  40.60100 45.52000 31.27900
C  41.49700 45.98100 32.37200
H  42.03100 37.74700 30.14900
H  42.96900 37.49100 23.65600
H  40.79500 43.51800 23.20200
H  41.70300 42.25600 31.40100
H  40.72100 39.44800 31.49800
H  42.91400 40.72200 32.46400
H  43.69300 39.59700 31.31800
H  42.56700 38.91100 32.55600
H  39.17400 40.67300 32.05100
H  38.81700 41.95600 30.92600
H  38.82700 43.60800 32.41000
H  40.36300 43.27300 33.03800
H  41.97900 34.60500 28.23300
H  42.23000 35.48700 29.61100
H  43.64300 34.81100 28.82100
H  44.17000 33.90800 26.89100
H  44.05100 33.24300 25.26400
H  42.54300 33.57800 26.16300
H  41.39400 39.02900 22.02200
H  42.17300 41.82700 21.68800
H  43.97600 40.43800 21.38900
H  43.55000 38.99900 20.54100
H  44.18700 38.83300 22.21500
H  40.24000 40.78400 20.57900
H  39.89300 42.32900 21.39200
H  39.12000 40.30000 23.29700
H  38.33800 39.91800 21.75100
H  38.15200 41.56000 22.52500
H  38.85900 45.78700 24.49100
H  40.59000 45.73700 23.82600
H  40.13900 46.75700 25.21200
H  39.18700 44.31000 29.93900
H  40.84100 46.46800 33.09300
H  42.25600 46.71200 32.09500
H  41.98100 45.10900 32.81200
Mg -4.29600 24.69100 26.59200
C  -3.21000 26.77500 29.13900
C  -5.65200 22.59800 28.91300
C  -5.51000 22.80100 24.15200
C  -3.17200 27.03200 24.26300
N  -4.40900 24.75800 28.81100
C  -3.93300 25.66700 29.66600
C  -4.37400 25.25200 31.12500
C  -4.87200 23.78400 31.08300
C  -5.08100 23.69500 29.52300
C  -3.77300 22.76800 31.54800
C  -5.52100 26.22600 31.64100
C  -5.57400 26.58800 33.10500
H  -4.95200 25.54000 34.00700
N  -5.35600 22.89700 26.58000
C  -5.78200 22.19900 27.57400
C  -6.49600 20.95800 27.14300
C  -6.46700 21.01600 25.70800
C  -5.78300 22.27100 25.42900
C  -7.18000 20.03000 28.14000
C  -6.97600 20.02100 24.66900
O  -6.79200 20.06200 23.43400
C  -7.84600 18.88100 25.24600
N  -4.19200 24.89200 24.46300
C  -4.73400 23.90700 23.72200
C  -4.71400 24.25400 22.19400
C  -4.10700 25.72000 22.16200
C  -3.88600 25.94600 23.66000
C  -3.98800 23.21900 21.32500
C  -5.02800 26.78700 21.63000
C  -4.92700 26.95000 20.09500
N  -3.38400 26.51200 26.61500
C  -2.94200 27.36900 25.59500
C  -2.20700 28.47600 26.13600
C  -2.25000 28.28400 27.56000
C  -3.01900 27.12100 27.79000
C  -1.47400 29.44500 25.41300
C  -1.81000 28.73200 28.86600
O  -1.06400 29.65300 29.16200
C  -2.49600 27.81300 29.91800
C  -1.40200 27.42700 30.82000
O  -0.61700 26.50500 30.60900
O  -1.60600 27.90000 32.08800
C  -0.84100 27.24300 33.14300
H  -5.90100 21.87700 29.69400
H  -5.99100 22.28700 23.31700
H  -2.81200 27.83900 23.62200
H  -3.53600 25.37400 31.81100
H  -5.83400 23.59800 31.56100
H  -3.74400 21.95100 30.82600
H  -4.06000 22.30000 32.48900
H  -2.74500 23.12800 31.49600
H  -6.54500 25.92900 31.41300
H  -5.46700 27.14000 31.04900
H  -6.57700 26.63200 33.52900
H  -5.05100 27.54200 33.16400
H  -6.83500 20.11100 29.17100
H  -6.98400 18.99100 27.87500
H  -8.23600 20.27600 28.02700
H  -8.13300 18.29500 24.37300
H  -8.76600 19.38200 25.54900
H  -7.42100 18.27300 26.04500
H  -5.75000 24.33600 21.86500
H  -3.19400 25.63500 21.57300
H  -4.73100 22.73700 20.68900
H  -3.40700 22.57800 21.98800
H  -3.25000 23.66900 20.66100
H  -4.82200 27.71700 22.16000
H  -6.05800 26.55400 21.90000
H  -4.29100 26.18800 19.64500
H  -4.51400 27.92500 19.83500
H  -5.90100 26.87700 19.61300
H  -1.02700 29.10400 24.48000
H  -0.70600 29.87900 26.05300
H  -2.05900 30.32800 25.15200
H  -3.22500 28.30300 30.56400
H  0.19800 27.56700 33.19600
H  -0.86600 26.15400 33.18900
H  -1.34600 27.55300 34.05700

