158

Mg 46.66700 16.19100 27.56500
C  44.92900 15.80800 30.50600
C  48.97600 18.29900 29.13700
C  48.01800 17.14600 24.49400
C  44.15400 14.55700 25.88400
N  46.92900 16.95500 29.65400
C  46.16100 16.50900 30.72100
C  46.77800 17.01300 32.03500
C  47.99300 17.91900 31.55300
C  47.96400 17.75800 30.02000
C  47.92700 19.38600 31.96800
C  47.10300 15.83500 33.00000
C  46.39600 16.00100 34.38700
H  46.05100 17.40700 34.87900
N  48.32100 17.39500 26.92800
C  49.21700 18.00700 27.76600
C  50.27500 18.57600 27.01500
C  49.95500 18.45100 25.62300
C  48.69100 17.65600 25.64300
C  51.38800 19.42600 27.66000
C  50.72800 18.89900 24.36200
O  50.33900 18.57100 23.25300
C  51.93500 19.79800 24.56800
N  46.14200 15.88300 25.49700
C  46.89300 16.32100 24.44500
C  46.38900 15.77500 23.15600
C  45.15900 14.86700 23.53300
C  45.14900 15.00700 25.07300
C  46.12200 16.85800 22.06000
C  45.16000 13.44500 22.94600
C  45.22900 13.31100 21.38100
N  44.98100 15.15800 28.11500
C  44.02700 14.60800 27.29300
C  42.89000 14.10600 28.07500
C  43.30100 14.44700 29.37900
C  44.45300 15.24800 29.30400
C  41.60700 13.51300 27.53600
C  42.86100 14.53200 30.75600
O  41.81800 14.15000 31.29600
C  43.93800 15.35700 31.55500
C  43.12000 16.35600 32.34100
O  42.92400 17.49500 31.92200
O  42.80100 15.90500 33.58300
C  41.97400 16.70800 34.44400
H  49.77600 18.83600 29.64900
H  48.38800 17.37500 23.49200
H  43.32400 13.99900 25.44500
H  45.95200 17.61900 32.40500
H  48.92800 17.50000 31.92300
H  48.82200 19.51700 32.57500
H  46.99900 19.51500 32.52600
H  47.99400 20.07300 31.12400
H  48.17500 15.89700 33.18800
H  46.94300 14.89800 32.46600
H  47.08400 15.53500 35.09300
H  45.51200 15.36900 34.30900
H  51.45800 19.43800 28.74800
H  51.19700 20.48800 27.50400
H  52.32500 19.11500 27.19900
H  52.66900 19.25600 25.16400
H  51.54700 20.64800 25.12900
H  52.33500 20.09900 23.60000
H  47.25000 15.17600 22.85900
H  44.27800 15.33600 23.09400
H  45.19500 16.73600 21.50100
H  46.85200 16.71800 21.26300
H  46.22700 17.92200 22.27500
H  44.33100 12.79000 23.21300
H  45.98400 12.97200 23.48100
H  46.15100 12.75900 21.19500
H  45.21600 14.28000 20.88200
H  44.36000 12.77800 20.99600
H  41.97100 12.83400 26.76500
H  40.87000 14.26200 27.24500
H  41.22500 12.83300 28.29700
H  44.38500 14.79400 32.37400
H  42.45900 16.57800 35.41100
H  41.05100 16.16800 34.65500
H  41.63100 17.69000 34.11700
Mg -1.86600 35.09500 26.58100
C  -3.62400 33.40000 29.18200
C  -0.76200 37.27700 28.99000
C  -0.84700 37.17900 24.11500
C  -3.90400 33.38000 24.22900
N  -2.21400 35.36100 28.87700
C  -2.86200 34.50000 29.70300
C  -2.42600 34.72800 31.19400
C  -1.49300 35.92400 31.10900
C  -1.45000 36.21900 29.60500
C  -1.77300 37.21000 31.97500
C  -1.87100 33.34200 31.68600
C  -2.52600 32.73100 32.92500
H  -1.70100 32.58400 34.16200
N  -0.81400 36.90100 26.59000
C  -0.42100 37.60800 27.66400
C  0.39400 38.67500 27.19800
C  0.46900 38.58800 25.79600
C  -0.50000 37.56600 25.43900
C  0.97400 39.83200 28.13000
C  1.31600 39.42700 24.83400
O  1.20000 39.38200 23.60400
C  2.44100 40.30700 25.34600
N  -2.55000 35.43300 24.46700
C  -1.77600 36.24300 23.64700
C  -2.06500 35.97700 22.19300
C  -2.93400 34.65000 22.18300
C  -3.25800 34.49700 23.70100
C  -2.72600 37.14300 21.42400
C  -2.20900 33.35400 21.65000
C  -1.04000 32.84600 22.43500
N  -3.31400 33.64100 26.62700
C  -3.97400 32.99100 25.60700
C  -4.74600 31.90200 26.11700
C  -4.70200 32.06900 27.51800
C  -3.80900 33.15200 27.79900
C  -5.57100 30.92400 25.41400
C  -5.11100 31.49800 28.74300
O  -5.83600 30.57900 28.97300
C  -4.48600 32.32000 29.87100
C  -5.66700 32.73600 30.68500
O  -6.47700 33.60700 30.39000
O  -5.68600 31.98600 31.82900
C  -6.66100 32.53000 32.82300
H  -0.16700 37.78300 29.75300
H  -0.46000 37.72800 23.25400
H  -4.19700 32.72200 23.40800
H  -3.27200 35.00900 31.82100
H  -0.48900 35.56800 31.34200
H  -0.82000 37.39500 32.47200
H  -2.44800 37.01600 32.80800
H  -2.16600 38.01400 31.35300
H  -0.79500 33.39300 31.85200
H  -1.83900 32.62600 30.86500
H  -2.86600 31.72300 32.68600
H  -3.39400 33.33500 33.19000
H  1.90900 39.48300 28.57000
H  0.19500 39.96000 28.88200
H  1.17900 40.82800 27.73900
H  2.96000 39.93100 26.22800
H  1.89200 41.21300 25.60300
H  3.06800 40.44400 24.46500
H  -1.16500 35.71500 21.63800
H  -3.90200 34.79400 21.70300
H  -3.77600 36.90400 21.25700
H  -2.27600 37.45200 20.48000
H  -2.76200 38.00400 22.09200
H  -1.91100 33.52100 20.61500
H  -3.01700 32.62500 21.71100
H  -1.34800 31.98500 23.02900
H  -0.62000 33.64300 23.04900
H  -0.22800 32.53200 21.78000
H  -5.07400 30.92500 24.44400
H  -6.63800 31.14600 25.44600
H  -5.38300 29.94300 25.85000
H  -3.91700 31.65600 30.52200
H  -7.63700 32.08200 32.64000
H  -6.73700 33.60500 32.66100
H  -6.34400 32.38300 33.85600

