158

Mg 46.22300 16.11000 27.76300
C  44.50100 15.61200 30.82900
C  48.42000 17.98400 29.39400
C  47.82400 16.53100 24.89600
C  43.78400 14.29900 26.17000
N  46.40900 16.66900 29.86100
C  45.63600 16.39500 30.92500
C  46.13400 17.02200 32.22800
C  47.10500 18.10600 31.74200
C  47.31600 17.65400 30.25100
C  46.63100 19.60600 31.84900
C  46.87400 15.81800 33.02100
C  46.85500 16.04700 34.55400
H  48.28800 16.13400 35.18400
N  47.94400 17.09800 27.26600
C  48.78100 17.80500 28.06700
C  49.97300 18.11800 27.46400
C  49.78600 17.80700 26.09600
C  48.47200 17.11000 26.02000
C  51.08500 18.76100 28.17700
C  50.69000 18.00300 24.97300
O  50.40200 17.69800 23.78900
C  52.05300 18.50200 25.15700
N  45.89500 15.45500 25.84800
C  46.62600 15.79600 24.79800
C  46.15100 15.26900 23.52900
C  44.97900 14.32000 23.89300
C  44.86100 14.66600 25.40300
C  45.92800 16.27000 22.33400
C  45.16300 12.76400 23.58400
C  46.05700 11.99400 24.52700
N  44.43500 15.12700 28.32000
C  43.47400 14.47700 27.56800
C  42.38000 13.98400 28.38500
C  42.73500 14.45800 29.67200
C  44.00900 15.08300 29.61300
C  41.15800 13.26400 27.88000
C  42.28900 14.50100 31.00100
O  41.24800 14.03400 31.39700
C  43.44500 15.29100 31.86400
C  42.67900 16.43500 32.49300
O  42.45400 17.51100 31.97700
O  42.29700 16.03200 33.74000
C  41.50000 16.92100 34.58200
H  49.16900 18.55300 29.94900
H  48.23500 16.61100 23.88700
H  43.07000 13.74300 25.55900
H  45.30800 17.51000 32.74500
H  48.04900 18.09200 32.28700
H  46.29600 19.96700 30.87700
H  47.52400 20.17500 32.10900
H  45.76900 19.82000 32.48200
H  47.88600 15.76500 32.62100
H  46.49000 14.82400 32.79100
H  46.34000 15.22300 35.04700
H  46.33900 16.99200 34.72600
H  51.05000 19.83900 28.02100
H  52.08600 18.51200 27.82500
H  51.05800 18.60200 29.25500
H  52.00200 19.47700 25.64100
H  52.50800 18.62600 24.17400
H  52.58100 17.73800 25.72800
H  46.97400 14.59900 23.28200
H  44.03400 14.67600 23.48100
H  45.04300 16.00300 21.75600
H  46.83900 16.07000 21.77000
H  45.92200 17.31200 22.65300
H  45.62700 12.65500 22.60300
H  44.14200 12.38900 23.64200
H  45.53500 11.24700 25.12400
H  46.57400 12.57000 25.29500
H  46.79000 11.36900 24.01700
H  41.45700 12.23800 27.66400
H  40.71700 13.69800 26.98300
H  40.51300 13.20600 28.75600
H  43.95900 14.72900 32.64400
H  41.34700 16.39900 35.52600
H  40.54000 16.93600 34.06700
H  42.03200 17.85500 34.76600
Mg 46.33000 24.89600 28.41500
C  46.85900 26.91900 31.30800
C  44.71200 22.78400 30.58900
C  46.12300 22.71700 25.91400
C  48.07100 27.20200 26.49700
N  45.79400 24.83800 30.74800
C  46.18300 25.70400 31.77100
C  45.67100 25.30500 33.14500
C  45.12800 23.88300 32.77800
C  45.22600 23.82100 31.24400
C  45.98600 22.78000 33.51000
C  44.59600 26.27600 33.69300
C  44.83600 26.77700 35.10900
H  43.69000 26.85400 36.09500
N  45.48400 23.08400 28.28500
C  44.81800 22.37000 29.28200
C  44.42100 21.10400 28.73300
C  44.90900 21.06900 27.37500
C  45.47300 22.39100 27.11100
C  43.63500 20.11200 29.54600
C  44.85600 19.86300 26.44700
O  45.20000 19.89900 25.27200
C  44.40200 18.40700 27.00600
N  46.89900 24.97300 26.46800
C  46.83400 23.89100 25.63600
C  47.69400 24.18000 24.38300
C  48.27600 25.58600 24.58300
C  47.70100 25.99800 25.94400
C  48.78800 23.14800 24.15300
C  47.99200 26.55700 23.44000
C  46.86400 27.54000 23.54700
N  47.21100 26.63800 28.78600
C  47.89700 27.49800 27.95800
C  48.27200 28.73400 28.60400
C  47.82600 28.51800 29.91400
C  47.25600 27.21000 30.00000
C  48.88500 29.97500 28.00400
C  47.84100 29.14900 31.23900
O  48.22400 30.20400 31.65900
C  47.26700 28.14300 32.22100
C  48.25500 27.65600 33.22200
O  49.45600 27.53000 32.91900
O  47.73700 27.57000 34.50300
C  48.56400 27.22700 35.71700
H  44.14400 22.14800 31.27100
H  46.09700 22.01300 25.07900
H  48.57300 27.96100 25.89300
H  46.51100 25.14000 33.82000
H  44.10700 23.72100 33.12200
H  46.69500 22.18300 32.93600
H  45.27700 22.07000 33.93500
H  46.62000 23.19000 34.29600
H  43.61700 25.79800 33.73000
H  44.49300 27.17500 33.08600
H  45.33700 27.74000 35.00900
H  45.67000 26.17300 35.46600
H  42.87400 19.65700 28.91100
H  43.22300 20.57200 30.44400
H  44.29700 19.25200 29.64500
H  44.94400 17.95400 27.83700
H  44.68700 17.73000 26.20100
H  43.33000 18.22800 27.09100
H  47.08400 24.11000 23.48300
H  49.36300 25.60300 24.66200
H  48.43800 22.57200 23.29600
H  48.93200 22.54700 25.05100
H  49.72800 23.60100 23.83900
H  48.01800 26.06700 22.46700
H  48.87900 27.18800 23.49400
H  47.37100 28.47300 23.79500
H  46.19900 27.34600 24.38900
H  46.28300 27.68000 22.63500
H  48.09400 30.46400 27.43500
H  49.64200 29.67300 27.28000
H  49.22200 30.55400 28.86400
H  46.43600 28.60900 32.75100
H  48.11500 26.39200 36.25600
H  48.90200 28.08600 36.29500
H  49.49400 26.89400 35.25600

