158

Mg 2.14300 -1.70100 43.81000
C  5.21700 -0.65800 43.27300
C  0.94300 0.90900 42.01000
C  -1.02800 -3.13200 43.65500
C  3.41700 -4.74400 44.93000
N  2.99200 -0.21600 42.48700
C  4.32200 0.07600 42.48600
C  4.67700 1.39900 41.73700
C  3.27600 2.06300 41.60700
C  2.37700 0.87700 42.00000
C  3.00700 3.39300 42.34200
C  5.37200 0.98800 40.38500
C  6.76400 1.56700 40.10500
H  6.93100 2.30400 38.74300
N  0.12400 -1.01800 43.15800
C  -0.04900 0.00200 42.35500
C  -1.45700 0.17900 42.11000
C  -2.05800 -0.91100 42.83300
C  -0.97200 -1.77300 43.23300
C  -2.10600 1.19500 41.21600
C  -3.53600 -1.09900 42.89400
O  -4.36200 -0.28800 42.51400
C  -4.17200 -2.36900 43.46300
N  1.37300 -3.62300 44.22200
C  -0.00400 -3.91500 44.11800
C  -0.20400 -5.41400 44.61000
C  1.28700 -5.94800 44.89500
C  2.05400 -4.68000 44.79800
C  -1.21600 -5.63100 45.70100
C  1.68600 -7.07900 43.82900
C  1.56500 -8.51200 44.33000
N  3.97400 -2.51600 44.20000
C  4.32000 -3.70900 44.68800
C  5.75600 -3.77300 44.95600
C  6.12800 -2.56400 44.39400
C  4.97700 -1.86200 43.98100
C  6.52000 -4.68000 45.80700
C  7.31400 -1.74100 44.15300
O  8.47500 -1.82800 44.45200
C  6.73800 -0.42100 43.41900
C  7.06300 0.81100 44.17300
O  6.51300 1.11700 45.23200
O  8.16500 1.42300 43.60200
C  8.81200 2.47100 44.41900
H  0.61300 1.84100 41.54600
H  -1.97100 -3.66500 43.51300
H  3.95500 -5.62600 45.28300
H  5.29800 2.09000 42.30700
H  3.06500 2.44300 40.60700
H  3.09400 4.24500 41.66800
H  3.90200 3.48800 42.95700
H  2.07900 3.47100 42.90900
H  4.78600 1.36400 39.54600
H  5.37700 -0.09400 40.25600
H  7.54000 0.82800 40.30200
H  6.89200 2.36400 40.83800
H  -2.74300 1.98000 41.62300
H  -2.64800 0.71900 40.39800
H  -1.43100 1.83000 40.64100
H  -4.10300 -3.29000 42.88500
H  -5.19100 -2.12000 43.75800
H  -3.69100 -2.68100 44.39000
H  -0.54500 -5.85200 43.67100
H  1.58000 -6.46900 45.80600
H  -0.83900 -6.16300 46.57400
H  -2.07500 -6.10400 45.22500
H  -1.59200 -4.65800 46.01700
H  2.67700 -6.79100 43.47900
H  1.14600 -6.98900 42.88600
H  2.52600 -9.00400 44.47400
H  1.07800 -8.98500 43.47700
H  1.01900 -8.55700 45.27200
H  7.53000 -4.27400 45.74800
H  6.64000 -5.67500 45.37800
H  6.02100 -4.61100 46.77400
H  7.25800 -0.27600 42.47300
H  9.84200 2.15400 44.58200
H  8.34300 2.80200 45.34600
H  8.77100 3.39600 43.84300
Mg 36.30600 48.84700 25.30300
C  36.90000 46.56800 27.95500
C  34.86900 51.02000 27.53500
C  35.56900 50.76300 22.74200
C  37.22800 46.28200 23.07900
N  35.87700 48.70400 27.52700
C  36.36700 47.81200 28.40700
C  36.24700 48.29700 29.84600
C  35.30000 49.51700 29.67900
C  35.34200 49.80000 28.15700
C  33.88400 49.25500 30.26500
C  37.68300 48.56900 30.44400
C  37.98000 48.10700 31.93400
H  36.82100 48.19000 32.82100
N  35.36500 50.61300 25.17800
C  34.91500 51.48400 26.18600
C  34.61300 52.85600 25.69100
C  34.62700 52.62800 24.26900
C  35.18200 51.26300 23.98300
C  34.10300 53.85000 26.58200
C  34.12700 53.61500 23.15900
O  34.12800 53.35200 21.96700
C  33.57300 54.95900 23.64400
N  36.42500 48.53800 23.06500
C  36.21600 49.52900 22.26100
C  36.65700 49.19000 20.79400
C  37.34700 47.83000 21.03200
C  37.00300 47.50200 22.47800
C  35.47900 49.08300 19.79500
C  38.94200 47.72900 20.84200
C  39.76600 48.63000 21.71100
N  37.05300 46.87800 25.39700
C  37.36400 45.92100 24.43500
C  37.69900 44.68400 25.03800
C  37.62100 44.89700 26.40200
C  37.08400 46.23200 26.55000
C  38.02900 43.41900 24.31600
C  37.82300 44.30500 27.69700
O  38.15900 43.21100 28.07100
C  37.42100 45.39300 28.73100
C  36.31400 44.85500 29.54000
O  35.19500 44.59800 29.08900
O  36.74400 44.77200 30.86500
C  35.66800 44.51200 31.80200
H  34.31100 51.66700 28.21500
H  35.22700 51.40200 21.92600
H  37.51200 45.48200 22.39200
H  35.75000 47.61600 30.53700
H  35.72100 50.37600 30.20100
H  33.08300 49.76900 29.73400
H  33.86600 49.59200 31.30100
H  33.74900 48.17800 30.37000
H  38.03700 49.59100 30.30800
H  38.29800 47.99000 29.75600
H  38.63200 48.93900 32.20100
H  38.50400 47.16500 32.09500
H  34.86300 54.63100 26.62500
H  33.95500 53.55700 27.62100
H  33.17300 54.29300 26.22400
H  32.61300 54.85000 24.14800
H  33.54900 55.69500 22.84000
H  34.30800 55.25800 24.39100
H  37.29800 49.99900 20.44200
H  37.06800 47.07500 20.29800
H  34.50800 49.14900 20.28500
H  35.61900 48.23800 19.12100
H  35.47800 49.92800 19.10600
H  39.18100 48.02400 19.82000
H  39.18900 46.66800 20.86400
H  39.37500 48.77300 22.71800
H  39.79400 49.59700 21.20700
H  40.78600 48.24500 21.72700
H  39.10700 43.30500 24.20300
H  37.63000 43.42700 23.30200
H  37.62500 42.55600 24.84500
H  38.30200 45.60900 29.33500
H  34.82800 45.20500 31.74900
H  36.08100 44.36100 32.79900
H  35.28700 43.55300 31.45300

