158

Mg 24.22100 -4.78700 45.48100
C  26.34400 -2.47000 44.02800
C  21.75600 -3.65500 43.45000
C  22.40600 -7.56300 46.08600
C  26.92100 -6.27800 47.04200
N  24.14400 -3.32700 43.82600
C  25.04000 -2.40800 43.53800
C  24.66000 -1.53900 42.32200
C  23.05100 -1.76600 42.37600
C  22.94100 -2.97600 43.33600
C  22.16700 -0.55800 42.82500
C  25.34000 -2.12200 41.04500
C  26.14800 -1.15500 40.20200
H  25.74400 -1.21500 38.66800
N  22.25300 -5.42200 45.02400
C  21.40800 -4.81300 44.13500
C  20.12300 -5.53400 44.05500
C  20.28200 -6.63100 44.90400
C  21.68700 -6.55800 45.42400
C  18.95700 -4.99200 43.33100
C  19.21400 -7.61000 45.19900
O  18.13900 -7.64100 44.70300
C  19.40300 -8.67700 46.28600
N  24.69100 -6.75200 46.42600
C  23.69700 -7.64000 46.59900
C  24.24800 -8.91600 47.32900
C  25.64100 -8.41500 47.84200
C  25.79700 -7.12700 47.01000
C  23.40600 -9.37300 48.54300
C  26.83500 -9.36000 47.62500
C  27.90300 -9.49300 48.72300
N  26.22800 -4.43500 45.59800
C  27.19600 -5.04200 46.35800
C  28.43300 -4.25800 46.26500
C  28.16800 -3.21200 45.39700
C  26.82300 -3.38700 45.02900
C  29.61100 -4.48300 47.12200
C  28.60500 -1.95800 44.78200
O  29.64300 -1.39500 44.92100
C  27.46600 -1.63700 43.73800
C  27.10400 -0.25800 44.02500
O  26.43000 0.14300 44.99400
O  27.58900 0.54600 43.02000
C  27.39500 1.96700 43.17200
H  20.96100 -3.23600 42.83100
H  21.87900 -8.51700 46.01600
H  27.73200 -6.72500 47.62000
H  24.75800 -0.46100 42.45300
H  22.73200 -2.12600 41.39800
H  21.37900 -0.42100 42.08500
H  22.70900 0.38000 42.70800
H  21.76200 -0.64100 43.83300
H  24.59800 -2.63700 40.43600
H  25.94900 -2.98800 41.30300
H  27.18200 -1.43500 40.40200
H  26.08200 -0.16500 40.65200
H  19.36200 -4.47000 42.46300
H  18.47000 -4.21500 43.91900
H  18.23800 -5.76300 43.05700
H  19.92600 -9.58000 45.97200
H  18.41200 -8.97300 46.63000
H  19.90400 -8.34000 47.19300
H  24.23900 -9.71900 46.59200
H  25.52500 -8.04100 48.86000
H  23.78400 -9.16000 49.54300
H  23.44200 -10.45500 48.42000
H  22.38900 -9.04900 48.32100
H  27.31500 -9.07100 46.68900
H  26.46500 -10.36300 47.41500
H  28.91000 -9.40700 48.31400
H  27.90700 -10.53800 49.03200
H  27.80500 -8.79900 49.55800
H  30.12000 -5.20300 46.48200
H  29.25700 -4.79700 48.10400
H  30.27100 -3.61700 47.18200
H  27.79900 -1.82600 42.71700
H  27.28100 2.33000 42.15100
H  28.21000 2.52100 43.63800
H  26.53900 2.24800 43.78600
Mg 53.71200 25.14500 44.63400
C  51.01400 27.58400 43.90700
C  51.69500 22.86100 43.27400
C  56.51800 23.23400 44.28200
C  55.68700 27.91500 45.52500
N  51.70500 25.27900 43.56400
C  50.76700 26.31300 43.39200
C  49.44900 25.83500 42.73400
C  49.63000 24.23400 42.76900
C  51.11700 24.11100 43.26200
C  48.71800 23.42800 43.66200
C  49.07800 26.39700 41.32500
C  50.18500 26.41900 40.25400
H  49.88700 25.69500 38.98200
N  54.01000 23.28300 44.06500
C  53.00200 22.49100 43.61900
C  53.53100 21.11200 43.64400
C  54.95400 21.22700 43.75000
C  55.23800 22.61100 44.08200
C  52.78400 19.89800 43.18200
C  55.97200 20.08800 43.63500
O  55.60700 18.95100 43.28700
C  57.36500 20.28400 43.96100
N  55.77500 25.49100 44.87000
C  56.72600 24.56400 44.61700
C  58.11400 25.19300 44.87100
C  57.90200 26.72000 45.07500
C  56.35200 26.71500 45.15600
C  59.15100 24.60800 45.85400
C  58.32800 27.63400 43.90000
C  59.17000 28.90400 44.17400
N  53.41800 27.23000 44.91500
C  54.29800 28.20500 45.36700
C  53.59800 29.40600 45.62900
C  52.31600 29.16600 45.07800
C  52.26300 27.90100 44.52200
C  54.13900 30.72100 46.23500
C  51.10100 29.85100 44.73000
O  50.80800 31.01700 44.99600
C  50.19900 28.88600 43.91800
C  49.97900 29.51300 42.65400
O  50.90000 29.84300 41.96200
O  48.65400 29.68300 42.37700
C  48.28100 30.16000 41.03600
H  51.08800 22.00500 42.97100
H  57.45600 22.76900 43.97100
H  56.29300 28.81100 45.67700
H  48.59700 26.22600 43.29100
H  49.56700 23.79900 41.77200
H  47.70800 23.81600 43.52800
H  48.86400 23.44000 44.74200
H  48.72000 22.36300 43.42900
H  48.73500 27.42200 41.46800
H  48.14500 25.95200 40.98200
H  51.10400 25.90700 40.54000
H  50.45100 27.47400 40.19200
H  53.05500 18.99800 43.73300
H  52.90700 19.60800 42.13800
H  51.73000 19.91800 43.46000
H  57.98400 19.39400 43.85000
H  57.53800 20.63500 44.97800
H  57.77400 20.93900 43.19100
H  58.58300 25.01100 43.90400
H  58.25100 27.08100 46.04200
H  60.08900 25.05300 45.52200
H  59.14100 23.52500 45.72700
H  58.89100 24.89600 46.87200
H  57.51500 28.14700 43.38400
H  58.89800 27.10800 43.13400
H  58.65900 29.86200 44.08400
H  60.09000 28.91800 43.59000
H  59.53800 28.75200 45.18900
H  53.94400 30.60200 47.30100
H  53.55200 31.53100 45.80100
H  55.20200 30.82600 46.01600
H  49.21800 28.61500 44.30900
H  47.73900 31.10500 41.07000
H  47.58000 29.46300 40.57700
H  49.23200 30.29500 40.52000

