158

Mg 30.79700 58.39100 40.10900
C  27.98300 56.36300 39.46300
C  32.83800 55.91900 38.60200
C  33.43200 60.59100 40.06100
C  28.65500 60.96900 40.97800
N  30.39100 56.46200 38.96700
C  29.20800 55.77200 38.98400
C  29.37200 54.30600 38.43600
C  30.96200 54.11900 38.39100
C  31.46200 55.60400 38.69100
C  31.49400 53.04200 39.41600
C  28.64100 53.91900 37.10700
C  29.13700 54.95700 36.03000
H  28.11700 55.52900 34.96600
N  32.88300 58.26100 39.45100
C  33.53400 57.13300 38.96700
C  34.98300 57.40500 38.95000
C  35.14800 58.80700 39.38900
C  33.78100 59.32100 39.58900
C  36.04400 56.36700 38.61300
C  36.51700 59.53900 39.50800
O  37.52800 58.88700 39.36900
C  36.61400 61.00300 39.78300
N  31.00500 60.64400 40.31300
C  32.23000 61.21400 40.50300
C  32.09800 62.67500 40.96700
C  30.57700 62.72400 41.38500
C  30.01100 61.34400 40.93900
C  33.16700 63.29200 41.99100
C  29.73300 63.94000 40.94700
C  29.01600 64.64800 42.07500
N  28.77700 58.65000 40.26500
C  27.99900 59.74700 40.58600
C  26.62700 59.35500 40.75800
C  26.57900 58.04600 40.35600
C  27.87900 57.69700 39.98600
C  25.44200 60.19200 41.20500
C  25.68900 56.88100 40.09400
O  24.50900 56.74100 40.38700
C  26.49800 55.82700 39.33900
C  26.32600 54.54900 39.96200
O  26.76100 54.15800 40.98000
O  25.44300 53.76800 39.19500
C  25.45100 52.31700 39.48800
H  33.51400 55.08700 38.39600
H  34.27400 61.28500 40.10700
H  28.11300 61.63600 41.65200
H  28.88900 53.72100 39.21900
H  31.23500 53.80700 37.38300
H  32.10400 52.35900 38.82500
H  30.70100 52.48600 39.91700
H  32.03900 53.56900 40.19900
H  27.57100 53.79800 37.27500
H  29.05700 52.98000 36.74100
H  29.89300 54.46500 35.41800
H  29.46000 55.89600 36.47800
H  36.84400 56.87100 38.06900
H  35.64400 55.60900 37.94000
H  36.45200 55.92800 39.52300
H  36.25600 61.48700 38.87500
H  37.64600 61.31300 39.95000
H  36.06000 61.34000 40.65900
H  32.19700 63.38800 40.14900
H  30.48200 62.65700 42.46900
H  32.70200 63.82500 42.82000
H  33.84900 63.92800 41.42800
H  33.69900 62.41300 42.35600
H  29.02600 63.65100 40.17000
H  30.50300 64.55200 40.47800
H  29.13500 65.72900 42.00900
H  29.23300 64.30000 43.08500
H  27.97400 64.37700 41.90300
H  25.69300 60.83100 42.05100
H  24.57400 59.54900 41.35200
H  25.29000 60.95900 40.44500
H  25.88800 55.81400 38.43600
H  25.56500 51.89300 38.49000
H  24.46500 52.04800 39.86700
H  26.19900 52.00900 40.21900
Mg 16.78100 51.65400 26.59700
C  18.98400 50.56500 29.24300
C  14.60000 52.70000 29.13400
C  14.91000 52.96700 24.22400
C  19.33500 51.05200 24.36100
N  16.77500 51.60700 28.86400
C  17.72200 51.14500 29.72300
C  17.36600 51.39300 31.19100
C  15.91200 51.75000 31.10600
C  15.74000 52.03500 29.58400
C  15.00600 50.59600 31.64100
C  18.33900 52.46700 31.83100
C  18.64600 52.36400 33.30400
H  17.65800 51.58600 34.22100
N  15.01700 52.71400 26.67500
C  14.25100 53.07900 27.75300
C  13.03700 53.84200 27.32900
C  13.05400 53.81800 25.89600
C  14.33500 53.12000 25.53500
C  12.03600 54.29500 28.37400
C  12.09800 54.43200 24.87000
O  12.25700 54.46900 23.65800
C  10.99500 55.13300 25.46400
N  16.97500 51.86500 24.52900
C  16.08000 52.42300 23.74300
C  16.49500 52.31500 22.25500
C  17.95800 51.95600 22.33300
C  18.17000 51.73300 23.88900
C  15.56600 51.38100 21.54100
C  18.96100 53.17100 21.92600
C  20.15200 52.89800 21.03000
N  18.64100 50.73800 26.67600
C  19.53100 50.50700 25.66800
C  20.64900 49.81500 26.17300
C  20.42300 49.72900 27.59000
C  19.30100 50.38700 27.85000
C  21.96500 49.44800 25.49500
C  21.10000 49.34900 28.86100
O  22.15400 48.72500 29.01700
C  20.22500 49.97900 30.00100
C  19.87300 48.84500 30.90600
O  19.22100 47.88400 30.59000
O  20.22800 49.14500 32.22200
C  20.10800 48.06200 33.26500
H  13.91200 53.00000 29.92700
H  14.33700 53.48700 23.45300
H  20.13000 50.98300 23.61600
H  17.55600 50.48800 31.76800
H  15.85700 52.74300 31.55200
H  15.52500 49.74700 32.08600
H  14.29900 50.21500 30.90500
H  14.42000 50.99700 32.46800
H  17.87500 53.42700 31.60500
H  19.29300 52.46700 31.30400
H  18.85800 53.31700 33.79000
H  19.58400 51.81600 33.21200
H  11.07200 53.78700 28.40700
H  11.83200 55.35500 28.21900
H  12.44800 54.22900 29.38100
H  10.49900 55.45500 24.54900
H  11.38900 55.99400 26.00400
H  10.38900 54.51500 26.12600
H  16.37500 53.35300 21.94700
H  18.22300 51.08800 21.72800
H  14.66800 51.02600 22.04600
H  16.09900 50.45600 21.31800
H  15.32900 51.82700 20.57500
H  19.41800 53.70300 22.76000
H  18.37600 53.90800 21.37500
H  20.17900 51.86500 20.68500
H  21.12500 53.08300 21.48500
H  20.18500 53.50800 20.12700
H  22.13400 50.29800 24.83400
H  21.96300 48.52100 24.92100
H  22.70900 49.38800 26.28900
H  20.79300 50.73300 30.54500
H  20.09800 47.05400 32.85000
H  19.40600 48.32700 34.05500
H  21.07200 48.20200 33.75500

