158

Mg 9.48800 48.62600 25.47600
C  7.37100 49.29700 28.16000
C  12.12300 49.98000 27.26200
C  11.63100 48.14400 22.77200
C  6.81100 48.03100 23.45500
N  9.73400 49.52200 27.45200
C  8.73400 49.57700 28.42000
C  9.38700 49.94900 29.73400
C  10.66600 50.72500 29.24500
C  10.88200 50.01700 27.90100
C  10.56600 52.30900 29.28800
C  9.61800 48.61600 30.56000
C  9.18700 48.77900 32.02100
H  8.97200 47.44000 32.88300
N  11.57900 48.86900 25.22000
C  12.48900 49.49300 26.01500
C  13.80600 49.35800 25.38900
C  13.65700 48.66500 24.16900
C  12.25600 48.52700 24.03100
C  15.07500 49.77900 26.15400
C  14.74400 48.06000 23.19700
O  14.46300 47.36600 22.24900
C  16.12000 48.32700 23.41100
N  9.20400 48.19500 23.37700
C  10.22800 47.91900 22.48300
C  9.69300 47.41500 21.15300
C  8.15400 47.38200 21.46900
C  8.01900 47.83700 22.83400
C  10.10300 48.25100 19.89500
C  7.48700 45.94300 21.22200
C  6.02300 45.90300 20.65700
N  7.45600 48.76100 25.68600
C  6.45700 48.46100 24.76800
C  5.20100 48.56800 25.37000
C  5.53000 48.80300 26.78200
C  6.92000 48.97800 26.87100
C  3.86800 48.22400 24.72200
C  4.97100 48.90000 28.09900
O  3.91100 48.65300 28.42000
C  6.09200 49.35100 29.06500
C  5.97500 48.23000 30.16100
O  6.46800 47.12300 30.04300
O  5.14400 48.64500 31.12800
C  4.76300 47.70200 32.20500
H  12.87300 50.33500 27.97100
H  12.24000 47.91000 21.89600
H  5.90900 47.90400 22.85300
H  8.76400 50.70400 30.21400
H  11.49000 50.45200 29.90500
H  10.70100 52.69600 30.29700
H  9.58400 52.67700 28.99300
H  11.31900 52.75600 28.63800
H  10.63400 48.22200 30.54800
H  9.03800 47.81900 30.09400
H  8.30400 49.41400 32.10500
H  9.86900 49.47700 32.50600
H  15.49000 48.81600 26.45300
H  14.80400 50.38500 27.01900
H  15.74300 50.36700 25.52600
H  16.27600 49.38200 23.18200
H  16.69800 47.67100 22.76000
H  16.14100 48.16100 24.48800
H  10.18100 46.44100 21.20400
H  7.60400 48.14500 20.91900
H  10.77400 49.09700 20.04700
H  9.20100 48.66300 19.44300
H  10.49900 47.66600 19.06500
H  7.35700 45.43400 22.17800
H  8.12200 45.31700 20.59600
H  5.75900 46.94400 20.47300
H  5.42500 45.50700 21.47800
H  5.88500 45.28800 19.76700
H  3.26500 47.46700 25.22400
H  3.94800 47.95900 23.66700
H  3.22100 49.10100 24.71900
H  5.85200 50.32100 29.50100
H  4.98600 46.65400 32.00700
H  3.68500 47.84800 32.27400
H  5.01000 47.94000 33.24000
Mg -11.03500 40.23500 38.76200
C  -9.98300 37.01700 37.83400
C  -7.74000 41.27700 37.96800
C  -12.05200 43.52100 38.59600
C  -14.32700 39.23700 38.72300
N  -9.15800 39.24000 38.01900
C  -8.95000 37.93100 37.88700
C  -7.50800 37.50000 37.62400
C  -6.78400 38.89800 37.93500
C  -7.97700 39.88500 37.93700
C  -5.89500 38.92100 39.24400
C  -7.36500 36.84300 36.25800
C  -7.76800 37.68700 35.03400
H  -8.74600 37.02900 34.03600
N  -10.03300 42.16000 38.45300
C  -8.68200 42.33300 38.11000
C  -8.43800 43.70900 37.99900
C  -9.63000 44.46400 38.34100
C  -10.68300 43.35600 38.39200
C  -7.10200 44.21400 37.65100
C  -9.65300 45.98200 38.44100
O  -8.61700 46.61100 38.41800
C  -10.98700 46.68000 38.59500
N  -12.87500 41.30300 38.73400
C  -13.08700 42.63600 38.82800
C  -14.51900 43.04800 39.09900
C  -15.26900 41.67300 39.15200
C  -14.14000 40.66200 38.86600
C  -14.69300 43.90700 40.31100
C  -16.56700 41.57100 38.22500
C  -17.86300 40.78500 38.77900
N  -11.99400 38.41900 38.48000
C  -13.31100 38.18600 38.45500
C  -13.50700 36.77000 38.28300
C  -12.22800 36.26800 38.03800
C  -11.34700 37.30200 38.13000
C  -14.78700 35.97300 38.33100
C  -11.43100 35.07700 37.80500
O  -11.71900 33.87900 37.88400
C  -9.95500 35.52600 37.57600
C  -8.98000 34.82500 38.43200
O  -9.01500 34.90500 39.71500
O  -8.11400 33.95100 37.78400
C  -7.16900 33.25400 38.66500
H  -6.69500 41.45500 37.70400
H  -12.34200 44.57400 38.58100
H  -15.36800 38.90500 38.72300
H  -7.18200 36.74100 38.33600
H  -6.07000 39.11900 37.14000
H  -4.83300 38.81800 39.02400
H  -6.19000 38.11200 39.91300
H  -5.97300 39.92200 39.66800
H  -7.85200 35.86900 36.20500
H  -6.28300 36.73300 36.18500
H  -6.78300 37.77900 34.57500
H  -8.00600 38.69000 35.38900
H  -7.27100 44.88600 36.81000
H  -6.29200 43.50100 37.49500
H  -6.70100 44.77100 38.49800
H  -11.52100 46.24800 39.44100
H  -11.51900 46.46100 37.67000
H  -10.81000 47.72800 38.83900
H  -14.92800 43.65200 38.28900
H  -15.54500 41.41400 40.17400
H  -13.91700 44.07300 41.05800
H  -15.60000 43.57100 40.81300
H  -14.98000 44.84000 39.82800
H  -16.24100 40.95600 37.38600
H  -16.83200 42.54000 37.80400
H  -17.73100 39.88100 38.18500
H  -18.78900 41.28800 38.49700
H  -17.81500 40.69500 39.86400
H  -15.66100 36.51700 38.68800
H  -14.63100 35.20200 39.08600
H  -14.92300 35.46800 37.37500
H  -9.77600 35.28300 36.52800
H  -7.18800 33.46800 39.73400
H  -6.20800 33.67600 38.37300
H  -7.17800 32.17900 38.48500

