158

Mg 9.33700 3.82000 27.23500
C  10.29200 2.19200 30.31500
C  7.63000 6.07400 29.19600
C  7.88000 4.99000 24.47400
C  10.55200 1.05600 25.43800
N  9.02600 4.03600 29.57000
C  9.56800 3.28100 30.60800
C  9.07600 3.85100 31.94700
C  8.01900 4.90400 31.47800
C  8.23300 5.02900 30.02300
C  6.51900 4.51800 31.82100
C  10.31100 4.41100 32.71700
C  10.71500 3.70200 34.02700
H  11.09700 4.48500 35.34100
N  8.06100 5.43000 26.81600
C  7.59000 6.30100 27.76100
C  6.85600 7.33200 27.07600
C  6.76500 6.99700 25.67700
C  7.59100 5.75700 25.61400
C  6.19700 8.49200 27.76000
C  5.99700 7.62000 24.51600
O  5.91800 7.08100 23.41500
C  5.50000 9.07600 24.66200
N  9.15400 3.05900 25.35100
C  8.52000 3.75000 24.33000
C  8.56500 3.02800 22.98500
C  9.84700 2.01300 23.24800
C  9.85300 2.04600 24.77800
C  7.22100 2.37100 22.59000
C  11.22300 2.46300 22.58800
C  11.22900 2.32800 21.01200
N  10.30600 1.99000 27.76400
C  10.79100 1.07200 26.90700
C  11.36600 -0.05700 27.69300
C  11.21200 0.36500 29.02800
C  10.59800 1.65300 29.05400
C  11.85200 -1.40900 27.26100
C  11.38400 -0.04400 30.45100
O  11.83200 -1.09800 30.88600
C  10.91200 1.14600 31.32900
C  10.09800 0.51400 32.39100
O  8.88400 0.17100 32.26900
O  10.88800 0.33000 33.54600
C  10.18000 -0.30300 34.63200
H  7.08200 6.82700 29.76600
H  7.37800 5.28200 23.54900
H  10.73700 0.17000 24.82800
H  8.68600 3.03500 32.55700
H  8.17700 5.89400 31.90300
H  5.99100 4.32000 30.88700
H  6.12000 5.37300 32.36600
H  6.32700 3.57700 32.33700
H  10.28300 5.46000 33.01100
H  11.15600 4.32300 32.03500
H  11.64500 3.23300 33.70400
H  10.03200 2.92800 34.37700
H  6.18400 8.50600 28.85000
H  5.15900 8.40300 27.43700
H  6.54300 9.46900 27.42300
H  4.48900 9.07200 25.06900
H  5.38700 9.61200 23.72000
H  6.11700 9.59800 25.39400
H  8.82800 3.70500 22.17200
H  9.45800 1.04500 22.93400
H  7.40500 1.31100 22.42000
H  6.92400 2.88700 21.67700
H  6.50000 2.46500 23.40200
H  12.00900 1.77800 22.90500
H  11.41900 3.48700 22.90500
H  11.36000 3.31500 20.56800
H  10.30300 1.76900 20.87300
H  12.08600 1.73400 20.69600
H  12.93100 -1.49200 27.39100
H  11.69700 -1.52700 26.18800
H  11.28700 -2.17900 27.78500
H  11.73000 1.48800 31.96200
H  9.55400 -1.06300 34.16400
H  9.52500 0.36700 35.18900
H  10.88400 -0.84800 35.26000
Mg 8.72200 48.14700 27.37400
C  6.76000 47.41200 30.19600
C  11.36500 48.40800 29.36000
C  10.36700 48.98600 24.51500
C  5.85100 47.59000 25.41200
N  8.97200 47.95000 29.52200
C  8.02200 47.68700 30.57800
C  8.72600 47.84900 31.99300
C  10.17200 48.17300 31.58800
C  10.17900 48.13100 30.07800
C  10.63800 49.45000 32.32500
C  8.49600 46.60800 32.91600
C  9.51200 46.49100 33.99000
H  9.14300 45.74700 35.30900
N  10.65000 48.52200 26.99800
C  11.62100 48.55300 27.92600
C  12.85400 48.75800 27.25000
C  12.65200 48.98100 25.83800
C  11.19700 48.84200 25.72900
C  14.18900 48.54800 27.98000
C  13.63400 49.14300 24.75200
O  13.38800 49.26300 23.56800
C  15.08900 49.03100 25.08300
N  8.07500 48.48600 25.31400
C  9.00800 48.89700 24.32900
C  8.39100 49.02200 22.93200
C  6.97000 48.33100 23.20300
C  6.91300 48.10900 24.73100
C  8.32100 50.53900 22.48300
C  6.63600 47.10700 22.20300
C  5.61800 47.50400 21.08800
N  6.65000 47.92400 27.70200
C  5.67400 47.58000 26.77800
C  4.46400 47.26000 27.51000
C  4.85000 47.14200 28.81600
C  6.19600 47.49600 28.88900
C  3.12700 47.05900 26.88300
C  4.29100 46.94600 30.15600
O  3.18100 46.59600 30.55500
C  5.57400 47.16100 31.09200
C  5.44900 45.91000 31.93600
O  5.92900 44.81000 31.65800
O  4.83100 46.22600 33.15600
C  4.78300 45.02600 34.06300
H  12.27500 48.60100 29.93200
H  10.83500 49.17200 23.54700
H  4.98500 47.32100 24.80500
H  8.31600 48.77100 32.40600
H  10.90700 47.41100 31.84400
H  11.69300 49.38100 32.59300
H  10.04300 49.70100 33.20200
H  10.65000 50.32400 31.67400
H  8.45800 45.70600 32.30500
H  7.57800 46.83300 33.45900
H  9.96400 47.47700 34.09600
H  10.32000 45.87900 33.59000
H  14.78700 49.44300 27.80900
H  14.72300 47.69900 27.55300
H  14.10700 48.49400 29.06500
H  15.38900 49.89700 25.67300
H  15.59200 49.14500 24.12300
H  15.20900 48.04300 25.52700
H  8.91500 48.39200 22.21300
H  6.24200 49.10700 22.96600
H  7.43000 50.63000 21.86300
H  9.20200 50.76300 21.88100
H  8.16900 51.21300 23.32600
H  6.37300 46.16700 22.68900
H  7.53100 46.84200 21.64000
H  4.92100 46.67600 20.95800
H  6.12200 47.74900 20.15300
H  4.93900 48.23900 21.52200
H  3.07400 46.75400 25.83800
H  2.53900 47.97400 26.94300
H  2.62800 46.37300 27.56700
H  5.33400 48.05800 31.66300
H  4.56200 45.45400 35.04000
H  5.73200 44.49500 34.13800
H  4.00000 44.31900 33.78600

