158

Mg 49.13100 45.60400 41.03400
C  45.84600 46.58900 40.20100
C  48.76200 42.56200 39.56600
C  52.54600 44.96400 41.39900
C  49.72400 48.93800 42.10300
N  47.49800 44.78400 39.97000
C  46.25300 45.25300 39.83000
C  45.40500 44.15600 39.07600
C  46.23000 42.90900 39.31400
C  47.61600 43.41200 39.58200
C  45.75300 41.97600 40.53900
C  45.36200 44.51100 37.54400
C  44.22000 43.83800 36.78800
H  44.40500 43.78500 35.28500
N  50.43700 43.88700 40.68000
C  50.01700 42.77500 40.04700
C  51.14700 41.88500 40.04500
C  52.24400 42.53500 40.65400
C  51.77600 43.89700 40.90500
C  51.05900 40.49200 39.54300
C  53.53900 41.88000 41.06900
O  53.83900 40.75100 40.68300
C  54.58200 42.43300 41.98100
N  51.00900 46.81400 41.78400
C  52.24900 46.32600 41.81700
C  53.22000 47.44400 42.13700
C  52.33100 48.72400 42.44600
C  50.90500 48.14600 42.12500
C  54.33000 47.20600 43.20700
C  52.68600 50.09700 41.70400
C  53.68900 50.99300 42.45700
N  48.07900 47.39000 41.09300
C  48.43400 48.63000 41.51600
C  47.33200 49.58600 41.29600
C  46.26300 48.80900 40.82700
C  46.81800 47.51600 40.68000
C  47.26600 51.08600 41.56000
C  44.86300 48.78200 40.49900
O  44.01400 49.69700 40.52000
C  44.52900 47.31300 39.96700
C  43.41300 46.76200 40.74600
O  43.51500 46.33800 41.83800
O  42.26100 46.65800 39.99800
C  41.12100 45.86800 40.51200
H  48.58300 41.52300 39.28000
H  53.62400 44.79100 41.42400
H  49.94300 49.97600 42.36300
H  44.39500 44.08200 39.47900
H  46.35700 42.24500 38.45900
H  44.77200 42.26900 40.91300
H  46.19800 42.06800 41.53000
H  45.72500 40.92400 40.25800
H  46.27700 44.21000 37.03400
H  45.40300 45.59400 37.42300
H  43.22200 44.23100 36.98000
H  44.07800 42.81200 37.12600
H  51.78000 40.21000 38.77500
H  50.13400 40.21200 39.04000
H  51.23900 39.76300 40.33300
H  55.27700 42.95300 41.32200
H  54.97200 41.52900 42.44900
H  54.14300 43.14000 42.68500
H  53.75900 47.75700 41.24200
H  52.48800 48.82100 43.52000
H  54.56000 46.14800 43.33900
H  54.14900 47.67800 44.17300
H  55.14300 47.78100 42.76400
H  51.78000 50.67800 41.53000
H  53.04600 49.93800 40.68800
H  54.58200 51.22300 41.87500
H  54.03600 50.41100 43.31100
H  53.18500 51.92800 42.69800
H  46.27100 51.44100 41.83000
H  47.54100 51.55500 40.61600
H  47.93700 51.20000 42.41200
H  44.21800 47.20000 38.92900
H  40.22300 46.25300 40.02900
H  40.82300 46.07000 41.54100
H  41.21100 44.79600 40.33700
Mg -1.81300 34.16000 27.53400
C  -4.09900 32.40600 29.70200
C  -0.63300 35.86400 30.24200
C  -0.12200 36.03400 25.36700
C  -3.53600 32.59700 24.85900
N  -2.36700 34.22900 29.78400
C  -3.36500 33.37900 30.41100
C  -3.34000 33.65100 31.87000
C  -2.43400 34.97200 31.97500
C  -1.75400 35.06500 30.59100
C  -3.23700 36.27200 32.20100
C  -2.61700 32.53500 32.63800
C  -3.40700 32.11900 33.95000
H  -2.61500 32.29800 35.28000
N  -0.36700 35.67700 27.86900
C  -0.03900 36.27500 29.01500
C  1.05600 37.24000 28.74000
C  1.26000 37.18300 27.33000
C  0.23800 36.24400 26.76300
C  1.82900 38.07000 29.73500
C  2.33000 37.96000 26.46600
O  2.40400 37.72300 25.25700
C  3.24400 38.85000 27.09400
N  -1.76900 34.17500 25.39100
C  -1.04000 35.14400 24.74800
C  -1.25700 35.02200 23.20600
C  -2.24300 33.84400 23.07900
C  -2.61600 33.59300 24.56600
C  -1.77000 36.48200 22.67300
C  -1.81000 32.56100 22.28700
C  -0.78400 31.57500 22.98000
N  -3.40200 32.83800 27.26100
C  -3.88200 32.16500 26.13900
C  -4.71600 31.08600 26.50300
C  -4.80800 31.17100 27.88200
C  -4.04100 32.26400 28.31000
C  -5.43800 30.08600 25.58600
C  -5.55000 30.60500 29.02800
O  -6.29400 29.62200 29.08300
C  -5.00600 31.42400 30.24400
C  -6.05800 31.92800 31.21300
O  -6.88000 32.82200 31.04400
O  -6.06200 31.17800 32.37200
C  -7.19200 31.42500 33.29900
H  -0.21000 36.32500 31.13600
H  0.42700 36.75600 24.75900
H  -4.10100 32.11100 24.06100
H  -4.32700 33.80000 32.30700
H  -1.65900 34.95600 32.74100
H  -3.43600 36.77600 31.25600
H  -2.53800 36.89800 32.75600
H  -4.02700 36.11200 32.93500
H  -1.55500 32.68400 32.83000
H  -2.55400 31.60800 32.06900
H  -3.68200 31.06600 33.88900
H  -4.32700 32.70400 33.95600
H  1.48800 37.89800 30.75600
H  1.79500 39.13400 29.49800
H  2.87300 37.76500 29.65300
H  3.80000 39.53900 26.45800
H  3.89200 38.22800 27.71200
H  2.74600 39.53900 27.77600
H  -0.32900 34.76700 22.69500
H  -3.00700 34.25700 22.42100
H  -1.21300 36.75100 21.77600
H  -1.76700 37.34000 23.34500
H  -2.73400 36.47400 22.16500
H  -1.29500 33.03400 21.45100
H  -2.72700 32.01300 22.06900
H  -0.45200 32.01700 23.91900
H  0.10400 31.32000 22.40200
H  -1.31200 30.64700 23.20000
H  -5.61500 29.17200 26.15400
H  -4.87900 29.81300 24.69200
H  -6.40100 30.49700 25.28100
H  -4.47500 30.59300 30.70700
H  -8.15800 31.23500 32.83200
H  -7.26600 32.46900 33.60400
H  -7.18500 30.73900 34.14600

