158

Mg 17.00400 -3.07200 27.45500
C  16.35200 -1.16200 30.47100
C  18.68900 -5.25000 29.37700
C  18.25000 -4.40100 24.63200
C  15.50500 -0.53500 25.65700
N  17.52100 -3.11000 29.71200
C  17.03000 -2.35400 30.72900
C  17.36700 -2.94700 32.09700
C  18.27100 -4.21300 31.72300
C  18.12200 -4.20600 30.16600
C  19.69800 -4.03500 32.19300
C  16.07300 -3.17700 32.98900
C  16.16900 -2.91300 34.46500
H  17.57300 -2.64700 35.05500
N  18.05100 -4.74400 27.02700
C  18.69800 -5.55200 27.96000
C  19.35300 -6.65900 27.21400
C  19.17000 -6.44000 25.78300
C  18.50100 -5.12700 25.80600
C  20.15200 -7.72600 27.96600
C  19.63800 -7.27800 24.64600
O  19.45400 -7.01700 23.47300
C  20.27400 -8.62500 25.04800
N  16.89300 -2.51500 25.48600
C  17.62500 -3.19200 24.49400
C  17.40900 -2.61100 23.07100
C  16.27100 -1.51900 23.38600
C  16.10500 -1.55700 24.95500
C  18.65300 -2.02900 22.37000
C  15.02700 -1.78000 22.52900
C  13.74700 -2.29900 23.18000
N  16.07000 -1.18000 27.95800
C  15.48500 -0.32100 27.05800
C  14.95100 0.82600 27.80100
C  15.29400 0.60600 29.14000
C  15.96000 -0.69200 29.19800
C  14.19100 1.98600 27.13000
C  15.13100 1.07100 30.50700
O  14.52300 2.03700 30.98800
C  15.91000 -0.09000 31.40900
C  16.92800 0.56700 32.31800
O  18.13400 0.44600 32.23600
O  16.11400 1.16300 33.34900
C  17.08500 1.67300 34.30300
H  19.05200 -6.08200 29.98300
H  18.63700 -4.75200 23.67300
H  15.05300 0.23100 25.02300
H  17.97200 -2.16800 32.56200
H  17.86800 -5.16400 32.07000
H  20.32500 -4.02700 31.30200
H  20.13700 -4.72900 32.91000
H  19.79600 -3.08700 32.72400
H  15.93900 -4.25700 32.92600
H  15.18600 -2.63500 32.65800
H  15.65100 -3.69500 35.01900
H  15.63800 -1.99300 34.70900
H  19.60200 -8.61900 28.26300
H  20.47800 -7.29900 28.91400
H  21.08100 -7.94700 27.44000
H  21.28700 -8.53500 25.43900
H  20.49000 -9.03200 24.06100
H  19.56100 -9.29700 25.52700
H  16.90800 -3.39100 22.49800
H  16.59100 -0.52900 23.05900
H  18.87100 -0.96500 22.45000
H  18.54500 -2.08500 21.28600
H  19.56900 -2.52900 22.68600
H  15.27900 -2.52800 21.77800
H  14.70900 -0.87900 22.00400
H  13.73800 -1.89400 24.19200
H  13.73700 -3.38200 23.30700
H  12.76500 -2.07400 22.76400
H  13.11300 1.83200 27.17300
H  14.48200 2.28700 26.12300
H  14.47600 2.83400 27.75300
H  15.12400 -0.40200 32.09600
H  17.64800 2.41200 33.73200
H  17.74800 0.90300 34.69800
H  16.51500 2.22800 35.04800
Mg 36.02000 49.71400 24.86300
C  36.09700 47.64800 27.84100
C  35.31500 52.39200 26.95100
C  35.54400 51.41100 22.10700
C  36.61200 46.65500 23.10500
N  35.74100 50.00600 27.12300
C  35.87400 49.06300 28.10300
C  35.65900 49.71400 29.52700
C  35.15000 51.12900 29.10700
C  35.39500 51.21300 27.61700
C  33.73700 51.41000 29.69300
C  37.03400 49.77200 30.41300
C  36.82000 49.39800 31.92600
H  35.59600 49.87700 32.61500
N  35.54800 51.67800 24.53200
C  35.39300 52.66000 25.55400
C  35.25800 53.93200 24.91400
C  35.15500 53.68600 23.48800
C  35.38900 52.19300 23.30000
C  35.35900 55.23500 25.67700
C  34.83800 54.72600 22.35100
O  34.76200 54.39300 21.15900
C  34.57800 56.12900 22.63600
N  35.89100 49.04000 22.84400
C  35.90600 50.01200 21.93200
C  36.35600 49.44900 20.56100
C  36.87500 47.97900 20.95000
C  36.40400 47.87000 22.40100
C  35.21400 49.52900 19.36800
C  38.44000 47.90700 20.71100
C  38.93300 47.05300 19.56600
N  36.22600 47.59800 25.28400
C  36.41500 46.49300 24.48800
C  36.67000 45.31900 25.28200
C  36.46100 45.67700 26.55200
C  36.26500 47.08300 26.57600
C  36.86200 43.90100 24.78600
C  36.37200 45.24000 27.92900
O  36.44500 44.14500 28.42700
C  36.23900 46.47900 28.75500
C  35.08200 46.35700 29.65000
O  33.87400 46.30800 29.24700
O  35.43500 46.11000 30.92800
C  34.46200 45.67000 31.85800
H  35.24400 53.25500 27.61600
H  35.42700 51.93900 21.15800
H  37.02900 45.94200 22.39100
H  34.86300 49.12500 29.98300
H  35.81500 51.90300 29.49000
H  32.91900 51.20300 29.00200
H  33.66700 52.46100 29.97400
H  33.59000 50.74000 30.54100
H  37.40500 50.79300 30.32300
H  37.76700 49.14700 29.90300
H  37.66400 49.82100 32.47000
H  36.84600 48.31200 32.02600
H  34.39100 55.72400 25.57400
H  36.13200 55.82600 25.18500
H  35.72900 55.20700 26.70200
H  35.28100 56.63800 23.29500
H  33.60900 56.05600 23.12900
H  34.63000 56.67500 21.69400
H  37.17300 50.11200 20.27800
H  36.29300 47.23200 20.41100
H  34.18700 49.78800 19.62700
H  35.18000 48.59600 18.80600
H  35.54200 50.33100 18.70800
H  38.91500 47.57100 21.63400
H  38.84200 48.91000 20.57100
H  38.43300 47.33000 18.63700
H  38.78600 45.97500 19.62300
H  39.98200 47.28700 19.38100
H  35.88300 43.46600 24.58600
H  37.40400 43.33200 25.54100
H  37.44300 43.95300 23.86500
H  37.09300 46.70500 29.39300
H  33.98100 46.40600 32.50300
H  34.97500 45.08000 32.61800
H  33.60900 45.10000 31.48900

