158

Mg 17.47600 51.92100 25.94700
C  19.30800 50.71900 28.50800
C  15.05700 52.84000 28.13600
C  15.62300 52.92800 23.28900
C  20.00100 50.86100 23.74600
N  17.17700 51.63600 28.03100
C  18.08700 51.20600 28.92600
C  17.67300 51.41000 30.35900
C  16.20900 51.83500 30.17400
C  16.11300 52.17100 28.70700
C  15.28200 50.67400 30.41200
C  18.54300 52.48500 31.05000
C  18.95400 52.24000 32.57500
H  18.00100 51.48000 33.46800
N  15.55000 52.64600 25.71900
C  14.75300 53.10700 26.74200
C  13.63400 53.88100 26.21700
C  13.62300 53.62300 24.75800
C  14.96400 53.04000 24.52900
C  12.65000 54.57400 27.21300
C  12.68200 54.08300 23.69300
O  12.83700 53.80300 22.50400
C  11.47200 55.01500 24.08200
N  17.76300 51.78400 23.74800
C  16.90400 52.47500 22.92700
C  17.43300 52.39800 21.47900
C  18.83000 51.84300 21.60900
C  18.90700 51.43300 23.10400
C  16.61900 51.54800 20.40100
C  19.94100 52.90400 21.42800
C  21.37600 52.33400 21.06400
N  19.30400 50.92100 26.06400
C  20.19000 50.45300 25.10400
C  21.35300 49.80900 25.72500
C  21.03200 49.85900 27.10600
C  19.81300 50.55200 27.21700
C  22.45200 49.23600 24.93900
C  21.40800 49.45700 28.46200
O  22.38200 48.92300 28.82100
C  20.34200 50.06900 29.43800
C  19.83400 48.87800 30.32700
O  19.03200 48.09600 29.87600
O  20.35400 48.92600 31.48900
C  19.68700 48.00400 32.47200
H  14.47800 53.29100 28.94500
H  15.11300 53.41000 22.45200
H  20.77100 50.71600 22.98600
H  17.69100 50.47900 30.92500
H  15.89000 52.60500 30.87600
H  14.74900 50.83200 31.35000
H  15.78300 49.70700 30.45300
H  14.61900 50.57400 29.55300
H  18.09000 53.45600 30.85000
H  19.45100 52.61200 30.46000
H  18.89700 53.22500 33.03700
H  19.93700 51.80000 32.74600
H  12.10800 53.76000 27.69300
H  11.87700 55.26900 26.88500
H  13.26400 54.98900 28.01100
H  10.59900 54.48900 24.46900
H  11.08700 55.69700 23.32400
H  11.85500 55.66800 24.86700
H  17.35300 53.44200 21.17600
H  18.99600 50.89200 21.10300
H  17.16700 50.78500 19.84800
H  16.43500 52.22600 19.56800
H  15.75300 51.11600 20.90200
H  19.97300 53.45600 22.36800
H  19.58700 53.71400 20.79100
H  21.60700 52.87800 20.14900
H  21.54300 51.26300 20.94900
H  22.13000 52.59600 21.80700
H  22.81700 49.93800 24.19000
H  22.10300 48.39500 24.34000
H  23.12700 48.87700 25.71600
H  20.87900 50.80400 30.03900
H  20.47100 47.24800 32.51200
H  18.80800 47.38600 32.29200
H  19.61200 48.48300 33.44800
Mg -12.95700 15.90900 41.98300
C  -9.82500 14.22000 41.77500
C  -11.40700 18.61400 40.45000
C  -15.95000 17.16900 41.66300
C  -14.24700 12.85800 42.92300
N  -10.83600 16.33400 41.16500
C  -9.77800 15.54400 41.18600
C  -8.57000 16.22900 40.57300
C  -9.03700 17.68900 40.40100
C  -10.53000 17.55900 40.64100
C  -8.42100 18.63400 41.47700
C  -7.96200 15.51400 39.33100
C  -6.46400 15.33800 39.24200
H  -5.71900 16.02500 38.08700
N  -13.59300 17.70000 41.20700
C  -12.82500 18.71500 40.57600
C  -13.69600 19.80700 40.25900
C  -15.03400 19.38200 40.52500
C  -14.92300 18.04000 41.17300
C  -13.12600 21.11500 39.62900
C  -16.31000 20.11700 40.15400
O  -16.19400 21.16700 39.51900
C  -17.69000 19.57300 40.40500
N  -14.81600 15.05500 42.09700
C  -15.92900 15.81800 42.00400
C  -17.24200 15.10400 42.32900
C  -16.72100 13.63900 42.47100
C  -15.14200 13.85900 42.49100
C  -18.03200 15.62700 43.57700
C  -17.13700 12.73300 41.37900
C  -17.08400 11.15600 41.54000
N  -12.26200 13.97200 42.51800
C  -12.88400 12.80400 42.88700
C  -11.94900 11.68600 43.16700
C  -10.73200 12.29500 42.82000
C  -10.97300 13.61100 42.37700
C  -12.17900 10.29400 43.46300
C  -9.28300 11.97300 42.62600
O  -8.59700 11.03000 42.96000
C  -8.73700 13.16600 41.76900
C  -7.58800 13.54700 42.58200
O  -7.67900 13.89800 43.78100
O  -6.46500 13.58700 41.73400
C  -5.19800 13.95400 42.36500
H  -10.96100 19.52700 40.05000
H  -16.93600 17.63200 41.73300
H  -14.70400 11.93500 43.28400
H  -7.90300 16.20300 41.43500
H  -8.73600 18.11700 39.44500
H  -7.73100 19.29200 40.94800
H  -8.02300 18.05900 42.31300
H  -9.17300 19.29500 41.90800
H  -8.10500 16.14000 38.45000
H  -8.52400 14.60500 39.11900
H  -6.24700 14.27000 39.23200
H  -6.08700 15.61900 40.22500
H  -12.52200 20.99800 38.72900
H  -12.60000 21.70700 40.37700
H  -13.83000 21.87200 39.28100
H  -18.45300 20.30600 40.14300
H  -17.85300 19.51900 41.48100
H  -17.88100 18.58800 39.97700
H  -17.87900 15.15700 41.44600
H  -17.04100 13.17300 43.40300
H  -19.05100 15.88600 43.29000
H  -17.53600 16.50300 43.99400
H  -18.02800 14.90400 44.39200
H  -16.41600 13.04400 40.62300
H  -18.13500 13.07400 41.10200
H  -16.21700 10.75700 41.01500
H  -17.95400 10.73000 41.04000
H  -17.05500 10.87300 42.59200
H  -13.11100 10.25400 44.02700
H  -11.43200 9.93800 44.17300
H  -12.32100 9.68500 42.57100
H  -8.39200 12.74700 40.82300
H  -4.52600 14.14500 41.52900
H  -4.79900 13.11000 42.92700
H  -5.36900 14.77800 43.05800

