158

Mg 16.93600 -1.53700 28.11500
C  15.86600 0.80000 30.62100
C  18.47500 -3.28300 30.57700
C  18.12900 -3.53200 25.78200
C  15.60600 0.69000 25.72700
N  17.23200 -1.21400 30.31600
C  16.60600 -0.22300 31.10200
C  16.93100 -0.49500 32.56200
C  17.93200 -1.73800 32.52600
C  17.92600 -2.10300 31.03200
C  19.37200 -1.33500 32.96600
C  15.72700 -0.87700 33.45400
C  15.67700 -0.36800 34.98500
H  16.95800 0.21500 35.59800
N  18.12600 -3.16000 28.16200
C  18.65100 -3.81600 29.27400
C  19.29000 -5.04500 28.90000
C  19.24300 -5.08200 27.50400
C  18.48200 -3.90500 27.10400
C  19.97000 -6.03900 29.81700
C  19.97200 -6.04400 26.60200
O  19.98700 -5.94000 25.39800
C  20.78000 -7.21000 27.12800
N  16.93300 -1.38400 26.17200
C  17.46300 -2.33800 25.37500
C  17.48500 -2.05200 23.82200
C  16.60900 -0.73700 23.86200
C  16.26800 -0.45200 25.34900
C  18.82800 -1.76200 23.23100
C  15.32100 -0.82400 23.08800
C  15.08900 0.31800 22.01400
N  15.85600 0.32500 28.13200
C  15.43700 1.06100 27.09100
C  14.67100 2.20300 27.59300
C  14.79900 2.19300 28.98600
C  15.48000 0.96100 29.22200
C  13.90700 3.16400 26.79100
C  14.44300 2.83800 30.29700
O  13.90600 3.88600 30.53100
C  15.23400 1.99600 31.34200
C  16.16700 2.85100 31.99700
O  17.25700 3.06100 31.52800
O  15.64000 3.37100 33.18700
C  16.58500 4.29600 33.80400
H  18.91300 -3.89200 31.37100
H  18.45800 -4.22900 25.00800
H  15.15600 1.34100 24.97400
H  17.46200 0.42400 32.81200
H  17.67000 -2.59400 33.14900
H  19.79300 -2.17700 33.51500
H  19.40300 -0.45800 33.61300
H  20.03500 -1.07400 32.14200
H  15.62400 -1.95800 33.36800
H  14.80900 -0.44900 33.05000
H  15.43700 -1.19700 35.65000
H  14.88700 0.35800 35.18000
H  19.46300 -6.99700 29.70200
H  19.63400 -5.75100 30.81400
H  21.03900 -6.19400 29.67000
H  21.32000 -7.72800 26.33600
H  20.09900 -7.94300 27.56100
H  21.61800 -6.85500 27.72800
H  17.04000 -2.91700 23.33100
H  17.23000 0.14800 23.72000
H  18.77700 -0.83800 22.65500
H  19.18100 -2.58200 22.60500
H  19.62400 -1.63300 23.96500
H  14.46600 -0.51700 23.69100
H  15.17900 -1.78100 22.58600
H  14.37700 1.09700 22.29000
H  14.72300 -0.09000 21.07300
H  16.06600 0.75100 21.80200
H  13.34100 3.86800 27.40000
H  13.26600 2.48400 26.23000
H  14.54200 3.79900 26.17200
H  14.64000 1.69900 32.20700
H  17.60100 3.98300 33.56300
H  16.33700 4.31300 34.86600
H  16.57600 5.31200 33.41000
Mg 48.12700 16.57800 28.60100
C  46.31900 16.46600 31.55400
C  50.56400 18.41500 30.13700
C  49.57900 17.23800 25.52900
C  45.47600 15.08000 26.81600
N  48.46800 17.34200 30.66600
C  47.55600 17.12400 31.70500
C  48.08800 17.67400 33.00700
C  49.46700 18.30300 32.53400
C  49.52300 18.00100 31.01400
C  49.41500 19.83600 32.75100
C  48.36900 16.38500 34.02800
C  47.79300 16.51700 35.44700
H  47.54400 18.00200 35.96200
N  50.00500 17.42000 27.94300
C  50.80200 18.13800 28.77800
C  51.95500 18.58300 28.00200
C  51.73400 18.21400 26.63700
C  50.38900 17.54300 26.63800
C  53.12100 19.34900 28.65700
C  52.60300 18.49500 25.39800
O  52.31000 18.07300 24.29300
C  53.95200 19.21000 25.57000
N  47.62600 16.23500 26.47800
C  48.37100 16.64500 25.44200
C  47.70000 16.23400 24.08300
C  46.45600 15.44900 24.53300
C  46.58200 15.48400 26.03900
C  47.42900 17.52400 23.23700
C  46.21900 13.96700 24.01300
C  45.40600 13.75300 22.71400
N  46.29700 15.87300 29.11400
C  45.29900 15.28000 28.23700
C  44.12600 15.00000 29.08200
C  44.57700 15.43500 30.36700
C  45.83200 15.95300 30.32500
C  42.80800 14.42800 28.55300
C  44.15600 15.52400 31.73500
O  43.07300 15.20400 32.14600
C  45.24900 16.09900 32.61200
C  44.67800 17.29000 33.25900
O  44.75000 18.43000 32.90500
O  43.98600 16.88300 34.35000
C  43.45800 17.97300 35.13900
H  51.17300 19.18900 30.60800
H  50.06900 17.40500 24.56800
H  44.62200 14.52700 26.41700
H  47.38000 18.38300 33.43600
H  50.21100 17.84700 33.18600
H  49.50600 19.99100 33.82600
H  48.46700 20.35700 32.62200
H  50.15100 20.39500 32.17300
H  49.42000 16.11200 34.11900
H  47.88700 15.52400 33.56500
H  48.49800 16.13400 36.18500
H  46.83200 16.00400 35.47300
H  53.96700 18.68500 28.83400
H  52.69100 19.85300 29.52300
H  53.41200 20.20000 28.04100
H  53.90700 20.20200 26.01900
H  54.24800 19.36700 24.53400
H  54.69500 18.65000 26.13800
H  48.41000 15.51500 23.67500
H  45.55600 15.95500 24.18300
H  47.57100 18.47600 23.74900
H  46.45800 17.51600 22.74200
H  48.09400 17.50000 22.37500
H  45.96700 13.27900 24.82000
H  47.19400 13.62300 23.66900
H  44.34800 13.52400 22.83600
H  45.79700 12.99100 22.04000
H  45.43400 14.74600 22.26600
H  42.65500 14.54600 27.48000
H  41.99600 14.96400 29.04400
H  42.87900 13.34900 28.68800
H  45.58100 15.32000 33.29900
H  42.50000 18.26600 34.71100
H  44.02200 18.89300 35.29000
H  43.33800 17.60400 36.15800

