158

Mg 47.23300 44.85300 44.06800
C  43.92400 44.72600 43.26200
C  47.65100 41.55200 43.00000
C  50.60000 45.37500 44.20600
C  46.77000 48.21800 45.02300
N  45.97700 43.39300 43.20500
C  44.64100 43.49100 42.98900
C  44.01100 42.19300 42.36200
C  45.18700 41.13100 42.65200
C  46.36200 42.06900 42.94500
C  44.87500 40.18100 43.81500
C  43.71600 42.37400 40.82500
C  42.32400 42.01500 40.29900
H  42.40200 41.12000 39.12700
N  48.87100 43.68000 43.74600
C  48.82400 42.30000 43.29000
C  50.18200 41.86500 43.06600
C  51.08500 42.90500 43.57200
C  50.20100 44.04500 43.84000
C  50.54200 40.58100 42.46900
C  52.60800 42.81300 43.73200
O  53.25500 41.70500 43.55000
C  53.35400 43.81300 44.51500
N  48.53900 46.58800 44.42800
C  49.89600 46.47000 44.49500
C  50.49100 47.76800 44.95900
C  49.27100 48.60600 45.37800
C  48.10100 47.76400 44.98800
C  51.59200 47.56700 46.08600
C  49.17600 50.08700 44.93400
C  48.53100 51.06600 45.91400
N  45.67400 46.21700 44.12200
C  45.62500 47.48900 44.60300
C  44.32000 48.03900 44.65700
C  43.57900 46.96300 44.03300
C  44.48500 45.86600 43.77600
C  43.84000 49.34300 45.01400
C  42.31000 46.57400 43.49600
O  41.25400 47.21600 43.32800
C  42.45200 45.12500 42.89600
C  41.40100 44.17900 43.50200
O  40.57500 43.57300 42.85100
O  41.54400 44.06600 44.84800
C  40.97200 42.85600 45.47300
H  47.72400 40.49600 42.72900
H  51.67000 45.57200 44.30600
H  46.60100 49.18800 45.49600
H  43.17600 41.83200 42.96100
H  45.37000 40.46400 41.81000
H  43.81800 40.20400 44.08100
H  45.29700 40.48900 44.77200
H  45.13800 39.14700 43.59400
H  44.57700 41.98900 40.27800
H  43.83000 43.44000 40.63200
H  41.84200 42.94800 40.00500
H  41.84300 41.54400 41.15600
H  49.73300 39.85600 42.37700
H  51.25800 40.23800 43.21600
H  51.00400 40.61900 41.48300
H  54.26600 43.37500 44.92000
H  52.75600 43.94600 45.41700
H  53.51000 44.75900 43.99800
H  50.92900 48.21900 44.06900
H  49.29500 48.59000 46.46800
H  52.62600 47.72700 45.77700
H  51.46800 46.57000 46.50900
H  51.36300 48.03200 47.04400
H  48.70300 50.08600 43.95200
H  50.18400 50.38100 44.64400
H  49.20300 51.88700 46.16400
H  48.15400 50.52800 46.78400
H  47.69300 51.50500 45.37100
H  43.80900 49.50200 46.09200
H  42.83800 49.50700 44.61900
H  44.46600 50.07300 44.50000
H  42.28700 45.06000 41.82100
H  41.13700 41.94600 44.89600
H  39.91700 43.02300 45.69300
H  41.45900 42.67000 46.43000
Mg -1.90500 34.21000 25.90500
C  -2.92500 32.42800 28.78300
C  -0.29600 36.43200 27.79400
C  -1.58200 36.13000 23.21400
C  -3.36700 31.72100 24.05400
N  -1.87100 34.43700 28.11100
C  -2.24300 33.60500 29.09800
C  -1.69700 34.04600 30.45000
C  -1.01400 35.42600 30.04400
C  -1.01400 35.46500 28.51200
C  -1.56300 36.74800 30.75000
C  -0.67400 32.90200 30.89900
C  -1.10600 32.31800 32.31600
H  -0.00300 32.24700 33.37100
N  -1.08300 36.09300 25.58700
C  -0.38000 36.78000 26.48100
C  0.38100 37.79700 25.75600
C  -0.06700 37.85100 24.48000
C  -1.00800 36.68000 24.37500
C  1.35500 38.64900 26.50600
C  0.33000 38.79900 23.35100
O  -0.06600 38.72100 22.21000
C  0.97700 40.16200 23.67800
N  -2.27400 33.86700 23.87100
C  -2.19900 34.86000 23.00500
C  -2.60400 34.32200 21.57900
C  -2.85100 32.77600 21.85700
C  -2.83000 32.78500 23.37100
C  -3.64000 35.00000 20.79300
C  -1.76100 31.80100 21.30500
C  -0.30500 31.99100 21.80100
N  -3.04200 32.50600 26.30000
C  -3.50800 31.54100 25.44900
C  -4.27800 30.55000 26.16600
C  -4.12200 30.80100 27.51500
C  -3.27100 31.99000 27.49800
C  -4.99300 29.40100 25.53200
C  -4.42300 30.40900 28.88000
O  -5.09800 29.50600 29.37200
C  -3.52200 31.34500 29.72200
C  -4.43600 31.99200 30.73600
O  -5.10200 32.98900 30.55900
O  -4.39300 31.27000 31.93200
C  -4.88100 31.84200 33.20200
H  0.31700 37.00800 28.49000
H  -1.38300 36.76000 22.34500
H  -3.77300 31.01000 23.33200
H  -2.42600 34.26500 31.23000
H  0.05500 35.42000 30.25400
H  -2.08500 36.39700 31.64000
H  -2.28800 37.18200 30.06200
H  -0.81200 37.50000 30.99600
H  0.28100 33.41200 31.02100
H  -0.51200 32.07200 30.21200
H  -1.47800 31.30800 32.14300
H  -1.83600 32.98900 32.76800
H  0.90600 39.64000 26.57500
H  2.34200 38.73400 26.05200
H  1.41100 38.35400 27.55400
H  2.04700 40.00900 23.82000
H  0.54300 40.69400 24.52500
H  0.72000 40.80900 22.84000
H  -1.65100 34.37900 21.05400
H  -3.82700 32.42400 21.52300
H  -4.08300 35.87800 21.26200
H  -4.38200 34.26600 20.48000
H  -3.19000 35.32700 19.85600
H  -1.88600 31.77500 20.22200
H  -2.03100 30.76200 21.49400
H  -0.09900 32.98100 22.20800
H  0.30000 31.87700 20.90100
H  0.02000 31.30300 22.58100
H  -4.47800 29.17500 24.59900
H  -6.02500 29.70400 25.35600
H  -4.97000 28.53000 26.18700
H  -2.86900 30.72500 30.33600
H  -4.08600 32.02100 33.92500
H  -5.65400 31.24400 33.68600
H  -5.34000 32.82400 33.08800

