158

Mg 9.57700 47.23000 26.75300
C  7.51700 47.63800 29.44900
C  12.17100 48.51300 28.63900
C  11.48400 46.89500 23.99700
C  6.75100 47.09600 24.59900
N  9.78800 48.28800 28.71900
C  8.84500 47.99800 29.72600
C  9.40300 48.36000 31.10100
C  10.68400 49.16400 30.71800
C  10.96800 48.70100 29.24400
C  10.71100 50.74500 30.93800
C  9.72000 47.09100 31.95500
C  9.26500 47.15400 33.46500
H  9.44900 45.84900 34.33500
N  11.58900 47.53100 26.44000
C  12.50000 48.10300 27.27100
C  13.89900 47.91000 26.65800
C  13.62100 47.21900 25.36400
C  12.16800 47.24800 25.18100
C  15.11200 48.24400 27.32100
C  14.65600 46.62500 24.43100
O  14.31100 46.06800 23.37200
C  16.13100 46.71800 24.81400
N  9.07800 46.95700 24.60700
C  10.12300 46.89100 23.75200
C  9.66900 46.78900 22.35100
C  8.06700 46.79500 22.40400
C  7.94300 46.96500 23.94300
C  10.32100 47.83100 21.31600
C  7.42800 45.45800 21.95600
C  7.17500 45.43600 20.41700
N  7.57600 47.21200 26.97000
C  6.58600 47.11600 26.02000
C  5.30100 47.03700 26.75900
C  5.63200 47.13400 28.09000
C  7.02500 47.38100 28.20700
C  3.87400 46.91000 26.12100
C  5.10400 47.10000 29.45300
O  3.95800 46.86300 29.83500
C  6.30400 47.57300 30.32500
C  6.41500 46.48000 31.42000
O  6.98800 45.41400 31.34100
O  5.76100 46.91100 32.56600
C  5.34500 45.87800 33.50000
H  13.00700 48.91200 29.21700
H  12.11200 46.68000 23.12900
H  5.84000 46.90200 24.02800
H  8.75200 49.06100 31.62400
H  11.43700 48.75900 31.39400
H  9.75700 51.24600 31.10400
H  11.05400 51.18700 30.00300
H  11.33200 51.05000 31.78100
H  10.76600 46.78600 31.98700
H  9.31000 46.22800 31.43100
H  8.26300 47.57800 33.52600
H  9.96600 47.85200 33.92300
H  14.90200 48.28900 28.38900
H  15.32500 49.26900 27.01800
H  15.96100 47.56300 27.38200
H  16.78600 46.41900 23.99600
H  16.20400 46.00600 25.63600
H  16.35000 47.74600 25.10400
H  9.90300 45.76300 22.06700
H  7.72100 47.74400 21.99400
H  11.25700 47.42500 20.93000
H  10.68800 48.67500 21.90000
H  9.65100 48.17400 20.52800
H  6.48000 45.35200 22.48400
H  8.07500 44.67700 22.35500
H  6.11700 45.50600 20.16400
H  7.54100 44.56800 19.86800
H  7.75000 46.27500 20.02600
H  3.96300 46.77000 25.04400
H  3.21300 47.76300 26.27600
H  3.38900 46.02200 26.52700
H  5.88800 48.54700 30.58400
H  5.15900 44.95500 32.95100
H  4.34100 46.21500 33.76000
H  6.06000 45.75500 34.31300
Mg -11.99200 16.61900 41.97200
C  -8.83500 15.59800 41.29400
C  -11.26300 19.78900 40.65800
C  -15.27900 17.51000 42.20200
C  -12.96400 13.22300 42.43100
N  -10.22600 17.57000 41.21600
C  -8.95400 16.97500 41.08500
C  -7.93300 17.92100 40.55700
C  -8.68800 19.30800 40.66300
C  -10.16700 18.90000 40.86900
C  -8.16700 20.12500 41.83700
C  -7.55600 17.56300 39.07400
C  -6.05000 17.41100 38.74900
H  -5.67500 17.96100 37.36300
N  -13.12300 18.37700 41.56600
C  -12.66800 19.49900 40.90100
C  -13.77300 20.31600 40.55600
C  -14.94900 19.78700 41.10600
C  -14.45200 18.51400 41.68300
C  -13.70300 21.55600 39.66800
C  -16.33700 20.44100 41.15500
O  -16.42900 21.58700 40.72300
C  -17.53200 19.84100 41.77000
N  -13.84900 15.53500 42.33500
C  -15.07700 16.12000 42.44400
C  -16.18600 15.06400 42.55700
C  -15.42600 13.71900 42.36500
C  -13.97600 14.17900 42.41000
C  -17.10100 15.18400 43.81400
C  -15.85500 13.00900 41.08700
C  -16.14500 11.49600 41.20500
N  -11.08100 14.74600 41.99200
C  -11.55600 13.49400 42.30900
C  -10.43100 12.59100 42.24900
C  -9.33100 13.36500 41.87200
C  -9.80400 14.64000 41.69000
C  -10.44600 11.13000 42.44800
C  -7.92300 13.32500 41.46300
O  -7.12000 12.43500 41.38000
C  -7.50200 14.80300 41.16100
C  -6.46300 15.21000 42.22900
O  -6.73600 15.21800 43.44100
O  -5.43100 15.77500 41.61400
C  -4.41600 16.17500 42.56700
H  -11.03800 20.83800 40.45500
H  -16.35700 17.68300 42.23000
H  -13.36900 12.21000 42.45700
H  -7.07600 17.98200 41.22700
H  -8.55900 19.93200 39.77800
H  -8.21600 21.17100 41.53500
H  -7.12000 19.92100 42.06200
H  -8.68800 20.03900 42.79000
H  -7.98300 18.24200 38.33600
H  -8.04500 16.60400 38.89900
H  -5.75600 16.36400 38.67100
H  -5.42600 17.99900 39.42300
H  -14.65400 21.77100 39.17900
H  -13.00600 21.27800 38.87800
H  -13.42700 22.44000 40.24300
H  -18.40500 20.37900 41.40100
H  -17.47300 19.81500 42.85800
H  -17.63600 18.83400 41.36500
H  -16.72700 15.26900 41.63300
H  -15.48900 13.09800 43.25800
H  -17.84300 15.98100 43.75300
H  -16.52900 15.37400 44.72300
H  -17.52400 14.19400 43.98500
H  -15.02300 13.11900 40.39200
H  -16.77400 13.36500 40.62300
H  -17.19000 11.23800 41.03600
H  -15.90800 11.12300 42.20200
H  -15.49900 11.00200 40.47900
H  -10.87500 10.60000 41.59800
H  -10.99900 10.92600 43.36500
H  -9.40200 10.83000 42.54000
H  -6.97700 14.87300 40.20900
H  -3.51700 15.98200 41.98200
H  -4.36200 15.55800 43.46300
H  -4.49900 17.24900 42.73400

