158

Mg 47.25400 15.27000 28.15900
C  45.09100 15.15700 30.84700
C  49.49600 17.07800 30.12000
C  49.01100 15.90900 25.34700
C  45.01500 13.40600 26.34800
N  47.19800 16.13400 30.23900
C  46.28300 15.78100 31.25200
C  46.74500 16.31100 32.66100
C  48.10000 17.07700 32.28500
C  48.27400 16.81200 30.79300
C  48.19300 18.64200 32.58100
C  46.90000 15.08900 33.59800
C  46.16900 15.16900 34.96500
H  45.96700 16.65700 35.43600
N  49.00100 16.29900 27.77300
C  49.83000 16.95300 28.72200
C  50.97900 17.27100 28.04600
C  50.85300 17.09400 26.67900
C  49.58800 16.41000 26.51400
C  52.06500 17.92200 28.71700
C  51.76900 17.47900 25.47000
O  51.46000 17.36000 24.29800
C  53.09000 18.10900 25.84800
N  47.13700 14.54500 26.15000
C  47.93100 15.04900 25.18800
C  47.52000 14.61200 23.71900
C  46.29300 13.73800 24.11300
C  46.08700 13.93800 25.61900
C  47.22200 15.79400 22.80100
C  46.30100 12.22100 23.72800
C  47.27600 11.50300 24.61900
N  45.45600 14.56300 28.46600
C  44.66400 13.73600 27.63000
C  43.39900 13.43200 28.22200
C  43.53300 13.99900 29.53500
C  44.85100 14.60700 29.60300
C  42.30400 12.59600 27.77500
C  42.84600 14.11300 30.82400
O  41.79000 13.58900 31.20200
C  43.85800 14.81700 31.76000
C  43.25000 16.08900 32.22600
O  43.41600 17.18100 31.66600
O  42.50000 15.97300 33.39600
C  41.88500 17.24000 33.67900
H  50.24200 17.58400 30.73800
H  49.45700 16.13700 24.37600
H  44.30600 12.78700 25.79400
H  45.96900 16.98400 33.02700
H  48.99100 16.66300 32.75600
H  49.18800 18.77300 33.00500
H  47.42100 18.89400 33.30800
H  48.07400 19.19100 31.64700
H  47.89100 14.93000 34.02300
H  46.51900 14.21800 33.06600
H  46.74800 14.74100 35.78400
H  45.21800 14.63700 34.99300
H  52.23000 18.96100 28.43200
H  53.01500 17.43100 28.50800
H  51.94600 17.97900 29.79900
H  53.64600 18.28800 24.92700
H  53.59600 17.30500 26.38100
H  53.00000 19.05600 26.38100
H  48.36800 14.04400 23.33400
H  45.46100 14.19800 23.58100
H  48.14900 16.11200 22.32300
H  46.85200 16.67500 23.32500
H  46.46200 15.54900 22.06000
H  46.49500 12.19900 22.65600
H  45.34200 11.71200 23.82400
H  48.03600 12.16300 25.03700
H  47.84800 10.77000 24.04900
H  46.66700 10.86800 25.26300
H  42.02800 12.74900 26.73200
H  41.41100 12.84600 28.34800
H  42.61900 11.56800 27.95700
H  43.95000 14.27900 32.70400
H  41.03500 17.16400 34.35700
H  41.53900 17.88400 32.87100
H  42.58900 17.84200 34.25400
Mg -4.89400 25.66400 25.42300
C  -3.39800 27.23600 28.38500
C  -6.29800 23.31000 27.64800
C  -5.95800 23.89200 22.88900
C  -2.90300 27.61400 23.55500
N  -4.93700 25.43000 27.76100
C  -4.35400 26.18200 28.75900
C  -4.74400 25.59200 30.19900
C  -5.74700 24.47200 29.83700
C  -5.56200 24.32900 28.30500
C  -5.36500 23.08600 30.45000
C  -5.23600 26.70100 31.16800
C  -6.31400 26.31000 32.24500
H  -5.95400 25.11000 33.12900
N  -6.15700 23.99400 25.31000
C  -6.56900 23.16300 26.26800
C  -7.45400 22.13500 25.77000
C  -7.40500 22.31100 24.41900
C  -6.49700 23.41900 24.09600
C  -8.16300 21.08500 26.66900
C  -8.15500 21.52700 23.27700
O  -7.99700 21.76000 22.06400
C  -9.12200 20.35900 23.66000
N  -4.46900 25.67800 23.54300
C  -5.05600 24.93100 22.55300
C  -4.80200 25.42400 21.16800
C  -3.92900 26.68700 21.39800
C  -3.70400 26.62400 22.96900
C  -4.20100 24.42900 20.20600
C  -4.58000 28.09800 21.06900
C  -3.77700 29.09900 20.25900
N  -3.36100 27.12400 25.84800
C  -2.63900 27.84100 24.93400
C  -1.86400 28.83700 25.60200
C  -2.10200 28.60800 26.99600
C  -3.05400 27.57100 27.10000
C  -0.90800 29.78600 24.89700
C  -1.73400 29.08800 28.25800
O  -0.94400 29.96900 28.68900
C  -2.59100 28.18300 29.26300
C  -1.66500 27.55500 30.19400
O  -0.85700 26.75200 29.88600
O  -1.92500 27.97700 31.55400
C  -1.16100 27.29400 32.61300
H  -6.73200 22.64100 28.39400
H  -6.28000 23.29400 22.03300
H  -2.31700 28.17400 22.82200
H  -3.82100 25.19700 30.62300
H  -6.80300 24.62000 30.06100
H  -5.17500 22.35700 29.66200
H  -6.21000 22.79200 31.07200
H  -4.55600 23.06300 31.17900
H  -5.65400 27.57700 30.67300
H  -4.38400 27.12500 31.69900
H  -7.29100 26.28500 31.76100
H  -6.40400 27.16800 32.91100
H  -8.37100 20.21500 26.04700
H  -9.06900 21.61700 26.96300
H  -7.48000 20.86100 27.48800
H  -9.93300 20.68600 24.31000
H  -8.45500 19.59600 24.06100
H  -9.63800 20.04500 22.75200
H  -5.77300 25.67100 20.73900
H  -2.95800 26.74100 20.90500
H  -3.88500 23.44300 20.54700
H  -3.29600 24.82000 19.74000
H  -4.88800 24.14300 19.41000
H  -4.74700 28.80700 21.87900
H  -5.50900 27.94800 20.51900
H  -2.74000 28.79100 20.39400
H  -3.81500 30.08900 20.71600
H  -4.10400 29.12000 19.22000
H  -1.43200 30.27900 24.07800
H  0.06100 29.34900 24.65600
H  -0.71800 30.55400 25.64700
H  -3.30400 28.86300 29.72800
H  -0.24700 26.78900 32.30200
H  -1.84700 26.56100 33.03700
H  -0.82200 27.97100 33.39700

