158

Mg 46.91700 16.94800 28.94000
C  45.43500 16.17300 31.96300
C  49.17700 18.81300 30.72200
C  48.43700 17.69900 25.97300
C  44.32400 15.52500 27.28700
N  47.27200 17.41000 31.17000
C  46.65400 16.89900 32.14800
C  47.19300 17.27900 33.55800
C  48.20100 18.41300 33.16800
C  48.23000 18.22300 31.61600
C  48.04800 19.83600 33.75700
C  47.74300 16.02200 34.38500
C  48.75700 16.19200 35.49400
H  48.47400 17.24200 36.61300
N  48.62300 18.07200 28.41200
C  49.36000 18.76400 29.33200
C  50.41900 19.41100 28.55200
C  50.34600 18.98400 27.18600
C  49.08100 18.19500 27.14600
C  51.36500 20.33600 29.23400
C  51.33400 19.22900 25.97000
O  51.10100 18.84400 24.82100
C  52.56800 19.84200 26.26800
N  46.51000 16.61700 26.87800
C  47.23400 17.09700 25.79500
C  46.58300 16.65500 24.44300
C  45.32800 15.79400 24.91900
C  45.36000 16.01200 26.46900
C  46.19000 17.84800 23.48100
C  45.24700 14.29700 24.56900
C  44.39200 14.01200 23.34000
N  45.20900 16.06800 29.50500
C  44.20000 15.53600 28.69600
C  43.14700 14.89100 29.47800
C  43.61600 15.12700 30.74300
C  44.84500 15.87100 30.74700
C  41.89500 14.17900 29.02500
C  43.26100 14.97100 32.17500
O  42.32500 14.46000 32.73100
C  44.43600 15.64700 32.91900
C  43.89400 16.73400 33.77000
O  43.25900 17.67200 33.31100
O  44.18400 16.55600 35.12500
C  43.67300 17.62500 36.02100
H  49.90500 19.44500 31.23600
H  48.81200 17.96700 24.98300
H  43.55100 14.89100 26.84700
H  46.43800 17.63100 34.26000
H  49.15700 18.02600 33.52000
H  47.00800 19.99500 34.04500
H  48.22400 20.47400 32.89100
H  48.82000 20.05600 34.49400
H  48.08400 15.31500 33.62900
H  46.83000 15.79500 34.93600
H  49.71100 16.42600 35.02100
H  48.91600 15.20800 35.93600
H  50.85000 20.94000 29.98100
H  51.67900 21.17300 28.61000
H  52.27400 19.97100 29.71100
H  53.29800 19.64200 25.48500
H  53.01000 19.44600 27.18300
H  52.42200 20.90200 26.47300
H  47.27200 16.00900 23.89900
H  44.39900 16.30900 24.67300
H  45.29100 17.49100 22.97900
H  46.95200 17.97400 22.71200
H  45.99200 18.75400 24.05300
H  44.97700 13.73000 25.46000
H  46.26600 14.08500 24.24500
H  43.85800 13.07200 23.47700
H  45.12800 13.83300 22.55600
H  43.58100 14.68300 23.05600
H  41.77600 13.22200 29.53400
H  41.94000 14.01400 27.94900
H  40.98600 14.75200 29.20700
H  44.89100 14.88800 33.55400
H  44.37900 17.77700 36.83700
H  42.71700 17.33800 36.45700
H  43.52200 18.60700 35.57100
Mg 29.30900 57.40500 41.68800
C  26.82800 55.08500 40.61400
C  31.52900 55.61100 40.03100
C  31.47900 59.85800 42.31100
C  26.75200 59.33900 43.16700
N  29.12000 55.58700 40.28200
C  28.08700 54.74400 40.15700
C  28.40200 53.64700 39.17700
C  29.93800 53.64400 39.22400
C  30.24100 55.05700 39.75400
C  30.59300 52.46900 39.97200
C  27.78100 54.12300 37.74100
C  27.31600 52.96100 36.90900
H  27.94100 52.84800 35.49900
N  31.35000 57.73500 41.19200
C  32.09000 56.80100 40.57200
C  33.44100 57.18200 40.65100
C  33.54000 58.43800 41.38000
C  32.08800 58.72500 41.68800
C  34.65400 56.44100 40.00200
C  34.68300 59.20300 41.59300
O  35.81400 58.75300 41.41300
C  34.60100 60.51000 42.40800
N  29.13000 59.34400 42.55900
C  30.21300 60.21600 42.64800
C  29.76700 61.58600 43.12200
C  28.34800 61.27600 43.77200
C  28.03700 59.90600 43.07100
C  30.83500 62.38000 43.99400
C  27.22600 62.41000 43.66600
C  27.40000 63.62400 42.66500
N  27.21600 57.25300 41.94500
C  26.33200 58.09200 42.59300
C  25.00900 57.48600 42.58800
C  25.10100 56.30100 41.79100
C  26.52400 56.25800 41.42600
C  23.78800 58.02500 43.22100
C  24.39800 55.17000 41.23600
O  23.28900 54.74700 41.40000
C  25.50000 54.38700 40.36500
C  25.60100 52.99400 40.90000
O  26.27400 52.54400 41.84600
O  24.70600 52.17700 40.19500
C  25.02200 50.79700 40.04700
H  32.28500 54.93400 39.62700
H  32.16900 60.69800 42.42300
H  26.08000 59.94000 43.78400
H  27.97500 52.70100 39.51000
H  30.27500 53.61400 38.18800
H  29.87100 51.74800 40.35600
H  31.15700 52.86900 40.81500
H  31.18900 51.82600 39.32500
H  28.63100 54.45300 37.14300
H  27.07800 54.94400 37.88000
H  26.24300 52.85200 36.75200
H  27.56600 52.03900 37.43400
H  35.36900 57.05400 39.45300
H  34.35900 55.79900 39.17200
H  35.07800 55.72800 40.70900
H  34.12100 61.24800 41.76600
H  35.61400 60.87800 42.57000
H  34.08000 60.39400 43.35800
H  29.57000 62.14100 42.20500
H  28.56700 61.05000 44.81600
H  30.76600 63.37800 43.56300
H  31.89600 62.13600 44.04500
H  30.49900 62.51000 45.02300
H  26.91300 62.83300 44.62100
H  26.33500 61.87900 43.33200
H  28.44900 63.85300 42.47300
H  26.93800 64.47100 43.17200
H  26.88700 63.37600 41.73600
H  23.67500 57.28000 44.00800
H  22.96000 58.04500 42.51300
H  23.98900 59.03400 43.58200
H  25.16600 54.40900 39.32700
H  26.07900 50.57700 39.90100
H  24.36400 50.27300 39.35300
H  24.77600 50.33900 41.00400

