158

Mg -0.13300 43.31500 26.40600
C  2.30600 42.76500 28.77400
C  -2.50300 42.89300 29.08800
C  -2.65800 43.58000 24.13300
C  2.27700 43.44300 23.84900
N  -0.02800 43.04300 28.65900
C  1.06800 42.87100 29.42200
C  0.81900 42.83600 30.96400
C  -0.74200 42.71500 30.93700
C  -1.12300 42.84900 29.46500
C  -1.23000 41.34600 31.49400
C  1.28900 44.10000 31.75000
C  0.81200 44.38100 33.19000
H  0.42000 43.24200 34.10800
N  -2.22700 43.27000 26.59900
C  -3.00700 43.00900 27.72000
C  -4.43100 42.97500 27.28100
C  -4.46600 43.21600 25.94500
C  -3.06600 43.37900 25.49600
C  -5.42300 42.55900 28.29900
C  -5.72900 43.26900 25.06800
O  -5.60000 43.45100 23.85200
C  -7.13600 43.01800 25.64400
N  -0.17100 43.51400 24.39200
C  -1.32600 43.57600 23.65600
C  -1.04400 43.58300 22.18500
C  0.47400 43.74000 22.10600
C  0.94400 43.53100 23.54000
C  -1.73100 42.47500 21.30900
C  1.01600 45.11400 21.50000
C  1.56300 44.99400 20.07500
N  1.83600 43.19500 26.26400
C  2.71900 43.26300 25.19700
C  4.10400 43.25700 25.71000
C  3.96800 43.14200 27.04900
C  2.57000 43.04700 27.40000
C  5.41500 43.33300 24.90900
C  4.69200 43.08300 28.33400
O  5.89900 43.06600 28.50500
C  3.64200 42.79100 29.49500
C  4.11100 41.60800 30.29100
O  4.39200 40.54200 29.85500
O  4.06800 41.95800 31.64800
C  4.60900 40.85600 32.48100
H  -3.09800 42.82400 30.00100
H  -3.49300 43.69100 23.43900
H  3.05800 43.46900 23.08700
H  1.26400 41.92400 31.36000
H  -1.20200 43.55300 31.46000
H  -0.51900 40.97700 32.23300
H  -1.23800 40.57900 30.72000
H  -2.22500 41.49600 31.91400
H  1.13100 44.96100 31.10100
H  2.36000 44.30200 31.76900
H  0.01400 45.09800 32.99500
H  1.53800 44.99500 33.72200
H  -4.87700 42.23400 29.18400
H  -5.77800 41.63400 27.84600
H  -6.22000 43.26600 28.52900
H  -7.25700 42.00800 26.03600
H  -7.87700 43.09000 24.84800
H  -7.35500 43.80300 26.36900
H  -1.49400 44.49800 21.80200
H  0.77600 42.88600 21.50000
H  -2.07400 41.66300 21.95100
H  -1.04100 41.98300 20.62300
H  -2.60000 42.96500 20.86900
H  1.86100 45.41600 22.11800
H  0.32500 45.94800 21.62600
H  2.64900 45.07700 20.09500
H  1.13500 45.77600 19.44700
H  1.39400 43.99300 19.67700
H  5.93500 44.26600 25.12600
H  5.23800 43.25900 23.83600
H  6.00900 42.46500 25.19700
H  3.64000 43.69800 30.10100
H  4.20200 41.06900 33.46900
H  5.69100 40.72300 32.48100
H  4.13800 39.91300 32.20400
Mg -1.94000 34.23600 26.85800
C  -3.41000 32.50400 29.49800
C  -0.95800 36.58700 29.07800
C  -1.25400 36.14900 24.21900
C  -3.58600 31.89500 24.61900
N  -2.23900 34.59600 29.00000
C  -2.72000 33.66900 29.93200
C  -2.32300 34.08300 31.38400
C  -1.41900 35.31600 31.20200
C  -1.60200 35.54200 29.67300
C  -1.66500 36.57800 32.04600
C  -1.70100 32.86500 32.19700
C  -2.39000 32.42700 33.51000
H  -1.60900 32.53200 34.90100
N  -1.16500 36.06900 26.66300
C  -0.90900 36.92000 27.77900
C  -0.35800 38.19000 27.20300
C  -0.28400 37.99300 25.77900
C  -0.96100 36.69600 25.48400
C  0.47300 39.27200 27.96400
C  0.34400 38.89300 24.68900
O  0.28600 38.60900 23.43900
C  1.03300 40.07700 24.98600
N  -2.43000 34.10100 24.64500
C  -1.91700 34.96100 23.82400
C  -2.05500 34.40400 22.35300
C  -2.58800 33.00000 22.48700
C  -2.94400 33.00200 24.00000
C  -2.90200 35.20100 21.37900
C  -1.48700 31.94100 22.10600
C  -0.34000 31.91500 23.06300
N  -3.21700 32.54800 27.02600
C  -3.70300 31.67600 26.05500
C  -4.45700 30.58600 26.71700
C  -4.40500 30.87600 28.09600
C  -3.52700 32.03000 28.18800
C  -5.26900 29.57400 26.08700
C  -4.81600 30.53100 29.37400
O  -5.57800 29.60000 29.69600
C  -4.22500 31.54400 30.29000
C  -5.26300 32.27500 31.08100
O  -6.02300 33.12200 30.66900
O  -5.21000 31.69300 32.34500
C  -6.31900 32.11800 33.22100
H  -0.40600 37.24800 29.75000
H  -0.94500 36.71700 23.33900
H  -4.08000 31.15200 23.99000
H  -3.21800 34.46100 31.87900
H  -0.41400 34.98900 31.46900
H  -1.71600 37.49000 31.45000
H  -0.96900 36.56700 32.88500
H  -2.65000 36.52600 32.50900
H  -0.66600 33.03000 32.49700
H  -1.63700 31.98500 31.55800
H  -2.70700 31.38400 33.50600
H  -3.26700 33.07300 33.54000
H  0.16500 40.25300 27.60200
H  1.55200 39.25400 27.81500
H  0.34800 39.26500 29.04700
H  1.79300 40.20000 25.75800
H  0.40300 40.96600 24.96700
H  1.56000 40.43500 24.10200
H  -1.03600 34.50500 21.97900
H  -3.39400 32.74300 21.79900
H  -3.52500 35.85500 21.99000
H  -3.50600 34.63600 20.66900
H  -2.31700 35.92700 20.81600
H  -1.06200 32.16500 21.12700
H  -1.91500 30.94000 22.15100
H  -0.51200 31.43500 24.02600
H  0.00500 32.90800 23.35100
H  0.47300 31.34500 22.61300
H  -4.84400 29.20400 25.15400
H  -6.32500 29.82800 25.99400
H  -5.17700 28.74100 26.78300
H  -3.44000 31.09500 30.89900
H  -5.92900 32.56200 34.13600
H  -6.81800 31.18600 33.48900
H  -6.93700 32.91100 32.80100

