158

Mg 24.53000 -4.73600 45.24900
C  26.88600 -2.55400 43.82900
C  22.20400 -3.68500 43.12100
C  22.66600 -7.42100 46.16000
C  27.26400 -6.05000 47.27600
N  24.63600 -3.34900 43.58300
C  25.57200 -2.50600 43.27200
C  25.07900 -1.61000 42.07200
C  23.55700 -1.69100 42.33500
C  23.42600 -2.99400 43.01200
C  23.10000 -0.63400 43.36800
C  25.42700 -2.18700 40.63000
C  26.02600 -1.19200 39.58500
H  25.92300 -1.65500 38.07000
N  22.62300 -5.46900 44.76400
C  21.84600 -4.80900 43.90800
C  20.54400 -5.42600 43.83100
C  20.59900 -6.58700 44.68100
C  21.99600 -6.55700 45.29000
C  19.40300 -5.07500 42.88300
C  19.53300 -7.63600 45.00700
O  18.44600 -7.51200 44.43500
C  19.76100 -8.94900 45.77800
N  24.92700 -6.42600 46.51900
C  23.97700 -7.38800 46.70700
C  24.49200 -8.57100 47.49600
C  25.84500 -7.99300 48.11800
C  26.02400 -6.75700 47.23000
C  23.55900 -9.29200 48.51100
C  27.07900 -8.92700 48.20600
C  27.73300 -8.81500 49.64000
N  26.64000 -4.31400 45.61100
C  27.57800 -4.99000 46.40500
C  28.88800 -4.40700 46.10400
C  28.62400 -3.37600 45.12000
C  27.23800 -3.40300 44.86800
C  30.12600 -4.66100 46.86100
C  29.18100 -2.25500 44.34800
O  30.27400 -1.71300 44.40400
C  28.11300 -1.73500 43.38300
C  27.94900 -0.27900 43.65000
O  27.69800 0.20800 44.74900
O  28.16700 0.51900 42.52900
C  27.86400 1.92700 42.64500
H  21.36500 -3.28100 42.55100
H  22.06800 -8.30600 46.38600
H  28.03900 -6.39900 47.96200
H  25.44300 -0.59100 42.20400
H  23.08800 -1.68900 41.35100
H  23.80100 0.18100 43.54800
H  22.89200 -1.10000 44.33100
H  22.20700 -0.18800 42.93200
H  24.61100 -2.78800 40.22800
H  26.23600 -2.88300 40.85000
H  27.09300 -1.12700 39.80000
H  25.46600 -0.28500 39.81300
H  19.62800 -5.68300 42.00700
H  19.29200 -4.05000 42.52800
H  18.45600 -5.46200 43.26100
H  18.84800 -9.52300 45.62200
H  20.12500 -8.74400 46.78500
H  20.50000 -9.57900 45.28600
H  24.76800 -9.21300 46.66000
H  25.52100 -7.45800 49.01000
H  23.97200 -9.03000 49.48500
H  23.63500 -10.35700 48.28900
H  22.51500 -9.00500 48.39000
H  27.80400 -8.76300 47.41000
H  26.80200 -9.96700 48.03100
H  27.81700 -9.79700 50.10600
H  27.28100 -8.11300 50.34100
H  28.76800 -8.48500 49.54800
H  30.96500 -4.23300 46.31300
H  30.14700 -5.71100 47.15200
H  30.10300 -4.14000 47.81800
H  28.37900 -2.00800 42.36100
H  27.05100 2.13100 43.34200
H  27.87300 2.43300 41.68000
H  28.70100 2.38600 43.17200
Mg 17.51600 52.36300 26.77100
C  19.40800 50.82800 29.45900
C  15.04000 53.01700 29.02900
C  15.62900 53.49100 24.21500
C  19.86100 51.20100 24.56600
N  17.20300 51.74400 28.99600
C  18.16000 51.36200 29.88100
C  17.62400 51.57900 31.30600
C  16.13100 52.01500 31.08000
C  16.12800 52.33100 29.58300
C  15.06100 51.00100 31.58900
C  18.47900 52.70400 31.90600
C  18.80700 52.55500 33.39200
H  17.75400 53.10800 34.38000
N  15.61700 53.16600 26.66200
C  14.75700 53.45500 27.71900
C  13.64600 54.28100 27.30600
C  13.75400 54.38000 25.86900
C  15.03600 53.68900 25.48500
C  12.54900 54.70500 28.28000
C  12.77100 54.91800 24.89700
O  13.09600 55.05300 23.76100
C  11.42400 55.39500 25.45700
N  17.75300 52.41600 24.65000
C  16.75100 52.79800 23.84300
C  17.14400 52.66200 22.36800
C  18.63400 52.12300 22.51000
C  18.78500 51.83900 24.00600
C  16.13900 51.70300 21.63300
C  19.70200 53.17100 22.13300
C  21.06500 52.64200 21.72300
N  19.33000 51.27500 26.97000
C  20.16900 50.93800 25.96200
C  21.40300 50.32400 26.55000
C  21.12600 50.20700 27.92500
C  19.88300 50.80500 28.11600
C  22.52300 49.72800 25.74700
C  21.62500 49.74400 29.17800
O  22.62600 49.14100 29.48300
C  20.53000 50.21100 30.27400
C  20.05000 49.00300 31.02700
O  19.66600 47.94400 30.53500
O  20.12900 49.30100 32.32600
C  19.69900 48.30100 33.36900
H  14.30200 53.38200 29.74600
H  15.01100 53.91100 23.41900
H  20.62200 50.82200 23.88100
H  17.72300 50.56600 31.69500
H  15.96900 52.95800 31.60200
H  15.60100 50.31000 32.23600
H  14.73900 50.51000 30.67000
H  14.24500 51.47400 32.13500
H  17.97400 53.64300 31.68100
H  19.39000 52.90100 31.34200
H  19.77600 53.03800 33.51700
H  19.02800 51.51600 33.63500
H  11.83200 53.88600 28.22200
H  12.21900 55.70100 27.98600
H  12.91300 54.70400 29.30800
H  10.68500 55.71600 24.72300
H  11.84100 56.28300 25.93300
H  11.00900 54.73000 26.21300
H  17.05000 53.61600 21.85000
H  18.84800 51.21600 21.94400
H  15.28600 51.56600 22.29700
H  16.52100 50.68900 21.51700
H  15.82800 51.95400 20.61900
H  19.89100 53.66900 23.08400
H  19.30800 53.77300 21.31500
H  21.86800 52.94600 22.39500
H  21.28700 52.89600 20.68700
H  21.09300 51.56600 21.54700
H  23.44000 49.70500 26.33600
H  22.61000 50.38100 24.87800
H  22.35700 48.72200 25.36100
H  20.95900 50.94400 30.95700
H  20.48600 47.54900 33.42800
H  18.80400 47.80800 32.99100
H  19.41400 48.73600 34.32600

