158

Mg 30.48400 58.55800 41.03500
C  27.46600 56.93600 40.34200
C  32.16000 55.59400 40.21700
C  33.47100 60.06400 41.30100
C  28.84800 61.57900 41.12800
N  29.81600 56.55800 40.37900
C  28.57600 56.13100 40.10700
C  28.55700 54.66200 39.53000
C  29.99100 54.15500 39.96100
C  30.74800 55.51600 40.10900
C  30.00300 53.26900 41.25100
C  28.34200 54.70700 37.96100
C  27.08100 54.04500 37.34300
H  26.37100 54.95500 36.25100
N  32.57300 57.86100 40.97700
C  33.00100 56.66200 40.56700
C  34.46500 56.68400 40.57100
C  34.89700 57.95000 40.92000
C  33.66100 58.67400 41.10700
C  35.32100 55.45600 40.17500
C  36.25900 58.38700 41.17800
O  37.13700 57.57000 40.95800
C  36.66900 59.76000 41.70900
N  31.10800 60.53500 41.19100
C  32.40100 60.93300 41.36900
C  32.44000 62.44300 41.26200
C  31.00600 62.85700 41.45500
C  30.22200 61.59300 41.14000
C  33.38100 63.15800 42.30400
C  30.57500 64.06700 40.57700
C  30.45500 63.75100 39.03700
N  28.50800 59.23100 40.75300
C  27.96100 60.52100 40.94100
C  26.52300 60.41500 40.73000
C  26.28500 59.00700 40.45900
C  27.55700 58.34200 40.57600
C  25.59400 61.55800 40.76900
C  25.25000 58.03000 40.15700
O  24.04200 58.14900 40.05600
C  25.98900 56.67400 40.01100
C  25.42700 55.65800 40.96200
O  24.97600 55.96800 42.05500
O  25.31300 54.41400 40.34500
C  24.60000 53.46300 41.27000
H  32.56200 54.59900 40.01400
H  34.36600 60.68900 41.30800
H  28.33000 62.54000 41.16100
H  27.71400 54.03200 39.81300
H  30.42000 53.61200 39.11800
H  30.31700 52.25200 41.01800
H  29.04100 53.27500 41.76300
H  30.75000 53.59800 41.97300
H  29.06800 54.09400 37.42800
H  28.40200 55.70400 37.52300
H  26.32700 53.97500 38.12700
H  27.45800 53.11300 36.92100
H  34.69700 54.79900 39.57000
H  35.48900 54.90700 41.10200
H  36.25300 55.54100 39.61700
H  37.75800 59.73800 41.68600
H  36.19800 59.71400 42.69100
H  36.30600 60.47600 40.97100
H  32.81300 62.52100 40.24100
H  30.68900 63.07000 42.47600
H  34.30700 62.59000 42.38800
H  32.92200 63.19400 43.29300
H  33.58500 64.20500 42.07700
H  31.26100 64.91200 40.63500
H  29.67200 64.45700 41.04600
H  29.43500 64.02800 38.77100
H  30.68100 62.70100 38.84900
H  31.03700 64.49200 38.49000
H  26.00100 62.42200 41.29300
H  24.58900 61.28900 41.09600
H  25.36900 61.93700 39.77200
H  25.70600 56.32100 39.02000
H  25.27000 52.73000 41.71900
H  23.94100 52.86700 40.63900
H  23.93500 53.81300 42.06000
Mg -5.52900 24.73900 26.77600
C  -3.73800 26.17500 29.33200
C  -6.88800 22.60200 29.21600
C  -7.36200 23.25000 24.37800
C  -3.77500 26.52700 24.44400
N  -5.25200 24.41600 28.88000
C  -4.67900 25.27400 29.76100
C  -5.00100 24.99600 31.19000
C  -5.70600 23.63600 31.14000
C  -5.97600 23.52800 29.64700
C  -5.07600 22.42400 31.87000
C  -5.82300 26.20900 31.77000
C  -5.52800 26.74600 33.23100
H  -4.78100 25.87300 34.25300
N  -6.86800 23.15200 26.75600
C  -7.35100 22.41500 27.88400
C  -8.31600 21.38300 27.44900
C  -8.43300 21.45000 26.03800
C  -7.50300 22.66100 25.64300
C  -8.98600 20.39300 28.39700
C  -9.21200 20.56600 25.02400
O  -8.98900 20.66500 23.81900
C  -10.11600 19.53700 25.57900
N  -5.59000 24.90000 24.74700
C  -6.48300 24.24800 23.99300
C  -6.21100 24.52300 22.48100
C  -4.95700 25.48600 22.43700
C  -4.72400 25.65600 23.92800
C  -6.08700 23.26500 21.60200
C  -5.10500 26.76700 21.62800
C  -3.97400 27.07000 20.55200
N  -4.02300 26.10500 26.77300
C  -3.40100 26.74700 25.80900
C  -2.45700 27.72900 26.37100
C  -2.59600 27.59500 27.75900
C  -3.50200 26.48500 27.97600
C  -1.57900 28.83500 25.59000
C  -2.15900 28.05200 29.05800
O  -1.41500 28.95400 29.38100
C  -2.86700 27.14400 30.11000
C  -1.79500 26.43100 30.79700
O  -0.95100 25.73000 30.21800
O  -1.79600 26.76600 32.16200
C  -0.71600 26.08200 32.93300
H  -7.31900 22.10800 30.08900
H  -7.98200 22.84000 23.57800
H  -3.20300 27.06200 23.68300
H  -4.09700 24.96500 31.79800
H  -6.68000 23.82000 31.59300
H  -5.76900 21.90800 32.53500
H  -4.29700 22.81300 32.52600
H  -4.59300 21.82900 31.09500
H  -6.90900 26.14700 31.70900
H  -5.56900 27.08200 31.16700
H  -6.47300 27.12000 33.62400
H  -4.94000 27.64600 33.05000
H  -10.02400 20.69000 28.54700
H  -8.51900 20.26800 29.37500
H  -9.03100 19.37900 28.00000
H  -9.68200 18.65000 26.04200
H  -10.95100 19.30100 24.91900
H  -10.78500 19.90600 26.35600
H  -7.10800 25.07600 22.20300
H  -4.15700 24.84900 22.06000
H  -7.07500 23.17300 21.15000
H  -5.86700 22.39900 22.22700
H  -5.36700 23.44600 20.80400
H  -5.13000 27.60500 22.32400
H  -6.10100 26.64500 21.20300
H  -4.37400 27.09800 19.53800
H  -3.04000 26.51500 20.63700
H  -3.74200 28.13000 20.66000
H  -1.86000 29.86100 25.83000
H  -1.70400 28.63300 24.52600
H  -0.51500 28.67400 25.76400
H  -3.39700 27.69100 30.89000
H  -0.44200 25.13200 32.47300
H  -1.11000 25.86300 33.92600
H  0.12900 26.74500 33.11800

