158

Mg 26.66200 48.89700 26.52700
C  24.67600 50.14600 28.92400
C  29.14900 48.40100 28.80100
C  28.73500 48.05200 23.92500
C  24.42300 50.19000 24.01600
N  26.85900 49.20200 28.57700
C  25.82700 49.55700 29.38200
C  26.07400 49.20700 30.83200
C  27.65100 48.92600 30.87400
C  27.92800 48.82300 29.36500
C  28.52700 50.02600 31.48000
C  25.18600 48.04600 31.38900
C  24.83600 48.11300 32.88700
H  25.61600 48.88800 33.95500
N  28.65700 48.16800 26.39600
C  29.51200 48.11600 27.42800
C  30.71800 47.43200 26.99900
C  30.66900 47.42800 25.57500
C  29.36200 47.95800 25.21800
C  31.88100 47.11900 27.89000
C  31.78000 47.08000 24.52600
O  31.64400 47.11900 23.33600
C  33.10300 46.73400 24.99700
N  26.50800 48.95200 24.32000
C  27.45600 48.44700 23.49700
C  27.02000 48.37600 22.04500
C  25.60800 49.14500 22.13400
C  25.47200 49.37800 23.61000
C  28.07500 48.72900 21.05800
C  24.49000 48.25300 21.44000
C  24.39200 48.37300 19.90400
N  24.94000 50.11000 26.46000
C  24.12900 50.54700 25.44200
C  22.92400 51.24800 26.02200
C  23.10600 51.12500 27.35700
C  24.36800 50.41700 27.57200
C  21.82600 51.93900 25.22800
C  22.55100 51.48100 28.64100
O  21.51900 52.10100 28.92100
C  23.44000 50.72400 29.63700
C  23.96200 51.73000 30.61100
O  24.78400 52.61200 30.34700
O  23.51500 51.43700 31.87300
C  23.79400 52.41400 32.92000
H  29.81200 48.13700 29.62800
H  29.37500 47.81300 23.07300
H  23.71200 50.54200 23.26500
H  25.84600 50.10600 31.40500
H  27.85600 47.92100 31.24400
H  27.95200 50.90300 31.77600
H  29.30900 50.26600 30.76000
H  29.00100 49.51000 32.31600
H  25.68300 47.08700 31.24200
H  24.25300 48.06900 30.82500
H  24.76900 47.07800 33.22300
H  23.83700 48.55000 32.87200
H  31.97000 46.04000 27.76600
H  31.81600 47.53500 28.89600
H  32.75200 47.70500 27.59900
H  33.02700 45.88400 25.67500
H  33.53100 47.53500 25.60100
H  33.87900 46.64600 24.23700
H  26.78500 47.32500 21.88300
H  25.54900 50.17800 21.79000
H  28.96300 49.16800 21.51400
H  27.72800 49.30200 20.19900
H  28.33100 47.80000 20.54900
H  23.52400 48.60300 21.80400
H  24.53300 47.24600 21.85700
H  25.12600 49.03700 19.44700
H  23.39400 48.72700 19.64400
H  24.50000 47.39200 19.44100
H  21.01400 52.06600 25.94500
H  21.59200 51.40600 24.30700
H  22.09900 52.95900 24.95700
H  22.91600 49.98200 30.24000
H  24.10800 51.85300 33.80000
H  22.98900 53.11100 33.15400
H  24.69500 52.96500 32.65000
Mg 6.09600 54.14100 41.39100
C  5.68100 50.73600 40.61700
C  9.18000 54.08200 40.07000
C  5.79000 57.47400 41.51000
C  2.54800 54.02500 42.66800
N  7.27200 52.55500 40.40700
C  6.88800 51.32100 40.20600
C  8.17600 50.45500 39.69600
C  9.34600 51.50800 39.81400
C  8.53100 52.81700 40.02800
C  10.53400 51.28000 40.88400
C  8.07500 49.82600 38.38600
C  7.78000 50.74500 37.15500
H  6.80200 50.09400 36.13800
N  7.35100 55.61200 40.94300
C  8.66000 55.37800 40.46000
C  9.29900 56.72000 40.34800
C  8.30300 57.68900 40.78900
C  7.06200 56.92900 41.04900
C  10.76700 57.01300 39.84400
C  8.52000 59.19700 40.91000
O  9.59200 59.64800 40.54000
C  7.58000 60.19900 41.47200
N  4.52100 55.55800 42.32400
C  4.65800 56.82100 41.96200
C  3.44100 57.64800 42.34300
C  2.47600 56.57400 42.93800
C  3.22900 55.28100 42.58500
C  3.78200 58.80300 43.36100
C  1.04400 56.65500 42.30300
C  -0.12300 56.38300 43.23500
N  4.45100 52.73600 41.68800
C  3.14800 52.79000 42.23400
C  2.68300 51.42900 42.47300
C  3.57200 50.59200 41.82700
C  4.61100 51.41500 41.31500
C  1.53800 50.99000 43.35200
C  3.90400 49.16900 41.55900
O  3.34800 48.13700 41.92600
C  5.20800 49.28400 40.63500
C  4.75600 48.73700 39.31700
O  3.96500 49.28300 38.54500
O  5.30200 47.45000 39.06100
C  4.75500 46.81400 37.87200
H  10.24700 54.12000 39.84000
H  5.66100 58.52500 41.24100
H  1.47800 54.11700 42.86500
H  8.49300 49.73600 40.45100
H  9.83200 51.56700 38.84000
H  10.32400 51.94800 41.71900
H  11.55300 51.44800 40.53500
H  10.46600 50.27600 41.30200
H  7.41000 48.96300 38.39200
H  9.05800 49.44400 38.10900
H  8.75100 51.00200 36.73000
H  7.35800 51.67100 37.54600
H  11.30100 56.08200 40.03900
H  11.28600 57.75900 40.44500
H  10.85500 57.22100 38.77800
H  8.14600 61.10000 41.70800
H  6.98300 59.90700 42.33600
H  6.82700 60.44900 40.72500
H  3.01400 58.11100 41.45300
H  2.46600 56.77400 44.01000
H  3.73800 59.75900 42.83900
H  4.72600 58.61100 43.87100
H  2.97400 58.79600 44.09300
H  0.91500 55.91700 41.51000
H  0.83100 57.61600 41.83600
H  -0.92000 57.12600 43.20400
H  0.04100 56.33000 44.31100
H  -0.51300 55.37700 43.08000
H  0.77500 51.73200 43.11300
H  1.76200 50.93100 44.41700
H  1.21100 50.00300 43.02300
H  5.94300 48.65700 41.14000
H  3.96500 46.08400 38.05100
H  5.60500 46.27300 37.45600
H  4.42100 47.51700 37.10900

