158

Mg 6.97900 2.92900 28.14500
C  8.57700 1.51400 30.95200
C  5.47900 5.18700 30.09400
C  5.31100 3.80500 25.45200
C  8.53100 0.29200 26.12500
N  7.09000 3.22200 30.34500
C  7.75800 2.63100 31.32900
C  7.53600 3.28400 32.72800
C  6.44500 4.40500 32.34600
C  6.27400 4.25500 30.81200
C  5.09900 4.25200 33.16300
C  8.87000 3.98400 33.24200
C  9.38200 3.32500 34.54500
H  10.02700 4.21900 35.68900
N  5.65500 4.40100 27.80000
C  5.12800 5.28500 28.71300
C  4.31900 6.23800 28.05100
C  4.19200 5.78800 26.69900
C  5.02800 4.59400 26.62800
C  3.67300 7.40300 28.73800
C  3.39200 6.35000 25.50800
O  3.30900 5.70900 24.43100
C  2.70600 7.72500 25.65700
N  6.87700 2.08000 26.15700
C  6.16200 2.71400 25.21400
C  6.30200 2.21000 23.79000
C  7.40000 1.09800 23.96100
C  7.68000 1.14800 25.48000
C  4.94500 1.60400 23.12100
C  8.58900 1.41900 23.02200
C  9.15600 0.11100 22.42400
N  8.25900 1.22000 28.42500
C  8.83300 0.34000 27.53800
C  9.79700 -0.55000 28.25800
C  9.66700 -0.16000 29.62600
C  8.72300 0.94600 29.63300
C  10.84500 -1.56900 27.71100
C  10.09800 -0.41300 30.98900
O  10.85300 -1.26400 31.47900
C  9.41800 0.64800 31.90000
C  8.55000 -0.07700 32.93200
O  7.47800 -0.57800 32.75100
O  9.19600 -0.23200 34.08400
C  8.49900 -0.73700 35.25900
H  4.97300 5.95200 30.68700
H  4.85500 4.10700 24.50600
H  8.95700 -0.45200 25.44800
H  7.06000 2.55000 33.37800
H  6.71500 5.40400 32.68900
H  5.26500 3.73600 34.10900
H  4.48100 3.65800 32.49000
H  4.50100 5.14200 33.35600
H  8.76000 5.06200 33.36500
H  9.65000 3.87600 32.48800
H  10.26400 2.74900 34.26300
H  8.61400 2.65300 34.92800
H  3.95200 8.37300 28.32700
H  4.00300 7.37000 29.77700
H  2.60100 7.20400 28.74400
H  2.18300 7.86200 24.71000
H  3.52800 8.42900 25.78200
H  1.96100 7.63600 26.44800
H  6.72200 2.85600 23.01900
H  6.99000 0.10500 23.77500
H  4.07300 1.74100 23.76100
H  4.96200 0.53000 22.93800
H  4.84600 2.21700 22.22600
H  9.39000 1.92900 23.55500
H  8.38800 2.03500 22.14500
H  8.91800 -0.78500 22.99700
H  10.18400 0.13800 22.06100
H  8.54200 0.05400 21.52500
H  11.42000 -1.92000 28.56800
H  11.40500 -1.01400 26.95900
H  10.43700 -2.41900 27.16400
H  10.23500 1.17900 32.38800
H  7.88000 -1.61200 35.06000
H  7.99400 0.13900 35.66500
H  9.32500 -0.93500 35.94100
Mg 40.13200 9.20400 29.92400
C  42.40400 10.60300 32.26300
C  38.26800 8.11600 32.57800
C  38.15400 7.86400 27.77900
C  42.36300 10.03800 27.37100
N  40.44000 9.32500 32.17400
C  41.29000 10.07500 32.88900
C  40.86000 10.12900 34.35400
C  39.82600 8.92400 34.32600
C  39.44700 8.78900 32.97400
C  40.27900 7.62300 35.01500
C  40.28300 11.52800 34.78500
C  40.07200 11.43100 36.31200
H  40.93700 12.23400 37.21600
N  38.43400 8.19100 30.17100
C  37.79200 7.76900 31.33300
C  36.47000 7.16400 30.97000
C  36.52400 7.02100 29.55700
C  37.75100 7.66200 29.11200
C  35.46700 6.54200 31.96900
C  35.51900 6.30300 28.60900
O  35.65300 6.10700 27.41700
C  34.44400 5.63500 29.27700
N  40.31200 8.82900 27.85900
C  39.23800 8.42800 27.20500
C  39.38000 8.56600 25.68800
C  40.87200 9.09300 25.52900
C  41.22900 9.34800 26.94200
C  39.07400 7.12200 24.98500
C  40.95000 10.29500 24.59000
C  40.47500 11.63400 25.14100
N  42.05400 10.09300 29.76500
C  42.78000 10.39400 28.65400
C  44.03500 11.02200 29.08500
C  43.89200 11.20500 30.49300
C  42.73000 10.56800 30.89700
C  45.10800 11.49300 28.11400
C  44.43500 11.87700 31.66300
O  45.44500 12.60500 31.79000
C  43.57700 11.42500 32.84500
C  44.46500 10.68400 33.77200
O  44.82200 9.53700 33.61200
O  44.69600 11.49600 34.87700
C  45.43900 10.92600 36.00300
H  37.71300 7.67100 33.40700
H  37.42600 7.55000 27.02800
H  43.02600 10.20200 26.52000
H  41.71400 9.86300 34.97700
H  38.93700 9.25300 34.86400
H  40.15100 6.77000 34.34800
H  39.85100 7.32100 35.97100
H  41.34600 7.77800 35.17400
H  39.41400 11.76300 34.17100
H  40.99500 12.29900 34.49100
H  40.01100 10.43800 36.75800
H  39.03800 11.76900 36.37000
H  34.53100 7.00100 31.65200
H  35.73200 6.88200 32.97000
H  35.50300 5.46100 31.84000
H  34.91500 4.83700 29.85000
H  33.72700 5.19100 28.58600
H  33.88200 6.26600 29.96500
H  38.63600 9.31000 25.40500
H  41.59700 8.34100 25.21900
H  39.95600 6.76100 24.45600
H  38.21400 7.13600 24.31600
H  38.87100 6.36800 25.74600
H  40.31100 10.17000 23.71600
H  41.99600 10.34100 24.28400
H  40.20100 11.76200 26.18800
H  39.74800 12.10600 24.48000
H  41.33100 12.30300 25.06500
H  44.65000 12.42600 27.78500
H  44.89900 10.72800 27.36600
H  46.05300 11.55700 28.65200
H  43.13200 12.29500 33.32900
H  44.63600 10.55700 36.64000
H  46.04700 11.70600 36.46100
H  46.07000 10.10300 35.66800

