158

Mg -2.15200 17.31000 25.63900
C  -2.60200 14.91900 28.35500
C  -2.91200 19.77700 27.89200
C  -2.04300 19.35700 23.12300
C  -2.05400 14.55000 23.40300
N  -2.73900 17.25800 27.88000
C  -2.85400 16.23000 28.75200
C  -3.19400 16.68900 30.11600
C  -3.56800 18.19500 29.92100
C  -3.11500 18.48400 28.46200
C  -4.98500 18.71500 30.18800
C  -2.12100 16.43300 31.28000
C  -2.47300 17.06700 32.72000
H  -2.33700 16.07300 33.81500
N  -2.27400 19.31500 25.51600
C  -2.52100 20.18000 26.58700
C  -2.38100 21.48600 26.00900
C  -2.05200 21.41700 24.62800
C  -2.10400 19.97400 24.32700
C  -2.59100 22.76900 26.85800
C  -1.75000 22.55400 23.53700
O  -1.55300 22.43100 22.34700
C  -1.71800 24.00800 23.97000
N  -2.20100 16.95800 23.55000
C  -2.04700 18.01300 22.72200
C  -1.78500 17.62600 21.23700
C  -1.84700 15.98100 21.40500
C  -1.95400 15.78100 22.86900
C  -2.86200 18.15100 20.25900
C  -0.71400 15.10600 20.77400
C  0.63500 15.15200 21.45500
N  -2.37200 15.19100 25.79400
C  -2.21900 14.26300 24.78400
C  -2.15600 12.91300 25.36800
C  -2.42600 13.12600 26.75800
C  -2.41300 14.54400 26.98200
C  -2.15600 11.62400 24.58900
C  -2.65900 12.44000 27.98500
O  -2.77000 11.25400 28.26900
C  -2.63200 13.55200 29.11100
C  -1.53800 13.29000 29.97300
O  -0.41500 13.34800 29.58400
O  -1.91500 12.92800 31.20200
C  -0.75800 12.60900 32.07600
H  -3.10100 20.59300 28.59200
H  -1.83600 20.03100 22.28900
H  -1.66400 13.69200 22.85200
H  -4.11500 16.18300 30.40400
H  -2.88200 18.69500 30.60400
H  -4.90200 19.34200 31.07600
H  -5.62600 17.87900 30.46600
H  -5.46700 19.21300 29.34600
H  -1.15800 16.77000 30.89600
H  -1.98700 15.38200 31.53300
H  -3.52900 17.32800 32.66300
H  -1.88600 17.97200 32.87500
H  -3.47600 23.34400 26.58600
H  -1.67800 23.34000 26.69300
H  -2.47200 22.48900 27.90500
H  -2.73500 24.38900 24.06300
H  -1.16800 24.55300 23.20200
H  -1.13200 24.15700 24.87700
H  -0.75400 17.89200 21.00500
H  -2.80300 15.73100 20.94600
H  -2.28300 18.52700 19.41600
H  -3.41200 18.96700 20.72800
H  -3.65700 17.45400 19.99100
H  -0.57600 15.32900 19.71600
H  -1.12600 14.09900 20.83600
H  0.61500 15.91400 22.23500
H  1.43300 15.56900 20.84100
H  0.93300 14.19400 21.88000
H  -2.72200 11.72200 23.66300
H  -2.74700 10.88400 25.12900
H  -1.15600 11.21700 24.44000
H  -3.55900 13.48400 29.68100
H  -0.28600 11.66800 31.79600
H  -1.10300 12.36000 33.08000
H  -0.06900 13.40900 32.34800
Mg 25.92600 0.08800 28.78200
C  27.59800 0.12200 31.97800
C  22.95800 0.58100 30.48000
C  24.38800 0.22900 25.74800
C  28.71800 -1.18000 27.20300
N  25.36800 0.40000 30.98400
C  26.19800 0.33800 32.15200
C  25.34900 0.65100 33.39900
C  23.92600 0.88700 32.87200
C  24.05600 0.58200 31.37100
C  22.76800 0.08000 33.68200
C  26.11600 1.77600 34.30800
C  25.20100 2.52500 35.32000
H  25.75300 2.70600 36.74600
N  23.92200 0.39100 28.20000
C  22.87000 0.47500 29.02300
C  21.67300 0.55900 28.18500
C  22.09300 0.58800 26.82900
C  23.51200 0.49500 26.87800
C  20.23700 0.59800 28.73800
C  21.23300 0.72800 25.55100
O  21.71200 0.73300 24.39400
C  19.70600 0.99700 25.69700
N  26.51600 -0.39300 26.77300
C  25.71300 -0.13400 25.66500
C  26.40700 -0.63000 24.37500
C  27.87200 -0.91100 24.84300
C  27.71100 -0.78500 26.34000
C  25.65700 -1.82500 23.74400
C  28.95200 -0.01100 24.30400
C  28.79800 1.50300 24.72300
N  27.68300 -0.53200 29.38200
C  28.70200 -1.12200 28.62900
C  29.84700 -1.34800 29.60400
C  29.43100 -0.84600 30.85200
C  28.12600 -0.40400 30.71300
C  31.13400 -1.90900 29.30600
C  29.90000 -0.51800 32.21400
O  30.95500 -0.81600 32.75900
C  28.69800 -0.05900 33.01800
C  28.39800 -1.18300 33.89200
O  27.96100 -2.24000 33.50700
O  28.59400 -0.73400 35.21500
C  28.37800 -1.84400 36.23500
H  21.98000 0.73200 30.94300
H  23.88200 0.22400 24.78000
H  29.68400 -1.39000 26.74100
H  25.34000 -0.23700 34.03200
H  23.86500 1.97200 32.95700
H  22.42500 -0.72700 33.03500
H  21.90900 0.72200 33.88100
H  23.13600 -0.47000 34.54800
H  26.49400 2.45700 33.54600
H  26.84400 1.17500 34.85200
H  24.29000 1.93200 35.40700
H  24.95200 3.49400 34.88700
H  19.74200 1.56200 28.61800
H  20.24400 0.32400 29.79200
H  19.69600 -0.19400 28.22000
H  19.26400 0.03500 25.95800
H  19.42500 1.27800 24.68200
H  19.46100 1.80200 26.39000
H  26.43500 0.18900 23.65600
H  28.27400 -1.90500 24.64200
H  24.67000 -2.01600 24.16600
H  26.23200 -2.74800 23.81300
H  25.42400 -1.59200 22.70400
H  28.91800 -0.12900 23.22100
H  29.93700 -0.28200 24.68300
H  29.40900 1.60100 25.62000
H  27.83700 1.85000 25.10100
H  29.30800 2.08200 23.95300
H  31.12100 -2.43100 28.34900
H  31.31800 -2.57800 30.14600
H  31.92000 -1.15400 29.31400
H  28.65900 0.85200 33.61600
H  28.77200 -2.78300 35.84700
H  27.33300 -1.90100 36.54200
H  28.94400 -1.70200 37.15500

