158

Mg 26.16500 0.90500 29.36400
C  27.87600 0.55200 32.31300
C  23.16600 1.29200 31.18600
C  24.39600 0.94300 26.48500
C  29.14200 -0.03500 27.52900
N  25.62100 0.75900 31.57300
C  26.49500 0.73300 32.54300
C  25.78300 1.17100 33.88000
C  24.23900 1.07300 33.48100
C  24.32100 1.06200 31.92700
C  23.38200 -0.14100 34.05700
C  26.15200 2.56400 34.38000
C  27.03000 2.64400 35.64600
H  26.54600 3.63900 36.69300
N  24.06200 1.14300 28.84300
C  22.99600 1.27400 29.77700
C  21.74200 1.41900 29.03100
C  22.12100 1.42700 27.62500
C  23.54900 1.10900 27.58300
C  20.36800 1.50800 29.70500
C  21.21900 1.71700 26.43000
O  21.66000 1.67400 25.26200
C  19.79700 2.11800 26.52500
N  26.63400 0.45000 27.32700
C  25.74600 0.59800 26.31900
C  26.46900 0.23200 24.97800
C  27.88600 -0.25000 25.36300
C  27.90700 0.06700 26.83100
C  25.62000 -0.66400 24.02400
C  28.97900 0.30600 24.52200
C  29.27000 1.78500 24.79200
N  28.14500 0.43300 29.73700
C  29.25200 0.13100 28.97900
C  30.45500 0.14700 29.75700
C  29.93100 0.27900 31.07900
C  28.57000 0.47300 30.98100
C  31.81400 -0.30100 29.35100
C  30.25300 0.36200 32.44500
O  31.31300 0.16700 33.02400
C  28.97500 0.59600 33.30300
C  28.75600 -0.46800 34.39000
O  28.55900 -1.64500 34.21800
O  29.01200 0.13700 35.58400
C  28.85700 -0.73900 36.74500
H  22.21600 1.58100 31.64100
H  23.87600 0.99900 25.52700
H  30.07200 -0.00300 26.95800
H  26.09600 0.56500 34.72900
H  23.71100 2.00500 33.68400
H  22.75000 -0.60600 33.30100
H  22.73600 0.27400 34.83000
H  23.89100 -0.94000 34.59600
H  25.21900 3.06700 34.63700
H  26.70100 3.15000 33.64400
H  28.05900 2.89500 35.38900
H  27.02700 1.67300 36.14000
H  19.92800 2.48800 29.52300
H  20.49400 1.43000 30.78500
H  19.64500 0.77200 29.35200
H  19.82300 3.02400 27.13100
H  19.26700 1.27600 26.97100
H  19.44000 2.46000 25.55400
H  26.62300 1.15400 24.41900
H  27.85800 -1.33900 25.40400
H  26.11900 -1.58200 23.71300
H  25.38700 -0.08000 23.13400
H  24.70900 -1.01400 24.51000
H  28.76200 0.15700 23.46500
H  29.86300 -0.28700 24.75800
H  28.36500 2.29100 25.13000
H  29.70500 2.32900 23.95300
H  30.15200 1.78500 25.43200
H  31.88200 -0.45500 28.27400
H  31.89000 -1.27500 29.83300
H  32.51600 0.45800 29.69500
H  28.99900 1.62400 33.66600
H  27.84900 -1.15300 36.73100
H  29.20000 -0.28600 37.67600
H  29.65800 -1.47600 36.67900
Mg -10.35700 38.33900 40.61000
C  -8.21800 35.61600 39.89800
C  -8.01200 40.38600 39.01100
C  -12.47500 40.96200 40.68500
C  -12.79300 36.18200 41.45800
N  -8.41800 37.88200 39.37000
C  -7.68300 36.76400 39.39000
C  -6.42500 36.93400 38.49300
C  -6.25600 38.52700 38.64200
C  -7.67700 38.99500 39.02200
C  -5.03200 39.08100 39.38000
C  -6.63900 36.50100 36.95700
C  -5.64700 35.67200 36.21100
H  -5.32100 36.13400 34.81900
N  -10.19400 40.42100 40.09000
C  -9.14300 41.02500 39.46500
C  -9.36200 42.44500 39.57800
C  -10.63600 42.67800 40.14100
C  -11.17600 41.35900 40.40200
C  -8.49200 43.43000 39.12000
C  -11.37400 44.06700 40.21900
O  -10.78700 45.05300 39.78800
C  -12.70000 44.20400 40.71100
N  -12.32700 38.56000 40.97200
C  -13.00200 39.71500 40.97000
C  -14.49100 39.58100 41.27000
C  -14.56900 38.05300 41.54200
C  -13.16400 37.56500 41.23200
C  -15.00300 40.52400 42.36800
C  -15.67500 37.35600 40.66300
C  -16.78500 36.69900 41.49800
N  -10.54000 36.27400 40.71400
C  -11.54400 35.54500 41.11800
C  -11.09600 34.17400 41.32300
C  -9.79500 34.12700 40.81100
C  -9.51600 35.43300 40.39300
C  -11.82800 33.12300 42.04000
C  -8.62500 33.35800 40.55500
O  -8.48000 32.15700 40.59100
C  -7.62900 34.24700 39.80900
C  -6.25800 34.14000 40.43700
O  -5.34300 33.49600 39.89200
O  -6.12200 35.04300 41.50400
C  -4.97300 34.87100 42.43900
H  -7.19700 40.97000 38.57900
H  -13.17500 41.79400 40.57800
H  -13.63000 35.63700 41.90100
H  -5.54800 36.42400 38.88900
H  -6.16400 38.87400 37.61300
H  -4.31000 39.23100 38.57800
H  -4.63500 38.38400 40.11700
H  -5.21000 40.03000 39.88600
H  -6.94100 37.38900 36.40300
H  -7.51900 35.86000 36.90000
H  -5.99800 34.64000 36.22800
H  -4.64900 35.59500 36.64200
H  -8.76900 43.92700 38.19100
H  -7.46700 43.06900 39.03600
H  -8.26800 44.19700 39.86100
H  -12.84100 45.22900 41.05200
H  -12.76400 43.62200 41.63100
H  -13.48000 44.00800 39.97600
H  -15.11700 39.74800 40.39400
H  -14.87200 37.90100 42.57800
H  -15.71300 41.22500 41.92900
H  -14.16000 40.92500 42.93000
H  -15.50500 39.92900 43.13100
H  -15.22900 36.47200 40.20900
H  -16.14700 38.04800 39.96500
H  -16.57900 35.62900 41.51900
H  -17.77200 36.93200 41.09900
H  -16.80100 36.96600 42.55500
H  -11.86600 32.18700 41.48300
H  -12.84500 33.47900 42.20500
H  -11.39700 33.02000 43.03500
H  -7.62000 33.82100 38.80600
H  -5.29800 34.81500 43.47800
H  -4.34700 35.75200 42.29400
H  -4.31400 34.00300 42.40500

