158

Mg 46.65500 24.41000 28.57600
C  47.21600 26.98900 30.88000
C  45.63300 22.33500 31.04800
C  46.57600 22.10700 26.26900
C  47.82900 26.68900 26.06800
N  46.34400 24.69900 30.72100
C  46.61300 25.83300 31.49200
C  46.32800 25.52400 32.96500
C  45.55600 24.10200 32.89900
C  45.89700 23.66900 31.47200
C  45.88700 23.02900 33.92300
C  45.55600 26.65500 33.73000
C  44.50500 26.17400 34.82400
H  44.34400 26.87800 36.21100
N  46.14500 22.46400 28.61200
C  45.79100 21.78600 29.72400
C  45.70400 20.38300 29.35400
C  46.00600 20.20700 28.02500
C  46.25600 21.63600 27.53200
C  45.34700 19.40400 30.50400
C  45.94300 19.03400 27.08200
O  46.19000 19.04500 25.90300
C  45.48200 17.72100 27.65100
N  46.93800 24.49900 26.42800
C  46.80100 23.32500 25.72100
C  47.13300 23.53700 24.26200
C  47.44500 25.08100 24.26000
C  47.44900 25.47200 25.65300
C  48.28800 22.71300 23.67000
C  46.33000 25.90300 23.43900
C  44.95400 25.91400 24.13800
N  47.34500 26.41300 28.45500
C  47.85900 27.16500 27.37600
C  48.40500 28.37100 27.84000
C  48.20000 28.35200 29.22500
C  47.55700 27.12700 29.55800
C  49.13900 29.40300 27.13500
C  48.39700 29.04300 30.44300
O  48.95100 30.09900 30.61500
C  47.72200 28.20200 31.55900
C  48.63900 27.99800 32.64800
O  49.48300 27.12000 32.78800
O  48.34500 28.89700 33.58400
C  48.96100 28.75900 34.91100
H  45.08000 21.72300 31.76400
H  46.66300 21.34700 25.49000
H  48.20200 27.32600 25.26400
H  47.28000 25.47700 33.49200
H  44.49100 24.32100 32.96700
H  46.70700 22.35700 33.66800
H  45.08600 22.41000 34.32800
H  46.24900 23.60200 34.77600
H  45.21900 27.49100 33.11700
H  46.39800 27.04100 34.30300
H  44.68600 25.11700 35.02200
H  43.53700 26.12700 34.32700
H  44.32300 19.50800 30.86200
H  46.11300 19.48400 31.27600
H  45.35500 18.39000 30.10400
H  45.19000 16.96800 26.92000
H  44.60200 17.98300 28.23900
H  46.27300 17.31900 28.28400
H  46.19400 23.47300 23.71200
H  48.46400 25.31300 23.95000
H  47.94000 22.10500 22.83500
H  48.59500 22.08000 24.50200
H  49.21400 23.19300 23.35200
H  46.21200 25.35200 22.50500
H  46.70300 26.91200 23.26300
H  44.99700 26.54400 25.02600
H  44.77200 24.88100 24.43500
H  44.16700 26.43200 23.59100
H  48.69200 29.63800 26.16900
H  50.14400 28.99800 27.01700
H  49.21800 30.20200 27.87100
H  46.86200 28.74100 31.95800
H  49.96800 29.16200 34.80300
H  48.89400 27.74100 35.29500
H  48.49600 29.42000 35.64200
Mg 26.15100 51.44000 25.62700
C  23.79300 52.34400 28.18000
C  28.43300 50.83400 28.18400
C  28.25200 50.63400 23.29200
C  23.85500 52.72300 23.22800
N  26.06900 51.59900 27.99000
C  25.01700 51.94300 28.81400
C  25.41100 51.75400 30.26100
C  26.94300 51.45500 30.20000
C  27.20000 51.36400 28.68000
C  27.85200 52.48900 30.83900
C  24.57600 50.66700 30.94900
C  23.84100 50.98600 32.25200
H  24.06000 49.98500 33.52000
N  28.03400 50.71900 25.70200
C  28.77700 50.47900 26.86300
C  30.07600 49.91800 26.48800
C  30.09700 49.92600 25.02500
C  28.76000 50.39600 24.57100
C  31.15200 49.65400 27.55000
C  31.26600 49.54300 24.12000
O  31.25600 49.58000 22.93200
C  32.57700 49.16200 24.86600
N  26.16100 52.00400 23.59000
C  27.11700 51.33800 22.89000
C  26.79200 51.37200 21.40000
C  25.35200 51.99900 21.32400
C  25.12500 52.30100 22.80600
C  27.91800 51.99600 20.53800
C  24.37800 50.87700 20.73600
C  23.08900 51.29500 20.09700
N  24.26200 52.33100 25.61800
C  23.40200 52.73800 24.52500
C  22.10200 53.04900 25.07800
C  22.23100 52.89400 26.44900
C  23.52100 52.42900 26.73400
C  21.00500 53.66000 24.27700
C  21.58900 53.18600 27.79000
O  20.45100 53.61000 27.99800
C  22.61700 52.86400 28.91200
C  22.85600 54.08500 29.85200
O  23.25300 55.20600 29.49800
O  22.49400 53.83200 31.13500
C  22.69500 54.86300 32.09500
H  29.14300 50.67600 28.99900
H  28.89000 50.23900 22.49900
H  23.13600 52.95000 22.43700
H  25.17300 52.67100 30.79900
H  27.25000 50.50000 30.62900
H  27.37800 53.43700 31.09300
H  28.59000 52.75300 30.08100
H  28.41200 52.13200 31.70300
H  25.18300 49.77600 31.11000
H  23.83100 50.32300 30.23200
H  22.76600 51.13200 32.15000
H  24.25800 51.91400 32.64300
H  30.80700 49.67700 28.58300
H  31.94200 50.39300 27.68000
H  31.60100 48.68100 27.34900
H  32.47600 48.21900 25.40400
H  32.85000 49.96700 25.54800
H  33.40400 49.03900 24.16700
H  26.64900 50.32600 21.12900
H  25.26500 52.95500 20.80700
H  27.54700 52.77300 19.86800
H  28.34200 51.20800 19.91600
H  28.69700 52.33300 21.22100
H  24.22800 50.27600 21.63300
H  24.86200 50.21100 20.02200
H  23.18200 51.30500 19.01100
H  22.81700 52.31700 20.36000
H  22.37200 50.56400 20.47000
H  20.37100 52.78300 24.14200
H  21.45700 54.12400 23.40100
H  20.38200 54.38900 24.79600
H  22.25600 52.03800 29.52400
H  21.66200 55.04700 32.39100
H  23.14100 55.78600 31.72500
H  23.24700 54.49700 32.96100

