158

Mg 42.09600 40.76200 25.77300
C  41.19400 43.13700 28.22400
C  43.03000 38.62200 28.21600
C  43.21400 38.75500 23.36800
C  41.29000 43.14200 23.31300
N  42.11700 40.90900 27.98800
C  41.56600 41.90700 28.83100
C  41.64300 41.50100 30.35600
C  42.41400 40.08600 30.26900
C  42.53100 39.86100 28.72600
C  43.78500 39.98000 30.97900
C  40.20900 41.47200 31.01400
C  40.16700 40.78500 32.32900
H  39.74300 41.60700 33.53100
N  42.90000 38.86300 25.80800
C  43.14500 38.12400 26.93200
C  43.67000 36.82000 26.53600
C  43.77900 36.84800 25.16700
C  43.35600 38.23500 24.71300
C  44.08600 35.72500 27.57100
C  44.19700 35.72400 24.14500
O  44.27600 35.91000 22.92400
C  44.50200 34.27400 24.60400
N  42.33900 41.03700 23.59800
C  42.69000 39.92700 22.82100
C  42.45700 40.20500 21.38700
C  41.60200 41.45300 21.46500
C  41.59300 41.87100 22.91100
C  43.74200 40.21000 20.54400
C  40.13600 41.39800 20.94600
C  39.00400 40.63000 21.70300
N  41.56800 42.75300 25.75200
C  41.28200 43.55500 24.65900
C  41.06100 44.92200 25.13000
C  40.94700 44.75200 26.52700
C  41.21100 43.37800 26.87200
C  40.66000 46.15600 24.31800
C  40.71000 45.56200 27.74600
O  40.55500 46.73500 27.93400
C  40.73800 44.48000 28.87900
C  41.71200 44.90200 29.85800
O  42.87700 45.07100 29.60100
O  41.01600 45.30500 31.02800
C  41.93800 45.81100 32.06300
H  43.24000 37.89200 29.00000
H  43.46700 38.19300 22.46700
H  40.86700 43.80700 22.55700
H  42.30200 42.27400 30.75100
H  41.78600 39.32300 30.72800
H  44.60100 39.52200 30.42000
H  43.62700 39.42300 31.90200
H  44.09500 40.94900 31.37000
H  39.49400 41.08600 30.28800
H  39.90000 42.49600 31.22600
H  41.13900 40.33000 32.52300
H  39.41600 39.99500 32.35000
H  43.49800 34.82900 27.37600
H  43.94300 36.01500 28.61200
H  45.15900 35.54900 27.49500
H  43.64000 33.93400 25.17900
H  45.35800 34.14600 25.26600
H  44.76000 33.75100 23.68400
H  41.88400 39.35200 21.02300
H  42.03500 42.23900 20.84700
H  43.81400 41.16700 20.02700
H  43.60000 39.49600 19.73200
H  44.63700 39.90300 21.08500
H  40.20900 40.97000 19.94600
H  39.82500 42.41900 20.72500
H  38.46200 39.93600 21.06000
H  38.36900 41.27900 22.30700
H  39.52400 40.02300 22.44400
H  39.65000 46.00200 23.93900
H  41.44500 46.36300 23.59000
H  40.68100 46.93700 25.07800
H  39.72500 44.36200 29.26600
H  42.42300 45.15800 32.78900
H  41.16800 46.32700 32.63600
H  42.59300 46.59800 31.69000
Mg 16.69400 51.50600 25.54200
C  18.30200 50.59700 28.42800
C  13.98000 52.46200 27.53300
C  15.03800 52.14800 22.83300
C  19.27800 50.02900 23.68500
N  16.28700 51.65100 27.74300
C  17.11100 51.20600 28.73700
C  16.58600 51.48000 30.14700
C  15.10000 51.98800 29.84000
C  15.13700 52.15700 28.27800
C  13.73600 51.24500 30.30300
C  17.51900 52.38300 31.10600
C  17.89200 51.92800 32.51300
H  16.94100 51.02500 33.35500
N  14.75300 52.15900 25.23600
C  13.83200 52.51800 26.11500
C  12.64500 53.06600 25.45000
C  12.91800 53.08100 24.06700
C  14.27200 52.39600 23.95300
C  11.51200 53.59700 26.16100
C  12.07300 53.57500 22.88400
O  12.53100 53.68700 21.73300
C  10.65400 53.84900 23.20100
N  17.03700 51.07900 23.52700
C  16.23200 51.50000 22.57200
C  16.80700 51.10800 21.15600
C  18.23000 50.77800 21.55200
C  18.17000 50.55100 23.03100
C  15.97500 49.97000 20.54100
C  19.29100 51.89200 21.17800
C  20.73200 51.43800 20.90500
N  18.49300 50.59400 25.90700
C  19.39300 49.99300 25.11400
C  20.45100 49.36200 25.87600
C  19.97700 49.52600 27.15600
C  18.85000 50.32100 27.16500
C  21.69000 48.65400 25.31100
C  20.32400 49.22700 28.52800
O  21.22300 48.62500 29.02200
C  19.19000 49.82200 29.41100
C  18.61700 48.78700 30.32500
O  17.76400 47.92200 30.07400
O  19.33200 48.92300 31.50400
C  19.28500 47.89400 32.50300
H  13.09300 52.69600 28.12500
H  14.56400 52.33300 21.86700
H  20.13300 49.61400 23.14700
H  16.44900 50.47600 30.55000
H  14.96000 52.95700 30.31900
H  13.18700 50.78600 29.48100
H  13.12000 52.03400 30.73600
H  13.89700 50.47600 31.05800
H  17.22900 53.43400 31.09900
H  18.46800 52.46100 30.57400
H  18.00200 52.82200 33.12700
H  18.90900 51.53600 32.52800
H  11.77400 54.09400 27.09500
H  10.87500 52.74300 26.39200
H  11.02200 54.33700 25.52900
H  10.54000 54.85600 23.60200
H  10.20300 52.97900 23.67800
H  10.07600 53.80200 22.27800
H  16.73600 52.04800 20.60700
H  18.53400 49.84300 21.08300
H  15.38500 49.55300 21.35700
H  16.50000 49.12700 20.09100
H  15.23900 50.42000 19.87400
H  19.23200 52.58100 22.02100
H  18.95100 52.39400 20.27300
H  21.49600 52.00500 21.43800
H  20.79100 51.70600 19.85000
H  20.85800 50.37100 21.08600
H  22.40300 49.47800 25.34500
H  21.44300 48.32100 24.30300
H  21.83400 47.76600 25.92500
H  19.72600 50.54700 30.02300
H  19.89900 47.04600 32.19600
H  18.24000 47.67000 32.71800
H  19.70500 48.25600 33.44200

