158

Mg 1.64800 -2.02000 43.97600
C  4.77800 -0.50200 43.78100
C  0.23600 0.91000 42.57800
C  -1.31700 -3.54500 44.04300
C  3.18700 -4.86400 45.18800
N  2.39900 -0.15800 43.06400
C  3.73700 0.27400 43.21500
C  3.96400 1.66700 42.48200
C  2.45100 2.17100 42.46600
C  1.63600 0.91500 42.67300
C  2.13200 3.31900 43.45100
C  4.69100 1.61800 41.14500
C  4.71400 2.88200 40.31200
H  4.03200 2.97800 38.95100
N  -0.24600 -1.41600 43.30000
C  -0.64600 -0.17800 42.81600
C  -2.05300 -0.22700 42.50100
C  -2.56100 -1.46300 43.07700
C  -1.36900 -2.18000 43.57700
C  -2.74800 0.96100 41.91400
C  -4.00700 -1.86800 43.07100
O  -4.75400 -1.15200 42.41500
C  -4.60300 -3.03000 43.67700
N  1.04300 -3.95500 44.40400
C  -0.23600 -4.27100 44.56200
C  -0.48100 -5.61300 45.24200
C  1.00300 -6.12500 45.37500
C  1.81500 -4.96500 44.93900
C  -1.30400 -5.39800 46.55300
C  1.38500 -7.29500 44.45500
C  2.13400 -8.46600 45.12200
N  3.61700 -2.60600 44.49000
C  4.00500 -3.72100 44.95800
C  5.49100 -3.71600 45.13600
C  5.86800 -2.42200 44.75300
C  4.66300 -1.75200 44.36500
C  6.35800 -4.88700 45.71800
C  6.90300 -1.50400 44.48800
O  8.14100 -1.52800 44.62500
C  6.27600 -0.18900 43.84300
C  6.52600 0.95700 44.73200
O  6.09700 1.13000 45.86500
O  7.50500 1.76400 44.21100
C  7.87000 2.87300 45.05800
H  -0.20200 1.85700 42.25700
H  -2.26600 -4.07900 44.12400
H  3.66400 -5.73700 45.64000
H  4.54300 2.32600 43.12900
H  2.21200 2.58900 41.48800
H  1.27000 3.95500 43.24900
H  2.97700 4.00700 43.42600
H  2.02200 2.88500 44.44500
H  4.31300 0.87400 40.44300
H  5.69100 1.28400 41.42200
H  5.73100 3.23800 40.15100
H  4.19300 3.65300 40.87900
H  -2.25600 1.85200 42.30400
H  -3.70600 1.09200 42.41700
H  -2.96500 0.95200 40.84600
H  -4.26400 -3.99100 43.29100
H  -5.66900 -3.09500 43.45700
H  -4.53100 -2.86800 44.75300
H  -1.12400 -6.23400 44.62000
H  1.24200 -6.46100 46.38400
H  -0.69800 -5.34200 47.45700
H  -2.11200 -6.12600 46.61300
H  -1.79100 -4.42300 46.52500
H  1.80600 -6.98500 43.49900
H  0.43800 -7.75000 44.16500
H  2.88000 -8.07400 45.81300
H  2.77900 -8.86800 44.34100
H  1.53400 -9.21300 45.64200
H  6.09900 -5.71100 45.05300
H  5.99400 -5.05100 46.73200
H  7.43100 -4.69300 45.73600
H  6.80300 0.02800 42.91400
H  8.92900 2.95800 45.30100
H  7.31600 3.00200 45.98800
H  7.62600 3.72000 44.41700
Mg 49.27500 46.26100 42.55200
C  45.85600 46.89800 41.91300
C  48.88100 43.26200 40.95100
C  52.51400 46.00900 42.69700
C  49.49400 49.70300 43.66400
N  47.46900 45.27600 41.34800
C  46.19200 45.66700 41.31800
C  45.40900 44.61700 40.39400
C  46.45700 43.46900 40.15600
C  47.69400 43.96400 40.92600
C  45.99000 42.03000 40.57200
C  44.89900 45.36000 39.01800
C  43.45300 45.25900 38.57300
H  43.24500 45.07600 37.01800
N  50.54700 44.83000 41.91900
C  50.14700 43.65700 41.37200
C  51.32200 42.81000 41.16100
C  52.41400 43.54500 41.70700
C  51.86900 44.85300 42.15700
C  51.23100 41.39700 40.66900
C  53.87500 43.10200 41.80400
O  54.14300 42.01700 41.26600
C  54.97400 43.80100 42.49100
N  50.74400 47.72200 43.13700
C  52.09500 47.26600 43.13600
C  53.04200 48.36600 43.63000
C  52.04500 49.53300 43.99100
C  50.70000 49.02200 43.56800
C  53.90200 47.84400 44.79300
C  52.46600 50.89200 43.53300
C  52.51100 51.16600 42.02500
N  47.96300 47.93300 42.85300
C  48.18700 49.17900 43.42200
C  46.88500 49.82600 43.71800
C  45.98500 49.00900 43.05100
C  46.68100 47.90200 42.49100
C  46.63100 51.13700 44.45500
C  44.60300 48.86000 42.84600
O  43.69600 49.51000 43.22100
C  44.43500 47.53600 41.96900
C  43.52900 46.66400 42.71300
O  43.80800 46.28300 43.86100
O  42.49700 46.13600 41.95400
C  41.83500 45.00800 42.59300
H  48.85900 42.24800 40.54400
H  53.59000 45.84800 42.79300
H  49.62100 50.71900 44.04500
H  44.57700 44.27200 41.00800
H  46.75000 43.46300 39.10700
H  45.91100 41.25400 39.81200
H  45.14900 42.06500 41.26500
H  46.81500 41.54300 41.09100
H  45.37700 44.82100 38.19900
H  45.17500 46.41400 39.00100
H  43.04100 46.23300 38.83600
H  42.96100 44.43700 39.09200
H  51.31300 41.45100 39.58400
H  50.28300 40.89900 40.87300
H  52.09100 40.81200 40.99400
H  54.78600 43.93600 43.55600
H  55.13100 44.65800 41.83500
H  55.87800 43.19700 42.40600
H  53.73600 48.67900 42.85000
H  52.06900 49.57300 45.08000
H  53.45200 46.96700 45.25800
H  54.00600 48.57100 45.59700
H  54.91500 47.61000 44.46600
H  53.43200 51.05100 44.01100
H  51.89400 51.72200 43.94900
H  52.45300 50.22400 41.48100
H  53.51600 51.50600 41.77300
H  51.71600 51.82400 41.67400
H  47.33100 51.45100 45.22900
H  45.68900 51.02100 44.99100
H  46.42500 52.00800 43.83300
H  43.94600 47.69400 41.00700
H  41.87300 44.29400 41.77100
H  40.76500 45.07000 42.79000
H  42.37000 44.50700 43.40000

