158

Mg -0.71700 18.08400 27.39000
C  -1.33600 15.80200 30.09500
C  -1.49500 20.57600 29.40500
C  -0.60400 19.96700 24.66900
C  -0.56600 15.14600 25.28500
N  -1.32900 18.19500 29.51400
C  -1.29900 17.16200 30.49700
C  -1.49100 17.70100 31.88700
C  -1.75000 19.21000 31.56700
C  -1.61600 19.31700 30.05700
C  -3.06000 19.79200 32.17400
C  -0.40000 17.41200 33.01300
C  -1.01500 16.90100 34.39500
H  -0.18600 17.25300 35.65600
N  -0.76700 20.04800 27.07200
C  -1.09300 20.95500 28.08300
C  -0.93000 22.30200 27.54300
C  -0.69800 22.14700 26.12300
C  -0.64900 20.70700 25.88500
C  -1.21200 23.57700 28.39700
C  -0.58500 23.17700 25.03800
O  -0.41900 22.94100 23.87800
C  -0.72300 24.62800 25.38000
N  -0.66200 17.61000 25.26600
C  -0.50300 18.63600 24.38400
C  -0.45100 17.97900 22.99000
C  -0.04800 16.57400 23.24400
C  -0.50100 16.43400 24.66000
C  -1.66700 18.29600 22.03100
C  1.57400 16.37600 23.05200
C  2.51000 17.25600 23.92000
N  -0.99200 16.00200 27.52700
C  -0.98400 14.93500 26.60100
C  -1.20800 13.69000 27.15300
C  -1.35100 13.96900 28.47000
C  -1.25700 15.35700 28.72900
C  -1.31600 12.41400 26.35300
C  -1.61700 13.31200 29.75900
O  -1.81300 12.08700 30.03600
C  -1.60300 14.52700 30.83500
C  -0.58500 14.16600 31.90000
O  0.63900 14.18400 31.77700
O  -1.29900 13.62000 32.94400
C  -0.52500 12.91800 34.00100
H  -1.73700 21.44600 30.01900
H  -0.54500 20.67000 23.83600
H  -0.32400 14.30700 24.62800
H  -2.42600 17.29600 32.27300
H  -0.96100 19.79000 32.04600
H  -3.70200 20.16900 31.37800
H  -2.93100 20.71700 32.73600
H  -3.59600 19.04100 32.75300
H  0.19400 18.31600 33.14400
H  0.31500 16.64500 32.71500
H  -1.14300 15.82300 34.49000
H  -1.93100 17.49000 34.44400
H  -1.62000 23.41400 29.39500
H  -1.93900 24.25900 27.95400
H  -0.40400 24.26900 28.63500
H  -0.72800 25.24800 24.48400
H  0.00200 24.99600 26.10700
H  -1.75000 24.66300 25.74500
H  0.34200 18.55600 22.51500
H  -0.67500 15.85500 22.71600
H  -2.02700 17.45100 21.44400
H  -1.12100 18.89200 21.29900
H  -2.47000 18.79100 22.57700
H  1.77800 16.59600 22.00400
H  1.83200 15.32300 23.16800
H  2.97400 16.67900 24.72000
H  2.02700 18.03900 24.50500
H  3.31000 17.65700 23.29700
H  -0.34300 12.01400 26.06800
H  -1.80100 12.60000 25.39500
H  -1.91300 11.65900 26.86500
H  -2.62700 14.53200 31.20900
H  -1.05000 13.25400 34.89600
H  0.53100 13.14900 34.14000
H  -0.68100 11.84200 33.92900
Mg -4.58800 25.26500 25.92200
C  -3.89800 27.04400 28.85900
C  -5.93500 22.84500 27.89200
C  -4.93700 23.47900 23.10900
C  -2.50300 27.40400 24.18000
N  -4.79900 24.92200 28.13800
C  -4.54200 25.78900 29.10900
C  -5.13800 25.33600 30.39700
C  -5.40800 23.87000 30.15800
C  -5.44100 23.86300 28.60900
C  -4.35300 22.81500 30.61700
C  -6.40000 26.22300 30.71600
C  -6.63600 26.55500 32.22500
H  -6.15300 25.52200 33.34200
N  -5.50200 23.55100 25.56400
C  -6.00400 22.63500 26.49400
C  -6.58000 21.49400 25.78000
C  -6.28800 21.73500 24.41300
C  -5.56800 23.00300 24.30400
C  -7.43300 20.39900 26.44000
C  -6.74100 21.01500 23.15500
O  -6.53100 21.41300 22.00000
C  -7.39500 19.69800 23.26500
N  -4.05100 25.58200 23.84900
C  -4.26800 24.65100 22.94100
C  -3.44500 24.88300 21.60700
C  -2.58900 26.20500 22.01900
C  -3.14400 26.48300 23.42200
C  -2.71400 23.65800 21.10400
C  -2.70000 27.44200 21.02800
C  -1.50100 28.19400 20.77300
N  -3.47500 26.91100 26.34200
C  -2.67800 27.72700 25.51200
C  -2.08600 28.73000 26.31500
C  -2.59500 28.60600 27.61900
C  -3.42600 27.40800 27.58600
C  -1.10800 29.70000 25.79600
C  -2.56200 29.10800 28.98500
O  -1.86000 30.01900 29.42900
C  -3.44700 28.10500 29.85400
C  -2.55400 27.52300 30.89000
O  -1.46600 27.00000 30.66900
O  -3.29300 27.57400 32.07400
C  -2.43700 27.07900 33.17400
H  -6.39300 22.03200 28.46100
H  -4.82000 22.81500 22.25000
H  -1.83600 28.04900 23.60400
H  -4.44000 25.54600 31.20700
H  -6.42000 23.64000 30.49000
H  -3.53100 23.26300 31.17600
H  -3.91700 22.25900 29.78800
H  -4.77000 22.09600 31.32200
H  -7.24800 25.75100 30.21900
H  -6.33500 27.13000 30.11500
H  -7.72100 26.60300 32.32100
H  -6.39100 27.58200 32.49300
H  -7.22700 19.42400 25.99900
H  -8.44800 20.56700 26.07900
H  -7.25400 20.24600 27.50500
H  -6.76400 19.02200 23.84200
H  -7.50600 19.31700 22.25000
H  -8.41600 19.78300 23.63800
H  -4.18400 25.15500 20.85400
H  -1.55000 25.88300 22.08300
H  -1.88700 24.06500 20.52300
H  -3.41400 23.11100 20.47200
H  -2.23200 23.05200 21.87100
H  -3.55400 28.02700 21.36900
H  -3.17300 27.11100 20.10300
H  -1.73300 29.23100 20.52900
H  -0.92600 27.70500 19.98600
H  -0.89700 28.32000 21.67100
H  -0.14000 29.24200 25.99800
H  -1.28100 30.63900 26.32200
H  -1.19900 29.80200 24.71500
H  -4.27900 28.57700 30.37600
H  -2.28000 26.00800 33.04500
H  -2.91900 27.33600 34.11800
H  -1.41800 27.45600 33.26400

