158

Mg 49.54800 47.06600 44.09000
C  46.33600 47.20300 42.95500
C  50.01300 44.20100 42.28700
C  52.84100 47.32600 44.65700
C  49.30800 50.41300 45.09200
N  48.33800 45.96300 42.65100
C  47.04700 46.06900 42.49700
C  46.47400 44.94300 41.61300
C  47.60200 43.92800 41.57300
C  48.73200 44.72400 42.20000
C  47.36900 42.57200 42.23700
C  45.97700 45.50200 40.22800
C  44.73900 44.80200 39.69900
H  44.33200 44.69700 38.18600
N  51.20300 45.78200 43.64200
C  51.18800 44.63800 42.97700
C  52.51400 44.11000 42.93600
C  53.28500 44.89700 43.81900
C  52.44900 46.07500 44.06000
C  52.96200 43.01400 42.03100
C  54.71400 44.59800 44.31400
O  55.27500 43.56800 43.86700
C  55.51200 45.35700 45.33800
N  50.97100 48.72900 44.56500
C  52.23600 48.51200 44.85000
C  53.00500 49.73400 45.33400
C  51.83400 50.72700 45.64300
C  50.60700 49.94200 45.03000
C  53.91100 49.61100 46.62000
C  52.07600 52.10900 44.97100
C  52.08200 53.35800 45.86900
N  48.09900 48.52000 44.18700
C  48.19900 49.82800 44.59300
C  46.86900 50.41100 44.51400
C  46.06100 49.38900 43.88800
C  46.95100 48.29500 43.69600
C  46.52200 51.79400 44.95300
C  44.80200 49.01000 43.37500
O  43.69500 49.58500 43.44400
C  44.92000 47.61000 42.71500
C  43.98000 46.73800 43.42300
O  44.24500 46.17300 44.47500
O  42.86800 46.43900 42.65800
C  41.94600 45.45100 43.27000
H  50.08500 43.18000 41.90600
H  53.90500 47.36100 44.90000
H  49.10400 51.40800 45.49300
H  45.64600 44.59800 42.23300
H  47.87100 43.69200 40.54300
H  46.36400 42.22400 41.99900
H  47.48900 42.52100 43.31900
H  48.02100 41.82100 41.79200
H  46.84300 45.38300 39.57700
H  45.82900 46.58200 40.23600
H  43.87300 45.14600 40.26500
H  44.72800 43.75100 39.98700
H  53.94700 43.24000 41.62100
H  52.23200 42.83900 41.24100
H  53.14900 42.10600 42.60400
H  56.07000 46.17000 44.87300
H  56.12200 44.62100 45.86200
H  54.73000 45.67800 46.02600
H  53.41400 50.06000 44.37800
H  51.57800 50.95600 46.67800
H  53.91400 50.48700 47.26800
H  54.94800 49.49200 46.30700
H  53.68200 48.72100 47.20700
H  51.34900 52.36400 44.20000
H  52.98400 52.04000 44.37200
H  52.25600 53.14000 46.92300
H  51.28300 54.05600 45.62100
H  53.04300 53.79500 45.59800
H  46.93600 52.63200 44.39200
H  46.97100 51.89800 45.94100
H  45.44200 51.67700 44.86400
H  44.61500 47.67800 41.67100
H  41.59600 44.81900 42.45400
H  41.11500 45.96200 43.75700
H  42.44100 44.74600 43.93800
Mg 36.92600 49.36100 25.64700
C  36.77100 47.62400 28.77100
C  35.33000 51.92600 27.20500
C  36.53200 50.79000 22.60000
C  38.00500 46.47000 24.12600
N  36.03700 49.67200 27.70300
C  36.24400 48.91100 28.86400
C  35.98500 49.70200 30.14900
C  35.23700 50.94900 29.57800
C  35.67100 50.91200 28.11300
C  33.71000 50.95800 29.84800
C  37.31700 49.96000 30.99800
C  37.34500 49.40200 32.40200
H  36.05900 49.19500 33.15000
N  36.04500 51.11500 24.99900
C  35.45800 51.99800 25.78600
C  34.92500 53.05500 24.96900
C  35.26700 52.78100 23.59700
C  36.03300 51.52800 23.68600
C  34.21100 54.22500 25.50200
C  34.95400 53.60400 22.37800
O  35.37900 53.32200 21.26300
C  34.22000 54.90000 22.44600
N  37.52600 48.91500 23.71500
C  37.18500 49.61700 22.62200
C  37.31200 48.73500 21.28900
C  38.21400 47.62100 21.81600
C  37.83600 47.64100 23.29100
C  36.00200 48.29100 20.56100
C  39.70100 47.73000 21.45900
C  40.42000 48.97700 21.96900
N  37.37200 47.46100 26.26900
C  37.82100 46.39700 25.49100
C  38.02800 45.28400 26.38700
C  37.74600 45.72300 27.63200
C  37.27400 47.05400 27.56200
C  38.54200 43.92100 26.00300
C  37.68100 45.32700 28.97600
O  37.95500 44.26200 29.49100
C  37.25900 46.55600 29.74900
C  36.04700 46.14800 30.62900
O  34.89400 46.49400 30.39000
O  36.37300 45.33700 31.68500
C  35.30800 44.85400 32.52800
H  34.96100 52.82200 27.70700
H  36.20900 51.16500 21.62700
H  38.23800 45.46700 23.76300
H  35.27600 49.04000 30.64600
H  35.61700 51.79900 30.14400
H  33.53100 51.93600 30.29600
H  33.38200 50.10300 30.43900
H  33.11500 50.87000 28.93900
H  37.69100 50.96400 30.79800
H  38.04200 49.41700 30.39200
H  38.05800 50.02300 32.94500
H  37.84800 48.43500 32.38600
H  34.90900 55.06100 25.51600
H  33.85400 54.04500 26.51600
H  33.27400 54.42500 24.98300
H  34.17700 55.39800 21.47700
H  34.70800 55.56200 23.16100
H  33.18800 54.81000 22.78800
H  37.91000 49.31800 20.58900
H  37.84100 46.63100 21.55400
H  35.72400 47.27100 20.29500
H  35.96000 48.76800 19.58200
H  35.17100 48.77200 21.07600
H  39.85200 47.57900 20.39000
H  40.21100 46.88000 21.91100
H  39.68800 49.78500 22.00900
H  41.18300 49.18400 21.21900
H  40.85300 48.69100 22.92800
H  39.35900 43.70500 26.69100
H  38.97500 43.96500 25.00300
H  37.69200 43.23900 25.98700
H  38.07100 46.72100 30.45700
H  34.47900 45.55400 32.42300
H  35.72100 45.17800 33.48300
H  34.91200 43.84200 32.43600

