158

Mg 1.14000 7.45000 25.11900
C  1.62700 9.27200 28.28000
C  1.03000 4.62100 26.94800
C  1.05600 5.89900 22.19000
C  1.89200 10.57100 23.44800
N  1.50200 6.99600 27.37600
C  1.53800 7.89500 28.46600
C  1.42500 7.11400 29.73600
C  1.48400 5.58100 29.29100
C  1.31400 5.71000 27.77800
C  2.79500 4.79300 29.60600
C  0.14900 7.52300 30.66700
C  0.17800 7.57700 32.20000
H  1.42000 7.00400 33.00700
N  0.99800 5.49700 24.57300
C  0.86600 4.49600 25.49000
C  0.66400 3.25200 24.72600
C  0.66700 3.57300 23.34000
C  0.89900 5.03600 23.29800
C  0.55900 1.79500 25.33900
C  0.57400 2.69100 22.13700
O  0.64400 3.11200 21.01200
C  0.31200 1.26100 22.29600
N  1.32400 8.15800 23.12700
C  1.25600 7.31400 22.10800
C  1.41100 8.04700 20.81600
C  1.60000 9.50400 21.30200
C  1.57800 9.41300 22.74000
C  2.60800 7.51000 19.93200
C  0.47200 10.52300 20.85700
C  -0.89700 10.68800 21.60500
N  1.58800 9.46800 25.69600
C  1.78800 10.66100 24.86000
C  1.92900 11.86900 25.76200
C  1.81800 11.33000 27.07000
C  1.61900 9.91500 27.01200
C  2.10900 13.34700 25.43600
C  1.92100 11.70400 28.58700
O  2.01900 12.81900 29.08400
C  1.72100 10.30900 29.31200
C  2.84800 10.15400 30.28900
O  4.00600 9.87200 30.06200
O  2.29200 10.46800 31.50100
C  3.15800 10.37700 32.67300
H  0.88200 3.70700 27.52700
H  0.87100 5.42100 21.22600
H  2.16500 11.46200 22.87900
H  2.31000 7.37900 30.31400
H  0.63600 5.02400 29.69000
H  3.32300 5.43300 30.31300
H  3.31600 4.43900 28.71700
H  2.60300 3.96000 30.28300
H  -0.57500 6.77000 30.35300
H  -0.20000 8.52800 30.43100
H  -0.76700 7.16600 32.55600
H  0.16400 8.60100 32.57300
H  1.41200 1.15900 25.10000
H  -0.29100 1.23900 24.94400
H  0.45600 1.92300 26.41700
H  -0.56500 1.10500 22.92300
H  1.12500 0.74600 22.80800
H  0.19700 0.72800 21.35200
H  0.50400 8.01400 20.21100
H  2.56900 9.93700 21.05200
H  3.00600 8.30000 19.29600
H  2.32300 6.66700 19.30100
H  3.43800 7.22700 20.58000
H  0.30800 10.17100 19.83900
H  0.89700 11.52600 20.88900
H  -1.72800 10.85000 20.91900
H  -0.70700 11.48900 22.31800
H  -1.06700 9.79100 22.20100
H  2.90700 13.62600 24.74800
H  2.24500 13.88000 26.37700
H  1.17000 13.63200 24.96200
H  0.77100 10.43000 29.83200
H  3.57200 11.38400 32.72900
H  4.04400 9.78500 32.44500
H  2.65400 10.10600 33.60100
Mg 42.81700 4.51900 47.89900
C  40.57400 7.18200 47.33300
C  40.01500 2.33100 47.56100
C  44.84200 1.86300 47.84300
C  45.50100 6.64700 47.37800
N  40.64500 4.73100 47.50400
C  39.96400 5.90900 47.45100
C  38.46400 5.75900 47.44200
C  38.37600 4.23700 47.70300
C  39.75100 3.68000 47.59100
C  37.65900 3.82000 49.06500
C  37.67400 6.34600 46.20000
C  38.18400 6.01300 44.75200
H  38.47300 7.23400 43.93900
N  42.52100 2.34000 47.78100
C  41.28500 1.72700 47.68600
C  41.53400 0.28700 47.81200
C  42.94000 0.06700 47.75500
C  43.50600 1.43700 47.76400
C  40.49100 -0.82800 47.67700
C  43.78700 -1.23700 47.61100
O  43.22800 -2.34900 47.37100
C  45.31000 -1.36800 47.68900
N  44.88700 4.33500 47.68300
C  45.47000 3.13500 47.74000
C  47.02100 3.23200 47.67500
C  47.21200 4.85900 47.68800
C  45.79200 5.32800 47.54700
C  47.83900 2.55400 48.75900
C  48.21100 5.46500 46.61900
C  49.22100 4.64300 45.85100
N  43.06900 6.60600 47.55100
C  44.21100 7.27600 47.37400
C  43.90600 8.70200 47.12200
C  42.49000 8.72200 47.16700
C  42.06000 7.41600 47.38300
C  44.92000 9.74700 46.87400
C  41.23800 9.52000 47.09200
O  41.00900 10.74000 46.90600
C  39.98200 8.52200 47.18900
C  39.24200 8.98600 48.42800
O  39.41900 8.51200 49.57000
O  38.29300 9.90400 48.06300
C  37.53100 10.44200 49.16300
H  39.15500 1.66000 47.53700
H  45.60400 1.08400 47.90800
H  46.31800 7.36300 47.26700
H  38.14500 6.39300 48.27000
H  37.76000 3.75900 46.94000
H  38.36400 3.30100 49.71400
H  36.84300 3.12300 48.87800
H  37.29000 4.69100 49.60600
H  37.48100 7.40000 46.39900
H  36.71600 5.83900 46.32000
H  37.34100 5.50400 44.28500
H  39.04500 5.34600 44.72400
H  40.78600 -1.31000 46.74500
H  39.47900 -0.42500 47.63300
H  40.60200 -1.49800 48.52900
H  45.67600 -0.89200 48.59900
H  45.61500 -0.81600 46.80000
H  45.71600 -2.37700 47.76000
H  47.28200 2.74800 46.73400
H  47.51000 5.23500 48.66700
H  48.63800 1.97700 48.29400
H  47.27100 1.86600 49.38400
H  48.28700 3.35200 49.35100
H  48.87900 6.15100 47.14100
H  47.66100 5.94600 45.81100
H  50.23400 5.04600 45.82600
H  48.97400 4.64100 44.79000
H  49.33100 3.61200 46.18700
H  45.76200 9.69700 47.56500
H  44.45100 10.72900 46.80900
H  45.34100 9.71300 45.86900
H  39.44800 8.59300 46.24100
H  37.99800 10.43300 50.14800
H  36.57000 9.92700 49.15400
H  37.15400 11.41600 48.84800

