158

Mg 2.56600 -3.25500 45.51300
C  5.93000 -2.25600 44.86900
C  1.60000 -0.90200 43.41400
C  -0.42800 -4.76100 45.58500
C  3.98000 -6.10900 47.13700
N  3.67700 -1.93700 44.05400
C  5.00500 -1.56600 44.04200
C  5.25100 -0.45800 42.98800
C  3.83400 0.10600 42.74300
C  2.94500 -0.98100 43.44300
C  3.63800 1.48400 43.51800
C  6.02700 -0.96900 41.75500
C  7.32800 -0.30900 41.34000
H  7.58300 0.06100 39.85400
N  0.83100 -2.84800 44.65900
C  0.59700 -1.72700 43.91500
C  -0.85200 -1.72100 43.59200
C  -1.49000 -2.88100 44.09300
C  -0.31900 -3.57000 44.79500
C  -1.46900 -0.63700 42.79400
C  -2.99000 -3.33100 44.02100
O  -3.84800 -2.64700 43.44200
C  -3.41000 -4.71700 44.48800
N  1.74600 -5.19000 46.37900
C  0.53600 -5.50100 46.30700
C  0.33700 -6.91100 46.93400
C  1.75900 -7.24900 47.44300
C  2.55800 -6.11900 46.94700
C  -0.74800 -6.98500 48.09200
C  2.13900 -8.67900 46.94900
C  2.15400 -9.75300 48.02800
N  4.51700 -3.99600 46.00300
C  4.94600 -5.06400 46.77600
C  6.35200 -4.99500 46.95300
C  6.75100 -3.82700 46.19200
C  5.64800 -3.36000 45.61700
C  7.15400 -5.89200 47.83400
C  7.93600 -3.05100 45.90900
O  9.07600 -3.18100 46.32700
C  7.43300 -1.92500 45.01200
C  7.53900 -0.66100 45.81000
O  6.82100 -0.45100 46.78600
O  8.29800 0.26000 45.15500
C  8.32400 1.63600 45.69900
H  1.22000 -0.07500 42.81000
H  -1.39900 -5.23900 45.72900
H  4.40000 -7.02400 47.56000
H  5.82800 0.35500 43.42900
H  3.60200 0.04800 41.68000
H  4.35200 1.57800 44.33600
H  2.65200 1.73200 43.91000
H  4.03200 2.34400 42.97600
H  5.44300 -0.98100 40.83500
H  6.19900 -1.99600 42.07600
H  8.16500 -0.92900 41.65800
H  7.46900 0.63400 41.86800
H  -1.96800 0.13100 43.38500
H  -2.18400 -1.02300 42.06700
H  -0.73400 -0.16100 42.14500
H  -2.78500 -5.39000 43.90200
H  -4.43200 -4.90400 44.15900
H  -3.40800 -4.73800 45.57800
H  -0.09500 -7.58500 46.19400
H  1.77900 -7.19800 48.53100
H  -1.42600 -6.13800 47.99000
H  -0.38100 -7.01500 49.11800
H  -1.38700 -7.85800 47.96200
H  3.11700 -8.66000 46.46800
H  1.55500 -9.00100 46.08600
H  2.98500 -10.43000 47.82800
H  1.24900 -10.35600 47.96600
H  2.27700 -9.30600 49.01400
H  6.55200 -6.01700 48.73400
H  8.15500 -5.52100 48.05200
H  7.13900 -6.87600 47.36600
H  7.98000 -1.90400 44.07000
H  8.34100 2.32600 44.85600
H  9.14800 1.90200 46.36100
H  7.40800 1.91800 46.22000
Mg 52.91700 23.44600 44.91200
C  50.64700 25.57000 43.50700
C  51.34300 20.78700 43.39900
C  55.59600 21.37100 45.48200
C  54.76700 26.21300 45.81200
N  51.28300 23.31300 43.53400
C  50.41900 24.24300 43.15800
C  49.21600 23.70900 42.41700
C  49.30500 22.22500 42.65800
C  50.76000 22.03200 43.23900
C  48.19900 21.73600 43.65600
C  49.10500 23.99500 40.88300
C  50.46700 24.33300 40.22500
H  51.62100 23.30200 40.15400
N  53.37500 21.30400 44.53300
C  52.50300 20.36300 44.04400
C  53.19500 19.06600 44.11200
C  54.43000 19.20200 44.78700
C  54.50900 20.64400 45.01900
C  52.61200 17.84600 43.58000
C  55.42400 18.05900 45.06700
O  55.11300 16.90500 44.81700
C  56.80600 18.21500 45.69600
N  54.93300 23.73100 45.30300
C  55.86100 22.73700 45.52600
C  57.16500 23.31100 46.09000
C  56.87700 24.84100 46.11400
C  55.43300 25.00800 45.75300
C  57.74400 22.83100 47.39400
C  57.77500 25.71500 45.11100
C  57.41600 25.80600 43.64500
N  52.71800 25.42100 44.90800
C  53.46800 26.42600 45.43400
C  52.68700 27.64000 45.46400
C  51.60300 27.34700 44.69800
C  51.66600 26.04400 44.30200
C  53.04900 28.95800 46.19200
C  50.39000 27.95200 44.17100
O  49.86500 29.02000 44.34900
C  49.80600 26.80700 43.29200
C  49.69100 27.38100 41.91700
O  50.62000 28.02600 41.45100
O  48.46900 27.21500 41.31800
C  48.42400 27.78900 39.90400
H  50.78400 19.97700 42.92500
H  56.32600 20.60900 45.76100
H  55.22200 27.13600 46.17700
H  48.33200 24.13200 42.89400
H  49.22500 21.60200 41.76700
H  47.97100 22.37900 44.50600
H  48.47400 20.72600 43.95900
H  47.21600 21.60400 43.20400
H  48.32900 24.72600 40.65700
H  48.80700 23.13800 40.28000
H  50.97000 25.14200 40.75400
H  50.21400 24.85300 39.30100
H  53.42700 17.29500 43.11100
H  51.93800 18.18000 42.79100
H  52.11300 17.29500 44.37700
H  57.35000 17.27700 45.79900
H  56.87000 18.81700 46.60300
H  57.38900 18.66900 44.89400
H  57.86800 23.15700 45.27100
H  56.94800 25.27100 47.11300
H  57.76400 21.74100 47.40400
H  57.23500 23.21500 48.27800
H  58.82900 22.92800 47.43900
H  58.76500 25.25900 45.10100
H  57.76600 26.74400 45.47000
H  58.33600 26.12500 43.15600
H  56.56200 26.42000 43.36000
H  57.14400 24.80200 43.32000
H  53.61800 28.75700 47.09900
H  52.10500 29.50000 46.26100
H  53.61700 29.55400 45.47900
H  48.81400 26.66600 43.72200
H  49.19400 28.43400 39.48200
H  47.48300 28.32700 40.01800
H  48.08000 26.98700 39.25000

