158

Mg 45.34600 4.96900 48.16000
C  43.10300 7.53300 47.38900
C  42.67400 2.77000 47.99600
C  47.45700 2.54400 48.34400
C  47.92900 7.18500 47.39900
N  43.19300 5.18800 47.78500
C  42.50400 6.30600 47.47800
C  41.04400 6.05200 47.24000
C  40.83700 4.59000 47.66000
C  42.35900 4.09900 47.82200
C  39.96200 4.46700 48.88700
C  40.67900 6.35800 45.77200
C  39.47800 7.34300 45.67800
H  38.75700 7.30900 44.32500
N  45.13200 2.90300 48.25500
C  43.97300 2.19400 48.18300
C  44.29600 0.77500 48.39200
C  45.64500 0.65500 48.51800
C  46.16300 2.04900 48.33700
C  43.15000 -0.32400 48.57800
C  46.53700 -0.61900 48.81200
O  45.99900 -1.72800 48.89400
C  48.04900 -0.58700 48.71000
N  47.37300 4.94800 47.83500
C  48.00800 3.81500 48.23000
C  49.54900 3.94000 48.09000
C  49.68500 5.44100 47.86200
C  48.25000 5.91100 47.76800
C  50.47500 3.47200 49.34400
C  50.52300 5.69800 46.60200
C  49.81800 5.41100 45.21700
N  45.52600 7.00900 47.61500
C  46.66400 7.74800 47.42100
C  46.30700 9.11100 47.17600
C  44.87400 9.11600 47.17200
C  44.49000 7.82500 47.40700
C  47.30500 10.23300 46.82800
C  43.66400 9.94400 47.03500
O  43.49300 11.10900 46.74800
C  42.46200 8.88600 47.12000
C  41.60700 9.39200 48.17900
O  41.72800 9.20400 49.33700
O  40.72900 10.27300 47.59500
C  39.84800 10.91600 48.60400
H  41.87600 2.03000 47.90400
H  48.29100 1.86300 48.52800
H  48.65000 7.96600 47.15000
H  40.62900 6.77600 47.94200
H  40.29400 4.05000 46.88400
H  39.14600 3.74600 48.85500
H  39.47000 5.39900 49.16600
H  40.53700 4.20500 49.77500
H  40.22600 5.48400 45.30500
H  41.51200 6.61200 45.11600
H  39.91200 8.34300 45.68700
H  38.74700 7.16500 46.46600
H  43.27300 -1.16900 47.90000
H  42.16600 0.13700 48.49100
H  43.17900 -0.75200 49.58000
H  48.50200 -0.09000 47.85100
H  48.39200 -1.60000 48.92400
H  48.42100 -0.06900 49.59400
H  49.77700 3.29900 47.23800
H  50.08800 5.95900 48.73200
H  49.90900 3.21800 50.24100
H  51.19900 4.25800 49.56200
H  50.96800 2.57800 48.96300
H  51.38400 5.03100 46.63600
H  50.75500 6.76000 46.51500
H  48.96500 4.73700 45.29900
H  50.57400 4.97200 44.56500
H  49.47400 6.30000 44.68900
H  46.83000 11.20100 46.67200
H  47.75500 9.73500 45.96900
H  48.02000 10.37300 47.63900
H  41.91700 8.91300 46.17600
H  39.64500 10.34300 49.50900
H  38.87300 11.18500 48.20000
H  40.27000 11.86400 48.93800
Mg 36.10400 49.08500 25.60800
C  36.46500 47.14600 28.47400
C  34.82300 51.61100 27.62600
C  35.37900 50.84500 22.81600
C  37.08900 46.31700 23.57000
N  35.50100 49.16500 27.77500
C  35.95900 48.42400 28.79000
C  35.86900 49.10200 30.14000
C  35.09200 50.40800 29.77500
C  35.16200 50.40400 28.28500
C  33.60600 50.46600 30.27400
C  37.20600 49.22700 30.97400
C  37.09200 49.24400 32.50600
H  35.71100 49.53600 33.10500
N  35.23200 50.93600 25.29500
C  34.86700 51.86200 26.24400
C  34.48600 53.10300 25.60600
C  34.43100 52.80800 24.20400
C  35.02400 51.46400 24.04400
C  34.25300 54.40000 26.43600
C  34.03500 53.73600 23.08400
O  34.19400 53.45800 21.91600
C  33.47900 55.14200 23.38100
N  36.46500 48.74000 23.48700
C  35.96800 49.60100 22.53100
C  36.10600 49.04100 21.08200
C  36.80600 47.62900 21.27200
C  36.78100 47.53900 22.82500
C  34.71200 49.02500 20.39300
C  38.29700 47.55400 20.70800
C  38.72900 46.22900 19.94000
N  36.74200 47.22600 25.90100
C  37.06900 46.19300 25.02300
C  37.50700 45.02800 25.72900
C  37.20900 45.36000 27.05800
C  36.73100 46.70000 27.17700
C  38.24500 43.88200 25.22700
C  37.19800 44.84000 28.45100
O  37.61900 43.75800 28.78700
C  36.62500 45.98100 29.37300
C  35.39500 45.55300 30.00700
O  34.27000 45.28600 29.53900
O  35.56400 45.74200 31.35300
C  34.40100 45.47000 32.28100
H  34.49600 52.43700 28.26100
H  35.32500 51.43700 21.90000
H  37.29700 45.41000 22.99800
H  35.13400 48.47200 30.64000
H  35.50500 51.38100 30.04400
H  33.43700 51.47800 30.64100
H  33.29100 49.74600 31.02900
H  32.92100 50.28000 29.44700
H  37.59700 50.22900 30.79900
H  37.91300 48.48800 30.59600
H  37.78900 49.98900 32.89100
H  37.49600 48.25700 32.73200
H  33.18200 54.58500 26.50800
H  34.66300 55.17000 25.78100
H  34.82500 54.41800 27.36400
H  34.35900 55.77800 23.48000
H  32.65800 55.09900 24.09600
H  32.99100 55.49300 22.47100
H  36.77100 49.74600 20.58300
H  36.17200 46.79600 20.96800
H  34.72800 49.68200 19.52300
H  33.84700 49.18900 21.03700
H  34.59000 48.06400 19.89500
H  39.09000 47.60100 21.45400
H  38.42300 48.41500 20.05100
H  39.40900 45.59000 20.50300
H  39.15100 46.54700 18.98700
H  37.87500 45.61900 19.64600
H  38.74200 43.55400 26.14000
H  38.85400 44.18500 24.37500
H  37.55500 43.07800 24.96900
H  37.48200 46.15400 30.02400
H  33.54500 44.95300 31.84800
H  34.06200 46.39100 32.75700
H  34.77100 44.81500 33.07000

