158

Mg 53.55700 24.22700 43.85900
C  50.58500 26.22000 43.51500
C  51.68300 21.56400 42.72300
C  56.34400 22.53800 43.35700
C  55.25700 27.08400 44.46300
N  51.38100 23.91200 43.18200
C  50.35200 24.86800 43.06300
C  49.18700 24.29700 42.20500
C  49.48700 22.78700 42.44800
C  50.95000 22.70500 42.72500
C  48.66300 22.05500 43.56600
C  49.11600 24.74000 40.66800
C  50.52100 24.96600 39.87100
H  50.39500 25.69600 38.59400
N  53.89000 22.27600 43.33100
C  53.01700 21.31400 43.01700
C  53.59500 20.05700 42.91100
C  55.02000 20.30400 42.97100
C  55.15400 21.73600 43.26900
C  52.82000 18.77500 42.76300
C  56.05500 19.24600 42.81900
O  55.83700 18.04900 42.67100
C  57.48800 19.61300 42.69900
N  55.63800 24.77800 43.58500
C  56.57100 23.91600 43.62800
C  57.93300 24.61700 43.79600
C  57.51400 26.11400 44.11300
C  56.03700 26.01200 44.06300
C  58.91000 24.02400 44.84300
C  58.02300 27.16500 43.11600
C  58.72400 28.42200 43.70000
N  53.02300 26.13900 44.24700
C  53.85900 27.20600 44.59200
C  53.11600 28.38100 44.86200
C  51.83800 28.03200 44.38900
C  51.84600 26.65500 44.05900
C  53.67400 29.50900 45.49700
C  50.53500 28.53000 44.14100
O  50.08000 29.66000 44.25900
C  49.62200 27.34000 43.68400
C  48.74900 27.76400 42.63000
O  49.09600 28.40600 41.64300
O  47.41800 27.32700 42.85100
C  46.32900 27.67600 41.88400
H  51.05900 20.69800 42.49200
H  57.26000 21.94400 43.34400
H  55.82400 27.92900 44.85900
H  48.15500 24.46400 42.51500
H  49.29800 22.32800 41.47700
H  48.05400 22.70500 44.19500
H  49.29800 21.59000 44.32000
H  48.03400 21.30200 43.09000
H  48.50100 25.63800 40.61300
H  48.42500 24.05500 40.17600
H  50.78500 23.94200 39.60500
H  51.40400 25.19500 40.46700
H  52.70200 18.67100 41.68500
H  51.81400 18.71700 43.17800
H  53.26300 17.89300 43.22600
H  58.04000 19.84700 43.60900
H  57.51200 20.46900 42.02400
H  57.98400 18.83300 42.12200
H  58.28900 24.53800 42.76900
H  57.85900 26.42400 45.09900
H  59.90100 24.11300 44.39900
H  58.66200 23.02000 45.18800
H  58.85000 24.67700 45.71400
H  57.23400 27.46700 42.42700
H  58.82500 26.63000 42.60600
H  58.26700 29.34900 43.35400
H  59.74200 28.30200 43.33000
H  58.76600 28.41400 44.79000
H  54.43800 30.01400 44.90600
H  54.02800 29.08800 46.43900
H  52.85400 30.21900 45.60000
H  49.05000 27.39600 44.61000
H  46.62100 27.29600 40.90500
H  46.24900 28.74400 41.68000
H  45.40800 27.26600 42.29800
Mg -6.25700 25.86200 26.17600
C  -4.92800 27.35300 29.00300
C  -7.69300 23.45000 28.17600
C  -7.04100 24.13900 23.49000
C  -4.55300 28.18000 24.21900
N  -6.36300 25.49200 28.35800
C  -5.79000 26.31900 29.34000
C  -6.10300 25.72600 30.74400
C  -6.74100 24.34100 30.35400
C  -6.90000 24.40800 28.83500
C  -5.88600 23.01100 30.71800
C  -6.91000 26.76600 31.56700
C  -7.81800 26.31100 32.74600
H  -7.32200 25.32200 33.80800
N  -7.45100 24.22300 25.83600
C  -7.98700 23.32700 26.80500
C  -8.91700 22.46300 26.16200
C  -8.78300 22.55000 24.72700
C  -7.70100 23.62000 24.66200
C  -9.75300 21.57200 26.99100
C  -9.28000 21.70900 23.56000
O  -9.15200 22.00100 22.40800
C  -10.12000 20.50800 23.93400
N  -5.69700 25.99900 24.16500
C  -6.22200 25.22200 23.20400
C  -5.86700 25.63700 21.76600
C  -5.28900 27.10800 22.05000
C  -5.26500 27.17100 23.56100
C  -4.86500 24.60000 21.23200
C  -6.23500 28.14600 21.48400
C  -5.72100 28.77000 20.13400
N  -5.03900 27.46400 26.48500
C  -4.45800 28.31300 25.61000
C  -3.76600 29.38200 26.34900
C  -3.81300 28.95300 27.69500
C  -4.65800 27.81500 27.68500
C  -3.04100 30.52400 25.76500
C  -3.22700 29.14300 28.98900
O  -2.32300 29.82100 29.39400
C  -4.00400 28.09000 29.92000
C  -3.09900 27.14900 30.67400
O  -2.47900 26.16000 30.27400
O  -3.32600 27.44600 31.99600
C  -2.65500 26.49700 32.91500
H  -8.16000 22.59500 28.66800
H  -7.48300 23.78900 22.55500
H  -4.11900 28.98600 23.62200
H  -5.16200 25.43900 31.21200
H  -7.75400 24.36100 30.75500
H  -5.36400 23.12100 31.66800
H  -5.21100 22.63700 29.94700
H  -6.71700 22.33300 30.91200
H  -7.74000 26.90500 30.87400
H  -6.50000 27.76500 31.71200
H  -8.66100 25.83400 32.24600
H  -7.99400 27.23200 33.30200
H  -10.77100 21.59300 26.60300
H  -9.95100 21.93500 28.00000
H  -9.34500 20.56200 26.96500
H  -10.42400 20.01400 23.01100
H  -11.03700 20.94300 24.33400
H  -9.53400 19.78700 24.50500
H  -6.73800 25.56800 21.11400
H  -4.28500 27.06900 21.62900
H  -4.10700 24.33900 21.97100
H  -4.34100 25.11200 20.42500
H  -5.38500 23.76800 20.75800
H  -6.42900 28.90000 22.24700
H  -7.23500 27.77200 21.26700
H  -5.62600 29.85500 20.08100
H  -6.33100 28.43600 19.29500
H  -4.69500 28.43600 19.97500
H  -3.27300 31.36400 26.42000
H  -3.39100 30.77800 24.76500
H  -1.95600 30.47100 25.86200
H  -4.57000 28.74700 30.58000
H  -1.61200 26.69500 33.16400
H  -2.71800 25.48800 32.50800
H  -3.33700 26.46700 33.76500

