158

Mg 16.90400 -1.60700 27.70300
C  16.57700 0.73300 30.31100
C  19.02000 -3.48600 30.03500
C  18.19700 -3.28100 25.25400
C  15.56900 0.79900 25.52400
N  17.78100 -1.36700 29.88400
C  17.31200 -0.41500 30.73600
C  17.73800 -0.71000 32.17700
C  18.84100 -1.89300 31.93600
C  18.50300 -2.32400 30.53600
C  20.42100 -1.45600 32.14700
C  16.47100 -1.04100 33.01200
C  16.35300 -0.38900 34.46600
H  17.53900 0.39100 35.11300
N  18.31100 -3.26200 27.60300
C  18.96800 -3.91900 28.68100
C  19.59900 -5.08200 28.07200
C  19.37000 -4.99900 26.69800
C  18.59400 -3.79800 26.48400
C  20.24400 -6.14800 28.89000
C  19.90900 -5.98400 25.61200
O  19.63900 -5.88200 24.42200
C  20.72000 -7.22800 26.08000
N  16.81800 -1.27900 25.60500
C  17.50300 -2.16400 24.87800
C  17.37400 -1.71600 23.38500
C  16.42600 -0.52400 23.41000
C  16.23600 -0.29800 24.93100
C  18.67500 -1.56500 22.54800
C  15.11500 -0.57400 22.53000
C  15.11700 0.34900 21.31200
N  16.13900 0.24100 27.86300
C  15.52500 1.11700 26.87800
C  14.83500 2.23800 27.55200
C  15.22100 2.11100 28.86200
C  16.03200 0.93700 29.00100
C  14.17100 3.29100 26.77800
C  15.15500 2.77700 30.11900
O  14.54200 3.81500 30.49300
C  16.04800 1.86600 31.14200
C  17.13900 2.56800 31.82500
O  18.32500 2.70400 31.55900
O  16.50300 3.36500 32.86600
C  17.39600 4.31500 33.53900
H  19.66800 -4.01500 30.73800
H  18.64300 -3.79100 24.39700
H  15.01500 1.46700 24.86200
H  18.21300 0.18200 32.58500
H  18.70800 -2.73100 32.61900
H  20.87100 -1.38600 31.15600
H  20.90700 -2.24900 32.71400
H  20.53900 -0.45300 32.55700
H  16.41100 -2.12900 33.05700
H  15.59000 -0.61000 32.53400
H  16.01400 -1.12200 35.19800
H  15.46100 0.23600 34.43500
H  21.30500 -5.91000 28.81300
H  19.98500 -7.15400 28.55800
H  19.95300 -6.14700 29.94000
H  20.10600 -8.02900 26.49100
H  21.54700 -7.01400 26.75800
H  21.10200 -7.71600 25.18300
H  16.86600 -2.48700 22.80600
H  16.94800 0.33200 22.98200
H  18.37100 -0.78500 21.85100
H  18.83800 -2.50100 22.01400
H  19.55900 -1.28100 23.11900
H  14.22400 -0.44200 23.14400
H  14.94900 -1.56800 22.11400
H  15.90200 -0.02500 20.65500
H  15.33100 1.36000 21.65800
H  14.23800 0.37000 20.66800
H  13.28600 2.90800 26.27000
H  14.93600 3.71600 26.12800
H  13.96500 4.08300 27.49700
H  15.41000 1.54100 31.96300
H  18.43000 3.99200 33.65700
H  16.98900 4.31800 34.55000
H  17.37000 5.34800 33.19200
Mg 0.11100 43.21500 27.01500
C  2.51400 42.86300 29.42600
C  -2.34200 42.20900 29.41800
C  -2.35000 43.45900 24.66700
C  2.50900 43.53500 24.52400
N  0.09200 42.61800 29.15000
C  1.18400 42.67000 29.96700
C  0.81900 42.56300 31.45100
C  -0.59100 41.89000 31.37000
C  -0.98900 42.30900 29.87100
C  -0.59100 40.39300 31.57100
C  0.92800 43.86200 32.14200
C  0.90100 43.80300 33.65900
H  0.26800 42.63300 34.41500
N  -2.03500 42.91300 27.04600
C  -2.77500 42.57900 28.13500
C  -4.19100 42.63600 27.80900
C  -4.24200 43.07000 26.43100
C  -2.88700 43.24600 25.97000
C  -5.30900 42.27000 28.78000
C  -5.49500 43.31000 25.40100
O  -5.40100 43.72800 24.25300
C  -6.84300 42.86200 25.89100
N  0.05700 43.25900 24.86700
C  -1.05700 43.47800 24.17600
C  -0.73000 43.72500 22.64500
C  0.77600 43.76800 22.56600
C  1.16200 43.58500 24.07600
C  -1.35500 42.67000 21.71500
C  1.41500 44.91800 21.82900
C  1.92600 46.09000 22.73900
N  2.09600 43.19700 26.92000
C  2.94900 43.32500 25.84200
C  4.35200 43.32200 26.32100
C  4.20000 43.05500 27.68300
C  2.77100 43.01300 28.04700
C  5.71900 43.43700 25.55500
C  5.00600 42.86200 28.89100
O  6.19000 42.57900 29.18600
C  3.95800 42.84400 30.09600
C  4.25200 41.71900 31.03300
O  4.33000 40.52300 30.75000
O  4.39200 42.19400 32.24800
C  4.47500 41.19100 33.30500
H  -3.07300 41.87600 30.15800
H  -3.07200 43.68000 23.87800
H  3.33500 43.66000 23.82100
H  1.47900 41.86200 31.96200
H  -1.27900 42.31400 32.10200
H  0.36500 39.93300 31.82100
H  -0.80600 39.97000 30.59000
H  -1.36400 40.20800 32.31700
H  0.21700 44.58300 31.73900
H  1.90100 44.29600 31.90900
H  0.50600 44.76800 33.97800
H  1.90500 43.88000 34.07700
H  -6.13900 42.91300 28.48800
H  -5.13600 42.60600 29.80300
H  -5.58200 41.21500 28.74600
H  -6.78900 41.83000 26.23800
H  -7.63100 43.08400 25.17200
H  -7.09800 43.47300 26.75700
H  -1.14700 44.70000 22.39400
H  1.16000 42.84100 22.13900
H  -0.56800 42.31500 21.05000
H  -2.25300 43.11800 21.29000
H  -1.59300 41.80000 22.32600
H  0.90000 45.26800 20.93500
H  2.36900 44.48400 21.53000
H  1.22600 46.25500 23.55900
H  2.04300 46.98600 22.12900
H  2.93800 46.00200 23.13300
H  6.51300 43.15100 26.24500
H  5.83900 44.43200 25.12600
H  5.79500 42.73200 24.72800
H  4.12500 43.82600 30.53800
H  5.49500 41.23900 33.68600
H  4.04400 40.19800 33.17800
H  3.85500 41.62400 34.09100

