158

Mg 1.53800 -1.60500 44.35500
C  4.77600 -0.72400 43.40100
C  0.36000 1.27800 42.60000
C  -1.69600 -2.79600 44.37000
C  2.73300 -4.68300 45.52200
N  2.47200 0.12000 43.18600
C  3.80700 0.20900 42.93100
C  4.05600 1.51400 42.11300
C  2.70800 2.31700 42.18200
C  1.79700 1.16800 42.69000
C  2.65400 3.49600 43.19600
C  4.38600 1.15500 40.63300
C  5.53200 2.04000 40.10200
H  5.24400 2.64000 38.72700
N  -0.51400 -0.79300 43.70200
C  -0.71400 0.34800 42.98700
C  -2.09100 0.38500 42.61800
C  -2.78700 -0.73600 43.10400
C  -1.65400 -1.52100 43.76100
C  -2.62600 1.53400 41.77900
C  -4.28800 -1.10800 43.10900
O  -5.02200 -0.40400 42.42700
C  -4.87000 -2.13300 44.00100
N  0.59600 -3.45900 44.91100
C  -0.69700 -3.74000 44.83800
C  -0.92700 -5.15500 45.47600
C  0.45200 -5.82300 45.62600
C  1.35700 -4.56800 45.26400
C  -1.89300 -5.13600 46.75600
C  0.68100 -7.03700 44.73000
C  1.60600 -8.11600 45.36200
N  3.39100 -2.50300 44.64600
C  3.75400 -3.76500 45.12500
C  5.18400 -3.93100 44.99500
C  5.58600 -2.78500 44.32200
C  4.48300 -1.99100 44.11900
C  5.88800 -5.11600 45.40000
C  6.80500 -2.13200 43.80500
O  7.96900 -2.46200 43.74500
C  6.28000 -0.67200 43.27900
C  6.87700 0.47100 43.98700
O  6.75500 0.73900 45.17200
O  7.57900 1.23800 43.04500
C  8.40700 2.30200 43.65500
H  -0.03200 2.23600 42.25200
H  -2.65900 -3.30300 44.45900
H  2.96800 -5.69900 45.84600
H  4.82900 2.00900 42.70200
H  2.38500 2.69600 41.21200
H  2.37200 4.35800 42.59200
H  3.70800 3.57500 43.46300
H  2.04700 3.42500 44.09800
H  3.48400 1.19200 40.02300
H  4.65300 0.10900 40.47900
H  6.47700 1.49700 40.11400
H  5.72100 2.91900 40.71800
H  -2.89900 1.20700 40.77600
H  -2.01000 2.43300 41.80900
H  -3.54100 1.95300 42.19900
H  -5.90100 -1.85100 44.21800
H  -4.46800 -2.00000 45.00500
H  -4.90400 -3.16300 43.64600
H  -1.43100 -5.59000 44.61400
H  0.51000 -6.10000 46.67800
H  -2.86400 -5.57700 46.53000
H  -2.00800 -4.14400 47.19200
H  -1.39700 -5.65400 47.57700
H  1.25000 -6.81200 43.82700
H  -0.30200 -7.48000 44.57100
H  1.97300 -8.72400 44.53500
H  1.02500 -8.92600 45.80400
H  2.43800 -7.69200 45.92500
H  5.85800 -5.91400 44.65800
H  5.43300 -5.50400 46.31200
H  6.90100 -4.76700 45.60200
H  6.57300 -0.61100 42.23100
H  9.26800 2.55300 43.03600
H  8.75200 1.90600 44.61000
H  7.83400 3.20000 43.88600
Mg 30.74400 58.31900 39.55600
C  27.98500 56.48600 38.15500
C  32.87300 55.72300 38.47500
C  33.37800 60.14300 40.45000
C  28.52700 60.92600 40.24300
N  30.43100 56.42800 38.23000
C  29.23800 55.85900 37.87100
C  29.50700 54.43600 37.33600
C  31.04900 54.21500 37.61200
C  31.52500 55.54400 38.13300
C  31.31200 52.98900 38.54800
C  29.00000 54.31400 35.83200
C  29.60100 55.34800 34.93900
H  28.67600 56.30400 34.05200
N  32.82800 57.99900 39.43700
C  33.50900 56.91400 38.91700
C  34.92400 57.12400 39.03300
C  35.06300 58.36900 39.71500
C  33.74300 58.91100 39.91300
C  35.94100 56.19400 38.34000
C  36.43300 58.92500 40.07000
O  37.38200 58.23000 39.80200
C  36.69200 60.20700 40.69700
N  30.85300 60.18100 40.24900
C  32.06700 60.73400 40.60500
C  31.92700 62.20400 40.91600
C  30.39400 62.41600 41.05200
C  29.83000 61.06900 40.56000
C  32.86200 62.69300 42.04600
C  29.91500 63.68600 40.24700
C  30.11400 65.07800 40.96200
N  28.72000 58.62200 39.39600
C  27.92000 59.78700 39.70900
C  26.56600 59.46200 39.46100
C  26.58800 58.17400 38.92300
C  27.90900 57.68700 38.89800
C  25.44500 60.36600 39.87000
C  25.70400 57.19500 38.35200
O  24.47100 57.13800 38.21700
C  26.53200 56.00100 37.89900
C  26.09900 54.76100 38.63800
O  26.19300 54.65900 39.88600
O  25.40800 53.90800 37.78800
C  25.03500 52.59800 38.41400
H  33.57000 54.88400 38.40900
H  34.25100 60.68900 40.81300
H  27.84100 61.70600 40.57900
H  28.90300 53.77500 37.95900
H  31.54000 53.93400 36.68000
H  30.45000 52.32300 38.50400
H  31.36000 53.48500 39.51700
H  32.29300 52.54900 38.37200
H  27.91900 54.45300 35.80200
H  29.35900 53.32200 35.56000
H  30.12300 54.70300 34.23200
H  30.38300 56.01100 35.30800
H  36.69800 56.81000 37.85500
H  35.35400 55.51500 37.72100
H  36.49400 55.64500 39.10100
H  36.30700 60.99600 40.05100
H  37.76700 60.35700 40.79400
H  36.08500 60.13900 41.60000
H  32.21400 62.67300 39.97500
H  30.00500 62.54700 42.06100
H  33.49100 61.99700 42.60200
H  32.12900 63.08000 42.75400
H  33.43300 63.56900 41.73900
H  28.83600 63.73200 40.10200
H  30.53900 63.77200 39.35700
H  30.84000 65.61500 40.35200
H  30.50900 64.97400 41.97200
H  29.18400 65.64600 40.97100
H  24.54200 59.78700 39.67500
H  25.39500 61.41000 39.55900
H  25.52000 60.42700 40.95500
H  26.40600 55.82500 36.83100
H  25.69100 52.31900 39.23800
H  25.09700 51.82000 37.65300
H  24.09400 52.61900 38.96400

