158

Mg 5.59200 54.55400 40.99700
C  5.42100 51.00900 41.25100
C  8.90000 54.19000 39.73700
C  5.60100 57.71000 40.25500
C  2.36300 54.75700 42.18400
N  6.93700 52.73100 40.39000
C  6.61800 51.39400 40.65100
C  7.87300 50.55900 40.35200
C  9.03800 51.59100 40.21000
C  8.23700 52.96700 40.08600
C  10.17500 51.70000 41.33500
C  7.83300 49.56000 39.10800
C  6.77600 49.80500 37.97900
H  7.32200 50.49600 36.79900
N  7.05200 55.75400 40.06000
C  8.36200 55.50200 39.71100
C  8.95200 56.72700 39.22400
C  7.98500 57.70500 39.19900
C  6.77100 57.07600 39.80400
C  10.41800 56.82200 38.75300
C  8.18700 59.06900 38.65900
O  9.28500 59.40700 38.24300
C  6.94500 60.08200 38.38300
N  4.10100 56.01900 41.06200
C  4.45800 57.28800 40.96500
C  3.37700 58.30600 41.39500
C  2.26100 57.29500 41.97400
C  2.92900 55.93600 41.72600
C  3.85000 59.32200 42.47400
C  0.84800 57.39500 41.23700
C  -0.36900 57.32700 42.20200
N  4.16100 53.23900 41.60200
C  2.91900 53.45300 42.19100
C  2.35800 52.17600 42.71400
C  3.31600 51.22100 42.40200
C  4.37100 51.87300 41.69400
C  1.16200 51.96000 43.55800
C  3.69500 49.82000 42.51100
O  3.20800 48.90400 43.10800
C  5.05700 49.61500 41.70600
C  4.70800 48.67200 40.62800
O  4.06000 49.03100 39.64300
O  5.23700 47.43900 40.87800
C  5.06800 46.47100 39.79000
H  9.88400 54.08600 39.27400
H  5.65800 58.80000 40.24700
H  1.33900 54.62400 42.54000
H  8.08900 49.96700 41.24200
H  9.59800 51.42900 39.28900
H  10.07600 50.78300 41.91600
H  9.97100 52.58700 41.93500
H  11.16300 51.78700 40.88100
H  7.65000 48.59500 39.58000
H  8.77100 49.37300 38.58600
H  5.96100 50.45800 38.29000
H  6.29200 48.86000 37.73200
H  10.94800 55.87400 38.66700
H  11.07500 57.45700 39.34900
H  10.45800 57.16100 37.71700
H  6.05400 59.49900 38.14700
H  7.28400 60.66600 37.52800
H  6.66300 60.64800 39.27000
H  3.12700 58.83100 40.47300
H  2.20600 57.49000 43.04500
H  3.67600 59.01000 43.50400
H  3.32700 60.27200 42.36000
H  4.91000 59.55400 42.37100
H  0.86000 56.58800 40.50600
H  0.80600 58.37400 40.75900
H  -0.88100 58.28900 42.18000
H  -0.12500 57.21900 43.25900
H  -1.10700 56.57600 41.91900
H  0.88700 50.90900 43.46400
H  0.30500 52.58800 43.31800
H  1.36800 52.13400 44.61500
H  5.80700 49.12200 42.32600
H  5.62100 45.55000 39.97300
H  5.48900 46.85200 38.86000
H  4.01600 46.19500 39.73100
Mg 10.11900 48.30300 25.77100
C  7.80200 48.32300 28.52900
C  12.38500 49.75900 27.91200
C  12.21500 48.27300 23.19200
C  7.49200 47.37900 23.76900
N  9.96800 49.15300 27.98000
C  9.07400 48.83200 28.95700
C  9.56100 49.16900 30.35100
C  10.97900 49.85600 30.04900
C  11.12300 49.61000 28.54100
C  11.07100 51.35700 30.49000
C  9.55100 48.03900 31.41400
C  10.62300 48.07900 32.51000
H  10.41800 47.23000 33.75600
N  12.05500 48.83100 25.63900
C  12.83900 49.41100 26.62300
C  14.12900 49.50300 26.05700
C  14.16800 48.94300 24.75700
C  12.75600 48.61200 24.44900
C  15.27600 50.01700 26.83500
C  15.36000 48.67800 23.77900
O  15.27500 48.37300 22.61700
C  16.72800 48.90800 24.36600
N  9.88500 47.88100 23.65400
C  10.93100 47.91200 22.74400
C  10.49100 47.48000 21.32900
C  8.99900 47.14800 21.54300
C  8.76000 47.46200 23.11700
C  10.86000 48.67600 20.34100
C  8.49700 45.74300 21.08500
C  8.75400 44.55400 22.11400
N  7.97700 48.03400 26.00900
C  7.08000 47.60000 25.07800
C  5.83000 47.39000 25.70300
C  6.08200 47.54700 27.08300
C  7.37900 48.03500 27.19000
C  4.51000 46.98300 25.06500
C  5.52100 47.44000 28.37700
O  4.45600 46.99600 28.74800
C  6.60200 47.92000 29.38300
C  6.70300 46.78500 30.32100
O  7.16500 45.68900 30.04200
O  6.14100 47.10000 31.55300
C  6.63700 46.14200 32.53600
H  13.09900 50.15400 28.63800
H  12.95500 48.30000 22.39000
H  6.70300 47.03300 23.09800
H  8.88700 49.97300 30.64600
H  11.86600 49.40700 30.49500
H  11.76700 51.21900 31.31800
H  10.16500 51.81700 30.88300
H  11.44100 52.02600 29.71300
H  9.55200 47.10800 30.84800
H  8.61400 48.22800 31.93800
H  10.66800 49.12100 32.82700
H  11.52900 47.77600 31.98500
H  15.14500 50.51400 27.79600
H  15.73400 50.80100 26.23200
H  16.01900 49.23100 26.96800
H  16.93200 48.23800 25.20100
H  16.96000 49.96100 24.52900
H  17.45100 48.62100 23.60200
H  11.13800 46.61400 21.18800
H  8.40400 47.85000 20.95900
H  10.96100 49.64300 20.83300
H  10.11700 48.70700 19.54400
H  11.77800 48.57700 19.76200
H  9.06900 45.60800 20.16700
H  7.44500 45.88400 20.83700
H  9.33100 44.82100 22.99900
H  9.07900 43.65000 21.60000
H  7.76600 44.28000 22.48500
H  4.38600 45.90000 25.06900
H  4.44500 47.21800 24.00300
H  3.78100 47.49600 25.69300
H  6.17100 48.71100 29.99800
H  6.33800 45.11500 32.33000
H  6.13400 46.37800 33.47400
H  7.72400 46.21500 32.57300

