158

Mg 1.66700 -1.49500 43.80400
C  5.06200 -0.79100 43.17000
C  0.70400 1.04600 41.83600
C  -1.36200 -2.95500 43.63500
C  2.84500 -4.59800 45.48600
N  2.80200 -0.05500 42.69700
C  4.15600 0.06300 42.57200
C  4.49500 1.28400 41.73600
C  3.09100 1.94400 41.36900
C  2.11200 0.92800 41.98700
C  3.02700 3.33000 42.05400
C  5.36700 1.11500 40.46500
C  6.38100 2.25900 40.01400
H  6.09200 3.09800 38.68400
N  -0.11500 -0.91400 43.06200
C  -0.36700 0.21400 42.30700
C  -1.73000 0.41900 42.17400
C  -2.33300 -0.71500 42.75300
C  -1.25000 -1.62000 43.18100
C  -2.23100 1.79000 41.68500
C  -3.80900 -0.86600 42.83200
O  -4.64500 -0.08700 42.28700
C  -4.48900 -1.95800 43.61200
N  0.84500 -3.54000 44.52800
C  -0.42500 -3.80500 44.24000
C  -0.81100 -5.13600 44.84300
C  0.52700 -5.75000 45.52000
C  1.51900 -4.63900 45.08500
C  -2.05600 -5.15900 45.72700
C  1.05400 -7.17200 45.18400
C  1.26400 -8.03800 46.47400
N  3.49800 -2.51000 44.28400
C  3.72800 -3.66000 44.93900
C  5.20500 -3.77300 45.05700
C  5.77000 -2.69700 44.44100
C  4.64300 -1.98600 43.96100
C  5.92600 -4.88600 45.72900
C  6.97300 -1.89500 44.16700
O  8.13100 -2.09800 44.46500
C  6.60300 -0.70400 43.24400
C  6.92700 0.53400 43.99600
O  6.47700 0.91500 45.10200
O  7.75500 1.31900 43.12000
C  8.24600 2.63500 43.66300
H  0.31400 1.86600 41.23000
H  -2.38700 -3.33200 43.63400
H  3.16000 -5.50600 46.00600
H  5.17400 1.84400 42.37900
H  2.89000 2.09800 40.30900
H  3.99300 3.58700 42.49000
H  2.22100 3.39500 42.78500
H  2.71500 4.00000 41.25300
H  4.75100 0.90000 39.59200
H  5.93200 0.19100 40.58600
H  7.34700 1.78500 39.84100
H  6.35300 2.93100 40.87200
H  -3.24800 1.71200 41.30200
H  -1.64800 2.06700 40.80700
H  -2.15200 2.51700 42.49400
H  -3.88800 -2.17100 44.49600
H  -4.44200 -2.81500 42.94000
H  -5.50700 -1.77100 43.95300
H  -0.90200 -5.73300 43.93500
H  0.54100 -5.62400 46.60300
H  -2.63600 -4.23800 45.66800
H  -1.80700 -5.43500 46.75100
H  -2.74900 -5.83800 45.22900
H  1.91300 -7.28400 44.52200
H  0.25600 -7.56200 44.55300
H  2.18400 -8.59100 46.28300
H  0.38300 -8.67400 46.56800
H  1.42000 -7.46700 47.38900
H  5.55300 -5.03800 46.74200
H  7.00600 -4.73900 45.72100
H  5.71900 -5.82400 45.21500
H  7.11700 -0.64400 42.28500
H  9.33200 2.66400 43.75900
H  7.91800 2.89300 44.67000
H  7.91900 3.51800 43.11500
Mg -11.18500 16.47400 41.52600
C  -8.48200 14.21100 41.55100
C  -9.27300 18.89400 40.20300
C  -13.99800 18.27400 41.20300
C  -13.13800 13.68600 42.66400
N  -9.16200 16.41500 40.75500
C  -8.21100 15.46300 40.97500
C  -6.84600 15.99100 40.49300
C  -7.05600 17.51600 40.36700
C  -8.59100 17.63800 40.44700
C  -6.27600 18.48000 41.33800
C  -6.46500 15.22800 39.19700
C  -5.22200 14.24700 39.12600
H  -4.37400 14.43200 37.83800
N  -11.57400 18.31000 40.64400
C  -10.64100 19.18300 40.24800
C  -11.31600 20.49400 40.04700
C  -12.68500 20.25100 40.13700
C  -12.81400 18.87400 40.69100
C  -10.51800 21.67900 39.65400
C  -13.75700 21.27400 39.78300
O  -13.49100 22.34500 39.26200
C  -15.30700 21.01500 39.99500
N  -13.26500 15.95900 41.82800
C  -14.17500 16.97000 41.77300
C  -15.59400 16.38900 41.88800
C  -15.30000 15.04800 42.67100
C  -13.78600 14.83700 42.39300
C  -16.58600 17.25900 42.73100
C  -16.24900 13.84700 42.42300
C  -16.85400 13.34900 43.74900
N  -10.90500 14.32700 42.01700
C  -11.78200 13.39100 42.49700
C  -11.13100 12.08800 42.70300
C  -9.81700 12.40900 42.41600
C  -9.73700 13.75500 42.03300
C  -11.78500 10.80200 43.21200
C  -8.47500 11.91300 42.40500
O  -8.01500 10.81800 42.74800
C  -7.58600 13.02100 41.76000
C  -6.58000 13.38600 42.70000
O  -6.79500 14.08700 43.67300
O  -5.32000 12.92000 42.35100
C  -4.19600 13.55300 43.07600
H  -8.49500 19.64400 40.04600
H  -14.81800 18.99400 41.17700
H  -13.80800 12.92200 43.06400
H  -6.03800 15.90100 41.22000
H  -6.71300 17.79400 39.37100
H  -5.56400 19.07100 40.76200
H  -5.72300 17.85200 42.03600
H  -6.95300 19.14600 41.87400
H  -6.52200 15.93600 38.37000
H  -7.25600 14.52500 38.93600
H  -5.63400 13.23900 39.17900
H  -4.62100 14.28700 40.03500
H  -9.46700 21.67600 39.94200
H  -11.01200 22.58400 40.00700
H  -10.31700 21.76700 38.58600
H  -15.84500 21.84800 39.54300
H  -15.51200 20.89900 41.05900
H  -15.62900 20.06400 39.57200
H  -15.96200 16.03600 40.92500
H  -15.47500 15.38100 43.69400
H  -17.11100 17.91900 42.04000
H  -16.05100 17.86200 43.46400
H  -17.46100 16.76500 43.15300
H  -15.80000 13.00200 41.90100
H  -17.08600 14.13600 41.78800
H  -17.92600 13.54200 43.70400
H  -16.47200 13.80800 44.66100
H  -16.83900 12.25900 43.78400
H  -12.57200 10.58200 42.49200
H  -12.30600 10.86600 44.16700
H  -11.04000 10.00700 43.21500
H  -7.10800 12.68000 40.84200
H  -3.73000 12.84400 43.76100
H  -4.40100 14.56800 43.41900
H  -3.41200 13.72000 42.33700

