158

Mg -0.11400 7.33600 27.61500
C  0.67900 9.85700 30.10500
C  0.04900 5.11500 30.17900
C  -0.84900 5.03900 25.44000
C  0.42100 9.67400 25.15300
N  0.29800 7.56900 29.90000
C  0.55900 8.62600 30.69700
C  0.87600 8.26300 32.11200
C  0.97400 6.72100 32.08300
C  0.46200 6.42900 30.56000
C  2.37800 6.14700 32.35700
C  -0.13100 8.84400 33.21500
C  0.44000 8.73500 34.65000
H  -0.34100 7.89900 35.58600
N  -0.42200 5.31300 27.82700
C  -0.39300 4.60100 28.97600
C  -0.77500 3.24800 28.71400
C  -0.79500 3.16500 27.32100
C  -0.76500 4.54000 26.80100
C  -0.96000 2.17100 29.81000
C  -1.00300 1.98200 26.43400
O  -0.98700 1.97000 25.22200
C  -1.40700 0.63600 27.10000
N  -0.07000 7.25700 25.55500
C  -0.44400 6.22200 24.84600
C  -0.63400 6.54800 23.30100
C  0.15800 7.88500 23.27200
C  0.16400 8.31100 24.73500
C  -0.07000 5.43800 22.36000
C  -0.46100 8.89700 22.20300
C  -1.79000 9.57400 22.39100
N  0.50700 9.34900 27.58300
C  0.61900 10.19400 26.45400
C  0.86000 11.50700 26.90900
C  0.92400 11.48300 28.31100
C  0.68300 10.16000 28.68800
C  1.09500 12.67800 26.03800
C  1.12200 12.29100 29.51600
O  1.28400 13.48200 29.72200
C  1.03200 11.28000 30.66500
C  2.33700 11.26300 31.42700
O  3.28000 10.54500 31.23200
O  2.24600 12.13800 32.42500
C  3.30600 12.06400 33.37700
H  0.17800 4.41900 31.01100
H  -1.22900 4.29000 24.74300
H  0.68000 10.42600 24.40500
H  1.77600 8.76700 32.46600
H  0.25400 6.20900 32.72100
H  3.20800 6.84800 32.26600
H  2.60800 5.37800 31.62000
H  2.48200 5.94900 33.42400
H  -1.08900 8.32900 33.14600
H  -0.29600 9.90200 33.01600
H  0.53900 9.74200 35.05700
H  1.43700 8.29700 34.64000
H  -0.09800 1.55300 30.06000
H  -1.81400 1.59900 29.44700
H  -1.28600 2.71000 30.69900
H  -0.73800 0.44700 27.93900
H  -1.39500 -0.13800 26.33300
H  -2.35600 0.81300 27.60700
H  -1.69700 6.70400 23.11500
H  1.21700 7.66400 23.14100
H  0.57500 5.91800 21.62300
H  -0.94100 4.96000 21.91100
H  0.44200 4.64400 22.90400
H  -0.43100 8.51100 21.18400
H  0.35500 9.61900 22.23900
H  -2.41600 9.45500 21.50700
H  -1.78400 10.63700 22.63000
H  -2.37300 8.97600 23.09200
H  1.20900 13.62100 26.57200
H  0.17400 12.67700 25.45400
H  1.98900 12.52100 25.43600
H  0.16400 11.71500 31.16100
H  3.51400 13.09400 33.66600
H  4.26300 11.59900 33.13900
H  2.93500 11.57600 34.27800
Mg 48.56300 25.13100 27.97100
C  49.43100 27.26300 30.70800
C  47.55600 22.83100 30.50700
C  48.01500 22.84100 25.54300
C  50.10500 27.19000 25.80300
N  48.39900 25.15300 30.36500
C  48.85800 26.12200 31.22300
C  48.62800 25.72300 32.68000
C  48.00500 24.24600 32.56900
C  47.97600 24.05600 31.04000
C  48.73900 23.16100 33.44400
C  47.70100 26.79100 33.41700
C  47.15700 26.36400 34.82300
H  47.58500 27.15800 36.06900
N  47.77800 23.20300 27.97900
C  47.37700 22.40700 29.10500
C  46.83000 21.12200 28.60200
C  46.83600 21.15700 27.14400
C  47.59100 22.40900 26.81200
C  46.42000 19.95000 29.45900
C  46.42800 20.14800 26.08200
O  46.58600 20.10900 24.85000
C  45.61600 18.95900 26.70500
N  49.03500 24.94700 25.92000
C  48.76500 23.94000 25.09400
C  48.95000 24.36700 23.56000
C  49.32000 25.86900 23.72100
C  49.58600 26.02500 25.23300
C  50.20500 23.58100 22.99800
C  48.18200 26.80500 23.30400
C  48.48100 27.56600 22.01500
N  49.58700 26.78400 28.11900
C  50.08800 27.65800 27.16100
C  50.65200 28.76900 27.76800
C  50.57600 28.63300 29.10900
C  49.77500 27.46700 29.34000
C  51.33200 29.88900 27.02000
C  50.89300 29.27500 30.39800
O  51.57000 30.25800 30.61500
C  50.16800 28.40800 31.51100
C  51.24900 27.78900 32.25300
O  51.84200 26.76700 31.95800
O  51.50800 28.58000 33.32000
C  52.70300 28.36600 34.10600
H  47.14300 22.08900 31.19300
H  47.80400 22.18600 24.69600
H  50.32100 28.04700 25.16100
H  49.56800 25.61200 33.22000
H  46.95200 24.14100 32.83100
H  49.08400 22.29300 32.88300
H  47.99000 22.89700 34.19100
H  49.66900 23.53600 33.87100
H  46.84700 26.97300 32.76400
H  48.38000 27.63900 33.50800
H  47.32800 25.32200 35.09200
H  46.07100 26.35200 34.72900
H  46.72700 18.99500 29.03300
H  45.38600 20.10100 29.77100
H  46.91100 19.97600 30.43200
H  46.33200 18.21600 27.05700
H  44.96900 18.51200 25.95000
H  44.98100 19.36600 27.49100
H  47.97000 24.22900 23.10300
H  50.28300 26.11100 23.27100
H  50.37700 22.70000 23.61700
H  51.13500 24.14900 23.01500
H  49.92000 23.27200 21.99300
H  48.12400 27.55900 24.08800
H  47.19000 26.35500 23.26200
H  47.72000 27.45600 21.24300
H  49.40100 27.14300 21.60900
H  48.61900 28.59500 22.34600
H  50.62400 30.17100 26.24000
H  52.18000 29.53200 26.43600
H  51.60600 30.70300 27.69100
H  49.53200 29.04200 32.12900
H  53.60400 28.29600 33.49800
H  52.61000 27.44600 34.68400
H  52.82900 29.17700 34.82400

