158

Mg 6.75100 54.54400 41.39900
C  6.12900 50.98900 41.12500
C  9.79900 53.93500 40.04500
C  6.73800 57.73400 40.67000
C  3.46900 54.76900 42.68300
N  7.71100 52.66600 40.55700
C  7.39600 51.33300 40.63700
C  8.46600 50.39800 40.11300
C  9.71500 51.31300 40.26200
C  9.06900 52.70900 40.32000
C  10.63600 50.93800 41.44200
C  8.22400 49.82200 38.63300
C  7.54900 50.62700 37.55000
H  6.56500 49.82000 36.62300
N  8.08800 55.72000 40.46000
C  9.39900 55.31000 40.10400
C  10.09400 56.46700 39.65800
C  9.19500 57.57800 39.57800
C  7.90900 57.11400 40.22300
C  11.49400 56.47100 39.23000
C  9.42600 58.94500 39.06100
O  10.51800 59.27700 38.56700
C  8.44600 60.01100 39.13700
N  5.21400 56.02100 41.40900
C  5.56300 57.36600 41.23600
C  4.40800 58.31400 41.63900
C  3.48900 57.35800 42.45200
C  4.11400 55.97900 42.23100
C  4.75900 59.55600 42.44800
C  1.97000 57.48600 42.06800
C  1.14100 58.55100 42.86000
N  5.04900 53.20000 41.90300
C  3.84500 53.43600 42.51100
C  3.11000 52.23100 42.60800
C  3.95400 51.25900 42.12300
C  5.14900 51.86400 41.72300
C  1.75000 52.04500 43.11600
C  4.16000 49.87300 41.88900
O  3.38000 48.96200 42.06500
C  5.59100 49.63100 41.29900
C  5.46400 48.93200 40.02300
O  4.90200 49.38300 39.04500
O  6.04400 47.66500 40.12900
C  5.55800 46.68800 39.17000
H  10.79900 53.89400 39.60600
H  6.60000 58.79700 40.46200
H  2.48700 54.89400 43.14400
H  8.57800 49.47600 40.68300
H  10.36400 51.35200 39.38800
H  11.59900 50.79100 40.95200
H  10.39700 49.96800 41.87900
H  10.57600 51.55600 42.33800
H  7.74000 48.84700 38.68700
H  9.21600 49.54700 38.27400
H  8.26000 51.04400 36.83700
H  7.03500 51.51400 37.91900
H  11.55200 56.35600 38.14700
H  11.95000 55.62200 39.74000
H  11.93700 57.35700 39.68400
H  8.79800 60.87200 38.56800
H  8.41800 60.35300 40.17200
H  7.46600 59.75700 38.73500
H  4.00900 58.57800 40.65900
H  3.73500 57.46000 43.51000
H  5.60300 59.42200 43.12500
H  3.94500 59.96500 43.04700
H  5.11600 60.31200 41.75000
H  1.43400 56.54300 42.17500
H  1.80500 57.69800 41.01100
H  1.77800 59.14400 43.51600
H  0.31100 58.07100 43.37700
H  0.65900 59.25700 42.18300
H  1.14300 52.93200 42.93400
H  1.75000 51.89300 44.19600
H  1.32100 51.15700 42.65300
H  6.16800 48.95000 41.92400
H  5.85200 47.02000 38.17400
H  4.48400 46.84300 39.06700
H  5.77400 45.63600 39.35300
Mg -5.67800 25.29300 26.17900
C  -4.21900 26.97800 28.95000
C  -7.21100 23.15200 28.48700
C  -6.60800 23.45700 23.67000
C  -3.51800 27.13900 24.14000
N  -5.70600 25.15700 28.49100
C  -5.10900 26.00400 29.39300
C  -5.56700 25.71500 30.87200
C  -6.17200 24.26800 30.71700
C  -6.47100 24.19200 29.16600
C  -5.18800 23.14700 31.11900
C  -6.46700 26.81700 31.39400
C  -6.69600 26.94700 32.89700
H  -6.21300 25.70100 33.75300
N  -6.97300 23.71200 26.06000
C  -7.46800 23.00400 27.10000
C  -8.34200 21.99000 26.61100
C  -8.21600 22.03200 25.18900
C  -7.26300 23.14900 24.88000
C  -9.14800 20.99200 27.55100
C  -8.87600 21.09600 24.08900
O  -8.62400 21.19900 22.85600
C  -9.81500 20.06700 24.49000
N  -5.04600 25.20400 24.22900
C  -5.65400 24.41100 23.35700
C  -5.17000 24.55800 21.93300
C  -4.38500 25.88300 21.99400
C  -4.26900 26.09200 23.58400
C  -4.29500 23.41700 21.44700
C  -5.04300 27.02400 21.24200
C  -4.26800 27.67500 20.03900
N  -4.19200 26.76900 26.39500
C  -3.45400 27.46600 25.49700
C  -2.64400 28.48300 26.11900
C  -2.86700 28.29200 27.44100
C  -3.87200 27.27100 27.63500
C  -1.67100 29.38500 25.42300
C  -2.45600 28.79700 28.73200
O  -1.72500 29.75800 29.00600
C  -3.22200 27.91600 29.78300
C  -2.29200 27.05500 30.53900
O  -1.82000 25.96800 30.21600
O  -2.22200 27.59400 31.82900
C  -1.46100 26.89900 32.89600
H  -7.62100 22.46800 29.23300
H  -6.84500 22.73300 22.88700
H  -2.81600 27.59400 23.43700
H  -4.64900 25.59100 31.44600
H  -7.07100 24.21700 31.33000
H  -5.76700 22.34900 31.58300
H  -4.39900 23.42400 31.81800
H  -4.76400 22.79100 30.18000
H  -7.42800 26.63200 30.91500
H  -6.07800 27.79200 31.10100
H  -7.75600 27.18600 32.98200
H  -5.99900 27.74800 33.14100
H  -10.12200 20.61300 27.24300
H  -9.41700 21.30400 28.56000
H  -8.50400 20.12400 27.69600
H  -10.17900 19.66100 23.54700
H  -10.64800 20.62500 24.91900
H  -9.28700 19.32200 25.08600
H  -5.99700 24.63800 21.22800
H  -3.37000 25.92000 21.59800
H  -4.18100 22.68000 22.24300
H  -3.30600 23.65200 21.05500
H  -4.86400 23.01000 20.61100
H  -5.03200 27.77700 22.03000
H  -6.11800 26.95800 21.07300
H  -3.25500 27.27400 19.99300
H  -4.15400 28.75600 20.12500
H  -4.82000 27.39800 19.14100
H  -2.24800 29.95900 24.69800
H  -0.77200 28.90400 25.03700
H  -1.22500 30.15000 26.05900
H  -3.81800 28.55100 30.43700
H  -2.06500 26.12500 33.36900
H  -0.94800 27.60600 33.54800
H  -0.64400 26.35400 32.42300

