158

Mg 40.62900 9.69000 29.71000
C  42.39200 11.10000 32.34400
C  38.40500 8.45000 31.96800
C  38.89000 8.30000 27.08600
C  42.99200 10.99400 27.44500
N  40.48800 9.76700 31.99200
C  41.23000 10.45400 32.83200
C  40.60400 10.38700 34.24000
C  39.48300 9.34000 34.17000
C  39.45900 9.15400 32.60000
C  39.66200 8.11000 35.01100
C  40.16400 11.76500 34.80700
C  39.89700 11.83400 36.36800
H  40.73100 12.70300 37.28000
N  38.91500 8.63900 29.52400
C  38.17000 8.19900 30.61400
C  37.00100 7.42200 30.17500
C  37.04200 7.55600 28.75100
C  38.32800 8.12000 28.40500
C  35.96800 6.80100 31.09200
C  36.00700 7.16800 27.65500
O  36.18000 7.31800 26.42000
C  34.67000 6.72300 28.16200
N  40.96700 9.57300 27.62900
C  39.99200 9.08100 26.77200
C  40.38200 9.33500 25.28200
C  41.70800 10.18700 25.39200
C  41.87100 10.29600 26.90900
C  40.41900 8.15100 24.32000
C  41.69300 11.55800 24.72400
C  40.57200 12.63100 25.10900
N  42.36500 10.62100 29.81000
C  43.18600 11.16600 28.85400
C  44.28200 11.89400 29.43300
C  43.97200 11.91800 30.77100
C  42.79700 11.16200 30.96500
C  45.42100 12.47100 28.64100
C  44.44300 12.38300 32.02600
O  45.37100 13.03600 32.35200
C  43.44500 11.83500 33.08400
C  44.03300 10.82000 34.01700
O  44.35700 9.68300 33.68600
O  44.14900 11.30500 35.33200
C  44.31700 10.33400 36.41300
H  37.64400 8.18500 32.70600
H  38.34900 7.89700 26.22700
H  43.64600 11.51300 26.74100
H  41.42600 10.07700 34.88600
H  38.56100 9.79900 34.52400
H  39.47200 7.20900 34.42700
H  38.97000 8.21800 35.84700
H  40.66400 8.06800 35.43800
H  39.24000 12.01400 34.28700
H  40.94700 12.48800 34.57700
H  39.93200 10.80600 36.73000
H  38.85500 12.09400 36.55500
H  35.22800 7.57500 31.29400
H  36.45700 6.39400 31.97700
H  35.52200 5.89700 30.67500
H  34.68000 5.63600 28.24000
H  34.06500 6.98300 27.29300
H  34.30500 7.15200 29.09500
H  39.65300 10.07600 24.95200
H  42.54200 9.63700 24.95500
H  40.31800 7.27200 24.95700
H  41.37600 8.07800 23.80400
H  39.66800 8.24100 23.53500
H  41.51400 11.23900 23.69700
H  42.68000 12.01900 24.75200
H  40.01100 12.24100 25.95900
H  39.86900 12.69600 24.27800
H  40.93700 13.60600 25.43200
H  45.44000 13.49600 29.01300
H  45.32500 12.43200 27.55600
H  46.29000 11.93200 29.01800
H  43.21600 12.74700 33.63500
H  45.37000 10.05300 36.41200
H  43.79800 9.37800 36.34000
H  43.82800 10.78200 37.27800
Mg 1.88500 42.04400 24.80400
C  3.10400 42.22600 28.18900
C  -1.06200 40.65800 26.19600
C  0.96800 41.06200 21.79300
C  5.02800 42.89500 23.71900
N  1.17500 41.57300 26.98200
C  1.73700 41.84000 28.16700
C  0.81600 41.70900 29.34900
C  -0.46800 41.06300 28.69900
C  -0.08800 41.08100 27.17400
C  -0.91500 39.66700 29.12500
C  0.50500 43.01100 30.22000
C  0.43200 42.88800 31.77800
H  -0.20200 41.67000 32.42600
N  0.26600 41.01900 24.07300
C  -0.89100 40.60100 24.78200
C  -1.84000 40.01500 23.85200
C  -1.31400 40.24200 22.55100
C  0.06400 40.79000 22.78000
C  -3.17900 39.37300 24.10600
C  -1.98200 39.93300 21.22600
O  -1.44500 40.26600 20.19900
C  -3.28400 39.39800 21.04800
N  2.86800 42.04000 23.05200
C  2.25000 41.61900 21.84000
C  3.15900 41.81900 20.64100
C  4.30700 42.68600 21.27000
C  4.04900 42.55900 22.80100
C  3.67400 40.44300 20.06000
C  4.31400 44.08700 20.73800
C  3.61500 45.17900 21.59200
N  3.65700 42.50000 25.69400
C  4.88300 42.73200 25.12700
C  5.96100 42.83500 26.15900
C  5.27700 42.72700 27.37900
C  3.88000 42.42000 27.04900
C  7.39600 43.22100 25.99400
C  5.43100 42.69200 28.82600
O  6.42700 42.72400 29.55400
C  3.98500 42.32000 29.40400
C  4.10500 41.00200 30.15600
O  4.53500 39.93500 29.67100
O  3.69700 41.20500 31.42100
C  3.90800 40.13100 32.36900
H  -2.04300 40.33000 26.54700
H  0.68100 40.82600 20.76700
H  6.00200 43.21500 23.34400
H  1.31100 41.00400 30.01700
H  -1.29900 41.76600 28.64800
H  -0.38200 39.04600 28.40500
H  -1.99600 39.67200 28.98600
H  -0.54900 39.41300 30.12000
H  -0.46900 43.38000 29.90100
H  1.22700 43.78100 29.95000
H  -0.17500 43.75500 32.04000
H  1.46200 42.99700 32.11700
H  -3.96700 39.75000 23.45500
H  -3.53900 39.67100 25.09000
H  -3.12300 38.28400 24.12600
H  -3.40800 38.42500 21.52300
H  -3.47200 39.09100 20.01800
H  -3.95300 40.24600 21.19300
H  2.64600 42.25300 19.78200
H  5.30100 42.29300 21.05700
H  4.69800 40.25800 20.38700
H  3.68400 40.46500 18.97000
H  3.07700 39.59000 20.38300
H  3.80100 44.11900 19.77700
H  5.36600 44.31300 20.56500
H  3.02900 44.67000 22.35700
H  2.90700 45.72700 20.96900
H  4.36900 45.86600 21.97700
H  7.53900 44.27500 25.76000
H  7.72100 42.54700 25.20100
H  7.94900 43.06200 26.92000
H  3.64700 43.14900 30.02700
H  3.96300 39.18900 31.82300
H  3.24600 40.24700 33.22800
H  4.83600 40.45000 32.84300

