158

Mg 0.49700 7.65900 26.45300
C  1.39000 9.93300 29.09000
C  0.89000 5.13900 28.63200
C  0.37500 5.49100 23.83700
C  1.11500 10.32700 24.24500
N  0.90200 7.61100 28.70800
C  1.17200 8.60700 29.55300
C  1.33900 8.06000 30.95500
C  1.33900 6.50900 30.70400
C  1.07000 6.37000 29.22400
C  2.70400 5.77300 31.09400
C  0.34700 8.67600 32.03100
C  0.96000 9.18000 33.33500
H  2.15900 8.53400 33.86000
N  0.35400 5.65200 26.27700
C  0.51500 4.75100 27.31700
C  0.44600 3.44800 26.79600
C  0.33500 3.50500 25.38500
C  0.36900 4.92400 25.06700
C  0.33700 2.29600 27.81600
C  0.22200 2.41700 24.31800
O  -0.01000 2.64300 23.11100
C  0.50100 0.98900 24.69200
N  0.78000 7.87500 24.41400
C  0.57400 6.82100 23.52500
C  0.61900 7.34100 22.09600
C  0.54700 8.87800 22.25300
C  0.85800 9.05300 23.71900
C  1.97100 6.90100 21.42000
C  -0.85700 9.37400 21.84700
C  -0.78100 10.64600 20.97200
N  1.19000 9.71300 26.58700
C  1.38400 10.65900 25.59900
C  1.81200 11.95200 26.22500
C  1.79000 11.64800 27.55900
C  1.45700 10.29400 27.76500
C  1.82400 13.22100 25.51100
C  1.86400 12.32200 28.85000
O  2.18700 13.46600 29.00600
C  1.65700 11.15700 29.91100
C  2.95500 11.21500 30.75900
O  3.92500 10.49600 30.51100
O  2.72300 12.07500 31.84500
C  3.87500 12.28100 32.76200
H  1.08200 4.22700 29.20000
H  0.35200 4.79000 23.00100
H  1.24200 11.18600 23.58200
H  2.33400 8.38700 31.25700
H  0.57900 5.96400 31.26200
H  3.42400 6.37500 31.64800
H  3.22100 5.28200 30.27000
H  2.38300 4.96900 31.75600
H  -0.43100 7.95900 32.29700
H  -0.26000 9.39200 31.47600
H  0.19300 9.03400 34.09600
H  1.14200 10.24800 33.21600
H  0.14700 1.35500 27.30100
H  -0.47400 2.46800 28.52300
H  1.29300 2.24000 28.33700
H  -0.47400 0.63400 25.02800
H  1.28700 1.06500 25.44200
H  0.73800 0.39300 23.81000
H  -0.23400 6.90600 21.57600
H  1.33800 9.40600 21.72000
H  2.62300 7.74400 21.19200
H  1.77200 6.40100 20.47300
H  2.47200 6.20000 22.08800
H  -1.35900 9.67100 22.76800
H  -1.49600 8.64700 21.34600
H  -1.68800 10.84200 20.40000
H  0.09000 10.75500 20.32600
H  -0.69800 11.51200 21.62800
H  0.92800 13.43800 24.93000
H  2.61400 13.29100 24.76300
H  1.94600 14.01300 26.25000
H  0.77500 11.37500 30.51300
H  3.51800 12.89600 33.58800
H  4.65100 12.82200 32.21900
H  4.19400 11.35900 33.24700
Mg -8.35300 40.50200 42.54100
C  -7.42900 37.36100 41.35300
C  -5.79200 41.89300 40.87300
C  -9.99400 43.51600 42.73000
C  -11.27200 38.99000 43.71700
N  -6.90600 39.70400 41.24600
C  -6.56900 38.40300 40.92100
C  -5.22100 38.17800 40.27600
C  -4.57400 39.62100 40.44300
C  -5.84300 40.49700 40.88700
C  -3.47400 39.66400 41.57000
C  -5.29500 37.67000 38.77500
C  -4.48500 36.35100 38.61300
H  -3.23100 36.45500 37.68800
N  -7.83600 42.51500 42.14400
C  -6.71800 42.86700 41.41800
C  -6.55100 44.32300 41.46700
C  -7.77900 44.88600 42.02600
C  -8.62600 43.65000 42.27900
C  -5.25100 44.84100 40.97300
C  -8.10300 46.30100 42.29500
O  -7.32400 47.16200 41.89200
C  -9.33200 46.69300 42.98400
N  -10.44100 41.17200 43.00600
C  -10.76900 42.49200 43.14000
C  -12.20500 42.62000 43.68900
C  -12.48000 41.18100 44.17900
C  -11.40900 40.38900 43.49600
C  -12.40200 43.70400 44.79800
C  -13.91800 40.71400 44.08200
C  -14.25900 39.80100 42.86900
N  -9.24000 38.57500 42.61000
C  -10.40100 38.13000 43.12400
C  -10.40600 36.68200 43.05600
C  -9.26100 36.33100 42.40900
C  -8.60900 37.55600 42.09600
C  -11.45900 35.78400 43.68800
C  -8.41800 35.19900 41.89000
O  -8.57600 34.00700 41.96500
C  -7.22100 35.85700 41.12500
C  -5.96900 35.38500 41.83800
O  -5.56500 35.75200 42.89600
O  -5.40500 34.38600 41.09800
C  -4.10200 33.94800 41.56200
H  -4.85200 42.16600 40.38900
H  -10.54600 44.45600 42.80100
H  -12.03000 38.50600 44.33700
H  -4.69100 37.50200 40.94700
H  -4.16400 40.01400 39.51200
H  -3.85900 39.98900 42.53700
H  -2.74200 40.38400 41.20500
H  -3.07400 38.66800 41.75700
H  -4.85600 38.37300 38.06700
H  -6.32600 37.56200 38.43900
H  -5.23000 35.63500 38.26600
H  -4.12300 36.02100 39.58700
H  -5.22700 44.51900 39.93200
H  -4.35400 44.40600 41.41200
H  -5.16900 45.92800 40.98600
H  -9.09100 47.67400 43.39300
H  -9.51500 46.08600 43.87100
H  -10.13600 46.68100 42.24800
H  -12.88600 42.84400 42.86800
H  -12.35900 41.20300 45.26200
H  -12.67800 43.33700 45.78600
H  -13.28300 44.26100 44.48000
H  -11.48500 44.29200 44.82300
H  -14.57000 41.58600 44.03500
H  -14.27000 40.13600 44.93700
H  -14.43000 38.78300 43.22100
H  -13.41700 39.93000 42.18900
H  -15.16800 40.18700 42.40700
H  -12.29600 35.68400 42.99700
H  -11.65600 36.15300 44.69500
H  -11.08400 34.76500 43.78700
H  -7.30200 35.62400 40.06300
H  -3.44200 34.72800 41.94200
H  -3.53800 33.33500 40.85900
H  -4.24700 33.31200 42.43500

