158

Mg 24.58300 -6.76500 48.44000
C  26.89100 -4.61900 47.07400
C  22.10600 -5.35200 46.16200
C  22.68200 -9.43900 48.89800
C  27.24300 -8.19800 50.38100
N  24.55900 -5.24500 46.77100
C  25.63400 -4.49500 46.39000
C  25.27100 -3.45200 45.33600
C  23.69700 -3.46300 45.42000
C  23.39400 -4.72500 46.21700
C  23.07500 -2.15800 45.92200
C  25.90100 -3.80700 43.93100
C  26.23200 -2.62100 42.98100
H  25.47900 -2.57000 41.64700
N  22.54900 -7.21300 47.77900
C  21.74000 -6.52900 46.88700
C  20.47000 -7.32800 46.78600
C  20.61100 -8.52500 47.56800
C  22.01300 -8.46700 48.09400
C  19.29100 -6.88200 45.91700
C  19.44300 -9.62400 47.75600
O  18.33100 -9.29100 47.33300
C  19.64300 -10.95400 48.48900
N  25.02300 -8.63700 49.39400
C  23.95300 -9.45500 49.49600
C  24.27400 -10.58300 50.58900
C  25.67500 -10.20100 51.13700
C  26.00300 -8.93700 50.27600
C  23.13400 -10.76400 51.69000
C  26.82600 -11.28800 50.83100
C  27.92800 -11.30700 51.86300
N  26.63300 -6.42700 48.76600
C  27.56400 -7.04600 49.54800
C  28.82500 -6.26100 49.50200
C  28.59600 -5.27100 48.54700
C  27.23800 -5.42000 48.16900
C  30.00600 -6.55600 50.33400
C  29.22800 -4.23000 47.79300
O  30.39000 -3.80300 47.65700
C  28.13200 -3.70300 46.89300
C  27.91900 -2.34700 47.40200
O  27.27600 -2.09200 48.38100
O  28.35900 -1.36800 46.48600
C  27.94700 0.00900 46.67900
H  21.32700 -4.82800 45.60500
H  22.10000 -10.33200 49.13800
H  28.05100 -8.69800 50.91800
H  25.59600 -2.44600 45.60200
H  23.23400 -3.67700 44.45600
H  23.28500 -1.96900 46.97500
H  21.99200 -2.07100 45.83400
H  23.53100 -1.45700 45.22200
H  25.25900 -4.51900 43.41200
H  26.74300 -4.47800 44.09900
H  27.30500 -2.73100 42.81900
H  26.19600 -1.65400 43.48300
H  19.48800 -5.89500 45.49900
H  18.39400 -6.73900 46.52000
H  19.09100 -7.66300 45.18300
H  20.51200 -11.42500 48.02900
H  18.79400 -11.63000 48.39000
H  19.87100 -10.80300 49.54400
H  24.44400 -11.45300 49.95500
H  25.55500 -9.83000 52.15500
H  23.68100 -11.25000 52.49800
H  22.35700 -11.40500 51.27500
H  22.63100 -9.84800 51.99900
H  27.38200 -11.09300 49.91400
H  26.35400 -12.26700 50.73900
H  27.93600 -12.31400 52.27800
H  27.82900 -10.48200 52.56900
H  28.86700 -11.13500 51.33800
H  30.44200 -7.53000 50.11300
H  29.76300 -6.51600 51.39500
H  30.76500 -5.79100 50.16500
H  28.46500 -3.65800 45.85600
H  27.38300 0.25000 47.57900
H  27.19400 0.22600 45.92100
H  28.73000 0.75700 46.55600
Mg 47.23500 24.96700 29.00100
C  47.88100 27.24900 31.50900
C  46.56900 22.58300 31.55500
C  46.93200 22.43600 26.68400
C  48.11000 27.12800 26.62600
N  47.31900 24.89900 31.25300
C  47.43100 26.06900 31.99800
C  47.12300 25.79500 33.50000
C  46.88600 24.23500 33.53600
C  46.87000 23.85500 32.02700
C  48.00600 23.55800 34.28400
C  45.95400 26.59300 34.09300
C  46.25600 27.25500 35.52300
H  45.16100 27.19000 36.56700
N  46.63700 22.86100 29.12100
C  46.52600 22.08600 30.20800
C  46.20100 20.75400 29.88500
C  46.29500 20.63100 28.51000
C  46.67300 21.97200 28.02800
C  45.61000 19.71600 30.85800
C  46.04200 19.40500 27.59600
O  46.07400 19.47700 26.35400
C  45.83000 18.03500 28.28600
N  47.64500 24.74000 27.00300
C  47.23200 23.70400 26.23500
C  47.46800 23.94200 24.76600
C  47.50700 25.50400 24.76000
C  47.66500 25.86800 26.19100
C  48.83700 23.36900 24.29900
C  46.33300 26.18300 24.11900
C  45.35600 26.92000 25.05000
N  48.05000 26.77400 29.05400
C  48.30400 27.59800 27.97500
C  48.76700 28.82500 28.43700
C  48.52900 28.77800 29.85600
C  48.12300 27.51700 30.15500
C  49.16200 29.99200 27.60800
C  48.65900 29.56700 31.13700
O  49.11200 30.70200 31.38300
C  48.11200 28.61500 32.20500
C  49.00000 28.60000 33.35400
O  49.92600 27.84200 33.47900
O  48.62200 29.60000 34.22500
C  49.43300 29.71200 35.43200
H  46.22000 21.94100 32.36600
H  46.84800 21.66500 25.91400
H  48.14200 27.77300 25.74500
H  47.93600 26.05900 34.17700
H  45.96500 23.78100 33.90200
H  48.62700 22.95500 33.62200
H  47.52500 22.84400 34.95300
H  48.70200 24.19800 34.82700
H  45.20100 25.83300 34.30300
H  45.67300 27.42500 33.44700
H  46.25700 28.33000 35.34200
H  47.24500 27.05400 35.93400
H  44.63900 19.41400 30.46500
H  45.65200 19.90300 31.93100
H  46.28600 18.86400 30.78700
H  46.61800 17.75600 28.98500
H  45.84700 17.32200 27.46100
H  44.80600 18.10000 28.65500
H  46.64300 23.54500 24.17600
H  48.43300 25.89800 24.33900
H  49.31700 22.79800 25.09400
H  49.57200 24.13000 24.03500
H  48.68500 22.65700 23.48900
H  45.84300 25.44400 23.48600
H  46.79800 26.91200 23.45600
H  45.53700 27.98900 24.94400
H  45.22300 26.53300 26.06100
H  44.33300 26.90900 24.67700
H  48.39200 30.22600 26.87400
H  50.14900 29.81900 27.17900
H  49.33100 30.80600 28.31300
H  47.12200 29.03400 32.38800
H  49.23100 28.92900 36.16300
H  49.28100 30.62700 36.00500
H  50.51100 29.59800 35.31300

