158

Mg 30.96600 58.32500 39.96700
C  28.15300 56.50900 39.16100
C  32.97000 55.89100 38.73900
C  33.55200 60.49500 40.08400
C  28.88700 61.08600 40.91000
N  30.61200 56.50200 38.97300
C  29.35100 55.90100 38.78200
C  29.46400 54.64500 37.93400
C  30.96900 54.26900 38.14800
C  31.60300 55.61400 38.66300
C  31.24000 53.05600 39.19000
C  29.19800 54.84200 36.40300
C  27.97900 54.09500 35.81900
H  27.11900 54.92600 34.95200
N  32.94400 58.12600 39.65600
C  33.56300 57.04400 39.17000
C  35.03700 57.26100 39.17900
C  35.24800 58.59800 39.49500
C  33.90000 59.16200 39.72000
C  35.98900 56.23000 38.69900
C  36.65100 59.21000 39.47300
O  37.73100 58.62700 39.23800
C  36.81300 60.59600 40.00300
N  31.18700 60.59200 40.20500
C  32.37700 61.14800 40.33000
C  32.29700 62.56500 40.88800
C  30.82700 62.64000 41.36400
C  30.21500 61.36000 40.81100
C  33.44800 62.89400 41.93900
C  30.02800 63.91100 40.91400
C  29.37800 64.73900 41.99600
N  28.90400 58.78100 40.03100
C  28.21600 59.91000 40.39300
C  26.84900 59.69800 40.12100
C  26.76500 58.38100 39.73600
C  28.05000 57.82900 39.69800
C  25.80000 60.81700 40.05300
C  25.89100 57.35800 39.38100
O  24.70100 57.44200 39.17000
C  26.70200 56.03300 39.05300
C  26.44500 55.02800 40.15600
O  27.28900 54.60900 40.89300
O  25.18100 54.54400 40.06800
C  24.83200 53.42000 40.90500
H  33.56200 55.00200 38.51100
H  34.42600 61.08700 40.36200
H  28.18800 61.86600 41.21900
H  28.78700 53.87700 38.30900
H  31.28200 53.84900 37.19100
H  30.26600 52.62200 39.41900
H  31.72900 53.37200 40.11200
H  31.85700 52.25100 38.79300
H  30.01800 54.47000 35.78800
H  29.02600 55.87200 36.09200
H  27.38000 53.72800 36.65300
H  28.42500 53.28100 35.24900
H  36.97300 56.59700 38.40900
H  35.58000 55.67100 37.85800
H  36.13900 55.51500 39.50800
H  36.22700 61.37300 39.51100
H  37.83600 60.97500 40.00700
H  36.48600 60.63300 41.04200
H  32.37700 63.25300 40.04600
H  30.89700 62.68500 42.45100
H  33.67900 61.99500 42.51000
H  32.98500 63.65300 42.57000
H  34.37300 63.21200 41.45900
H  29.25800 63.65000 40.18800
H  30.65300 64.66500 40.43600
H  28.34300 64.94000 41.71900
H  29.84100 65.72000 42.10100
H  29.26200 64.25200 42.96500
H  25.40700 61.08200 41.03400
H  25.05000 60.51400 39.32200
H  26.22900 61.76400 39.72400
H  26.57100 55.71200 38.02000
H  25.57200 52.66900 40.62400
H  23.82000 53.10400 40.65300
H  24.87600 53.71600 41.95300
Mg -5.52700 24.91200 25.64300
C  -4.21800 25.99400 28.69300
C  -7.43700 22.64500 27.44900
C  -6.55600 23.65000 22.70700
C  -3.32100 27.07200 23.97400
N  -5.64100 24.32600 27.73300
C  -5.17200 24.97200 28.85400
C  -5.64600 24.43000 30.17800
C  -6.49800 23.23000 29.70100
C  -6.56000 23.42800 28.16500
C  -5.86700 21.81100 30.13600
C  -6.44900 25.58800 30.96300
C  -6.47100 25.47200 32.47500
H  -5.62500 24.33900 33.10000
N  -6.84200 23.37100 25.17000
C  -7.59400 22.60200 26.02500
C  -8.53500 21.78900 25.32500
C  -8.27400 21.97800 23.92300
C  -7.13300 23.02700 23.86200
C  -9.54600 20.87600 25.97100
C  -8.87800 21.25100 22.74000
O  -8.52000 21.56600 21.64100
C  -9.94000 20.14500 22.82000
N  -4.99000 25.19700 23.63200
C  -5.53400 24.54700 22.56300
C  -4.88300 24.93000 21.18700
C  -4.02300 26.20300 21.62000
C  -4.09000 26.17100 23.16100
C  -4.12100 23.77500 20.40800
C  -4.54300 27.66700 21.20500
C  -4.14000 28.12800 19.78200
N  -4.16700 26.33000 26.16400
C  -3.36200 27.14700 25.38500
C  -2.59400 27.91900 26.30500
C  -2.87000 27.41500 27.54700
C  -3.81200 26.54900 27.46300
C  -1.51800 28.91600 25.99100
C  -2.40900 27.63100 28.91300
O  -1.55800 28.40900 29.44400
C  -3.37200 26.69500 29.75400
C  -2.62000 25.88000 30.70300
O  -2.03900 24.83500 30.40200
O  -2.52500 26.53200 31.92000
C  -1.73900 25.83700 32.88900
H  -8.07500 22.07400 28.12700
H  -6.97000 23.18200 21.81100
H  -2.60000 27.76000 23.52800
H  -4.72500 24.10100 30.66000
H  -7.47100 23.21100 30.19100
H  -5.68500 21.19700 29.25400
H  -6.56800 21.22000 30.72600
H  -4.95400 21.89600 30.72600
H  -7.50000 25.52100 30.67900
H  -6.29000 26.65200 30.78800
H  -7.54100 25.32800 32.62200
H  -6.19900 26.44100 32.89200
H  -10.47100 21.01300 25.41100
H  -9.63400 21.01100 27.04900
H  -9.17500 19.86500 25.80500
H  -9.97900 19.61800 21.86700
H  -10.94300 20.48400 23.07500
H  -9.56600 19.48900 23.60600
H  -5.62400 25.25500 20.45600
H  -2.97400 26.26600 21.33000
H  -4.92500 23.29100 19.85300
H  -3.80300 22.94900 21.04400
H  -3.32100 24.22200 19.81800
H  -4.09700 28.39900 21.87800
H  -5.59600 27.63000 21.48500
H  -3.91500 27.26600 19.15300
H  -3.16600 28.60800 19.87500
H  -4.93000 28.78500 19.41800
H  -1.39100 29.02500 24.91400
H  -0.60100 28.58000 26.47700
H  -1.77800 29.86600 26.46000
H  -4.17600 27.27000 30.21400
H  -1.72600 24.74900 32.83300
H  -2.30700 25.98500 33.80800
H  -0.68600 26.11600 32.93400

