158

Mg 43.40400 42.10100 26.21700
C  42.55000 44.34500 28.87800
C  44.86600 40.02700 28.47700
C  44.13000 40.14000 23.63400
C  42.27200 44.74200 24.03800
N  43.66400 42.21800 28.35900
C  43.17000 43.13000 29.26000
C  43.43000 42.60100 30.69500
C  44.40700 41.37400 30.55000
C  44.21000 41.13600 29.02500
C  45.88400 41.59800 31.00600
C  42.22000 42.35300 31.56700
C  42.13000 42.99600 32.94100
H  40.74500 43.37600 33.40900
N  44.32400 40.25300 26.10100
C  44.87800 39.56500 27.13400
C  45.41200 38.29400 26.62800
C  45.13200 38.28300 25.20700
C  44.48900 39.60100 24.92600
C  46.07700 37.27700 27.53600
C  45.60700 37.23500 24.15900
O  45.40500 37.36200 22.93500
C  46.21500 35.88500 24.54000
N  43.33400 42.44000 24.16600
C  43.61700 41.38600 23.26200
C  43.33900 41.84100 21.85600
C  42.48800 43.13200 22.01600
C  42.77400 43.50000 23.52000
C  44.53600 42.08700 20.90600
C  40.99700 42.90000 21.79900
C  40.43300 41.71000 22.52600
N  42.69200 44.20000 26.31300
C  42.22700 45.14700 25.37900
C  41.75400 46.30400 25.99100
C  41.85000 46.04600 27.38500
C  42.41700 44.73100 27.53100
C  41.28900 47.45200 25.35700
C  41.55400 46.54900 28.68200
O  41.03400 47.66200 28.96400
C  41.83200 45.41800 29.72600
C  42.79200 46.01600 30.68400
O  43.96300 46.20300 30.47400
O  42.10300 46.37900 31.86700
C  42.99400 47.02300 32.82700
H  45.33100 39.38000 29.22400
H  44.37400 39.55700 22.74400
H  41.78700 45.30500 23.23800
H  44.03900 43.37900 31.15400
H  44.11000 40.55100 31.20000
H  46.04400 42.67500 31.03900
H  46.57300 40.96100 30.45200
H  45.80100 41.15800 31.99900
H  42.06500 41.27600 31.63500
H  41.36400 42.67000 30.97100
H  42.78300 43.86700 32.89400
H  42.69900 42.27200 33.52300
H  45.44500 36.39000 27.51300
H  46.08300 37.60700 28.57500
H  47.10900 37.03000 27.28400
H  46.26100 35.16900 23.72000
H  45.47600 35.49100 25.23800
H  47.19800 35.91900 25.01000
H  42.73000 41.07500 21.37600
H  42.84700 43.86400 21.29200
H  45.44800 41.68500 21.34700
H  44.65800 43.15500 20.73100
H  44.37400 41.58000 19.95500
H  40.81000 42.85600 20.72600
H  40.44300 43.80000 22.06400
H  41.11100 40.91000 22.82300
H  39.49700 41.32900 22.11900
H  40.19200 41.92600 23.56800
H  42.13100 47.96100 24.88800
H  40.75100 48.10100 26.04800
H  40.62900 47.18800 24.53100
H  40.93400 45.11100 30.26100
H  43.73400 46.30900 33.18900
H  42.35100 47.35900 33.64100
H  43.57200 47.81100 32.34500
Mg 30.71800 58.26100 40.63000
C  27.87400 56.64100 39.61400
C  32.69200 55.88300 39.14800
C  33.44500 60.27900 41.00300
C  28.66800 61.10000 41.31000
N  30.30100 56.54500 39.50800
C  29.04500 55.98200 39.31200
C  29.22500 54.66900 38.51800
C  30.71800 54.28200 38.69900
C  31.25400 55.61200 39.18900
C  30.98800 53.07400 39.66600
C  28.82800 54.93700 36.99500
C  27.85800 53.99600 36.30800
H  27.97100 53.94100 34.76200
N  32.84700 58.10300 40.17400
C  33.40500 56.98100 39.62100
C  34.83200 57.23500 39.47700
C  35.10400 58.41400 40.17700
C  33.76100 58.97400 40.55600
C  35.76700 56.24300 38.79600
C  36.57900 58.85400 40.48300
O  37.51600 58.32400 39.98000
C  36.90200 60.03600 41.36900
N  30.99300 60.40700 41.16400
C  32.24500 60.95000 41.26900
C  32.17000 62.47200 41.52400
C  30.62900 62.65600 41.84300
C  30.00200 61.34800 41.34400
C  33.12800 63.00800 42.64200
C  29.95700 63.89200 41.27900
C  30.77600 65.17700 41.47600
N  28.63600 58.79700 40.56300
C  27.96600 59.91100 40.91000
C  26.51900 59.61700 40.79500
C  26.40900 58.32000 40.31800
C  27.71500 57.90500 40.13700
C  25.38200 60.51000 41.23100
C  25.42800 57.22500 39.94500
O  24.20300 57.15000 40.01100
C  26.45900 56.14900 39.35100
C  26.25800 54.79600 40.02100
O  26.77300 54.36900 41.05000
O  25.21200 54.12400 39.33400
C  24.80600 52.80300 39.95700
H  33.28400 55.06000 38.74300
H  34.36500 60.86700 40.97800
H  28.01600 61.91200 41.63700
H  28.51800 54.01400 39.02700
H  31.06100 53.92700 37.72800
H  30.98000 53.40200 40.70500
H  32.01500 52.77000 39.46300
H  30.25000 52.30500 39.43900
H  29.70100 54.96700 36.34400
H  28.31800 55.90000 37.01500
H  26.86200 54.39300 36.50400
H  27.95100 53.02200 36.78800
H  35.63000 56.25300 37.71500
H  35.55100 55.22700 39.12700
H  36.78100 56.41900 39.15500
H  36.52800 60.90500 40.82600
H  37.97300 60.21100 41.46500
H  36.50600 60.05100 42.38400
H  32.39100 62.90500 40.54900
H  30.48800 62.70700 42.92300
H  33.89900 62.25200 42.79100
H  32.50100 63.10300 43.52800
H  33.56800 63.98000 42.41900
H  29.08700 64.06800 41.91100
H  29.49800 63.84300 40.29100
H  31.48300 65.40200 40.67800
H  31.28200 65.18300 42.44100
H  30.13800 66.05800 41.54900
H  24.92700 61.01600 40.37900
H  25.73500 61.25800 41.94100
H  24.66200 59.92400 41.80200
H  26.33600 56.11300 38.26800
H  24.88700 52.68700 41.03800
H  25.16900 51.86700 39.53100
H  23.76800 52.71300 39.63600

