158

Mg 35.72400 2.91500 30.93800
C  33.12300 3.92200 32.93200
C  37.85800 2.93800 33.49400
C  38.26400 1.92900 28.79000
C  33.59200 3.38000 28.15100
N  35.42100 3.37800 32.93200
C  34.33700 3.62200 33.59600
C  34.57300 3.53600 35.09500
C  36.16200 3.47700 35.24600
C  36.53300 3.35000 33.76500
C  36.82300 4.75900 35.94100
C  33.87800 2.30100 35.72700
C  33.41100 2.54900 37.18500
H  34.09800 3.49300 38.14100
N  37.79400 2.48400 31.14900
C  38.49300 2.50000 32.30100
C  39.85900 2.03300 32.14000
C  39.91800 1.71300 30.77700
C  38.61600 2.01400 30.16800
C  40.85300 1.90300 33.27500
C  41.11400 1.04900 29.97700
O  41.12100 0.99500 28.77900
C  42.31700 0.41600 30.69700
N  35.94300 2.76000 28.73600
C  37.02500 2.19300 28.15700
C  36.86500 2.16800 26.61600
C  35.42800 2.72800 26.42600
C  34.93900 3.05000 27.83200
C  38.01300 3.00800 25.81500
C  34.54400 1.78900 25.52400
C  34.15100 0.46100 26.20000
N  33.68800 3.51300 30.55800
C  32.91300 3.66000 29.38700
C  31.63700 4.02200 29.72800
C  31.58800 4.08800 31.15100
C  32.88200 3.79100 31.58400
C  30.47900 4.25200 28.74000
C  30.73500 4.29500 32.30600
O  29.55200 4.46000 32.41800
C  31.76800 4.12800 33.55300
C  31.73700 5.42600 34.34800
O  31.73700 6.54900 33.88400
O  31.50300 5.19300 35.70900
C  31.21000 6.29300 36.58800
H  38.46800 2.76100 34.38300
H  39.02600 1.55900 28.10000
H  32.96000 3.56900 27.28000
H  34.18400 4.45300 35.53800
H  36.46400 2.51300 35.65400
H  37.67600 5.10900 35.36000
H  37.11600 4.44200 36.94200
H  36.03500 5.50900 35.99700
H  34.62600 1.51200 35.80100
H  33.05600 1.98000 35.08600
H  33.32300 1.57600 37.66900
H  32.35100 2.79200 37.25500
H  41.00700 0.85500 33.53300
H  40.47600 2.16100 34.26400
H  41.78300 2.45900 33.15800
H  43.06600 0.06600 29.98700
H  42.02100 -0.17800 31.56200
H  42.86000 1.23800 31.16200
H  36.90200 1.11000 26.35700
H  35.46900 3.73000 26.00000
H  37.66000 3.77600 25.12700
H  38.52200 2.33000 25.13000
H  38.71500 3.47900 26.50400
H  35.12000 1.52100 24.63900
H  33.69700 2.35000 25.13000
H  34.76000 0.27800 27.08500
H  34.18100 -0.40900 25.54400
H  33.13300 0.48700 26.58900
H  30.29300 3.28100 28.28200
H  30.77100 4.89000 27.90600
H  29.61000 4.72100 29.20200
H  31.47500 3.27200 34.16200
H  30.48800 5.99700 37.34800
H  30.64500 7.08100 36.08900
H  32.15600 6.68400 36.96300
Mg 56.21600 25.31200 44.88700
C  53.46600 26.97000 43.36600
C  54.95900 22.35400 43.45600
C  59.17100 23.88400 45.33100
C  57.49900 28.31300 45.70300
N  54.38300 24.75800 43.56400
C  53.50200 25.61300 42.97700
C  52.49200 24.84300 42.14100
C  52.81500 23.42000 42.51700
C  54.18300 23.48700 43.16800
C  51.79600 22.60000 43.32000
C  52.68600 25.15500 40.64000
C  51.56200 25.62800 39.84000
H  50.90000 24.65200 38.83600
N  57.01000 23.36800 44.60600
C  56.28600 22.28200 43.97700
C  57.06200 21.06700 44.15400
C  58.41100 21.54200 44.56700
C  58.26500 22.96700 44.80000
C  56.55300 19.65400 43.86800
C  59.68400 20.68800 44.53700
O  59.61900 19.46000 44.34700
C  61.02200 21.27900 44.87100
N  58.10500 26.05500 45.18000
C  59.18300 25.23400 45.36000
C  60.33600 25.95600 45.69400
C  59.85100 27.44500 45.83000
C  58.38600 27.27500 45.61000
C  61.20100 25.43200 46.93200
C  60.55500 28.34000 44.72900
C  60.70000 29.90900 44.98500
N  55.60900 27.32000 44.70000
C  56.15500 28.41600 45.28000
C  55.23200 29.47300 45.19300
C  54.12700 29.01100 44.45900
C  54.45100 27.62600 44.12900
C  55.45600 30.86600 45.76000
C  52.85300 29.28400 43.88100
O  52.14200 30.28100 43.95100
C  52.40200 28.03500 43.16100
C  52.17800 28.38300 41.77000
O  53.03900 28.70300 40.93700
O  50.84400 28.21400 41.50200
C  50.38500 28.47000 40.12600
H  54.53500 21.37500 43.22200
H  60.15700 23.51200 45.61900
H  57.83400 29.29500 46.04600
H  51.52100 25.21800 42.46500
H  53.02000 22.89800 41.58200
H  50.95700 23.09400 43.81000
H  52.38400 22.17900 44.13600
H  51.44000 21.71800 42.78700
H  52.97500 24.23600 40.12900
H  53.52300 25.83600 40.48400
H  51.88000 26.52300 39.30500
H  50.67400 25.88400 40.41800
H  55.49900 19.46400 44.07200
H  57.15100 18.97300 44.47300
H  56.70200 19.34900 42.83300
H  61.20200 22.01700 44.09000
H  61.72600 20.44700 44.85900
H  61.04300 21.85400 45.79700
H  61.09600 25.83900 44.92200
H  60.17400 27.80600 46.80700
H  62.08900 24.91700 46.56300
H  60.64300 24.69800 47.51300
H  61.51200 26.19500 47.64600
H  60.11500 28.27800 43.73300
H  61.58500 28.00800 44.60300
H  60.46400 30.52500 44.11600
H  61.73300 30.14800 45.23900
H  60.04800 30.28300 45.77400
H  56.35200 30.78200 46.37500
H  54.57300 31.09200 46.35700
H  55.63500 31.58700 44.96200
H  51.47500 27.68300 43.61400
H  49.84600 27.63700 39.67400
H  51.16000 28.75500 39.41600
H  49.59900 29.21300 40.26400

