158

Mg 10.02200 48.15600 26.17000
C  7.81200 48.60300 28.82100
C  12.55000 49.80400 27.94900
C  12.01600 47.81800 23.51500
C  7.25800 47.36900 24.11300
N  10.11300 49.27700 28.12200
C  9.15300 49.05900 29.11200
C  9.77300 49.65200 30.35300
C  11.09500 50.32000 29.96800
C  11.28700 49.77100 28.53900
C  11.21700 51.88700 30.08900
C  9.87700 48.57800 31.45600
C  10.51700 49.00600 32.80800
H  9.76400 48.34200 34.02100
N  12.05600 48.64400 25.82300
C  12.86600 49.22600 26.70400
C  14.22000 49.24800 26.10600
C  14.15500 48.59400 24.84200
C  12.67200 48.30500 24.66700
C  15.44700 49.88600 26.83200
C  15.30200 48.13600 23.86000
O  15.12900 47.52400 22.79100
C  16.72800 48.40000 24.24700
N  9.66100 47.60500 24.03400
C  10.69100 47.43900 23.22200
C  10.29900 46.99600 21.85800
C  8.71400 46.73100 22.01900
C  8.50300 47.18000 23.51900
C  10.61800 47.95600 20.66300
C  8.23000 45.34900 21.78000
C  8.47100 44.27800 22.83400
N  8.00000 48.04700 26.33600
C  6.95900 47.70500 25.46200
C  5.62600 47.67000 26.08400
C  5.99400 48.03100 27.41300
C  7.39100 48.23700 27.49900
C  4.30300 47.32100 25.57800
C  5.45300 48.06500 28.74100
O  4.29300 47.92900 29.10300
C  6.60000 48.37800 29.74000
C  6.78900 47.09600 30.52000
O  7.43500 46.13900 30.14800
O  6.10500 47.17900 31.69800
C  6.47900 46.11400 32.59100
H  13.35800 50.30500 28.48700
H  12.76400 47.70600 22.72800
H  6.51500 46.97700 23.41500
H  9.13100 50.43700 30.75300
H  11.92900 49.96500 30.57300
H  10.25800 52.34200 30.33700
H  11.69500 52.31500 29.20800
H  11.91300 51.94200 30.92600
H  10.30600 47.69500 30.98200
H  8.89700 48.12900 31.61700
H  10.73400 50.07000 32.89700
H  11.48300 48.50000 32.81100
H  16.18900 50.31800 26.16100
H  15.97100 49.07100 27.33200
H  15.20800 50.75700 27.44200
H  16.89200 49.47300 24.15100
H  17.36800 47.77700 23.62100
H  16.79100 48.00300 25.26000
H  10.86100 46.06800 21.76000
H  8.27800 47.43300 21.30800
H  10.80400 48.95900 21.04800
H  9.79600 47.99700 19.94900
H  11.55500 47.62000 20.22000
H  8.64300 45.04600 20.81800
H  7.16100 45.50200 21.63300
H  7.47700 43.85000 22.96000
H  8.71200 44.73900 23.79200
H  9.24300 43.55100 22.58100
H  4.22300 46.41000 24.98400
H  3.97100 48.05600 24.84500
H  3.57600 47.40500 26.38600
H  6.21500 49.19600 30.35000
H  6.18700 45.17800 32.11500
H  5.95500 46.28400 33.53100
H  7.55800 46.21800 32.70200
Mg -11.04000 38.62900 41.86300
C  -9.15400 35.74800 40.99300
C  -8.85600 40.48100 39.98200
C  -13.29500 41.24800 41.74100
C  -13.61900 36.44800 43.01700
N  -9.43900 38.02800 40.30000
C  -8.75900 36.83500 40.24600
C  -7.46200 37.02300 39.35900
C  -7.37600 38.60500 39.22700
C  -8.64000 39.12600 39.91600
C  -6.08900 39.20900 39.72900
C  -7.70000 36.26600 37.95700
C  -6.62900 35.28400 37.55300
H  -5.68600 35.92100 36.47700
N  -10.96600 40.61200 41.15600
C  -9.97700 41.15500 40.49500
C  -10.20600 42.60200 40.30500
C  -11.46200 42.85500 40.89000
C  -11.99400 41.51600 41.16300
C  -9.28400 43.50100 39.50700
C  -12.17200 44.20500 40.94300
O  -11.59200 45.24000 40.70800
C  -13.55200 44.35700 41.50300
N  -13.12100 38.75200 42.11000
C  -13.81700 39.96800 42.08800
C  -15.28200 39.78500 42.46800
C  -15.40500 38.32100 42.79300
C  -13.92700 37.81200 42.68900
C  -15.67400 40.77700 43.61200
C  -16.17900 37.44500 41.80600
C  -17.19900 36.44200 42.45600
N  -11.36100 36.48300 42.03900
C  -12.33800 35.78500 42.70400
C  -11.87000 34.45600 42.94900
C  -10.66700 34.39900 42.36700
C  -10.37900 35.62300 41.73400
C  -12.64800 33.44200 43.72200
C  -9.59800 33.59800 41.97300
O  -9.41000 32.38900 42.14700
C  -8.55000 34.38100 41.07200
C  -7.16000 34.34000 41.75000
O  -6.37300 33.41800 41.59200
O  -6.86900 35.58000 42.34400
C  -5.52400 35.75700 42.83900
H  -8.24700 41.03600 39.26600
H  -14.07600 42.00800 41.81700
H  -14.40600 35.85600 43.48900
H  -6.62400 36.54200 39.86500
H  -7.45300 38.95000 38.19600
H  -6.25300 39.89700 40.55800
H  -5.59700 39.77900 38.94000
H  -5.30000 38.47700 39.90600
H  -7.89800 37.05800 37.23500
H  -8.56600 35.61900 38.10100
H  -6.96500 34.32900 37.14900
H  -5.98500 34.90800 38.34900
H  -9.90600 44.21400 38.96600
H  -8.77200 42.85100 38.79700
H  -8.62400 44.08200 40.15200
H  -13.82700 45.41100 41.45400
H  -13.68200 44.06700 42.54600
H  -14.11300 43.77700 40.77100
H  -16.01900 40.06100 41.71400
H  -15.84200 38.15900 43.77800
H  -15.94300 41.74600 43.19200
H  -14.85600 40.97700 44.30400
H  -16.52000 40.46300 44.22400
H  -15.49400 36.82000 41.23300
H  -16.73400 38.07300 41.10900
H  -18.23400 36.73400 42.28000
H  -17.06900 36.51000 43.53600
H  -17.05300 35.44300 42.04600
H  -13.64400 33.25100 43.32200
H  -12.76000 34.02400 44.63600
H  -11.99500 32.58000 43.85800
H  -8.39200 33.86700 40.12400
H  -5.55900 36.44400 43.68400
H  -4.79500 36.06500 42.08900
H  -5.22000 34.80600 43.27800

