158

Mg 42.26600 41.52100 26.95300
C  41.14500 43.87200 29.37800
C  43.06800 39.49500 29.54600
C  43.50200 39.43400 24.67000
C  42.26200 44.08600 24.60200
N  42.22700 41.73300 29.29200
C  41.61100 42.67400 29.95200
C  41.43200 42.25100 31.42000
C  42.17400 40.84300 31.47400
C  42.55200 40.69200 30.01400
C  43.37000 40.70400 32.44900
C  39.96900 42.05200 31.90000
C  39.39300 43.10100 32.89900
H  38.94700 42.61200 34.27500
N  43.10500 39.65500 27.08100
C  43.34100 39.01900 28.26500
C  43.88600 37.65200 27.94100
C  43.96500 37.65600 26.44600
C  43.46100 38.93200 25.95600
C  44.31000 36.69600 29.01300
C  44.42800 36.55600 25.57400
O  44.64400 36.70100 24.34400
C  44.57400 35.16600 26.12100
N  42.61800 41.62400 24.87500
C  43.16900 40.65700 24.15200
C  43.50700 41.05500 22.70900
C  42.91500 42.52900 22.66800
C  42.61500 42.79000 24.17600
C  44.90600 40.97600 22.26900
C  41.67000 42.71200 21.75700
C  40.34200 42.03900 22.17400
N  41.73400 43.55600 26.94800
C  41.77200 44.44800 25.87400
C  41.20800 45.70800 26.30800
C  40.83800 45.49500 27.64900
C  41.18400 44.13900 27.99300
C  41.07500 46.97200 25.45400
C  40.17900 46.09800 28.74100
O  39.78200 47.27200 28.90200
C  40.43900 45.08200 30.01400
C  41.28600 45.74900 31.05200
O  42.50100 45.82100 30.96800
O  40.50700 46.29900 32.08800
C  41.25300 46.95900 33.10600
H  43.26600 38.78900 30.35500
H  43.79600 38.74500 23.87600
H  42.18700 44.90500 23.88400
H  42.08700 42.86400 32.03900
H  41.58900 39.96500 31.74600
H  44.26500 40.96100 31.88400
H  43.55000 39.67000 32.74400
H  43.14000 41.25300 33.36200
H  39.89400 41.05100 32.32600
H  39.27400 42.03700 31.06000
H  38.50300 43.56200 32.47100
H  40.01700 43.99200 32.96400
H  43.53500 35.93000 29.04200
H  44.55200 37.25900 29.91500
H  45.22600 36.31000 28.56600
H  45.56400 35.21500 26.57500
H  44.60900 34.36000 25.38700
H  43.81900 34.81400 26.82500
H  42.98500 40.46800 21.95400
H  43.62300 43.31000 22.39100
H  45.35800 41.96400 22.34800
H  44.96200 40.61000 21.24400
H  45.43800 40.29200 22.93100
H  41.91600 42.37300 20.75100
H  41.38800 43.75400 21.60700
H  40.49900 41.51800 23.11800
H  39.95300 41.21400 21.57700
H  39.53700 42.75400 22.34300
H  40.19200 46.94400 24.81600
H  41.92900 47.08100 24.78500
H  40.95800 47.82700 26.12000
H  39.56900 44.78600 30.60200
H  41.66900 46.23200 33.80400
H  40.58800 47.57200 33.71500
H  41.92400 47.67900 32.63800
Mg 27.11500 50.27400 25.46500
C  25.09100 51.45900 28.17200
C  29.25300 49.05600 27.71300
C  29.27600 49.70700 22.93500
C  25.05400 52.12100 23.34700
N  27.13500 50.16000 27.72900
C  26.17000 50.72000 28.64400
C  26.52800 50.24300 30.03200
C  28.03600 49.71800 29.87300
C  28.17800 49.61400 28.32900
C  29.09000 50.70200 30.48300
C  25.50500 49.12000 30.49900
C  25.04700 49.29500 31.98300
H  25.87900 49.99700 33.04300
N  28.99700 49.40300 25.35400
C  29.72200 48.94100 26.39800
C  31.04600 48.49100 25.90500
C  31.04900 48.62800 24.47800
C  29.75800 49.34700 24.20900
C  31.97000 47.76200 26.78800
C  32.08300 48.21000 23.43900
O  31.92000 48.48900 22.26100
C  33.37200 47.44800 23.81600
N  27.22900 50.94000 23.42200
C  28.17200 50.47400 22.52300
C  27.80700 50.74800 21.03700
C  26.39700 51.30000 21.20700
C  26.15400 51.46500 22.75100
C  28.91900 51.64200 20.28500
C  25.32400 50.34600 20.48100
C  24.75700 51.01500 19.25100
N  25.42600 51.52900 25.65300
C  24.67100 52.18100 24.70700
C  23.52000 52.85900 25.32200
C  23.69700 52.64100 26.69800
C  24.84300 51.79300 26.84100
C  22.39700 53.63600 24.55900
C  23.15900 52.95100 27.96800
O  22.06300 53.52600 28.17800
C  23.98800 52.15000 28.94300
C  24.39400 53.01800 30.00400
O  25.36700 53.75100 30.02900
O  23.52600 52.78800 31.06700
C  23.83400 53.39900 32.38900
H  30.02400 48.75600 28.42500
H  29.82500 49.57700 22.00000
H  24.31100 52.49800 22.64100
H  26.50600 51.11700 30.68400
H  28.07400 48.78600 30.43800
H  29.41400 50.30000 31.44200
H  28.66200 51.67200 30.73600
H  29.93500 50.71900 29.79400
H  25.97000 48.14500 30.35000
H  24.59200 49.22700 29.91300
H  24.88100 48.35300 32.50600
H  24.06900 49.77400 31.93400
H  31.74300 47.65000 27.84900
H  32.93000 48.27300 26.71200
H  32.15100 46.77000 26.37400
H  33.08000 46.43000 24.07500
H  33.93900 47.87800 24.64100
H  33.97800 47.27600 22.92600
H  27.76500 49.77300 20.55100
H  26.34500 52.32300 20.83600
H  28.53600 52.65900 20.20200
H  29.18300 51.21600 19.31700
H  29.85600 51.73300 20.83500
H  24.46100 50.28200 21.14500
H  25.57200 49.34700 20.12300
H  25.31300 51.90900 18.96900
H  23.84300 51.43400 19.67400
H  24.55500 50.43200 18.35300
H  22.64300 53.86000 23.52100
H  22.45500 54.57700 25.10600
H  21.50900 53.00700 24.61800
H  23.44100 51.32700 29.40200
H  24.80000 53.04700 32.75100
H  22.99500 53.10700 33.02100
H  23.83700 54.48800 32.34200

