158

Mg 36.05500 2.48700 30.28600
C  33.41300 3.44900 32.34800
C  38.22500 2.48100 32.99900
C  38.56400 1.34900 28.26900
C  33.80200 2.31800 27.59200
N  35.82900 2.88000 32.39700
C  34.62500 3.21300 33.01400
C  34.86300 3.31300 34.53800
C  36.40300 3.40300 34.63800
C  36.90200 2.88000 33.21300
C  36.74400 4.89100 34.74100
C  34.19500 2.03000 35.20400
C  33.69100 2.05100 36.65100
H  34.34100 3.07500 37.66200
N  38.11300 2.00800 30.54400
C  38.78800 2.08500 31.73700
C  40.14700 1.72900 31.55700
C  40.24800 1.40300 30.19900
C  38.96700 1.57600 29.59300
C  41.12400 1.57300 32.70900
C  41.45300 0.91200 29.44000
O  41.43000 0.64300 28.23400
C  42.77900 0.76400 30.13100
N  36.21600 2.12500 28.15800
C  37.27900 1.51200 27.63800
C  37.02000 1.07100 26.17400
C  35.48100 1.09900 26.09200
C  35.16400 1.92200 27.35700
C  37.68000 2.03700 25.10800
C  34.78100 -0.25400 26.17800
C  33.95000 -0.57900 24.89700
N  34.10700 3.05700 29.89300
C  33.32000 2.92300 28.80200
C  31.90600 3.23300 29.17300
C  31.94700 3.47700 30.57500
C  33.29200 3.37600 30.91400
C  30.70800 3.13300 28.30100
C  31.15000 3.88700 31.71900
O  29.99200 4.23900 31.85200
C  32.11400 3.80000 32.91400
C  31.98100 5.14300 33.58600
O  32.38900 6.16300 33.21500
O  31.55100 4.91900 34.84600
C  31.79500 6.01500 35.79800
H  38.83100 2.61400 33.89800
H  39.23700 0.87000 27.55500
H  32.99400 2.04300 26.91100
H  34.35800 4.18600 34.95300
H  36.69800 2.88400 35.55100
H  37.54500 5.16100 34.05200
H  36.97800 5.17100 35.76800
H  35.89300 5.54100 34.53600
H  34.88200 1.20600 35.01500
H  33.36800 1.70800 34.57000
H  33.58100 1.06300 37.09600
H  32.69000 2.41800 36.42200
H  40.61700 1.36100 33.65100
H  41.53100 2.55900 32.93100
H  42.02400 0.98100 32.54900
H  43.08700 1.63500 30.70800
H  43.53000 0.59600 29.36000
H  42.81000 -0.18600 30.66500
H  37.38400 0.05400 26.03300
H  35.11800 1.71400 25.26800
H  37.08500 2.09800 24.19700
H  38.64500 1.67300 24.75600
H  37.61500 3.06100 25.47700
H  33.95900 -0.19700 26.89300
H  35.47400 -1.04000 26.47700
H  33.82000 -1.64400 24.70600
H  34.52800 -0.17600 24.06500
H  33.03300 -0.00000 24.77700
H  30.68900 2.18600 27.76200
H  30.81300 3.93200 27.56700
H  29.76700 3.17700 28.85000
H  31.68000 2.93500 33.41500
H  30.94000 6.68700 35.86200
H  32.70400 6.56000 35.54500
H  31.94500 5.55900 36.77700
Mg -10.35700 17.00500 40.89800
C  -6.88400 16.42300 40.73800
C  -9.69900 20.20900 40.44200
C  -13.62200 17.41100 40.44400
C  -10.89300 13.52600 40.89900
N  -8.44400 18.16900 40.82200
C  -7.20700 17.74400 40.59300
C  -6.24200 18.98600 40.45000
C  -7.14400 20.19700 40.84300
C  -8.51400 19.52300 40.79700
C  -6.88900 20.74800 42.22400
C  -5.65600 19.05900 38.98100
C  -4.20600 18.51600 38.84600
H  -3.86100 17.68200 37.59800
N  -11.50700 18.55400 40.35400
C  -11.05100 19.83400 40.24100
C  -12.17400 20.65000 39.92900
C  -13.33600 19.86200 39.89400
C  -12.87300 18.57800 40.24300
C  -12.11500 22.10500 39.60200
C  -14.78500 20.37600 39.58800
O  -14.95700 21.55600 39.20600
C  -15.97100 19.50000 39.67300
N  -11.99200 15.67300 40.76600
C  -13.23400 16.11800 40.67900
C  -14.31800 15.00100 40.75300
C  -13.35900 13.72000 40.62600
C  -11.94800 14.34400 40.77500
C  -15.06400 15.16500 42.09000
C  -13.46400 12.92100 39.23400
C  -12.90200 13.64500 38.03100
N  -9.15900 15.26200 40.97800
C  -9.51700 13.92700 41.08100
C  -8.25400 13.14500 41.24100
C  -7.21800 14.05000 40.98000
C  -7.81300 15.36300 40.92200
C  -8.22000 11.66900 41.31900
C  -5.74800 14.27100 40.85000
O  -4.79900 13.48000 40.85000
C  -5.55400 15.76700 40.76800
C  -4.86700 16.13200 42.04100
O  -3.93200 16.91400 42.15900
O  -5.54000 15.44200 43.05300
C  -5.22900 15.63800 44.45300
H  -9.59000 21.27400 40.22500
H  -14.69000 17.41200 40.21700
H  -11.07800 12.45200 40.96900
H  -5.34800 18.94300 41.07200
H  -7.15200 21.01100 40.11800
H  -6.06500 21.45900 42.16100
H  -6.57600 19.97500 42.92600
H  -7.78800 20.99200 42.79000
H  -5.71500 20.04200 38.51400
H  -6.25400 18.37100 38.38400
H  -3.78900 18.10300 39.76500
H  -3.71600 19.48600 38.75400
H  -12.69000 22.32400 38.70200
H  -11.16300 22.62700 39.70200
H  -12.77100 22.57400 40.33600
H  -16.88300 20.08100 39.53000
H  -15.95400 19.12000 40.69500
H  -15.84000 18.62700 39.03400
H  -14.99400 15.08600 39.90200
H  -13.58500 13.00300 41.41500
H  -16.01700 15.61700 41.81400
H  -14.55600 15.93400 42.67200
H  -15.24900 14.25200 42.65700
H  -14.51800 12.64600 39.17900
H  -12.94600 11.98700 39.45400
H  -13.44200 13.48400 37.09800
H  -11.84300 13.47800 37.83100
H  -12.86300 14.71400 38.23900
H  -7.26700 11.26700 40.97500
H  -8.98200 11.33100 40.61700
H  -8.27000 11.30300 42.34500
H  -4.88300 16.02000 39.94700
H  -5.43800 14.73100 45.02100
H  -5.89800 16.43100 44.78900
H  -4.24000 16.04400 44.66300

