158

Mg 24.71700 1.12400 30.20900
C  26.78700 0.91700 32.97100
C  22.06700 1.52100 32.36000
C  22.66700 0.63800 27.52100
C  27.43200 0.23900 28.21300
N  24.48000 1.17600 32.50200
C  25.47200 1.11900 33.37500
C  24.99300 1.68300 34.71500
C  23.44400 1.44400 34.58700
C  23.30600 1.34400 33.07000
C  22.98600 0.04300 35.20800
C  25.56100 3.11000 35.10600
C  26.40000 3.19200 36.45400
H  25.98300 4.17500 37.54300
N  22.70100 1.06400 30.00500
C  21.73300 1.32400 30.98200
C  20.47000 1.41500 30.35000
C  20.62900 0.98100 28.99100
C  22.06500 0.94200 28.77900
C  19.20300 1.73700 31.10000
C  19.60700 0.75000 27.95300
O  19.93000 0.51900 26.79400
C  18.22500 0.68800 28.27000
N  25.00800 0.35900 28.23700
C  24.03300 0.52500 27.31700
C  24.56200 0.39800 25.88400
C  26.08200 0.15300 26.07500
C  26.20700 0.25200 27.56900
C  23.85000 -0.49300 24.87000
C  26.93200 1.15400 25.22700
C  26.44500 1.23500 23.78000
N  26.68700 0.63400 30.46900
C  27.71800 0.45500 29.56300
C  28.99700 0.32700 30.26500
C  28.68300 0.51500 31.64100
C  27.25800 0.69500 31.67200
C  30.39200 0.10500 29.75500
C  29.27900 0.65800 32.97800
O  30.44800 0.54600 33.40600
C  28.06500 0.96100 33.87600
C  28.07900 -0.18600 34.80300
O  27.46900 -1.22300 34.65500
O  28.86200 0.15100 35.88700
C  28.73800 -0.74800 37.01600
H  21.22700 1.86900 32.96500
H  22.09100 0.83500 26.61500
H  28.26700 0.09600 27.52400
H  25.37900 1.05500 35.51800
H  22.99700 2.33600 35.02400
H  23.84400 -0.59200 35.43200
H  22.41300 -0.51100 34.46400
H  22.41300 0.29900 36.09900
H  24.70500 3.78300 35.04700
H  26.22900 3.32200 34.27100
H  27.39000 3.52800 36.14500
H  26.36700 2.19000 36.88200
H  19.41800 1.72400 32.16800
H  18.35400 1.10500 30.84000
H  18.96900 2.75200 30.77900
H  18.18300 -0.13100 28.98800
H  17.70700 0.42600 27.34800
H  17.84200 1.61700 28.69300
H  24.34600 1.33900 25.37800
H  26.46900 -0.85600 25.93400
H  24.56400 -1.14500 24.36800
H  23.39700 0.11700 24.08800
H  23.03600 -1.02700 25.36000
H  27.97700 0.84800 25.28700
H  26.73600 2.15100 25.62200
H  25.70900 2.01300 23.57800
H  26.00300 0.31600 23.39500
H  27.26300 1.35800 23.07100
H  30.91800 1.05500 29.66700
H  30.37600 -0.34400 28.76100
H  30.83300 -0.53200 30.52100
H  28.01500 1.91200 34.40700
H  28.50900 -1.75000 36.65400
H  28.01100 -0.37400 37.73700
H  29.71900 -0.61400 37.47200
Mg 51.09600 47.04100 42.06700
C  47.86400 48.23400 41.16700
C  50.17000 44.07500 40.73900
C  54.22600 46.13700 42.67600
C  51.84500 50.17600 43.40400
N  49.19800 46.29500 41.08800
C  48.05300 46.94600 40.77100
C  47.09500 46.10100 39.94600
C  47.80500 44.70600 39.97800
C  49.14400 45.05900 40.64800
C  47.05100 43.64600 40.86100
C  46.85500 46.75700 38.52900
C  45.33900 46.85600 38.41000
H  44.69500 46.15100 37.09500
N  52.08500 45.33800 41.72100
C  51.48400 44.19700 41.15200
C  52.51000 43.14500 41.08500
C  53.72400 43.72200 41.61500
C  53.38800 45.09700 42.08800
C  52.30200 41.75400 40.53600
C  55.05500 42.98900 41.72900
O  55.12300 41.84800 41.25100
C  56.20500 43.61700 42.44800
N  52.84900 48.09900 42.84300
C  54.02500 47.49000 42.96100
C  55.05100 48.37800 43.58400
C  54.29300 49.71500 43.77700
C  52.91600 49.33300 43.28500
C  55.76000 47.75000 44.84400
C  54.90400 50.88100 42.93800
C  54.41300 52.35200 43.36600
N  50.12500 48.88100 42.28600
C  50.52100 50.05300 42.88700
C  49.48800 51.06300 42.90000
C  48.41200 50.32100 42.22800
C  48.87000 49.05700 41.85600
C  49.42700 52.45600 43.42200
C  47.05000 50.49500 41.66100
O  46.27700 51.42800 41.69400
C  46.63400 49.12600 40.97900
C  45.47200 48.70900 41.76000
O  45.41900 48.18500 42.85800
O  44.37500 48.92700 40.99600
C  43.10500 48.39400 41.53000
H  49.71800 43.14100 40.39700
H  55.26900 45.90900 42.90600
H  52.02600 51.21600 43.68600
H  46.25500 45.98200 40.63000
H  47.95000 44.35400 38.95600
H  46.71100 42.84400 40.20600
H  46.14900 43.98700 41.37100
H  47.77800 43.28000 41.58600
H  47.31900 46.10400 37.78900
H  47.40900 47.68700 38.39800
H  45.06900 47.90400 38.27700
H  44.78900 46.50500 39.28300
H  53.13200 41.34400 39.96100
H  51.38800 41.82500 39.94600
H  52.15300 41.02400 41.33200
H  57.06200 42.96400 42.60900
H  55.87600 43.77900 43.47400
H  56.53200 44.51700 41.92700
H  55.72600 48.62700 42.76500
H  54.34000 50.01800 44.82300
H  55.47600 46.72400 45.08000
H  55.60400 48.42400 45.68600
H  56.83200 47.72000 44.64600
H  54.53800 50.65600 41.93600
H  55.96900 50.78100 42.72900
H  55.24800 52.98400 43.66600
H  53.78800 52.40600 44.25800
H  53.72500 52.69500 42.59400
H  49.47300 53.09000 42.53600
H  50.34800 52.51700 44.00000
H  48.51700 52.70000 43.97000
H  46.53200 49.25500 39.90100
H  43.06000 48.37900 42.61900
H  42.92200 47.36500 41.22000
H  42.29700 49.01700 41.14600

