158

Mg 35.85500 1.38700 29.55400
C  33.78500 2.22100 32.17100
C  38.54800 1.54700 31.63700
C  37.70200 0.93300 26.87700
C  33.01400 2.11300 27.32500
N  36.04100 1.69700 31.64100
C  35.09600 1.90800 32.59900
C  35.68600 2.14100 33.98600
C  37.21300 2.09000 33.73100
C  37.28800 1.82100 32.24900
C  37.99700 3.33900 34.27600
C  35.19100 1.01900 34.97200
C  34.83100 1.49100 36.43800
H  35.60800 2.66000 36.94700
N  37.84900 1.11900 29.25300
C  38.80900 1.25800 30.26400
C  40.09300 0.96900 29.71000
C  39.84800 0.67700 28.33200
C  38.38800 0.85200 28.12100
C  41.44800 1.09500 30.47300
C  40.86800 0.45900 27.20400
O  40.55500 0.29700 26.03100
C  42.31400 0.43500 27.54700
N  35.47100 1.58000 27.43500
C  36.43000 1.26700 26.55100
C  35.92500 1.24300 25.09900
C  34.43500 1.54100 25.29400
C  34.24700 1.77400 26.73100
C  36.54200 2.18600 24.05100
C  33.48500 0.35800 24.82500
C  33.23500 -0.79100 25.87100
N  33.86300 2.11800 29.61200
C  32.82400 2.30900 28.70400
C  31.62800 2.66800 29.43600
C  31.98500 2.61500 30.77300
C  33.35100 2.29800 30.80600
C  30.45700 3.01400 28.81500
C  31.54500 2.94100 32.10400
O  30.48700 3.45900 32.44700
C  32.66800 2.66000 33.10600
C  32.97700 3.85200 33.81800
O  33.44000 4.88100 33.32500
O  32.62400 3.67000 35.12000
C  32.34800 4.81000 35.93600
H  39.38100 1.58300 32.34200
H  38.25400 0.66400 25.97400
H  32.12800 2.38500 26.74700
H  35.34800 3.15600 34.19500
H  37.60200 1.23400 34.28300
H  38.63100 3.14900 35.14200
H  37.34300 4.15400 34.58400
H  38.60600 3.86900 33.54400
H  36.05000 0.37000 35.14400
H  34.41300 0.49600 34.41600
H  34.94500 0.70000 37.17900
H  33.74900 1.62400 36.42400
H  41.27400 1.27600 31.53400
H  42.05100 1.95000 30.16500
H  42.01000 0.16100 30.45600
H  42.40300 -0.33500 28.31300
H  42.60100 1.33300 28.09300
H  42.81600 0.19900 26.60800
H  36.15600 0.19600 24.90700
H  34.19000 2.46500 24.76900
H  37.21900 2.94800 24.43600
H  35.86700 2.72300 23.38500
H  37.13800 1.61600 23.33900
H  34.10000 -0.20700 24.12400
H  32.53800 0.70600 24.41200
H  33.45000 -0.62700 26.92600
H  33.99400 -1.55000 25.67800
H  32.26500 -1.26900 25.73500
H  30.65600 3.82300 28.11200
H  29.74700 3.43700 29.52600
H  30.17700 2.06500 28.35800
H  32.42900 1.83300 33.77400
H  32.97400 4.68400 36.81900
H  31.29700 4.81500 36.22600
H  32.57600 5.78900 35.51300
Mg -2.65800 34.59900 27.05200
C  -3.60000 32.66300 30.05600
C  -0.99600 36.68300 29.18800
C  -2.08800 36.56800 24.39000
C  -4.60300 32.37800 25.16900
N  -2.30600 34.50600 29.36100
C  -2.69400 33.64000 30.35100
C  -2.22100 34.10200 31.76500
C  -1.57800 35.57700 31.41000
C  -1.64700 35.59500 29.87300
C  -2.26200 36.75800 32.15900
C  -1.32100 33.02900 32.42700
C  -1.82000 32.57800 33.76000
H  -0.78800 32.66600 34.88000
N  -1.64600 36.37200 26.80000
C  -0.96500 37.05200 27.77900
C  -0.35100 38.25400 27.21200
C  -0.62500 38.22100 25.77000
C  -1.46700 37.01400 25.57500
C  0.42200 39.22900 27.96200
C  -0.11900 39.11100 24.58900
O  -0.59000 39.09300 23.42700
C  0.88900 40.12600 24.93500
N  -3.29200 34.46400 25.09800
C  -2.97000 35.43200 24.16200
C  -3.45100 35.09700 22.82500
C  -4.19100 33.75400 22.98400
C  -4.08500 33.50500 24.52500
C  -4.30700 36.23400 22.14200
C  -3.62900 32.54900 22.21100
C  -2.40900 31.80900 22.89500
N  -3.77900 32.80200 27.48800
C  -4.47400 31.98700 26.57100
C  -5.18600 30.90900 27.28100
C  -4.91100 31.21200 28.64100
C  -4.04500 32.31900 28.70700
C  -6.06000 29.89900 26.64900
C  -5.18800 30.78700 29.96300
O  -5.86300 29.86800 30.39300
C  -4.44000 31.78800 30.95000
C  -5.48300 32.53400 31.68800
O  -6.31400 33.37300 31.21600
O  -5.34100 32.23500 32.97700
C  -6.15000 33.07700 33.84200
H  -0.36800 37.29400 29.84000
H  -2.04200 37.18600 23.49100
H  -5.21500 31.69700 24.57300
H  -3.20000 34.22000 32.23100
H  -0.51700 35.58600 31.65900
H  -2.61400 37.59000 31.54900
H  -1.68100 37.18200 32.97800
H  -3.12300 36.37900 32.71100
H  -0.27300 33.32100 32.49400
H  -1.33100 32.21800 31.69900
H  -2.04700 31.52000 33.62700
H  -2.75000 33.08500 34.01700
H  0.28200 40.23600 27.57100
H  1.48100 38.98100 28.03400
H  0.22400 39.21300 29.03400
H  0.33800 40.87800 25.50100
H  1.24400 40.63500 24.03900
H  1.78900 39.82400 25.47000
H  -2.56200 34.87800 22.23200
H  -5.24800 33.79900 22.72100
H  -3.62900 36.64700 21.39500
H  -4.45200 37.01500 22.88800
H  -5.23500 35.93400 21.65500
H  -3.27500 32.84500 21.22400
H  -4.39300 31.79500 22.02200
H  -1.62300 31.88500 22.14400
H  -2.83500 30.80800 22.96500
H  -2.02200 32.00800 23.89500
H  -5.70500 29.56700 25.67300
H  -7.06900 30.29700 26.53500
H  -6.26800 29.05500 27.30600
H  -3.79800 31.24300 31.64300
H  -7.10500 33.42400 33.44800
H  -5.69600 34.01500 34.16100
H  -6.46200 32.55600 34.74700

