158

Mg 47.95000 16.41100 28.97500
C  45.82900 15.98200 31.68500
C  50.04400 18.17700 30.76800
C  49.71800 16.92400 26.12700
C  45.33100 15.00300 26.90400
N  47.84700 17.18000 30.98100
C  47.00100 16.76500 31.96200
C  47.61000 17.03300 33.41700
C  48.69200 18.05800 33.01600
C  48.85100 17.85300 31.47900
C  48.40300 19.54000 33.26800
C  48.07300 15.69200 34.11900
C  47.58700 15.49700 35.59500
H  47.26700 16.71000 36.44400
N  49.72700 17.28800 28.55100
C  50.49500 17.92700 29.45400
C  51.75200 18.28900 28.83500
C  51.67500 17.91100 27.45900
C  50.37700 17.31500 27.29300
C  52.90700 18.90600 29.69600
C  52.77600 18.16700 26.37700
O  52.69300 17.75400 25.26300
C  53.94700 18.88100 26.78500
N  47.53600 15.98000 26.86400
C  48.45600 16.41400 25.87800
C  47.89100 16.17900 24.44300
C  46.55500 15.45500 24.70300
C  46.44300 15.49100 26.26500
C  47.89900 17.41100 23.59700
C  46.46300 14.04500 24.09600
C  45.59800 13.78000 22.85400
N  46.03500 15.61300 29.18500
C  45.12500 15.08100 28.30900
C  43.99700 14.58800 29.02000
C  44.17800 14.92100 30.40000
C  45.44200 15.57000 30.42700
C  42.80100 13.94500 28.43600
C  43.64100 14.86600 31.72200
O  42.61200 14.31100 32.11900
C  44.71400 15.54000 32.66200
C  44.09300 16.66800 33.49800
O  43.71300 17.75200 33.04600
O  43.91900 16.32800 34.81500
C  43.32500 17.47600 35.58900
H  50.71800 18.74400 31.41400
H  50.32500 17.20700 25.26400
H  44.47300 14.61500 26.35200
H  46.83700 17.51500 34.01600
H  49.61200 17.82300 33.55100
H  49.17600 19.97900 33.89800
H  47.44100 19.72500 33.74600
H  48.47100 20.06100 32.31300
H  49.14900 15.56200 33.99600
H  47.54900 14.88200 33.61200
H  48.34500 15.00100 36.20000
H  46.76200 14.78500 35.63800
H  53.78600 18.26200 29.68000
H  52.52100 18.91500 30.71500
H  53.17500 19.92600 29.41800
H  53.83000 19.80900 27.34600
H  54.60100 19.02000 25.92500
H  54.54300 18.25200 27.44600
H  48.55600 15.53900 23.86200
H  45.69200 16.01600 24.34700
H  48.52100 18.25300 23.90000
H  46.89000 17.61700 23.23900
H  48.43400 17.16500 22.68000
H  46.17600 13.37200 24.90300
H  47.40600 13.58400 23.80200
H  44.91600 14.61100 22.67200
H  45.05100 12.84400 22.96800
H  46.24800 13.67200 21.98600
H  42.61400 14.33700 27.43600
H  41.95400 14.03200 29.11600
H  43.02400 12.88200 28.34400
H  44.92300 14.76200 33.39800
H  43.74400 18.41900 35.23700
H  43.59000 17.35400 36.63900
H  42.24000 17.54700 35.51100
Mg -11.72000 37.08700 42.26000
C  -9.52300 34.49400 41.27800
C  -9.54100 39.40300 40.89800
C  -14.06700 39.48400 42.43200
C  -13.91400 34.77000 43.39800
N  -9.73900 36.83000 41.09700
C  -9.07900 35.75400 40.71800
C  -7.92100 36.04400 39.86300
C  -7.73700 37.59500 39.98700
C  -9.10000 38.02200 40.71600
C  -6.54000 38.09800 40.82700
C  -8.23000 35.48200 38.47300
C  -7.27800 34.37600 37.93700
H  -6.16300 34.75800 37.00800
N  -11.78200 39.12500 41.69700
C  -10.75200 39.92000 41.36700
C  -11.20400 41.24300 41.28900
C  -12.54400 41.25900 41.51200
C  -12.88100 39.87900 41.86100
C  -10.24500 42.34700 41.04700
C  -13.55100 42.46900 41.27400
O  -13.09300 43.52700 40.94300
C  -15.08400 42.44000 41.28500
N  -13.85500 37.05900 42.54700
C  -14.48500 38.19900 42.82900
C  -15.88400 37.88000 43.44000
C  -15.81800 36.35800 43.67600
C  -14.45000 36.01400 43.19500
C  -16.13600 38.64700 44.78800
C  -16.91200 35.52000 42.91600
C  -17.73000 34.51000 43.86500
N  -11.72800 35.05400 42.43900
C  -12.64700 34.28600 43.09000
C  -12.04300 32.93300 43.21000
C  -10.89000 32.94800 42.44600
C  -10.70900 34.27800 41.98600
C  -12.60400 31.65300 43.94200
C  -9.75100 32.13800 41.96000
O  -9.57200 30.89500 42.08100
C  -8.82900 33.12200 41.13700
C  -7.51300 33.02000 41.86200
O  -6.92200 31.91900 42.09400
O  -7.11000 34.16500 42.44900
C  -5.94100 34.06500 43.26800
H  -8.89400 40.18600 40.49800
H  -14.72700 40.33300 42.62600
H  -14.56100 34.10600 43.97600
H  -7.05500 35.51400 40.26100
H  -7.71600 38.01900 38.98300
H  -6.04600 37.33500 41.42900
H  -6.78100 38.87100 41.55700
H  -5.76400 38.51100 40.18200
H  -8.20100 36.34600 37.80800
H  -9.14300 34.88700 38.48600
H  -7.90600 33.67300 37.39000
H  -6.82000 33.79100 38.73400
H  -9.19600 42.14000 41.25900
H  -10.50000 43.05400 41.83600
H  -10.34000 42.84300 40.08100
H  -15.41800 41.53200 40.78400
H  -15.46400 43.40400 40.94500
H  -15.51000 42.39900 42.28700
H  -16.63800 38.18000 42.71300
H  -15.77600 36.06000 44.72300
H  -15.38100 39.40200 45.01000
H  -16.15200 37.94300 45.62100
H  -17.06600 39.17900 44.59000
H  -16.61600 35.18300 41.92200
H  -17.66900 36.28700 42.75200
H  -18.43600 35.20300 44.32400
H  -17.14600 34.07400 44.67500
H  -18.26900 33.79200 43.24600
H  -11.78500 31.24400 44.53400
H  -12.91400 30.86600 43.25400
H  -13.29500 31.95100 44.73100
H  -8.65600 32.78600 40.11500
H  -5.13700 33.65400 42.65700
H  -6.11700 33.28200 44.00500
H  -5.70400 34.97500 43.82000

