158

Mg 1.97800 41.61800 25.18500
C  2.52500 42.15600 28.52500
C  -0.95000 40.01000 25.92700
C  1.46100 41.30000 21.88400
C  5.19600 42.73400 24.56900
N  0.75100 41.30200 27.05300
C  1.26300 41.56000 28.26200
C  0.26000 41.17400 29.32700
C  -0.74000 40.17200 28.58000
C  -0.36600 40.54000 27.11300
C  -0.72100 38.68900 28.98200
C  -0.49100 42.32400 29.97500
C  -0.32600 42.64700 31.46400
H  -0.86800 41.64500 32.47400
N  0.34700 40.84100 24.08400
C  -0.72300 40.18600 24.54400
C  -1.57200 39.79800 23.42900
C  -0.94200 40.26300 22.20000
C  0.32300 40.86600 22.65100
C  -2.95000 39.27600 23.69100
C  -1.57200 40.33500 20.83300
O  -1.01100 40.81400 19.83900
C  -2.88900 39.72500 20.62300
N  3.25100 41.72700 23.50300
C  2.72200 41.73100 22.28000
C  3.77200 42.17300 21.24300
C  4.92400 42.78300 22.09600
C  4.40800 42.44600 23.45800
C  4.14500 41.05800 20.28200
C  5.04400 44.34100 21.73000
C  3.72600 45.24900 21.89900
N  3.63300 42.19500 26.29600
C  4.85600 42.67000 25.86600
C  5.68400 43.00600 27.09100
C  4.73300 42.88100 28.10600
C  3.50700 42.47400 27.58500
C  7.10300 43.52900 27.08800
C  4.57900 43.09400 29.53200
O  5.32100 43.56500 30.38900
C  3.13100 42.56700 29.86000
C  3.34900 41.27500 30.61000
O  4.05400 40.39300 30.27400
O  2.66500 41.29900 31.82000
C  2.83500 40.13000 32.71400
H  -1.87200 39.47400 26.16100
H  1.27200 41.29800 20.80800
H  6.14200 43.21200 24.30400
H  0.76700 40.61900 30.11600
H  -1.75200 40.56900 28.66500
H  0.00900 38.52200 29.77400
H  -0.46800 38.02700 28.15400
H  -1.67700 38.27200 29.29900
H  -1.56600 42.25800 29.80700
H  -0.24400 43.18400 29.35300
H  -0.77800 43.62600 31.62700
H  0.74500 42.64100 31.66300
H  -3.68100 40.03500 23.40900
H  -3.10300 38.98300 24.72900
H  -3.09200 38.40900 23.04600
H  -3.64100 40.08500 21.32500
H  -2.70600 38.65300 20.69900
H  -3.17000 39.88000 19.58200
H  3.27500 42.96900 20.68800
H  5.87600 42.32000 21.83500
H  5.08500 41.08800 19.73100
H  3.35000 40.91300 19.55000
H  4.22900 40.12900 20.84500
H  5.57100 44.50300 20.79000
H  5.77200 44.70200 22.45600
H  3.88000 45.98200 22.69100
H  2.85800 44.60700 22.05000
H  3.58000 45.83100 20.98900
H  7.82800 42.71600 27.12800
H  7.10400 44.16800 27.97100
H  7.30300 44.13400 26.20400
H  2.68700 43.33400 30.49500
H  2.88000 39.14800 32.24200
H  1.95000 40.06000 33.34700
H  3.70400 40.24100 33.36300
Mg -0.37200 33.61200 27.06500
C  -2.44000 31.95800 29.44700
C  0.95000 35.43100 29.65400
C  0.72700 35.84400 24.84600
C  -2.29100 32.04800 24.59400
N  -0.75200 33.73600 29.24900
C  -1.50100 32.85000 30.03400
C  -1.37600 33.14500 31.52400
C  -0.32300 34.34600 31.57900
C  -0.04200 34.54100 30.03800
C  -0.65100 35.72400 32.35600
C  -0.93800 31.92800 32.37000
C  -1.81500 31.54800 33.55700
H  -1.15100 31.88700 34.93500
N  0.89200 35.32000 27.20700
C  1.39200 35.82500 28.40000
C  2.22200 37.02700 27.92700
C  2.22900 37.01100 26.48800
C  1.23400 36.04900 26.11300
C  2.67400 38.07600 28.88500
C  3.03700 37.88000 25.58300
O  2.88900 37.90500 24.35000
C  4.11700 38.71700 26.07200
N  -0.58500 33.89700 25.05200
C  -0.13700 34.92600 24.40900
C  -0.52000 34.89400 22.92900
C  -1.20800 33.50700 22.80000
C  -1.31900 33.02200 24.23700
C  -1.31900 36.05300 22.35800
C  -0.58200 32.49000 21.82900
C  0.39700 31.40200 22.47100
N  -2.00000 32.16700 26.96300
C  -2.62800 31.61900 25.90100
C  -3.53500 30.58400 26.34400
C  -3.51400 30.68800 27.71000
C  -2.55500 31.67500 28.06400
C  -4.36000 29.70100 25.33500
C  -4.20900 30.21800 28.87300
O  -5.15700 29.49100 29.07600
C  -3.38000 30.91000 30.06600
C  -4.43500 31.63600 30.80600
O  -4.88800 32.73000 30.40400
O  -4.84600 30.91200 31.86300
C  -5.87100 31.59200 32.67400
H  1.44800 35.87500 30.51800
H  1.03900 36.59300 24.11500
H  -2.85100 31.53600 23.80900
H  -2.35000 33.48300 31.87600
H  0.62800 34.05600 32.02700
H  0.08700 35.90200 33.13700
H  -1.52100 35.51700 32.97900
H  -0.67400 36.66700 31.80900
H  0.09300 32.19400 32.60200
H  -0.88700 31.01900 31.76900
H  -1.82000 30.46800 33.41200
H  -2.83100 31.93100 33.47100
H  3.74500 38.03700 29.08600
H  2.14200 37.87000 29.81300
H  2.47100 39.07800 28.50900
H  4.75100 39.26000 25.37200
H  4.70900 37.95100 26.57300
H  3.74900 39.43900 26.80200
H  0.45900 34.70400 22.49000
H  -2.18900 33.66700 22.35200
H  -0.76500 36.56400 21.57100
H  -1.46600 36.83400 23.10400
H  -2.28300 35.66700 22.02500
H  -0.05700 33.03000 21.04100
H  -1.39600 32.07800 21.23400
H  -0.17900 30.49300 22.64400
H  0.77700 31.75000 23.43100
H  1.17300 31.11000 21.76300
H  -3.68500 29.45200 24.51600
H  -5.13600 30.32200 24.88700
H  -4.79600 28.85500 25.86700
H  -2.89900 30.33200 30.85500
H  -6.55700 32.25400 32.14500
H  -5.41400 32.17200 33.47600
H  -6.56200 30.86800 33.10500

