158

Mg 46.79300 15.81700 27.85900
C  44.48400 15.72800 30.70700
C  48.92700 17.60100 29.81800
C  48.62400 16.51100 25.13100
C  44.13800 14.72500 25.84600
N  46.57400 16.70300 29.97100
C  45.67800 16.46400 30.97400
C  46.11600 17.02700 32.32900
C  47.42000 17.83500 31.98900
C  47.70600 17.29900 30.50600
C  47.27800 19.35500 31.92500
C  46.28700 15.85400 33.35400
C  45.62200 15.97600 34.75900
H  45.63100 17.31400 35.34300
N  48.48900 16.90800 27.56700
C  49.31300 17.47300 28.53300
C  50.55400 18.05000 27.86600
C  50.40800 17.83100 26.47900
C  49.11300 16.98900 26.35400
C  51.66600 18.75900 28.59000
C  51.24200 18.36500 25.35500
O  50.88300 18.26000 24.21000
C  52.54700 19.16900 25.65900
N  46.39200 15.82600 25.74200
C  47.39100 15.96200 24.87500
C  46.94900 15.49200 23.46300
C  45.58800 14.78900 23.71600
C  45.30200 15.14100 25.16900
C  46.77700 16.75900 22.47300
C  45.45800 13.29600 23.49100
C  46.11800 12.36800 24.51900
N  44.76900 15.19100 28.17900
C  43.84300 14.84600 27.24900
C  42.60200 14.44700 27.90100
C  42.81000 14.66900 29.31600
C  44.09300 15.22100 29.37300
C  41.35800 13.84500 27.22200
C  42.27200 14.59200 30.65400
O  41.20900 14.13300 31.05600
C  43.31700 15.28800 31.61500
C  42.60600 16.43200 32.17300
O  42.70200 17.60100 31.84600
O  41.98100 15.99100 33.29800
C  41.55700 17.01400 34.18900
H  49.51900 18.27400 30.44200
H  49.25200 16.53800 24.23900
H  43.39600 14.26300 25.19200
H  45.27900 17.55500 32.78500
H  48.25000 17.61000 32.65900
H  46.47900 19.62500 32.61500
H  47.07500 19.62800 30.88900
H  48.22400 19.79000 32.24500
H  47.34300 15.75100 33.60500
H  45.87300 14.94700 32.91300
H  46.28700 15.35000 35.35400
H  44.59800 15.60900 34.81700
H  52.47500 18.02900 28.59600
H  51.40500 19.14600 29.57500
H  51.94300 19.63000 27.99600
H  53.19800 18.63900 26.35400
H  52.16700 20.11300 26.04900
H  53.05000 19.44200 24.73100
H  47.62700 14.75800 23.02600
H  44.81200 15.28000 23.12900
H  45.79700 16.85000 22.00400
H  47.46600 16.63000 21.63900
H  47.03900 17.69800 22.96000
H  46.11100 13.12900 22.63400
H  44.43300 13.00300 23.26500
H  46.56600 12.93600 25.33400
H  46.90700 11.75200 24.08900
H  45.40700 11.66100 24.94800
H  41.40200 14.19500 26.19100
H  40.43300 14.29900 27.57900
H  41.33400 12.75500 27.20900
H  43.58500 14.69600 32.49100
H  41.44400 16.68500 35.22200
H  40.61700 17.31900 33.73000
H  42.16700 17.89400 34.39800
Mg 48.12600 34.46400 27.38100
C  46.07200 32.72200 29.66900
C  48.26600 37.03100 29.40900
C  49.59000 36.15300 24.91000
C  47.52300 31.65700 25.06800
N  47.29200 34.82200 29.30300
C  46.53200 33.95500 30.14500
C  46.33300 34.51300 31.52800
C  46.84100 36.01200 31.37400
C  47.55400 35.99600 30.02100
C  45.73300 37.03600 31.37400
C  47.03900 33.67400 32.63000
C  48.02700 34.42900 33.50900
H  47.50200 35.36400 34.65100
N  48.93600 36.31700 27.23300
C  48.94700 37.25000 28.25300
C  49.60700 38.39500 27.74200
C  49.99100 38.20300 26.40500
C  49.46900 36.87200 26.10000
C  49.74600 39.61700 28.50800
C  50.86800 39.03300 25.49300
O  51.10100 38.73600 24.32300
C  51.52700 40.30900 25.93100
N  48.46100 33.97800 25.31000
C  49.17000 34.89000 24.51800
C  49.58400 34.20800 23.18000
C  48.95100 32.82900 23.29600
C  48.30800 32.75100 24.67000
C  49.23100 35.00600 21.82100
C  49.83300 31.58200 22.93000
C  51.10200 31.26900 23.83800
N  47.13900 32.46300 27.35300
C  46.95800 31.51300 26.36700
C  46.15900 30.46400 26.86400
C  45.68900 30.91700 28.13700
C  46.36200 32.15100 28.41800
C  45.75200 29.25700 26.17300
C  44.93800 30.56300 29.23600
O  44.17500 29.57400 29.50100
C  44.99800 31.73400 30.23100
C  45.10800 31.13500 31.53900
O  45.95100 30.21600 31.86500
O  44.17400 31.72000 32.38300
C  44.11600 31.12000 33.75100
H  48.28600 37.86500 30.11300
H  50.03900 36.74400 24.10900
H  47.45100 30.82600 24.36300
H  45.26600 34.63100 31.71700
H  47.61200 36.34200 32.06900
H  44.73000 36.73100 31.67200
H  45.56200 37.44700 30.37900
H  45.89800 37.79300 32.14100
H  47.67000 32.86200 32.27000
H  46.29300 33.24400 33.29900
H  48.73300 34.88300 32.81400
H  48.55500 33.72700 34.15400
H  49.38800 40.52700 28.02700
H  50.81500 39.67200 28.71700
H  49.23300 39.45500 29.45500
H  52.15700 40.16300 26.80800
H  50.75300 41.06700 26.05400
H  52.25200 40.61900 25.17900
H  50.67100 34.20900 23.25500
H  48.11900 32.78300 22.59400
H  49.26100 34.40400 20.91200
H  50.00900 35.76200 21.71400
H  48.26000 35.49900 21.86100
H  50.23900 31.74800 21.93200
H  49.08800 30.78600 22.95500
H  51.99100 31.58900 23.29500
H  51.28800 30.30600 24.31400
H  51.11600 32.06600 24.58100
H  45.95900 28.38500 26.79300
H  46.20200 29.04600 25.20300
H  44.69800 29.17700 25.90500
H  44.05300 32.27200 30.16100
H  43.34000 30.36800 33.60700
H  43.71800 31.84500 34.46000
H  45.05300 30.65500 34.05900

