158

Mg 46.48000 44.45300 43.56900
C  42.92700 44.08900 43.60800
C  46.77900 41.17300 42.73900
C  49.64600 45.14100 43.08800
C  45.75800 48.06000 43.57200
N  44.94600 42.78100 43.33800
C  43.56900 42.93200 43.30400
C  42.98700 41.48900 42.94700
C  44.20700 40.68200 42.53300
C  45.42100 41.59000 42.88300
C  44.29900 39.30600 43.16900
C  41.84600 41.45100 41.87300
C  42.08700 41.98400 40.40000
H  41.69900 41.17500 39.06200
N  48.01300 43.26000 43.10000
C  47.97600 41.91200 42.89900
C  49.30600 41.42800 42.79500
C  50.17700 42.52200 43.18900
C  49.33000 43.72400 43.18100
C  49.62400 39.94000 42.58800
C  51.69800 42.51100 43.54900
O  52.43100 41.48300 43.42000
C  52.47900 43.68000 44.19300
N  47.48900 46.29200 43.21100
C  48.84500 46.28400 43.09200
C  49.42100 47.78800 42.90100
C  48.11200 48.69400 42.90700
C  47.04700 47.62700 43.19700
C  50.48600 48.32000 43.97700
C  47.82100 49.57800 41.65900
C  47.37600 50.94400 41.93100
N  44.74400 45.85700 43.78200
C  44.65100 47.22900 43.78500
C  43.33300 47.62600 44.04500
C  42.56200 46.40300 44.00600
C  43.51100 45.34700 43.75500
C  42.78800 49.00600 44.28300
C  41.25300 45.87500 44.08200
O  40.15500 46.42200 44.24500
C  41.40300 44.29700 43.74700
C  40.78800 43.50300 44.85800
O  39.99300 42.55600 44.70200
O  41.22600 43.92900 46.05900
C  40.77700 43.18800 47.22100
H  46.81900 40.22700 42.19500
H  50.72200 45.31600 43.01100
H  45.46200 49.11100 43.57900
H  42.62800 41.06600 43.88500
H  44.23900 40.59500 41.44700
H  44.91500 39.31600 44.06800
H  44.62300 38.56200 42.44100
H  43.32400 38.95100 43.50200
H  40.99600 42.07600 42.14800
H  41.60000 40.39700 41.74700
H  43.15800 42.17200 40.32600
H  41.57400 42.94200 40.31500
H  49.83600 39.76700 41.53300
H  48.87800 39.25300 42.98600
H  50.46600 39.55500 43.16300
H  51.99600 43.95400 45.13100
H  52.48500 44.46100 43.43200
H  53.52200 43.37500 44.28000
H  49.89100 47.75800 41.91800
H  48.07900 49.38200 43.75200
H  50.57500 47.57300 44.76500
H  50.30100 49.27700 44.46500
H  51.50000 48.32100 43.57600
H  47.10300 49.06500 41.01900
H  48.63900 49.73900 40.95700
H  46.70900 51.18800 41.10400
H  48.28500 51.54500 41.90100
H  46.91100 51.02700 42.91300
H  41.89000 48.85700 44.88200
H  42.41400 49.38000 43.33000
H  43.53700 49.59400 44.81300
H  40.88600 44.14500 42.79900
H  41.54300 43.10400 47.99300
H  40.51000 42.15900 46.98000
H  39.92000 43.76600 47.56800
Mg -0.25500 43.28800 24.61100
C  2.02800 42.98700 27.33600
C  -2.73300 42.34800 26.84200
C  -2.33900 43.30800 22.05700
C  2.54400 43.58300 22.42200
N  -0.33500 42.83500 26.87500
C  0.71900 42.82500 27.75000
C  0.28000 42.60300 29.19400
C  -1.27300 42.15100 29.00100
C  -1.49400 42.48300 27.51500
C  -1.66100 40.67400 29.33300
C  0.55400 43.91200 30.05400
C  1.05200 43.63700 31.44100
H  0.80100 42.25400 32.04000
N  -2.27300 43.07600 24.45300
C  -3.05700 42.65400 25.48000
C  -4.38500 42.61700 24.84200
C  -4.40700 42.83200 23.51400
C  -2.92400 43.06500 23.27700
C  -5.56600 42.19500 25.64500
C  -5.54200 42.90400 22.44700
O  -5.35900 43.20800 21.27100
C  -6.92800 42.63800 22.89600
N  0.04600 43.36900 22.55200
C  -0.96400 43.42400 21.68000
C  -0.54900 43.76100 20.19600
C  1.01000 43.91400 20.43000
C  1.21100 43.65700 21.90800
C  -1.05800 42.72700 19.15800
C  1.42100 45.31100 19.90200
C  0.97200 46.51400 20.67700
N  1.85600 43.22100 24.78600
C  2.85400 43.35900 23.80300
C  4.08900 43.38400 24.44400
C  3.85000 43.13000 25.80600
C  2.43800 42.98400 25.97500
C  5.39400 43.46000 23.84400
C  4.48400 42.95700 27.13200
O  5.68100 43.00800 27.46800
C  3.26800 42.97400 28.13700
C  3.49800 41.76300 28.93800
O  2.98800 40.64100 28.71900
O  4.28100 42.17600 30.00000
C  4.65500 41.07200 30.85200
H  -3.50300 42.03500 27.55000
H  -3.03000 43.29500 21.21200
H  3.40800 43.89400 21.83200
H  0.73100 41.66600 29.51900
H  -1.85300 42.93700 29.48300
H  -2.26200 40.70800 30.24200
H  -0.85600 39.99400 29.61300
H  -2.30300 40.24400 28.56500
H  -0.39000 44.45200 30.13500
H  1.17800 44.61000 29.49500
H  0.53500 44.37600 32.05200
H  2.12800 43.78200 31.34400
H  -6.12400 41.44000 25.09200
H  -6.21100 43.06200 25.78700
H  -5.23800 41.82600 26.61700
H  -7.16500 41.57500 22.94300
H  -7.50500 43.10600 22.09900
H  -7.23600 43.23000 23.75800
H  -0.95300 44.75400 20.00400
H  1.55300 43.15700 19.86400
H  -0.22100 42.15400 18.76000
H  -1.52300 43.24900 18.32100
H  -1.75100 41.98900 19.56300
H  1.01200 45.41100 18.89600
H  2.50900 45.33900 19.83800
H  1.85100 46.98700 21.11300
H  0.43400 46.22100 21.57800
H  0.46600 47.23800 20.03900
H  6.05800 43.37600 24.70400
H  5.55500 44.36400 23.25600
H  5.58200 42.70700 23.07800
H  3.30500 43.86800 28.75900
H  5.69200 41.24900 31.13600
H  4.65900 40.03900 30.50400
H  4.05700 41.03100 31.76300

