158

Mg 47.25700 25.22300 29.41500
C  47.74500 27.73400 31.92000
C  46.51200 23.04000 31.83300
C  47.24900 22.84900 27.00400
C  48.80300 27.49000 27.23700
N  47.19800 25.45100 31.56700
C  47.26200 26.54400 32.41200
C  46.97000 26.20400 33.90700
C  46.89100 24.65900 33.79100
C  46.80600 24.33700 32.28200
C  47.98900 23.79800 34.46000
C  45.72300 26.91500 34.51500
C  46.08600 27.84800 35.61700
H  45.17300 28.05200 36.78000
N  46.85800 23.29100 29.41700
C  46.55000 22.53800 30.52400
C  46.06000 21.28700 30.09600
C  46.19100 21.20700 28.65500
C  46.78500 22.54400 28.28800
C  45.64000 20.21900 31.02000
C  45.98300 20.01900 27.69000
O  46.23500 20.07700 26.52900
C  45.50700 18.68300 28.20000
N  47.95100 25.18500 27.48500
C  47.82600 24.11900 26.68200
C  48.30500 24.35200 25.27000
C  48.73600 25.85900 25.28800
C  48.43700 26.22000 26.75800
C  49.62100 23.49900 25.06100
C  47.84700 26.61100 24.28100
C  48.07200 26.26000 22.79900
N  48.04700 27.23300 29.47900
C  48.67700 28.01300 28.52500
C  48.98700 29.32800 29.07000
C  48.58300 29.23500 30.41000
C  48.07900 27.95000 30.62100
C  49.77100 30.40100 28.28200
C  48.59700 29.97300 31.67400
O  48.92800 31.12800 31.94500
C  48.06200 28.96400 32.73400
C  49.21100 28.70700 33.66000
O  50.28100 28.20300 33.28500
O  48.90700 29.08300 34.93200
C  49.92000 28.75900 35.96800
H  46.02500 22.38200 32.55600
H  47.10300 22.10700 26.21700
H  49.20400 28.14000 26.45600
H  47.91300 26.33700 34.43700
H  45.99700 24.17500 34.18300
H  48.52100 23.16200 33.75300
H  47.48900 23.23100 35.24600
H  48.81200 24.35900 34.90200
H  44.94200 26.22500 34.83400
H  45.28700 27.57300 33.76300
H  46.33100 28.81800 35.18400
H  47.02700 27.56400 36.08800
H  44.55000 20.22600 31.01100
H  45.97800 20.33400 32.05000
H  46.01200 19.26400 30.65000
H  46.29700 18.18900 28.76500
H  45.13500 18.14100 27.33000
H  44.62900 18.78500 28.83800
H  47.52800 24.16300 24.52900
H  49.73400 26.19500 25.00600
H  50.02400 23.04500 25.96600
H  50.39500 24.02200 24.50100
H  49.34400 22.68100 24.39600
H  47.82700 27.68900 24.43800
H  46.81800 26.26100 24.36500
H  48.80700 25.45900 22.72000
H  48.44000 27.20200 22.39000
H  47.19900 25.98400 22.20700
H  49.41400 30.38200 27.25200
H  50.78700 30.02100 28.17300
H  49.71000 31.36100 28.79500
H  47.23800 29.46700 33.24100
H  50.49800 29.66400 36.15500
H  50.60600 27.95200 35.70800
H  49.46200 28.42900 36.90000
Mg 49.63500 46.89300 42.59100
C  46.37000 47.08300 41.24600
C  49.67600 43.51200 41.90600
C  53.04800 47.01100 42.88400
C  49.56900 50.41700 43.06700
N  48.20700 45.57100 41.64600
C  46.92300 45.76700 41.18600
C  46.18900 44.40500 40.81700
C  47.29400 43.36600 41.12500
C  48.51700 44.20300 41.64900
C  46.95200 42.26200 42.20900
C  45.79300 44.52700 39.27600
C  44.38600 43.97600 38.88200
H  43.97500 44.35600 37.44400
N  51.14500 45.48200 42.52900
C  50.89200 44.16600 42.30000
C  52.13600 43.43300 42.52100
C  53.14800 44.44700 42.72200
C  52.46100 45.74100 42.74200
C  52.26000 41.90700 42.62600
C  54.64200 44.08600 42.82700
O  55.02700 42.91600 42.74900
C  55.76500 45.12000 43.00400
N  51.05900 48.46900 42.91900
C  52.37300 48.22400 43.03700
C  53.18200 49.46800 43.53200
C  52.05700 50.67000 43.49900
C  50.82300 49.79900 43.21500
C  53.81800 49.27400 44.95600
C  52.35900 51.91300 42.55300
C  53.25900 53.04300 43.15900
N  48.20600 48.54300 42.29100
C  48.30600 49.89600 42.52300
C  46.98400 50.49800 42.23000
C  46.21600 49.43700 41.75900
C  46.99300 48.25400 41.77400
C  46.60700 51.85600 42.46300
C  44.92300 49.12600 41.14100
O  44.05600 49.86000 40.72900
C  44.93800 47.55800 40.89800
C  43.91300 46.90800 41.80700
O  44.06500 46.61100 42.95900
O  42.65700 46.88300 41.29100
C  41.55000 46.93200 42.15400
H  49.84300 42.45000 41.71800
H  54.12000 47.21700 42.90800
H  49.59700 51.49500 43.23900
H  45.31800 44.32500 41.46800
H  47.55200 42.83600 40.20800
H  47.19500 41.25300 41.87500
H  45.87200 42.36200 42.31700
H  47.36400 42.43800 43.20300
H  46.46200 43.80200 38.81300
H  46.01800 45.49100 38.82000
H  43.59800 44.51100 39.41200
H  44.27300 42.89900 39.00900
H  52.93800 41.69700 43.45300
H  52.66600 41.49000 41.70500
H  51.38300 41.40400 43.03400
H  55.75600 45.76600 42.12600
H  56.71500 44.60500 43.14300
H  55.60600 45.74300 43.88400
H  53.98000 49.63200 42.80800
H  51.84700 51.05900 44.49600
H  53.46900 49.98700 45.70200
H  54.88500 49.38400 44.76100
H  53.52700 48.30400 45.35900
H  51.40300 52.27400 42.17400
H  52.85200 51.57100 41.64200
H  53.87300 52.65000 43.96900
H  52.59900 53.90300 43.27300
H  54.00200 53.39000 42.44000
H  47.18500 52.61300 41.93300
H  46.66500 51.99400 43.54200
H  45.53800 51.98000 42.28900
H  44.74100 47.40700 39.83600
H  41.39400 47.98900 42.37100
H  41.43000 46.27700 43.01700
H  40.75700 46.56700 41.50100

