158

Mg 36.07000 2.52400 30.72800
C  33.43400 3.95300 32.60600
C  38.08500 2.86200 33.50000
C  38.69900 1.81700 28.85900
C  34.06600 2.81600 27.85300
N  35.79200 3.37500 32.83200
C  34.59900 3.73700 33.38400
C  34.74200 3.80300 34.92300
C  36.32900 3.94200 35.09400
C  36.79700 3.31100 33.76500
C  36.79900 5.45600 35.20200
C  34.25800 2.49600 35.46300
C  33.55400 2.74100 36.87000
H  33.96600 3.81800 37.84200
N  38.09800 2.43300 31.07500
C  38.66700 2.52700 32.29500
C  40.07900 2.28600 32.13400
C  40.35800 1.90400 30.77200
C  39.04000 2.01800 30.18400
C  40.97400 2.45100 33.34200
C  41.53600 1.42100 30.07600
O  41.63400 1.21900 28.89000
C  42.82700 1.14300 30.83700
N  36.33600 2.48200 28.66200
C  37.54500 1.96300 28.20900
C  37.50700 1.64700 26.70500
C  35.90900 1.70200 26.37500
C  35.37500 2.33700 27.68900
C  38.31600 2.64000 25.88400
C  35.18600 0.43600 25.85700
C  34.59000 0.54000 24.54500
N  34.08500 3.19200 30.24800
C  33.44300 3.26300 29.01000
C  31.97200 3.65300 29.28900
C  31.97700 3.95200 30.66100
C  33.21000 3.61100 31.21800
C  30.81000 3.83900 28.30500
C  31.23300 4.41600 31.77000
O  30.05000 4.79100 31.87100
C  32.14100 4.35600 33.07200
C  32.14500 5.63100 33.72900
O  32.80100 6.65700 33.43400
O  31.36100 5.48800 34.89200
C  31.31600 6.69400 35.70700
H  38.72700 2.96600 34.37700
H  39.47900 1.35700 28.25000
H  33.43000 2.65700 26.98000
H  34.27200 4.70000 35.32700
H  36.74500 3.37200 35.92400
H  37.24600 5.50800 36.19500
H  36.01000 6.20600 35.24500
H  37.63500 5.68400 34.54100
H  35.05000 1.74900 35.52400
H  33.51900 2.14900 34.74100
H  33.83400 1.85800 37.44400
H  32.47300 2.66700 36.75000
H  41.94800 2.33900 32.86600
H  40.76700 1.70400 34.10900
H  40.74200 3.39300 33.83800
H  42.78500 0.46200 31.68700
H  43.35900 2.03400 31.16800
H  43.49300 0.54000 30.22000
H  38.01600 0.69500 26.55300
H  35.67000 2.51000 25.68300
H  37.65900 3.47500 25.64000
H  38.79500 2.18800 25.01500
H  39.08000 3.12400 26.49200
H  34.35900 0.20700 26.52900
H  35.92000 -0.36500 25.94200
H  35.16600 -0.20400 23.99500
H  34.74200 1.54900 24.16100
H  33.53400 0.27400 24.51500
H  30.82400 3.10900 27.49600
H  30.74700 4.80200 27.79800
H  29.85100 3.72400 28.80900
H  31.77600 3.61600 33.78500
H  32.30800 7.03200 36.00700
H  30.65600 6.54500 36.56200
H  30.85100 7.50300 35.14400
Mg 9.29200 48.78900 26.00100
C  7.31000 49.00500 28.97400
C  12.07300 49.54600 27.99200
C  11.23300 48.55200 23.36700
C  6.45100 48.17200 24.22800
N  9.57600 49.29900 28.18800
C  8.66000 49.21200 29.21800
C  9.30800 49.55700 30.50700
C  10.65100 50.20900 30.01600
C  10.83500 49.64300 28.61600
C  10.74300 51.79800 29.96900
C  9.53800 48.38000 31.40400
C  8.98200 48.60000 32.84200
H  8.89900 47.44500 33.83500
N  11.41000 49.00400 25.74800
C  12.41200 49.34700 26.65200
C  13.71500 49.21100 26.08100
C  13.45900 48.77200 24.71100
C  11.98700 48.73800 24.54400
C  15.05500 49.48000 26.82600
C  14.50400 48.36900 23.56200
O  14.07100 47.93900 22.46900
C  15.97900 48.44500 23.84600
N  8.91700 48.47100 24.08300
C  9.85900 48.39100 23.10400
C  9.27500 48.03600 21.73600
C  7.76700 47.76500 22.03400
C  7.68700 48.20100 23.54000
C  9.47500 48.97300 20.60700
C  7.25400 46.29700 21.79500
C  8.11600 45.19100 22.41200
N  7.31600 48.53800 26.47200
C  6.25300 48.28700 25.59900
C  5.04200 48.21300 26.38100
C  5.40800 48.53400 27.65800
C  6.80600 48.71400 27.68600
C  3.56300 47.97000 25.85600
C  4.86500 48.72200 28.98000
O  3.72500 48.69100 29.34200
C  6.09200 49.12800 29.89900
C  5.91600 48.14100 31.01300
O  6.36500 47.03700 31.04000
O  5.03800 48.66900 31.98700
C  4.56400 47.67800 32.96900
H  12.86300 49.86200 28.67700
H  11.85700 48.47300 22.47400
H  5.58500 47.91000 23.61700
H  8.69100 50.30400 31.00500
H  11.53400 49.99700 30.61900
H  9.75500 52.25800 29.97700
H  11.17200 52.06800 29.00400
H  11.22800 52.20500 30.85600
H  10.60200 48.14300 31.42000
H  9.16200 47.45200 30.97200
H  8.00200 49.07600 32.80700
H  9.54700 49.39300 33.33200
H  15.57500 48.52500 26.91000
H  14.92700 49.76700 27.87000
H  15.61400 50.24400 26.28600
H  16.26100 47.84200 24.70900
H  16.11900 49.50500 24.05600
H  16.48100 48.12700 22.93200
H  9.73600 47.07400 21.50900
H  7.19100 48.43900 21.40000
H  9.13600 49.98300 20.83800
H  9.09500 48.49200 19.70600
H  10.55100 48.91100 20.44600
H  7.23700 46.24300 20.70700
H  6.20100 46.21100 22.06300
H  7.56800 44.36500 22.86500
H  8.78900 45.60200 23.16500
H  8.76200 44.79400 21.62900
H  3.40300 48.25800 24.81700
H  2.84100 48.49400 26.48100
H  3.32000 46.91900 26.01200
H  5.91900 50.14500 30.25100
H  5.41200 47.11200 33.35300
H  3.92100 46.96100 32.45800
H  3.96000 48.13400 33.75400

