158

Mg 45.51400 5.04000 47.01000
C  43.71200 7.89600 46.65400
C  42.75400 3.13000 46.48100
C  47.62400 2.35000 46.88200
C  48.47900 7.08800 46.97400
N  43.50400 5.45500 46.56800
C  42.96700 6.66000 46.44400
C  41.52100 6.58700 45.88100
C  41.09400 5.09300 46.14100
C  42.50700 4.50600 46.56600
C  40.09400 5.01700 47.33700
C  41.30700 7.05200 44.41300
C  39.93100 7.83300 44.17600
H  39.26200 7.43200 42.83600
N  45.18800 2.95900 46.77400
C  43.94900 2.35000 46.60100
C  44.17600 0.96000 46.39500
C  45.59800 0.68800 46.56900
C  46.24800 2.03000 46.77700
C  43.02000 0.03200 46.14500
C  46.22000 -0.70800 46.53300
O  45.68000 -1.70700 46.10400
C  47.67700 -0.93000 46.88000
N  47.79100 4.75000 46.98000
C  48.38600 3.48400 46.89000
C  49.92000 3.66200 47.02600
C  50.18600 5.17200 46.94700
C  48.74800 5.71700 46.95400
C  50.57500 2.96300 48.28800
C  50.77400 5.72100 45.66300
C  52.31800 5.95200 45.57100
N  46.03500 7.12000 46.87100
C  47.26500 7.77300 46.91800
C  46.95600 9.20900 46.89400
C  45.54100 9.29400 46.80900
C  45.05800 8.01800 46.87100
C  47.95500 10.30100 47.02200
C  44.44500 10.20300 46.68800
O  44.45100 11.40800 46.59200
C  43.15700 9.32000 46.57100
C  42.21100 9.66100 47.66000
O  42.16500 9.17300 48.72200
O  41.28500 10.48100 47.13400
C  40.21900 10.90600 48.06400
H  41.79900 2.60500 46.41000
H  48.33100 1.51900 46.92100
H  49.35900 7.73100 47.03600
H  40.86500 7.20100 46.49900
H  40.68500 4.61500 45.25100
H  39.77700 6.01500 47.64200
H  40.55100 4.44400 48.14500
H  39.22000 4.38800 47.17300
H  41.36500 6.21000 43.72400
H  42.19700 7.62800 44.15600
H  40.16800 8.88300 44.35100
H  39.28500 7.66000 45.03600
H  42.69300 -0.21700 47.15400
H  43.42700 -0.79100 45.55800
H  42.14600 0.45400 45.64800
H  47.94500 -0.28000 47.71300
H  48.35300 -0.72000 46.05100
H  47.83900 -1.90400 47.34000
H  50.50900 3.25500 46.20300
H  50.73100 5.53100 47.82000
H  51.48700 3.50400 48.54000
H  50.96000 1.97100 48.05200
H  49.91700 2.95100 49.15800
H  50.36200 6.70500 45.43700
H  50.40800 5.08900 44.85400
H  52.74600 5.89500 46.57200
H  52.59900 6.91700 45.14700
H  52.76800 5.10100 45.05900
H  48.80500 9.74100 47.41000
H  47.48600 10.89700 47.80500
H  48.04100 10.93400 46.14000
H  42.78700 9.55000 45.57200
H  39.30400 11.02200 47.48200
H  40.54700 11.76100 48.65500
H  39.97200 10.03500 48.67100
Mg 30.18000 57.69300 40.51600
C  27.60800 55.77100 38.95000
C  32.48900 55.48600 39.23100
C  32.51900 60.07000 40.98800
C  27.66500 60.16900 41.06400
N  30.01700 55.95500 39.17800
C  28.89900 55.21800 38.95400
C  29.29400 53.87700 38.37900
C  30.81600 53.79200 38.67000
C  31.12300 55.20900 39.05200
C  31.20200 52.74200 39.80400
C  28.94900 53.64900 36.89000
C  29.28300 54.83900 35.94300
H  28.30800 55.34700 34.89000
N  32.29200 57.77700 40.21400
C  32.99700 56.72900 39.68100
C  34.37300 57.12700 39.91400
C  34.42700 58.44000 40.44200
C  33.09700 58.81400 40.62100
C  35.48300 56.26500 39.49400
C  35.75600 59.20700 40.80900
O  36.83600 58.89400 40.43400
C  35.63300 60.30300 41.74600
N  30.09800 59.91600 40.89900
C  31.25800 60.58500 41.22000
C  30.96500 62.01200 41.69100
C  29.42800 61.95400 41.83200
C  28.99600 60.57900 41.25800
C  31.64300 62.49100 43.00700
C  28.57500 63.23300 41.37000
C  27.82700 63.89200 42.54000
N  28.04200 57.95100 40.09700
C  27.22300 59.06600 40.36300
C  25.87800 58.81500 39.91000
C  26.01400 57.50500 39.37600
C  27.29600 57.05100 39.52000
C  24.61000 59.74900 40.01300
C  25.27400 56.36800 38.80300
O  24.11000 56.22300 38.52800
C  26.29800 55.23100 38.44600
C  25.89000 53.95400 39.11200
O  25.97200 53.71400 40.32600
O  25.22100 53.14600 38.26500
C  24.45900 51.98000 38.80100
H  33.14700 54.61600 39.17000
H  33.24100 60.85700 41.21500
H  26.86800 60.86300 41.33800
H  28.70000 53.19400 38.98500
H  31.46200 53.56400 37.82300
H  30.36100 52.06300 39.94100
H  31.46100 53.23200 40.74200
H  32.13800 52.26100 39.52000
H  27.86600 53.52400 36.92000
H  29.43700 52.78600 36.43600
H  30.30100 54.67300 35.59000
H  29.36200 55.75400 36.52900
H  35.80600 56.60300 38.51000
H  35.14300 55.24900 39.29200
H  36.32700 56.18600 40.17900
H  35.40200 61.22300 41.21000
H  36.63000 60.43600 42.16700
H  34.85300 60.11300 42.48300
H  31.19700 62.68100 40.86300
H  29.17400 61.88900 42.89000
H  30.96100 62.93900 43.72900
H  32.36400 63.19900 42.59900
H  32.24800 61.68700 43.42600
H  27.89000 63.03400 40.54600
H  29.09100 64.09500 40.94700
H  27.05800 63.21800 42.91700
H  27.39900 64.85500 42.26200
H  28.43900 64.16400 43.40000
H  24.23100 59.66400 41.03100
H  23.75300 59.58500 39.35900
H  24.89800 60.77300 39.77300
H  26.27000 55.19300 37.35700
H  25.03800 51.53900 39.61200
H  24.42700 51.28400 37.96200
H  23.44900 52.22200 39.13100

