158

Mg 54.63200 22.05400 45.13500
C  52.80200 24.85600 43.90500
C  52.29900 20.04900 43.93700
C  56.83300 19.51000 45.76900
C  57.38100 24.36000 45.68800
N  52.84500 22.42800 43.73900
C  52.21100 23.62200 43.49800
C  50.76600 23.41100 42.98000
C  50.61900 21.91500 43.33100
C  52.00500 21.43700 43.73200
C  49.59900 21.57700 44.46900
C  50.45200 23.69800 41.47800
C  48.93300 24.07300 41.34200
H  48.40300 23.97100 39.89800
N  54.60700 19.98600 44.93000
C  53.47100 19.34000 44.45600
C  53.68200 17.91500 44.56200
C  54.98800 17.71100 45.08000
C  55.53600 19.08600 45.30600
C  52.62100 16.90100 44.09800
C  55.64700 16.43700 45.38000
O  55.13100 15.37300 45.02100
C  56.90200 16.28600 46.15400
N  56.87000 21.95200 45.53900
C  57.41700 20.79700 45.91200
C  58.89400 21.04600 46.34600
C  59.10000 22.56400 46.13400
C  57.69600 23.03900 45.67800
C  59.31000 20.48700 47.76600
C  60.23200 22.93400 45.07100
C  61.70700 22.88000 45.55900
N  55.05200 24.09800 44.99000
C  56.12900 24.92800 45.28200
C  55.73400 26.31500 45.27200
C  54.48500 26.27100 44.73300
C  54.10700 24.96700 44.50300
C  56.45100 27.47400 45.71800
C  53.40400 27.14900 44.26600
O  53.33800 28.39500 44.21800
C  52.23000 26.24200 43.83400
C  51.86000 26.54800 42.45600
O  52.58300 26.32900 41.53500
O  50.62600 27.08700 42.37700
C  50.37700 27.63900 41.03200
H  51.37100 19.48400 43.82100
H  57.50100 18.74000 46.16000
H  58.12200 25.10700 45.97900
H  50.08900 23.94200 43.64900
H  50.30800 21.43100 42.40500
H  49.61200 22.42000 45.16000
H  49.91600 20.67400 44.99200
H  48.62900 21.32700 44.04000
H  50.69400 22.83400 40.85900
H  51.02700 24.55500 41.12500
H  48.84800 25.03900 41.84000
H  48.31900 23.38500 41.92300
H  52.89300 16.66700 43.06800
H  51.64300 17.37300 44.19300
H  52.51400 15.99900 44.70000
H  57.70800 16.56600 45.47600
H  57.14600 15.25400 46.40300
H  56.99800 16.84800 47.08300
H  59.42500 20.56500 45.52500
H  59.40300 23.10900 47.02900
H  59.61200 21.24800 48.48600
H  60.14100 19.78400 47.70100
H  58.43400 20.00500 48.20000
H  59.92700 23.90100 44.67000
H  60.05500 22.27700 44.21900
H  62.16900 23.74300 45.07900
H  62.18100 21.97800 45.17400
H  61.76900 22.85700 46.64700
H  57.32900 27.58300 45.08100
H  56.79900 27.22000 46.71900
H  55.89700 28.40300 45.84800
H  51.31500 26.47100 44.37900
H  49.58400 28.38400 41.10300
H  50.22400 26.92300 40.22500
H  51.25700 28.16400 40.66100
Mg -0.54500 43.49500 25.99900
C  1.60000 43.37600 28.86500
C  -3.11400 42.38900 28.10500
C  -2.47500 43.50900 23.29100
C  2.32000 44.16800 24.08400
N  -0.69700 43.00100 28.27100
C  0.26400 43.10400 29.23100
C  -0.28700 42.74800 30.60300
C  -1.70700 42.14100 30.26700
C  -1.89100 42.57000 28.83500
C  -1.83400 40.60800 30.58600
C  -0.17300 44.00700 31.51200
C  0.53600 43.72600 32.93400
H  0.43400 42.33000 33.66800
N  -2.54100 43.00800 25.74800
C  -3.45300 42.56200 26.71300
C  -4.76400 42.45800 26.04300
C  -4.52500 42.79500 24.65700
C  -3.10500 43.09300 24.54500
C  -5.99300 41.90800 26.68900
C  -5.55500 42.76200 23.52600
O  -5.33000 43.31100 22.43100
C  -6.85400 42.07900 23.77000
N  -0.12700 43.68200 23.84700
C  -1.17600 43.78600 22.96800
C  -0.66600 44.41900 21.64200
C  0.87100 44.60000 21.86900
C  1.07600 44.13100 23.32900
C  -1.11700 43.48600 20.47200
C  1.33700 46.04100 21.70700
C  1.84700 46.51200 20.34700
N  1.52200 43.62500 26.29300
C  2.55900 43.88600 25.40200
C  3.85900 43.76300 26.07600
C  3.52400 43.67000 27.35800
C  2.12300 43.54300 27.51100
C  5.21600 43.75300 25.45800
C  4.07700 43.65400 28.72100
O  5.29000 43.68700 29.05200
C  2.86600 43.46800 29.73900
C  3.10200 42.23800 30.44600
O  2.96900 41.05400 30.00500
O  3.60500 42.66700 31.70600
C  4.07400 41.55600 32.53600
H  -3.84100 41.76200 28.62500
H  -3.20300 43.59800 22.48200
H  3.17500 44.36400 23.43400
H  0.36200 42.02900 31.10400
H  -2.55100 42.47000 30.87300
H  -2.70900 40.49300 31.22600
H  -1.03200 40.25600 31.23500
H  -1.90000 39.97600 29.70000
H  -1.21000 44.32300 31.63400
H  0.45000 44.81300 31.12400
H  0.24600 44.46200 33.68400
H  1.61200 43.86900 32.83200
H  -5.82500 41.87700 27.76500
H  -6.41900 40.94300 26.41500
H  -6.82400 42.60200 26.55600
H  -6.46800 41.10300 24.06400
H  -7.30500 42.03800 22.77800
H  -7.40200 42.53000 24.59700
H  -1.27800 45.31500 21.53200
H  1.42400 43.97300 21.16900
H  -0.71500 43.82900 19.51800
H  -2.20400 43.40000 20.45300
H  -0.67200 42.49800 20.59000
H  1.99600 46.43600 22.48000
H  0.48100 46.66400 21.96500
H  2.27200 45.80200 19.63700
H  2.55000 47.29400 20.63200
H  1.05800 47.04800 19.81900
H  5.88600 44.04800 26.26600
H  5.16300 44.56300 24.73100
H  5.44800 42.80200 24.97800
H  2.91100 44.34900 30.38100
H  5.10100 41.30100 32.27600
H  3.55500 40.61200 32.37100
H  4.17700 41.77900 33.59800

