158

Mg 46.68900 25.40700 27.88000
C  47.80700 27.46700 30.54000
C  45.56500 23.14600 30.36300
C  46.22500 23.17600 25.51400
C  48.16900 27.61700 25.68700
N  46.60000 25.37000 30.16000
C  47.13100 26.31800 30.98000
C  46.92300 25.97500 32.46400
C  46.33200 24.52600 32.34300
C  46.18200 24.31200 30.87700
C  47.22000 23.48100 33.03100
C  45.90700 26.96200 33.10400
C  46.44000 27.62800 34.40100
H  45.30500 27.91400 35.42500
N  45.81800 23.47300 27.89400
C  45.37600 22.70600 29.00500
C  44.65000 21.52900 28.48400
C  44.91300 21.46700 27.04400
C  45.68600 22.72900 26.75400
C  43.82200 20.58300 29.29600
C  44.54900 20.41700 25.98400
O  44.91500 20.53300 24.81600
C  43.59300 19.26400 26.31100
N  47.16400 25.42600 25.93200
C  46.83400 24.39800 25.07700
C  47.09300 24.78400 23.57400
C  47.31500 26.36000 23.62200
C  47.58500 26.51700 25.17300
C  48.24100 24.01400 22.86500
C  46.14700 27.36100 23.22100
C  46.72300 28.54900 22.36200
N  47.84400 27.12900 28.04200
C  48.38000 27.92600 27.03500
C  49.18500 29.00800 27.61500
C  49.01500 28.80700 29.00300
C  48.10000 27.69800 29.18500
C  49.81800 30.12900 26.88600
C  49.22400 29.41700 30.25900
O  49.87700 30.40600 30.52300
C  48.51200 28.55400 31.30700
C  49.62400 28.08900 32.18100
O  50.26000 27.02700 32.01700
O  49.76600 28.93300 33.28500
C  50.82900 28.57200 34.21100
H  45.18300 22.46100 31.12300
H  46.27500 22.41000 24.73800
H  48.41600 28.26100 24.84100
H  47.80000 26.04400 33.10800
H  45.30000 24.38600 32.66400
H  47.90700 23.03200 32.31400
H  46.53500 22.66500 33.26300
H  47.56600 23.78300 34.02000
H  44.92200 26.52500 33.26600
H  45.72900 27.74500 32.36700
H  46.94400 28.56700 34.17300
H  47.16900 26.99100 34.90200
H  42.87800 20.42400 28.77400
H  43.67400 21.01900 30.28400
H  44.37300 19.64700 29.38800
H  43.81400 18.55300 25.51600
H  42.54100 19.54000 26.25100
H  43.74100 18.86400 27.31400
H  46.18900 24.47900 23.04700
H  48.23900 26.72500 23.17500
H  48.04000 23.47100 21.94200
H  48.62700 23.39100 23.67200
H  49.08500 24.65400 22.60500
H  45.57200 27.64800 24.10200
H  45.45200 26.75300 22.64200
H  46.24300 28.53600 21.38300
H  47.80400 28.44000 22.27600
H  46.47000 29.49200 22.84800
H  50.09800 29.79600 25.88600
H  50.65700 30.54900 27.44000
H  49.12900 30.97100 26.95500
H  47.81200 29.15200 31.89100
H  50.38100 27.85100 34.89400
H  51.00500 29.37200 34.93000
H  51.75300 28.14600 33.82200
Mg 10.13100 48.10300 26.38600
C  8.45800 47.94100 29.35500
C  12.89800 49.51300 28.00900
C  11.81400 48.26000 23.38800
C  7.24000 47.00400 24.78000
N  10.56700 48.70600 28.39000
C  9.82900 48.37500 29.48500
C  10.47800 48.83400 30.81900
C  11.68900 49.63300 30.23100
C  11.75600 49.24100 28.78300
C  11.69700 51.14400 30.52900
C  10.93100 47.71000 31.74400
C  10.24800 47.57600 33.12300
H  10.53100 48.45800 34.39300
N  12.05400 48.88700 25.79100
C  13.02500 49.22000 26.61800
C  14.21600 49.47500 25.87800
C  13.91200 49.17000 24.52700
C  12.49800 48.79700 24.51600
C  15.47500 50.06700 26.46800
C  14.82200 49.20600 23.31500
O  14.45700 49.01100 22.15000
C  16.31200 49.50300 23.52000
N  9.55500 47.89600 24.29500
C  10.45300 47.82300 23.35000
C  9.77300 47.28100 22.09100
C  8.47000 46.65700 22.55300
C  8.37100 47.21700 23.95600
C  9.59700 48.30700 20.98200
C  8.40700 45.05500 22.51800
C  9.30000 44.20900 23.42400
N  8.18700 47.69400 26.95100
C  7.13100 47.26200 26.12900
C  5.95000 47.11800 26.91800
C  6.46700 47.34700 28.22900
C  7.82100 47.66900 28.16000
C  4.52300 46.86100 26.44900
C  6.03800 47.39800 29.60500
O  4.97400 47.16300 30.20500
C  7.39700 47.61800 30.43500
C  7.75500 46.41600 31.27700
O  8.64100 45.59600 31.04900
O  6.92500 46.43100 32.40600
C  7.27000 45.55200 33.52900
H  13.71800 50.00500 28.53600
H  12.26100 48.28800 22.39300
H  6.44900 46.52700 24.19700
H  9.77400 49.50300 31.31500
H  12.61300 49.29700 30.70100
H  12.65700 51.53700 30.86200
H  10.98800 51.46600 31.29200
H  11.49300 51.60900 29.56500
H  12.00100 47.83700 31.90600
H  10.66900 46.79100 31.21900
H  10.34400 46.53900 33.44500
H  9.15900 47.60800 33.08100
H  16.16800 49.27300 26.74700
H  15.32000 50.55900 27.42800
H  16.12500 50.72600 25.89200
H  16.84900 49.10700 24.38200
H  16.39000 50.58100 23.66000
H  16.89300 49.34100 22.61200
H  10.36100 46.52100 21.57500
H  7.64900 46.97400 21.91000
H  10.26500 48.14800 20.13500
H  10.02200 49.24400 21.34200
H  8.59800 48.50500 20.59400
H  8.45400 44.64900 21.50700
H  7.37400 44.83500 22.78500
H  10.22100 44.63100 23.82500
H  9.56300 43.37600 22.77100
H  8.64300 43.93800 24.25000
H  4.07000 47.75200 26.01300
H  3.90400 46.51200 27.27600
H  4.57300 46.17700 25.60200
H  7.25400 48.44000 31.13600
H  6.93500 44.53600 33.32300
H  6.66700 45.99600 34.32100
H  8.35100 45.56900 33.67000

