158

Mg 16.71500 53.25700 26.37800
C  18.54300 51.56400 28.93900
C  14.37600 54.06600 28.91900
C  14.78800 54.27800 24.09600
C  18.84800 51.78800 24.11800
N  16.47400 52.91300 28.71100
C  17.45400 52.32600 29.50300
C  17.01800 52.36400 31.01300
C  15.61400 53.06400 30.93500
C  15.43400 53.37400 29.41500
C  14.40900 52.25500 31.53100
C  18.15700 53.11100 31.89000
C  18.32900 52.60600 33.30400
H  17.32400 51.68200 34.01800
N  14.84500 54.17000 26.50400
C  14.05100 54.43800 27.60800
C  12.80500 55.02200 27.13600
C  12.76900 54.89300 25.72500
C  14.16600 54.47700 25.35000
C  11.62900 55.51400 28.11300
C  11.74200 55.39800 24.72900
O  11.90000 55.21500 23.51400
C  10.44100 55.99800 25.19600
N  16.84800 53.09800 24.40500
C  15.99500 53.70700 23.63600
C  16.29100 53.58300 22.18300
C  17.58700 52.69800 22.18600
C  17.80000 52.48800 23.63200
C  15.24400 53.05600 21.21600
C  18.84200 53.05500 21.33900
C  19.40200 51.91900 20.38400
N  18.46300 52.03500 26.46600
C  19.17100 51.49900 25.44400
C  20.23400 50.78800 26.00000
C  20.08500 50.73400 27.35300
C  18.90100 51.50000 27.61900
C  21.41100 50.18900 25.07100
C  20.53700 50.12400 28.65900
O  21.47700 49.34800 28.82100
C  19.63500 50.67200 29.76600
C  19.04800 49.56100 30.61700
O  17.99400 48.95000 30.46700
O  19.89500 49.31700 31.70800
C  19.45800 48.40300 32.78500
H  13.55100 54.26900 29.60500
H  14.27900 54.85600 23.32100
H  19.34800 51.22500 23.32700
H  16.91600 51.28600 31.14000
H  15.80400 54.02000 31.42200
H  13.75100 51.99800 30.70100
H  13.98700 52.84400 32.34600
H  14.83900 51.32400 31.90100
H  17.91300 54.17300 31.89600
H  19.15800 53.08500 31.46000
H  18.60300 53.47700 33.90000
H  19.28500 52.10800 33.14300
H  11.35400 56.48900 27.71100
H  11.94400 55.58000 29.15400
H  10.84900 54.76000 28.00700
H  9.83000 55.41600 25.88700
H  9.91100 56.33800 24.30700
H  10.72100 56.85600 25.80700
H  16.53900 54.57600 21.80900
H  17.27200 51.68800 21.92300
H  15.09100 52.05500 21.62000
H  15.51000 52.89600 20.17100
H  14.38900 53.73200 21.23000
H  19.63700 53.28300 22.04900
H  18.74000 53.99000 20.78700
H  20.42600 51.65100 20.64100
H  19.40300 52.17100 19.32300
H  18.74200 51.05600 20.47900
H  22.22700 49.80900 25.68600
H  21.78600 51.03900 24.50300
H  20.92300 49.50000 24.38100
H  20.35100 51.19200 30.40300
H  19.97100 47.44700 32.68200
H  18.38700 48.21600 32.70100
H  19.64000 48.69900 33.81800
Mg -4.83900 25.22600 25.30800
C  -3.28900 26.73200 28.01000
C  -6.44000 23.07000 27.44400
C  -5.99300 23.64400 22.59600
C  -2.93200 27.34700 23.19600
N  -4.84700 24.86700 27.41800
C  -4.16700 25.68600 28.37200
C  -4.57800 25.34300 29.75900
C  -5.40900 24.02500 29.57600
C  -5.58300 23.97300 28.07900
C  -4.78000 22.76700 30.18300
C  -5.23300 26.52600 30.51700
C  -4.89100 26.75900 32.01200
H  -4.80700 25.36800 32.75800
N  -6.08300 23.61400 25.05600
C  -6.67500 22.89800 26.03800
C  -7.55300 21.93100 25.46600
C  -7.41300 21.97400 24.03400
C  -6.50700 23.15700 23.83300
C  -8.42700 21.04400 26.29000
C  -8.08500 21.19600 22.89600
O  -7.90000 21.43500 21.70200
C  -8.95800 20.05800 23.22900
N  -4.54500 25.53200 23.13600
C  -5.11000 24.68200 22.26500
C  -4.53300 24.91900 20.83500
C  -3.79000 26.33200 20.95700
C  -3.71800 26.42400 22.50900
C  -3.65600 23.74700 20.32800
C  -4.63100 27.50100 20.33400
C  -4.15500 28.03400 18.98700
N  -3.53700 26.88900 25.51400
C  -2.77200 27.51100 24.58300
C  -1.90000 28.45100 25.24400
C  -2.04400 28.19000 26.62500
C  -3.02500 27.19100 26.71600
C  -1.02200 29.46300 24.52700
C  -1.54800 28.53100 27.93300
O  -0.67100 29.30800 28.36000
C  -2.36300 27.61600 28.86700
C  -1.49400 26.87900 29.94100
O  -1.05400 25.75800 29.81800
O  -1.51000 27.61700 31.08800
C  -0.88700 26.95600 32.23300
H  -7.02900 22.38200 28.05300
H  -6.18600 23.11900 21.65800
H  -2.41400 28.13700 22.65000
H  -3.68100 25.16100 30.35000
H  -6.41700 24.08900 29.98600
H  -5.53200 22.13400 30.65400
H  -4.12800 23.02000 31.01900
H  -4.32100 22.15700 29.40400
H  -6.31700 26.41400 30.54300
H  -5.11100 27.46300 29.97400
H  -5.61400 27.34900 32.57600
H  -3.94200 27.28700 32.10100
H  -8.12300 19.99700 26.30300
H  -9.34600 21.10400 25.70700
H  -8.59700 21.38600 27.31100
H  -8.40600 19.39200 23.89200
H  -9.28300 19.60400 22.29300
H  -9.90600 20.33200 23.69300
H  -5.41700 24.94100 20.19700
H  -2.80300 26.31800 20.49400
H  -4.27600 22.85400 20.40600
H  -2.75100 23.67600 20.93100
H  -3.39400 23.82700 19.27300
H  -4.60700 28.39500 20.95700
H  -5.64300 27.10500 20.24000
H  -4.02600 29.11600 19.03000
H  -5.03400 27.87400 18.36300
H  -3.28500 27.50600 18.59600
H  -1.41600 30.47600 24.61500
H  -0.96300 29.34000 23.44500
H  -0.08100 29.46300 25.07700
H  -3.12400 28.17200 29.41500
H  -0.79800 25.87300 32.14700
H  -1.41000 27.08800 33.18000
H  0.07900 27.45400 32.31200

