158

Mg 53.96700 24.53400 43.86400
C  51.38300 26.90600 43.27900
C  51.65600 21.99800 43.01500
C  56.50600 22.44300 43.82800
C  55.97600 27.15800 44.75700
N  51.87300 24.53800 43.15900
C  51.05000 25.59200 42.92600
C  49.56100 25.16300 42.57600
C  49.65700 23.59400 42.72200
C  51.15200 23.30100 43.07800
C  48.63200 22.91000 43.69000
C  49.04900 25.69600 41.28500
C  50.02100 25.85900 40.04900
H  49.97000 24.90500 38.87200
N  54.02500 22.52700 43.55700
C  52.99900 21.65900 43.22800
C  53.56200 20.37700 43.09900
C  54.98600 20.37800 43.40700
C  55.24000 21.83200 43.57700
C  52.67900 19.27500 42.64400
C  55.95200 19.21800 43.43500
O  55.50200 18.16700 43.02300
C  57.46700 19.24200 43.84900
N  55.94700 24.80600 44.01400
C  56.83100 23.82300 43.99500
C  58.31500 24.30200 44.33400
C  58.04600 25.77500 44.57600
C  56.55600 25.94600 44.35700
C  58.92800 23.53500 45.49400
C  59.00800 26.77300 43.72100
C  58.52800 26.97500 42.23700
N  53.86600 26.68300 43.78300
C  54.71800 27.58900 44.43300
C  54.14900 28.84300 44.58000
C  52.84300 28.68700 44.17600
C  52.67800 27.27000 43.70200
C  54.76800 30.12300 45.14900
C  51.51400 29.27900 44.00500
O  51.11100 30.43800 44.25100
C  50.55400 28.11900 43.40900
C  50.10200 28.72400 42.10600
O  50.87100 28.89200 41.14900
O  48.82200 29.20500 42.07500
C  48.36100 29.90500 40.90800
H  50.95000 21.21700 42.72200
H  57.40800 21.82700 43.83600
H  56.72500 27.89100 45.06300
H  48.92400 25.46800 43.40600
H  49.48300 23.12900 41.75200
H  47.81100 23.61600 43.81400
H  49.09500 22.55900 44.61200
H  48.26500 21.97000 43.27700
H  48.56800 26.64100 41.53500
H  48.28000 24.96600 41.03000
H  50.99400 25.60700 40.46900
H  50.12500 26.83600 39.57700
H  53.24100 18.64700 41.95300
H  51.84600 19.67300 42.06500
H  52.34100 18.76300 43.54600
H  57.59100 18.20400 44.15900
H  57.69900 19.84700 44.72500
H  57.97100 19.37000 42.89100
H  58.86700 24.12800 43.41000
H  58.27800 25.95000 45.62700
H  59.23200 24.29100 46.21800
H  59.74200 22.89600 45.15200
H  58.09100 22.94700 45.87100
H  59.97500 26.31400 43.51400
H  59.12800 27.66700 44.33300
H  58.42700 28.00800 41.90500
H  57.57400 26.50300 42.00400
H  59.24500 26.48400 41.57800
H  53.99900 30.81500 44.80500
H  55.79200 30.28100 44.81300
H  54.77600 29.96300 46.22700
H  49.73200 27.99000 44.11400
H  47.38200 30.33500 41.12200
H  48.36000 29.22300 40.05700
H  49.01100 30.76200 40.73200
Mg 47.68300 25.11000 28.47900
C  48.68000 27.30700 31.20800
C  46.49900 22.92700 30.90700
C  47.33600 23.03000 26.10700
C  49.13900 27.52800 26.25600
N  47.60700 25.12300 30.78100
C  48.05500 26.11000 31.60500
C  47.64600 25.80000 33.10300
C  47.16700 24.27500 32.98500
C  47.15900 24.03000 31.45800
C  48.06900 23.32500 33.70800
C  46.64100 26.78800 33.70400
C  47.05200 27.56900 34.98200
H  45.97700 27.84500 35.97800
N  46.88400 23.29300 28.49000
C  46.44900 22.58200 29.55500
C  45.84100 21.41000 28.98600
C  46.03600 21.37000 27.56400
C  46.87400 22.56100 27.36500
C  45.06500 20.35500 29.84700
C  45.49300 20.45400 26.45600
O  45.62000 20.60000 25.27000
C  44.58300 19.28400 26.95500
N  48.05500 25.35000 26.46200
C  47.85100 24.26000 25.68800
C  48.40500 24.40400 24.24200
C  48.82800 25.93900 24.22700
C  48.70000 26.35400 25.72800
C  49.64300 23.45900 23.96400
C  47.95200 26.74800 23.29200
C  46.71100 27.44000 23.85500
N  48.71200 26.98600 28.61200
C  49.16800 27.86100 27.64800
C  49.83700 28.99800 28.22100
C  49.64300 28.81400 29.63100
C  48.92600 27.58700 29.81200
C  50.62000 30.15500 27.66500
C  49.96400 29.39300 30.92900
O  50.60500 30.37800 31.30900
C  49.22900 28.49100 31.94900
C  50.26900 28.09000 32.91500
O  51.20000 27.30500 32.68700
O  50.14100 28.71700 34.15600
C  51.17800 28.47100 35.12100
H  46.09000 22.19200 31.60300
H  47.34400 22.33900 25.26100
H  49.51800 28.22900 25.51000
H  48.53300 25.89100 33.72900
H  46.17400 24.12700 33.40900
H  48.79000 22.94300 32.98600
H  47.50900 22.47200 34.09100
H  48.55600 23.80500 34.55600
H  45.78600 26.19200 34.02100
H  46.37400 27.57800 33.00200
H  47.35900 28.57200 34.68800
H  47.88200 27.08800 35.50000
H  44.00500 20.38200 29.59600
H  45.21100 20.59100 30.90100
H  45.41400 19.32400 29.77500
H  44.84900 18.65900 27.80800
H  44.57200 18.62600 26.08700
H  43.56300 19.64700 27.08400
H  47.58600 24.03900 23.62200
H  49.87500 26.05100 23.94500
H  50.02900 23.07100 24.90600
H  50.49100 23.85600 23.40600
H  49.22100 22.56500 23.50400
H  47.67800 26.24500 22.36400
H  48.58100 27.53500 22.87600
H  46.61300 27.60700 24.92800
H  45.78600 26.96700 23.52500
H  46.64700 28.49800 23.60200
H  50.84300 30.01100 26.60800
H  51.55400 30.12100 28.22600
H  50.20400 31.13200 27.91100
H  48.42500 29.06400 32.41200
H  50.93800 27.49500 35.54500
H  51.12700 29.34500 35.76900
H  52.15800 28.42200 34.64600

