158

Mg 17.21500 -2.56300 28.41400
C  16.57200 -0.53200 31.32400
C  19.12700 -4.57300 30.46400
C  18.09100 -4.34100 25.72200
C  15.76400 -0.11400 26.46900
N  17.67000 -2.58500 30.61200
C  17.22700 -1.69500 31.65100
C  17.73300 -2.09100 33.04300
C  18.80400 -3.21200 32.67300
C  18.51300 -3.50000 31.20800
C  20.31600 -2.87500 32.88300
C  16.52400 -2.53300 33.98200
C  16.25800 -1.61400 35.22800
H  17.35000 -0.83300 35.83600
N  18.37600 -4.32900 28.15000
C  19.04700 -4.92400 29.11000
C  19.71100 -6.05200 28.54400
C  19.64500 -5.95600 27.13900
C  18.67800 -4.86600 26.89100
C  20.35300 -7.05900 29.43700
C  20.36600 -6.75100 26.09400
O  20.19900 -6.58700 24.89000
C  21.31100 -7.86100 26.45500
N  16.87900 -2.36600 26.45100
C  17.30400 -3.21900 25.47900
C  16.90700 -2.71000 24.09600
C  16.11900 -1.40800 24.40000
C  16.22100 -1.26600 25.88500
C  18.10400 -2.54000 23.15400
C  14.69200 -1.39700 23.86400
C  13.75100 -2.41600 24.52600
N  16.32400 -0.68200 28.82300
C  15.78900 0.15500 27.89800
C  15.18100 1.32000 28.49000
C  15.48300 1.12500 29.87100
C  16.16600 -0.12200 30.01100
C  14.48200 2.44200 27.76500
C  15.27400 1.65600 31.23600
O  14.72600 2.65500 31.70900
C  16.10700 0.65000 32.19900
C  17.31500 1.53000 32.56700
O  18.40500 1.60300 32.03400
O  16.93900 2.27100 33.68300
C  17.96200 3.27300 34.15800
H  19.83800 -5.12500 31.08200
H  18.38000 -4.81800 24.78300
H  15.09700 0.51300 25.87300
H  18.31100 -1.28100 33.48900
H  18.62600 -4.14200 33.21400
H  20.69400 -3.63800 33.56400
H  20.43300 -1.87400 33.30000
H  20.84100 -2.89000 31.92800
H  16.70400 -3.57100 34.26300
H  15.66800 -2.52800 33.30600
H  15.88300 -2.31300 35.97600
H  15.54000 -0.81100 35.06100
H  20.11300 -7.14300 30.49700
H  21.41600 -6.82000 29.44400
H  20.18600 -8.10700 29.18800
H  21.98300 -7.48900 27.22800
H  21.87100 -8.04800 25.53900
H  20.65900 -8.69200 26.72600
H  16.22400 -3.43700 23.65500
H  16.55000 -0.44200 24.13800
H  18.13200 -1.46300 22.98900
H  18.03400 -3.04100 22.18900
H  19.02700 -2.85500 23.64100
H  14.75100 -1.66200 22.80800
H  14.06400 -0.50600 23.88100
H  12.97500 -1.91200 25.10200
H  14.35200 -3.04500 25.18400
H  13.27600 -3.02100 23.75400
H  13.66800 2.06000 27.14900
H  15.20900 2.96600 27.14500
H  14.02600 3.12900 28.47800
H  15.43900 0.37600 33.01500
H  17.95200 4.25100 33.67600
H  18.96700 2.90500 33.95200
H  17.99400 3.26700 35.24800
Mg 26.01000 51.43000 26.26100
C  23.76500 52.55400 28.57100
C  28.09000 50.41300 28.97100
C  28.43100 50.86700 24.10900
C  24.04100 52.83300 23.72600
N  26.03800 51.74300 28.54600
C  24.91200 52.10500 29.26400
C  25.18900 52.01500 30.81300
C  26.63200 51.57000 30.80000
C  27.01100 51.21600 29.35100
C  27.59700 52.67700 31.34500
C  24.18400 50.97700 31.55300
C  23.47300 51.51500 32.75600
H  24.27300 51.94300 34.04300
N  27.93200 50.64100 26.48000
C  28.52700 50.23800 27.60100
C  29.90500 49.91300 27.30800
C  30.10300 50.08500 25.89800
C  28.76300 50.58200 25.41700
C  30.87600 49.31300 28.44100
C  31.24200 49.83100 24.94600
O  31.22900 50.04100 23.72500
C  32.47400 49.36200 25.56900
N  26.23100 51.94800 24.17800
C  27.30300 51.44800 23.48700
C  27.14400 51.79700 22.03200
C  25.64200 52.25100 21.85500
C  25.28000 52.36300 23.32500
C  28.28700 52.61300 21.32600
C  24.83600 51.13700 21.12400
C  23.61400 51.60600 20.41200
N  24.16200 52.38100 26.15200
C  23.46900 52.78700 25.04000
C  22.09600 53.24700 25.49100
C  22.20900 53.12400 26.88000
C  23.45900 52.58300 27.19700
C  20.95600 53.83300 24.63100
C  21.47600 53.41800 28.14600
O  20.36400 53.86300 28.40100
C  22.51600 53.07000 29.29000
C  22.73800 54.29700 30.13100
O  23.83200 54.93900 30.16400
O  21.77900 54.37200 31.13700
C  22.11800 55.27900 32.23600
H  28.68300 50.12300 29.84000
H  29.19600 50.66500 23.35700
H  23.49200 53.18700 22.85100
H  25.03900 53.01000 31.23000
H  26.77100 50.69300 31.43300
H  27.08400 53.28600 32.09000
H  27.92200 53.29500 30.50900
H  28.56600 52.27500 31.64100
H  24.86800 50.22900 31.95300
H  23.44200 50.57700 30.86200
H  22.77200 50.70200 32.94300
H  23.01800 52.43800 32.39700
H  30.29600 48.95500 29.29200
H  31.50300 50.11000 28.84100
H  31.48400 48.48400 28.07800
H  32.32100 48.33000 25.88300
H  32.70600 49.90100 26.48800
H  33.30000 49.52600 24.87800
H  27.35100 50.80600 21.62800
H  25.59300 53.24400 21.40800
H  29.05700 52.73900 22.08800
H  28.00500 53.57900 20.90900
H  28.77500 51.95500 20.60600
H  24.45900 50.44100 21.87300
H  25.44900 50.64700 20.36900
H  23.94000 51.99900 19.44800
H  23.06800 52.29900 21.05200
H  23.00900 50.73200 20.17100
H  20.85900 53.23700 23.72400
H  21.24300 54.80500 24.23000
H  20.00700 53.89800 25.16400
H  22.07400 52.24800 29.85300
H  23.12700 54.93100 32.45500
H  21.37800 55.41300 33.02500
H  22.26800 56.30600 31.90300

