158

Mg 9.51600 3.57100 27.57200
C  10.53200 1.84300 30.38100
C  7.61200 5.62000 29.68600
C  8.04900 4.91000 24.80800
C  10.88700 1.03800 25.52800
N  9.12600 3.72500 29.81300
C  9.64900 2.89100 30.75200
C  9.51600 3.53400 32.13700
C  8.54100 4.72600 31.82900
C  8.40800 4.72100 30.40500
C  7.13400 4.76100 32.48200
C  10.85300 4.08000 32.82200
C  10.59700 4.88200 34.06900
H  11.37500 4.26000 35.28600
N  8.29100 5.18600 27.28000
C  7.54800 5.85500 28.30700
C  6.73800 6.88500 27.64200
C  6.90100 6.74900 26.24400
C  7.81800 5.60100 26.02300
C  5.87200 7.79100 28.42400
C  6.30500 7.52600 25.09100
O  6.69000 7.42200 23.88800
C  5.30000 8.53400 25.44900
N  9.37900 2.99600 25.42500
C  8.78400 3.70500 24.55500
C  8.82300 2.94200 23.16500
C  9.95400 1.99000 23.38000
C  10.09400 1.96200 24.82300
C  7.44800 2.32500 22.79500
C  11.30300 2.39600 22.68800
C  12.07900 1.31500 22.02200
N  10.54500 1.82200 27.83600
C  11.07000 0.91100 26.94600
C  11.61100 -0.22800 27.63800
C  11.58000 0.17600 29.00800
C  10.85500 1.36700 29.04100
C  12.15000 -1.50000 27.10600
C  11.91400 -0.20400 30.37400
O  12.63100 -1.13500 30.76900
C  11.28000 0.87800 31.28000
C  10.44600 0.24400 32.39900
O  9.49600 -0.51000 32.27100
O  10.82900 0.74700 33.60900
C  10.07400 0.15600 34.76200
H  7.09300 6.35500 30.30400
H  7.34000 5.26400 24.05700
H  11.48600 0.31800 24.96700
H  9.11100 2.83400 32.86900
H  9.09400 5.65300 31.98300
H  6.55700 4.25100 31.71100
H  6.76700 5.76100 32.71000
H  6.97700 4.18500 33.39400
H  11.45300 4.61700 32.08700
H  11.52800 3.26200 33.07200
H  9.53400 4.89400 34.30800
H  10.99400 5.89500 33.99900
H  5.67400 7.63200 29.48400
H  4.89900 7.87400 27.94000
H  6.31300 8.78600 28.36900
H  5.73300 9.22100 26.17600
H  4.45100 7.98100 25.85200
H  4.88100 8.99600 24.55500
H  9.13700 3.77400 22.53400
H  9.82600 0.93600 23.13300
H  6.69700 2.30300 23.58400
H  7.71300 1.29700 22.54700
H  7.15000 2.84200 21.88300
H  11.99600 2.76100 23.44600
H  11.15300 3.19600 21.96300
H  11.41800 0.86000 21.28400
H  12.47400 0.63000 22.77200
H  12.96500 1.74000 21.54900
H  12.97100 -1.77600 27.76700
H  12.51800 -1.47000 26.08100
H  11.37400 -2.26100 27.19700
H  12.12500 1.39100 31.74000
H  10.28000 -0.91400 34.75400
H  9.00200 0.32800 34.85500
H  10.55800 0.53600 35.66200
Mg -4.65500 25.28700 26.34600
C  -3.07200 26.73800 28.85900
C  -6.32700 23.19700 28.40300
C  -6.07600 23.64000 23.48700
C  -2.91400 27.27200 23.97600
N  -4.67100 25.08000 28.41500
C  -3.98500 25.82400 29.32400
C  -4.50100 25.62800 30.76600
C  -5.32700 24.29100 30.56600
C  -5.55800 24.17100 29.05300
C  -4.64400 23.07300 31.21800
C  -5.38900 26.81900 31.06900
C  -5.45900 27.21100 32.56900
H  -4.98700 26.20200 33.65000
N  -6.10300 23.65300 26.00800
C  -6.66100 22.97200 27.06500
C  -7.58200 21.96600 26.47900
C  -7.37500 21.97400 25.05500
C  -6.51000 23.15400 24.78500
C  -8.32000 20.93800 27.24100
C  -8.03500 21.14300 23.96800
O  -7.76700 21.23000 22.77300
C  -8.91100 20.00400 24.32300
N  -4.42200 25.38900 24.03000
C  -5.16200 24.65600 23.16700
C  -4.74200 24.92700 21.72000
C  -3.83300 26.13300 21.85900
C  -3.63100 26.26600 23.33000
C  -4.10800 23.73200 21.02100
C  -4.34300 27.47200 21.23300
C  -5.12800 27.30000 19.88000
N  -3.15300 26.66500 26.33100
C  -2.55900 27.46000 25.37400
C  -1.61600 28.41600 26.01500
C  -1.84400 28.23100 27.37800
C  -2.70900 27.08100 27.53400
C  -0.78600 29.45800 25.25000
C  -1.43000 28.60900 28.66400
O  -0.68200 29.53800 29.06100
C  -2.26900 27.71200 29.69000
C  -1.31000 26.95900 30.42100
O  -0.35700 26.37100 29.86600
O  -1.59800 26.86600 31.77100
C  -0.70500 25.87400 32.52800
H  -6.94900 22.54200 29.01700
H  -6.43000 23.06200 22.63100
H  -2.38800 27.82000 23.19100
H  -3.64200 25.50700 31.42600
H  -6.21100 24.42300 31.19000
H  -4.48200 22.34300 30.42500
H  -5.31500 22.63300 31.95600
H  -3.69700 23.27000 31.72000
H  -6.41300 26.58300 30.77700
H  -4.98300 27.68900 30.55300
H  -6.43300 27.58800 32.88200
H  -4.70500 27.99500 32.64100
H  -9.36600 21.03800 26.94900
H  -8.28900 21.09500 28.31900
H  -7.96300 19.92700 27.04300
H  -8.37600 19.27000 24.92400
H  -9.06400 19.52400 23.35600
H  -9.91300 20.28800 24.64500
H  -5.70300 25.06400 21.22400
H  -2.84000 25.92000 21.46200
H  -4.32200 22.73100 21.39600
H  -3.02500 23.83000 20.94200
H  -4.57300 23.80300 20.03800
H  -3.46600 28.08700 21.03300
H  -5.01400 27.90500 21.97500
H  -5.17200 26.31100 19.42300
H  -4.64600 27.95200 19.15200
H  -6.10400 27.76900 20.00400
H  0.01800 28.94200 24.72600
H  -0.48800 30.28700 25.89300
H  -1.37800 29.83800 24.41800
H  -2.96100 28.28500 30.30700
H  -1.24200 25.47100 33.38600
H  0.26800 26.29600 32.77800
H  -0.63100 24.96400 31.93200

