158

Mg 2.91800 -1.71600 43.55700
C  6.35700 -0.60900 43.54300
C  2.13600 1.33300 42.30600
C  -0.08300 -2.98000 43.00900
C  4.18700 -4.84600 44.33100
N  4.14100 0.06700 43.03200
C  5.49700 0.44300 43.19900
C  5.79900 1.86200 42.92700
C  4.40000 2.41500 42.65300
C  3.50100 1.20400 42.73000
C  3.91700 3.57400 43.62400
C  6.72200 2.23600 41.68500
C  6.70800 1.30400 40.47000
H  6.27500 1.83100 39.06200
N  1.30300 -0.93900 42.61000
C  1.18700 0.30100 42.20100
C  -0.21700 0.52700 41.74500
C  -0.84000 -0.80700 41.85300
C  0.12400 -1.64400 42.51400
C  -0.82000 1.79200 41.25400
C  -2.23000 -1.17400 41.40200
O  -3.05200 -0.35000 40.98100
C  -2.73300 -2.51500 41.33700
N  2.16900 -3.69000 43.66400
C  0.84600 -3.91500 43.54600
C  0.55900 -5.43000 43.87200
C  1.98100 -6.00400 44.10100
C  2.86600 -4.76900 44.03200
C  -0.46400 -5.42500 45.11400
C  2.49400 -7.02900 43.17700
C  2.35700 -8.48600 43.69100
N  4.90800 -2.63700 43.95900
C  5.20800 -3.86400 44.26400
C  6.57900 -3.95500 44.58600
C  7.18700 -2.71200 44.23300
C  6.04800 -1.92500 43.89100
C  7.18600 -5.29000 44.99600
C  8.42000 -1.94400 44.06300
O  9.61800 -2.29900 44.20600
C  7.92700 -0.51500 43.59100
C  8.51400 0.57200 44.48300
O  9.21100 1.47600 44.07000
O  8.23600 0.33100 45.84600
C  8.99200 1.19200 46.82400
H  1.82100 2.32200 41.96800
H  -1.14000 -3.24700 43.07600
H  4.58100 -5.82100 44.62500
H  6.25800 2.17000 43.86600
H  4.21600 2.74800 41.63200
H  3.21600 3.25300 44.39500
H  3.58400 4.37400 42.96300
H  4.74600 3.99500 44.19200
H  7.65900 1.99900 42.18900
H  6.57900 3.23600 41.27600
H  6.16500 0.37200 40.62900
H  7.73500 0.94100 40.42300
H  -0.09500 2.59300 41.40000
H  -1.62000 2.14900 41.90300
H  -1.21800 1.47500 40.29000
H  -3.10300 -2.96200 42.26000
H  -1.97100 -3.19000 40.94900
H  -3.54000 -2.51400 40.60400
H  0.14100 -5.93900 43.00300
H  2.12100 -6.40400 45.10500
H  -0.31000 -6.28200 45.76900
H  -1.43900 -5.63700 44.67400
H  -0.55200 -4.42600 45.54000
H  3.57500 -6.96100 43.05200
H  1.96000 -6.99700 42.22800
H  1.83400 -9.13600 42.98900
H  1.88100 -8.50100 44.67200
H  3.35200 -8.92300 43.76800
H  8.19900 -5.11100 45.35400
H  7.31200 -5.88500 44.09100
H  6.60700 -5.77500 45.78100
H  8.34300 -0.30600 42.60500
H  10.06700 1.01200 46.80900
H  8.61800 0.88900 47.80300
H  8.72800 2.24800 46.77600
Mg 43.65900 2.90900 47.59400
C  41.51200 5.57700 47.25800
C  40.97900 0.72100 47.71000
C  45.88300 0.31000 47.56400
C  46.36800 5.06600 46.79200
N  41.46800 3.11100 47.22800
C  40.84000 4.34700 47.14200
C  39.37100 4.13000 47.03600
C  39.19400 2.57100 47.45000
C  40.62800 2.05900 47.48000
C  38.46900 2.46400 48.84100
C  38.95200 4.43800 45.55900
C  37.94200 5.65000 45.24300
H  38.24300 6.53100 43.95800
N  43.41600 0.72400 47.66200
C  42.28300 0.04200 47.80700
C  42.54100 -1.25500 47.97900
C  43.93900 -1.42300 47.79300
C  44.49400 -0.08600 47.66800
C  41.43700 -2.24600 48.20000
C  44.64400 -2.79300 47.78800
O  43.92500 -3.80000 47.71100
C  46.17200 -2.86800 47.91800
N  45.74400 2.69200 47.05100
C  46.47600 1.52900 47.10300
C  47.99400 1.82300 47.08800
C  48.10100 3.30900 46.61500
C  46.62500 3.68500 46.74000
C  48.76300 1.57400 48.43600
C  48.64000 3.45500 45.17300
C  50.10300 3.77700 45.14000
N  43.94600 4.92100 47.28000
C  45.09700 5.63700 47.04300
C  44.70700 7.11500 46.92200
C  43.29200 7.12400 47.18200
C  42.92000 5.75500 47.26800
C  45.55900 8.22400 46.64000
C  42.11600 7.93600 47.32900
O  41.97800 9.19300 47.17400
C  40.95200 6.97100 47.45800
C  40.41400 7.05800 48.85000
O  40.99000 6.62600 49.86700
O  39.19700 7.68600 48.85300
C  38.62000 8.11000 50.14800
H  40.04800 0.19900 47.94100
H  46.70400 -0.41000 47.56100
H  47.24100 5.72100 46.74900
H  38.82900 4.71800 47.77600
H  38.73600 1.86000 46.76200
H  38.21700 3.43200 49.27300
H  38.98800 1.87400 49.59700
H  37.53700 1.91500 48.70700
H  38.42700 3.57800 45.14200
H  39.85600 4.40100 44.95200
H  38.04100 6.39700 46.03100
H  36.88200 5.39300 45.25200
H  40.43500 -1.82300 48.13500
H  41.52900 -2.65700 49.20500
H  41.51300 -3.15800 47.60800
H  46.37500 -2.61100 48.95700
H  46.65800 -2.27000 47.14700
H  46.56600 -3.88400 47.93000
H  48.49800 1.11900 46.42600
H  48.67100 3.89500 47.33600
H  49.20000 0.57900 48.35900
H  48.07600 1.73900 49.26700
H  49.54500 2.32800 48.52400
H  48.15100 4.28600 44.66300
H  48.60800 2.50700 44.63700
H  50.67400 2.86000 44.99500
H  50.43000 4.28400 46.04800
H  50.38000 4.50800 44.38100
H  46.18800 8.02300 45.77300
H  46.29900 8.35400 47.43000
H  45.01300 9.16300 46.55500
H  40.20600 7.06900 46.67000
H  39.08500 7.67600 51.03400
H  37.56700 7.83200 50.10300
H  38.69700 9.19700 50.14300

