158

Mg 1.74500 -1.77100 44.51400
C  5.13800 -1.19800 43.69000
C  0.91300 0.61700 42.30800
C  -1.42300 -2.88600 44.75000
C  2.91300 -4.50800 46.35200
N  2.90800 -0.53300 42.94000
C  4.28100 -0.46600 42.88300
C  4.60200 0.65900 41.88300
C  3.28900 1.41200 41.68100
C  2.29500 0.46200 42.29900
C  3.11000 2.82500 42.28500
C  5.38200 0.20700 40.63600
C  6.48300 1.11800 40.16200
H  7.04400 0.90900 38.72000
N  -0.00700 -1.22500 43.62800
C  -0.18600 -0.10300 42.82700
C  -1.59000 0.13200 42.64300
C  -2.24500 -0.90800 43.29600
C  -1.19000 -1.73800 43.91200
C  -2.21100 1.25800 41.88100
C  -3.69200 -0.96300 43.40800
O  -4.43500 -0.13100 42.86800
C  -4.47500 -1.96200 44.24900
N  0.91900 -3.49900 45.29300
C  -0.46800 -3.71300 45.30400
C  -0.77500 -4.83400 46.33400
C  0.61400 -5.49800 46.53200
C  1.58600 -4.42900 46.03000
C  -1.53300 -4.37700 47.63200
C  0.88700 -6.88000 45.84300
C  1.35500 -8.01100 46.71800
N  3.62000 -2.54000 45.16200
C  3.93900 -3.57500 45.96400
C  5.42000 -3.79200 46.06900
C  5.92800 -2.86200 45.24700
C  4.79000 -2.11500 44.64800
C  6.11500 -4.87000 46.72600
C  7.17200 -2.31000 44.67400
O  8.31600 -2.61100 44.89100
C  6.67600 -1.11600 43.73900
C  7.15100 0.16900 44.41000
O  6.61200 0.78500 45.28800
O  8.35100 0.52500 43.85400
C  8.96800 1.78400 44.31900
H  0.58600 1.50500 41.76300
H  -2.45200 -3.17000 44.98400
H  3.12200 -5.39700 46.95100
H  5.20000 1.44500 42.34500
H  3.08500 1.56400 40.62100
H  3.65700 3.68700 41.90500
H  3.35800 2.68100 43.33700
H  2.07700 3.07800 42.04700
H  4.68700 0.25700 39.79800
H  5.77800 -0.80400 40.72700
H  7.28900 1.01400 40.88800
H  6.11100 2.12800 40.33800
H  -2.76600 1.96600 42.49500
H  -2.92600 0.76600 41.22200
H  -1.41900 1.77800 41.34100
H  -5.51300 -1.89800 43.92200
H  -4.37300 -1.96300 45.33400
H  -4.31600 -2.98900 43.92100
H  -1.47800 -5.50500 45.83900
H  0.90900 -5.63300 47.57300
H  -1.09200 -4.72900 48.56500
H  -2.51100 -4.85400 47.57900
H  -1.59400 -3.31900 47.38000
H  1.58400 -6.81100 45.00800
H  -0.03700 -7.24400 45.39600
H  1.30500 -7.84500 47.79400
H  2.42600 -8.01500 46.51900
H  0.84000 -8.93200 46.44300
H  6.21600 -4.71500 47.80000
H  7.09100 -5.03200 46.26800
H  5.56300 -5.77900 46.48500
H  7.17500 -1.12700 42.76900
H  8.34000 2.58500 43.92900
H  9.88400 1.96100 43.75500
H  9.10700 1.98500 45.38200
Mg 17.37200 -2.34800 28.01400
C  16.35400 -0.39800 30.84000
C  19.48500 -4.13300 30.09100
C  18.89900 -3.65400 25.36900
C  15.41300 -0.31000 26.07300
N  17.89000 -2.23700 30.21500
C  17.30100 -1.41100 31.18900
C  17.60400 -1.96700 32.60500
C  18.75700 -3.01000 32.29700
C  18.71300 -3.12700 30.77900
C  20.10600 -2.61900 32.82800
C  16.31600 -2.60000 33.17300
C  15.93500 -2.21000 34.56500
H  17.00400 -1.64400 35.54200
N  18.91200 -3.81000 27.76500
C  19.56600 -4.48700 28.76700
C  20.32900 -5.56500 28.19100
C  20.16200 -5.48700 26.77100
C  19.33100 -4.27400 26.52800
C  21.06500 -6.55900 29.07200
C  20.80100 -6.30600 25.68400
O  20.64800 -6.11000 24.50600
C  21.95300 -7.29100 26.05900
N  17.37200 -1.80100 26.04400
C  18.03600 -2.55500 25.09600
C  17.64600 -2.11000 23.71100
C  16.49300 -1.07000 23.87700
C  16.38800 -1.06100 25.43300
C  18.82000 -1.68200 22.86200
C  15.20100 -1.47400 23.07000
C  14.75600 -0.55200 21.91200
N  16.20200 -0.67400 28.36000
C  15.32100 -0.05300 27.47100
C  14.48700 0.92400 28.14100
C  14.89200 0.89100 29.47000
C  15.83400 -0.13000 29.55400
C  13.53600 1.76200 27.49500
C  14.72700 1.43800 30.81700
O  14.04500 2.42000 31.20700
C  15.63800 0.57600 31.75800
C  16.62500 1.46200 32.42400
O  17.66900 1.91700 31.83800
O  16.17300 1.81600 33.68700
C  16.99100 2.90300 34.26500
H  20.01000 -4.74800 30.82500
H  19.22700 -4.28000 24.53600
H  14.65700 0.16100 25.44100
H  18.04100 -1.24300 33.29200
H  18.61700 -4.04200 32.61700
H  20.47500 -1.95700 32.04500
H  20.69100 -3.49800 33.10200
H  19.99200 -1.99700 33.71600
H  16.45800 -3.68100 33.15100
H  15.54100 -2.28200 32.47600
H  15.63300 -3.08000 35.14800
H  15.07000 -1.54900 34.52200
H  21.06500 -7.59100 28.72300
H  20.59400 -6.57100 30.05500
H  22.09800 -6.22100 29.15100
H  21.63100 -8.26400 26.43100
H  22.54100 -6.80200 26.83600
H  22.56400 -7.46700 25.17400
H  17.18600 -3.00300 23.28600
H  16.92800 -0.14500 23.49900
H  18.94500 -2.43200 22.08100
H  19.75400 -1.56200 23.41100
H  18.58900 -0.75100 22.34400
H  14.39500 -1.31800 23.78800
H  15.05300 -2.50200 22.73700
H  14.33300 -1.19100 21.13700
H  15.45600 0.15800 21.47100
H  13.84800 -0.00400 22.16700
H  12.75800 2.02100 28.21300
H  13.26900 1.23000 26.58200
H  14.08200 2.68300 27.29100
H  15.04800 0.11400 32.55000
H  17.17600 3.67400 33.51800
H  17.94300 2.55700 34.66800
H  16.45700 3.35500 35.10100

