158

Mg 46.07500 24.32600 27.61200
C  46.92600 26.35900 30.43400
C  45.41000 21.81100 29.87400
C  45.98500 22.30500 25.07200
C  47.32600 27.00000 25.49600
N  46.03400 24.18500 29.95900
C  46.30700 25.09900 30.86600
C  45.89000 24.68300 32.26900
C  45.47900 23.17700 32.04400
C  45.74200 22.97000 30.53200
C  46.11500 22.10400 32.97500
C  44.67400 25.51000 32.96800
C  44.88800 26.02200 34.39900
H  43.68200 26.27200 35.30200
N  45.63300 22.42300 27.47700
C  45.40300 21.57600 28.49200
C  45.06300 20.27800 27.90000
C  45.28500 20.31000 26.48100
C  45.61700 21.70800 26.30600
C  44.42100 19.17800 28.78200
C  45.14200 19.31200 25.35600
O  45.21700 19.63300 24.16400
C  44.82500 17.84400 25.66500
N  46.59900 24.63500 25.61200
C  46.33800 23.63500 24.72400
C  46.73600 24.09900 23.27400
C  46.91500 25.56800 23.42400
C  46.96000 25.74500 24.90700
C  47.97200 23.34400 22.55300
C  45.76200 26.36400 22.76500
C  44.40100 26.63300 23.49400
N  46.91400 26.28500 27.78200
C  47.37100 27.26500 26.86300
C  47.93000 28.44400 27.57100
C  47.70400 28.10000 28.87000
C  47.14700 26.81300 29.03400
C  48.59200 29.62300 26.90600
C  47.81700 28.60400 30.23300
O  48.29900 29.63200 30.62400
C  47.29700 27.45500 31.27100
C  48.35500 27.05800 32.17600
O  49.38600 26.48700 31.86000
O  48.02000 27.45200 33.44900
C  48.89300 26.85700 34.42400
H  45.20300 20.94400 30.50500
H  45.98200 21.64100 24.20500
H  47.59300 27.63600 24.65000
H  46.77000 24.70200 32.91200
H  44.39700 23.04400 32.04200
H  45.33800 21.44900 33.37000
H  46.65200 22.65300 33.74800
H  46.90700 21.59000 32.43000
H  43.93900 24.70900 33.04600
H  44.39600 26.22500 32.19500
H  45.33900 27.00300 34.25300
H  45.54300 25.36000 34.96600
H  43.63200 18.76300 28.15400
H  44.07200 19.42400 29.78400
H  45.15800 18.38800 28.93100
H  43.77200 17.69400 25.90300
H  45.57100 17.43900 26.34800
H  44.89800 17.29200 24.72800
H  45.83400 23.89500 22.69700
H  47.86500 25.96500 23.06800
H  47.72300 22.87900 21.59900
H  48.29400 22.59800 23.28000
H  48.85100 23.98700 22.50600
H  45.58900 25.96400 21.76600
H  46.12800 27.38400 22.64400
H  44.51800 26.37900 24.54800
H  43.49200 26.14000 23.15100
H  44.19500 27.69100 23.32700
H  49.08200 30.30800 27.59700
H  47.86300 30.25200 26.39600
H  49.32200 29.34500 26.14500
H  46.40400 27.71400 31.84000
H  48.36700 26.97500 35.37100
H  49.88200 27.31500 34.46700
H  49.10400 25.80800 34.21600
Mg 46.75900 34.63800 28.67900
C  45.19300 32.35100 30.72500
C  46.71800 36.89200 31.19100
C  47.83100 36.91700 26.45800
C  46.04100 32.41400 25.85900
N  46.16600 34.53600 30.71600
C  45.47900 33.52800 31.43500
C  45.30800 33.87700 32.91500
C  45.27800 35.43000 32.75300
C  46.15800 35.62000 31.48500
C  43.82900 35.99200 32.63500
C  46.41200 33.20000 33.90200
C  47.40900 33.94300 34.76000
H  46.91200 34.47700 36.15800
N  47.53300 36.57300 28.92400
C  47.46800 37.36100 30.04500
C  48.16400 38.53800 29.88900
C  48.49100 38.58500 28.48600
C  47.92700 37.37400 27.86000
C  48.46700 39.40800 31.04100
C  49.25100 39.59600 27.71100
O  49.55500 39.38600 26.52200
C  49.63300 40.95200 28.32000
N  46.89800 34.61800 26.47700
C  47.35500 35.72400 25.85700
C  47.39100 35.49900 24.32500
C  46.81800 34.06500 24.19800
C  46.63000 33.61800 25.60100
C  46.79300 36.65200 23.46000
C  47.61000 33.08600 23.25600
C  46.85200 32.56100 22.02000
N  45.86900 32.75500 28.33200
C  45.67400 31.93400 27.16900
C  44.90500 30.76400 27.49700
C  44.76700 30.83100 28.94300
C  45.22100 32.08200 29.34200
C  44.47200 29.71300 26.61800
C  44.27400 30.18600 30.14900
O  43.80900 29.10200 30.30300
C  44.37300 31.24600 31.25300
C  44.70900 30.63300 32.60300
O  45.73400 30.12500 32.97500
O  43.59400 30.86900 33.39900
C  43.79200 30.40700 34.81500
H  46.56700 37.68400 31.92800
H  48.15600 37.68800 25.75700
H  45.68000 31.78900 25.04000
H  44.40200 33.55900 33.43000
H  45.76100 35.94900 33.58100
H  43.31400 35.72600 33.55800
H  43.28300 35.61500 31.77100
H  43.89100 37.08000 32.64600
H  46.97600 32.48700 33.30200
H  45.76800 32.84000 34.70500
H  47.55100 34.88000 34.22200
H  48.39000 33.46800 34.76300
H  47.72200 40.20200 31.08500
H  49.37600 39.99400 30.90200
H  48.70800 39.00300 32.02400
H  48.87000 41.47800 28.89400
H  49.91200 41.51100 27.42700
H  50.45900 40.72300 28.99300
H  48.44700 35.42000 24.06600
H  45.75300 34.09400 23.97100
H  46.11200 37.28100 24.03200
H  46.12600 36.12100 22.78100
H  47.57900 37.15400 22.89500
H  47.90300 32.14400 23.72000
H  48.54300 33.55800 22.94900
H  47.54200 32.47400 21.18100
H  46.02600 33.12800 21.58900
H  46.56200 31.53500 22.24500
H  45.33900 29.24600 26.15000
H  43.80800 30.14000 25.86700
H  44.05900 28.84500 27.13200
H  43.38500 31.70000 31.33300
H  43.74600 29.32800 34.96000
H  43.08100 31.02500 35.36200
H  44.82100 30.52000 35.15600

