158

Mg 26.85000 50.39400 26.95400
C  24.79300 51.65600 29.46700
C  29.06100 49.54500 29.58000
C  28.77900 49.24000 24.68900
C  24.47800 51.55500 24.60300
N  26.96200 50.71400 29.31000
C  25.82500 51.04800 30.01800
C  26.05200 50.79600 31.52200
C  27.56300 50.37200 31.58200
C  27.92700 50.20300 30.09500
C  28.51900 51.27100 32.42900
C  25.17200 49.67200 32.19100
C  24.58900 49.92100 33.62100
H  25.46400 50.83000 34.53000
N  28.67500 49.49900 27.11000
C  29.34000 49.15500 28.28500
C  30.50300 48.46500 27.84400
C  30.54500 48.35400 26.45800
C  29.31500 49.06800 26.03500
C  31.61000 47.91100 28.74800
C  31.55100 47.67100 25.46800
O  31.47200 47.80200 24.25200
C  32.59900 46.77900 26.01600
N  26.70500 50.52800 24.88500
C  27.58100 49.81700 24.12600
C  27.18500 49.65800 22.64700
C  25.75400 50.42200 22.68500
C  25.62700 50.87500 24.12400
C  28.06600 50.22400 21.54700
C  24.52900 49.52900 22.23900
C  23.53900 50.13000 21.19800
N  25.10800 51.57700 26.99900
C  24.18700 51.86200 25.97000
C  23.01900 52.45500 26.60400
C  23.33800 52.52900 27.95400
C  24.53400 51.86500 28.19900
C  21.79600 52.82800 25.82000
C  22.82800 52.86000 29.22300
O  21.81000 53.45000 29.48000
C  23.70900 52.27600 30.30100
C  24.26600 53.47400 31.04700
O  24.91500 54.38200 30.59300
O  23.73400 53.40300 32.32900
C  24.09600 54.51500 33.16500
H  29.64300 49.09800 30.38900
H  29.41900 48.98200 23.84300
H  23.75700 51.86800 23.84500
H  25.83100 51.73300 32.03300
H  27.76100 49.35000 31.90400
H  29.07400 50.70100 33.17400
H  27.97900 52.08300 32.91500
H  29.30700 51.71200 31.81800
H  25.63800 48.68700 32.20300
H  24.31800 49.64900 31.51300
H  24.17500 48.97700 33.97500
H  23.61800 50.39700 33.48400
H  32.45000 48.57600 28.54900
H  31.83100 46.85900 28.57200
H  31.34100 47.96600 29.80300
H  33.38100 46.55900 25.28900
H  32.19100 45.82400 26.34900
H  33.22400 47.25900 26.76900
H  27.01800 48.63600 22.30500
H  25.66800 51.40100 22.21400
H  29.08500 50.42900 21.87500
H  27.71900 51.13600 21.06200
H  28.13600 49.58200 20.66900
H  24.10500 49.24300 23.20100
H  25.01300 48.67000 21.77500
H  22.56500 50.22400 21.67900
H  23.39700 49.38400 20.41500
H  23.90700 51.06200 20.77000
H  21.81500 53.82300 25.37700
H  20.92500 52.80800 26.47500
H  21.61400 52.02800 25.10200
H  23.19100 51.58700 30.96800
H  25.13600 54.83900 33.14200
H  23.77300 54.30600 34.18500
H  23.55400 55.38800 32.80100
Mg 9.62300 47.52700 26.49100
C  7.88100 47.54500 29.37300
C  12.33900 48.85300 28.14000
C  11.29000 47.37700 23.58100
C  6.62600 46.78200 24.78200
N  10.07800 48.10300 28.55200
C  9.19600 48.04900 29.53400
C  9.88000 48.33900 30.88500
C  11.02900 49.29800 30.42900
C  11.15900 48.78900 28.95500
C  10.70200 50.78900 30.36200
C  10.41900 47.13700 31.64300
C  10.54000 47.31300 33.13100
H  10.24500 46.22900 34.18000
N  11.55000 48.20700 25.90900
C  12.54800 48.57600 26.75900
C  13.73700 48.72000 25.92100
C  13.43900 48.16200 24.59900
C  12.04800 47.87100 24.65400
C  15.01400 49.33300 26.53300
C  14.42800 47.98400 23.44500
O  14.09300 47.55700 22.36000
C  15.98600 48.29500 23.60100
N  8.98600 47.29700 24.34600
C  9.89700 47.20400 23.38800
C  9.18400 46.79500 22.09900
C  7.78100 46.51400 22.51700
C  7.75000 46.90000 23.93400
C  9.41500 47.88100 21.01600
C  7.33000 45.00000 22.19000
C  7.90600 43.93800 23.15500
N  7.72400 47.03000 26.92200
C  6.54000 46.81100 26.19800
C  5.42200 46.70700 27.05600
C  5.88900 46.97000 28.28300
C  7.24900 47.15500 28.16300
C  3.93700 46.60900 26.74700
C  5.48200 47.14500 29.65100
O  4.31100 47.06100 30.05400
C  6.80400 47.40000 30.46400
C  6.93100 46.04000 31.21400
O  7.49900 45.07000 30.77900
O  6.30700 46.15300 32.37900
C  6.26500 44.94500 33.22200
H  13.17200 49.22700 28.73900
H  11.83500 47.07700 22.68400
H  5.68900 46.55500 24.27000
H  9.28200 48.97900 31.53400
H  11.94300 49.13300 30.99900
H  11.10700 51.30800 31.23000
H  9.64500 50.92800 30.59000
H  10.91500 51.29000 29.41700
H  11.36000 46.76400 31.23900
H  9.74500 46.28600 31.55600
H  9.81300 48.06900 33.43000
H  11.60300 47.52500 33.24600
H  14.73900 50.26900 27.01900
H  15.93200 49.44400 25.95600
H  15.43700 48.72400 27.33100
H  16.34000 47.78100 24.49500
H  16.07100 49.38200 23.59600
H  16.57100 47.90500 22.76900
H  9.58400 45.83000 21.78700
H  7.03100 47.12700 22.01800
H  9.68600 47.37000 20.09200
H  10.22600 48.51200 21.38000
H  8.57000 48.55200 20.86400
H  7.75500 44.71400 21.22800
H  6.24700 44.93000 22.08700
H  7.05100 43.52100 23.68600
H  8.56100 44.31600 23.94000
H  8.51100 43.18700 22.64600
H  3.59300 47.63000 26.91400
H  3.52600 45.95800 27.51900
H  3.68100 46.28900 25.73700
H  6.71000 48.32000 31.04200
H  6.59300 45.34300 34.18300
H  7.06400 44.23800 33.00000
H  5.26200 44.55000 33.37900

