158

Mg 9.17500 4.26100 27.65100
C  10.62400 2.86800 30.43500
C  7.36400 6.38100 29.72900
C  8.04900 5.68800 25.04000
C  10.68500 1.68100 25.68300
N  8.92700 4.45900 29.84600
C  9.72800 3.93000 30.80600
C  9.57200 4.49400 32.17300
C  8.40300 5.56200 31.94200
C  8.11500 5.43700 30.40200
C  7.19100 5.30000 32.87200
C  10.85500 4.94500 32.96700
C  10.74600 5.86200 34.13900
H  11.68500 5.68100 35.32500
N  7.80900 5.74100 27.41200
C  7.20200 6.54100 28.33200
C  6.43700 7.50300 27.68100
C  6.74100 7.42900 26.31200
C  7.58900 6.23900 26.19600
C  5.52000 8.43100 28.37900
C  6.33900 8.36100 25.13900
O  6.55700 8.09100 23.98900
C  5.66400 9.63900 25.40500
N  9.20200 3.66200 25.63700
C  8.67400 4.47300 24.71600
C  8.98100 3.98400 23.22500
C  9.96100 2.82100 23.57300
C  9.88300 2.64800 25.02900
C  7.67700 3.61000 22.40300
C  11.35500 3.27600 22.91300
C  12.11900 2.22200 22.18600
N  10.40000 2.59600 27.94100
C  10.90200 1.63300 27.10600
C  11.68600 0.64800 27.85500
C  11.66600 1.14200 29.17600
C  10.82700 2.29800 29.17200
C  12.36300 -0.54800 27.34000
C  12.17500 1.00800 30.53400
O  13.01300 0.19600 30.93300
C  11.54300 2.12000 31.38100
C  10.86800 1.38800 32.50700
O  9.77900 0.81400 32.51500
O  11.69400 1.46500 33.64400
C  11.26300 1.18700 35.03700
H  6.78900 7.04200 30.38100
H  7.74800 6.12400 24.08600
H  11.20100 0.93800 25.07100
H  9.18000 3.61300 32.67900
H  8.88500 6.52500 32.10800
H  6.35600 4.95500 32.26100
H  6.83700 6.21000 33.35500
H  7.49400 4.68900 33.72200
H  11.38000 5.50600 32.19400
H  11.39000 4.11000 33.41900
H  9.69700 5.84600 34.43500
H  10.95900 6.84300 33.71300
H  5.95100 9.39800 28.63800
H  5.33400 8.10400 29.40200
H  4.57700 8.46100 27.83300
H  5.73400 10.37100 24.60000
H  6.28400 10.04600 26.20300
H  4.62300 9.33100 25.50300
H  9.56000 4.80900 22.80900
H  9.53100 1.92300 23.13100
H  6.85000 4.08100 22.93400
H  7.52500 2.54900 22.20300
H  7.79000 4.06100 21.41700
H  11.97700 3.71200 23.69500
H  11.23400 3.96700 22.07900
H  11.57100 1.28400 22.26700
H  13.06000 2.06400 22.71300
H  12.33100 2.35800 21.12500
H  12.11300 -1.33400 28.05200
H  13.43000 -0.37600 27.19800
H  12.00900 -0.81700 26.34400
H  12.29000 2.83900 31.71900
H  11.80000 1.78800 35.77100
H  11.27300 0.11700 35.24500
H  10.24500 1.50300 35.26800
Mg 16.07000 51.23700 26.02000
C  17.91800 50.02400 28.66000
C  13.70300 52.26000 28.20600
C  14.55500 52.79800 23.37300
C  18.52700 50.13200 23.83100
N  15.93000 51.32300 28.12100
C  16.82400 50.75100 29.01600
C  16.38700 51.08000 30.47900
C  14.85600 51.35400 30.27100
C  14.81100 51.68200 28.77800
C  13.88900 50.13200 30.56800
C  17.37100 52.18200 31.07700
C  17.55400 51.93900 32.65400
H  16.60100 52.63000 33.63900
N  14.37800 52.41000 25.79400
C  13.51300 52.67900 26.84800
C  12.48700 53.54600 26.34300
C  12.71600 53.70200 24.94400
C  13.90000 52.89700 24.61800
C  11.31900 54.12600 27.20800
C  11.90300 54.49200 23.90300
O  12.29800 54.57200 22.75200
C  10.64500 55.20200 24.24700
N  16.30100 51.17900 23.86600
C  15.68500 52.11300 23.03400
C  16.36300 52.07000 21.66100
C  17.69300 51.34900 21.81000
C  17.47400 50.77700 23.23900
C  15.49900 51.38800 20.58400
C  18.92000 52.31800 21.75900
C  20.16000 51.81400 20.95900
N  17.74200 50.09200 26.06700
C  18.65100 49.76900 25.15500
C  19.77700 49.07400 25.75200
C  19.50200 49.22100 27.12500
C  18.32100 49.82900 27.29900
C  21.08000 48.51500 25.21700
C  20.07200 48.87600 28.42300
O  21.05400 48.19600 28.70900
C  19.08000 49.44500 29.47100
C  18.75000 48.40600 30.47600
O  18.51300 47.20800 30.23700
O  18.95900 48.87400 31.76100
C  18.89200 47.88500 32.90400
H  12.83900 52.48000 28.83600
H  14.24500 53.42200 22.53200
H  19.36800 49.95600 23.15800
H  16.55200 50.19000 31.08500
H  14.60600 52.26200 30.82000
H  13.39900 50.46700 31.48300
H  14.36900 49.17300 30.76200
H  13.18900 50.01300 29.74200
H  16.69600 53.01400 30.87700
H  18.30700 52.37500 30.55300
H  18.58000 52.23300 32.87600
H  17.45200 50.86600 32.81500
H  10.41700 53.82900 26.67200
H  11.40400 55.21200 27.21700
H  11.32400 53.84500 28.26100
H  10.30200 55.76100 23.37600
H  10.91300 55.91800 25.02500
H  9.85600 54.55100 24.62200
H  16.48900 53.10200 21.33400
H  17.77900 50.52400 21.10300
H  16.04100 50.91100 19.76800
H  14.72400 52.05000 20.19700
H  14.94600 50.54900 21.00600
H  19.32200 52.58700 22.73600
H  18.68300 53.22100 21.19600
H  19.92800 51.71300 19.89800
H  20.56000 50.83400 21.21900
H  20.93400 52.56800 21.10100
H  21.25700 47.49000 25.54500
H  21.94800 49.12100 25.47700
H  21.03600 48.64800 24.13700
H  19.65300 50.25600 29.92000
H  19.12100 48.44700 33.80900
H  19.57000 47.05600 32.70100
H  17.93300 47.41300 33.11800

