158

Mg 47.34900 34.34600 26.81800
C  45.56500 33.50700 29.73200
C  47.84700 37.51300 28.19900
C  48.75100 35.32000 23.89600
C  46.32800 31.31100 25.35600
N  46.84600 35.39000 28.85500
C  46.10700 34.82200 29.88600
C  45.93700 35.75200 31.07300
C  46.91500 36.90700 30.65000
C  47.17300 36.64500 29.15600
C  46.55900 38.35200 30.92100
C  46.25100 35.44100 32.58600
C  45.07500 35.57500 33.54400
H  45.47300 35.82700 35.01300
N  48.26200 36.05600 26.22200
C  48.35000 37.26500 26.91800
C  49.03500 38.25000 26.11700
C  49.33900 37.63200 24.82600
C  48.82200 36.25800 24.94300
C  49.52700 39.60800 26.65000
C  50.10500 38.18800 23.53900
O  50.30000 37.58300 22.47200
C  50.75500 39.51000 23.63300
N  47.61000 33.38900 25.00200
C  48.23600 33.99500 23.92900
C  48.32700 33.08100 22.72100
C  47.41200 31.89000 23.09000
C  47.06700 32.25400 24.58600
C  48.12400 33.75500 21.30900
C  48.23000 30.59000 22.89200
C  49.39400 30.29800 23.79300
N  46.36300 32.63600 27.46700
C  45.91500 31.52000 26.71600
C  45.07600 30.73400 27.59000
C  44.96300 31.48200 28.76700
C  45.66100 32.67000 28.65400
C  44.34800 29.40000 27.25500
C  44.24500 31.44800 30.01900
O  43.41500 30.64200 30.51900
C  44.60100 32.78900 30.69000
C  45.26500 32.26200 31.94700
O  46.43500 32.00600 32.20000
O  44.23100 31.94200 32.81700
C  44.65600 31.14000 33.97000
H  48.05900 38.48000 28.66000
H  49.16800 35.67400 22.95000
H  45.96800 30.40000 24.87400
H  44.98300 36.25600 30.91900
H  47.87200 36.57300 31.04900
H  46.47800 38.88000 29.97100
H  47.40000 38.75000 31.48800
H  45.58100 38.45800 31.39200
H  47.01700 36.07700 33.03000
H  46.58400 34.42700 32.80600
H  44.45000 34.69300 33.40500
H  44.48700 36.43000 33.21100
H  48.97400 40.43100 26.19500
H  50.60200 39.71300 26.50500
H  49.40200 39.58700 27.73200
H  50.05800 40.25600 24.01500
H  51.23500 39.76300 22.68800
H  51.51100 39.43400 24.41400
H  49.39100 32.84100 22.72400
H  46.43400 31.90100 22.61000
H  49.08200 33.61000 20.80900
H  47.73500 34.77100 21.37500
H  47.33700 33.21000 20.78800
H  48.66600 30.60200 21.89300
H  47.51600 29.77400 23.00600
H  50.23800 30.34000 23.10600
H  49.29400 29.28800 24.19100
H  49.53800 31.01800 24.59900
H  44.24100 29.33100 26.17300
H  43.37900 29.41700 27.75400
H  45.13300 28.76100 27.65800
H  43.69000 33.33200 30.94200
H  45.63600 31.31400 34.41300
H  44.39000 30.12600 33.67200
H  43.94500 31.20700 34.79400
Mg 26.80100 51.13600 26.56200
C  24.82800 52.02900 29.21400
C  29.33200 50.22400 28.83100
C  28.65200 49.97500 23.90500
C  24.33900 52.12000 24.32500
N  27.09100 51.29400 28.81100
C  26.02300 51.52700 29.68100
C  26.43600 51.17400 31.10700
C  27.94800 50.85300 30.97600
C  28.20400 50.79700 29.43600
C  28.83100 51.91100 31.64900
C  25.56400 50.05400 31.73100
C  24.84800 50.26300 33.11700
H  25.61900 50.90100 34.29500
N  28.75900 50.27300 26.38000
C  29.55900 49.91900 27.40400
C  30.73300 49.22400 26.86700
C  30.60200 49.12800 25.46100
C  29.24200 49.82900 25.14300
C  31.81500 48.50100 27.67200
C  31.50200 48.48000 24.43300
O  31.10000 48.37700 23.25600
C  32.85800 47.81400 24.63500
N  26.59300 51.22100 24.39800
C  27.44700 50.60100 23.53300
C  26.94500 50.74500 22.07600
C  25.52800 51.38500 22.24000
C  25.44600 51.59500 23.75700
C  27.87400 51.51100 21.12100
C  24.43300 50.38100 21.66000
C  23.32600 51.06500 20.90600
N  25.12300 52.11100 26.61300
C  24.13200 52.41300 25.71800
C  22.97300 52.96600 26.29600
C  23.17400 52.80100 27.66200
C  24.47000 52.23900 27.81100
C  21.81600 53.59000 25.58700
C  22.61200 52.96700 28.94400
O  21.56500 53.48700 29.21700
C  23.58100 52.43700 30.02500
C  23.90800 53.56000 30.97900
O  24.64200 54.44600 30.75100
O  23.13400 53.32700 32.07200
C  23.34100 54.24400 33.23500
H  30.12700 49.94400 29.52500
H  29.20300 49.56900 23.05400
H  23.56000 52.39500 23.61000
H  26.32300 52.07100 31.71600
H  28.11500 49.82700 31.30300
H  28.56300 52.88700 31.24300
H  29.84400 51.60300 31.38900
H  28.81700 51.88600 32.73900
H  26.02500 49.07500 31.86000
H  24.75700 49.97000 31.00200
H  24.35900 49.35600 33.47200
H  24.07200 50.96600 32.81100
H  32.70100 49.11600 27.82700
H  32.07900 47.58200 27.14800
H  31.39500 48.31200 28.66000
H  33.32500 47.66100 23.66200
H  32.73300 46.84500 25.11800
H  33.36600 48.47900 25.33400
H  26.84400 49.71000 21.75000
H  25.38700 52.39000 21.84200
H  27.44500 52.41900 20.69700
H  28.38300 50.84400 20.42600
H  28.62300 51.87800 21.82200
H  24.00800 49.76600 22.45300
H  24.85700 49.70500 20.91700
H  23.12200 50.53500 19.97600
H  23.59400 52.06200 20.55700
H  22.39400 50.96200 21.46100
H  22.14100 54.55500 25.19900
H  21.07800 53.64800 26.38800
H  21.51300 52.84900 24.84600
H  23.01000 51.66300 30.53800
H  23.67200 55.23900 32.93700
H  24.03300 53.77600 33.93500
H  22.40900 54.44800 33.76300

