158

Mg 43.80400 3.33800 47.10700
C  41.83600 6.31100 46.86300
C  40.71300 1.60800 46.83600
C  45.49500 0.80100 46.72100
C  46.69700 5.50200 46.69400
N  41.51200 3.99700 46.97500
C  40.99800 5.28800 46.97500
C  39.46500 5.23100 47.11600
C  39.16800 3.61900 47.30300
C  40.54500 3.02300 47.11200
C  38.57500 3.18700 48.64600
C  38.69000 5.92900 45.95200
C  39.36300 6.09100 44.55800
H  38.78100 5.35700 43.34900
N  43.18300 1.47900 46.64800
C  41.93700 0.91500 46.65600
C  42.12400 -0.49500 46.35100
C  43.49500 -0.74800 46.20400
C  44.14200 0.50900 46.50600
C  40.93200 -1.35000 46.00600
C  43.97100 -2.13000 45.85700
O  43.18200 -3.07800 45.70000
C  45.42500 -2.39300 45.80500
N  45.76000 3.22200 46.80200
C  46.25000 1.99800 46.79200
C  47.76400 1.94900 47.13200
C  48.15600 3.44700 46.53000
C  46.81200 4.12500 46.69600
C  48.02600 1.86700 48.64100
C  48.65400 3.42700 45.00800
C  50.18100 3.58700 44.67500
N  44.26200 5.45500 47.05100
C  45.43900 6.16600 46.75400
C  45.26300 7.54000 46.65100
C  43.84200 7.65300 46.75600
C  43.27800 6.35300 46.91900
C  46.28400 8.56500 46.42600
C  42.73300 8.62800 46.70300
O  42.79800 9.85600 46.51400
C  41.38700 7.76800 46.78500
C  40.74600 8.19100 48.07200
O  41.21700 8.13100 49.16400
O  39.54400 8.86800 47.81600
C  38.76000 9.62000 48.89500
H  39.79400 1.02500 46.75200
H  46.07900 -0.10300 46.90700
H  47.63900 6.04500 46.59300
H  39.21700 5.70800 48.06500
H  38.48800 3.24300 46.54000
H  38.05300 3.95900 49.21200
H  39.37200 2.85400 49.31100
H  37.92100 2.36000 48.37100
H  38.40100 6.95800 46.16300
H  37.77900 5.36200 45.76000
H  40.41500 5.84200 44.70200
H  39.41200 7.15600 44.32900
H  41.22400 -1.79700 45.05600
H  40.04000 -0.78100 45.74100
H  40.76300 -2.08000 46.79700
H  45.97700 -2.41500 46.74500
H  45.74500 -1.46900 45.32300
H  45.72000 -3.31100 45.29500
H  48.26100 1.16500 46.56100
H  48.88200 3.93700 47.17900
H  48.31500 2.85200 49.00700
H  48.74800 1.06400 48.79100
H  47.08700 1.54100 49.08900
H  48.12800 4.31100 44.64800
H  48.26600 2.46500 44.67400
H  50.67600 3.94200 45.57900
H  50.34500 4.42200 43.99400
H  50.64500 2.71900 44.20500
H  47.03000 8.69400 47.21000
H  45.87700 9.56800 46.30300
H  46.87800 8.35200 45.53700
H  40.77400 8.01200 45.91700
H  38.77700 9.05800 49.82900
H  37.80100 9.75400 48.39500
H  39.23100 10.59700 49.00400
Mg -2.01900 34.13800 26.35800
C  -3.31100 32.49300 29.21100
C  -0.78100 36.55200 28.42600
C  -1.43400 36.10700 23.55700
C  -4.02900 32.01700 24.36700
N  -1.94200 34.43700 28.67100
C  -2.50200 33.60200 29.59700
C  -2.14900 34.11300 31.01400
C  -1.46900 35.47400 30.66700
C  -1.34200 35.42300 29.15200
C  -1.99500 36.75700 31.29900
C  -1.26700 32.98100 31.66800
C  -1.89500 32.38100 32.89600
H  -1.17700 32.54300 34.18700
N  -1.11600 36.00200 26.06800
C  -0.65700 36.83300 27.03700
C  -0.08100 38.00200 26.46200
C  -0.14800 37.89800 25.05400
C  -0.89700 36.59800 24.81800
C  0.62500 39.08600 27.30300
C  0.35700 38.83100 23.94500
O  0.14800 38.60400 22.75500
C  1.10300 40.06100 24.24600
N  -2.65800 34.04900 24.27700
C  -2.25300 34.96100 23.34500
C  -2.85200 34.58900 21.94800
C  -3.65300 33.29000 22.22600
C  -3.41800 33.07900 23.72000
C  -3.75200 35.67000 21.31400
C  -3.13900 32.15200 21.30500
C  -2.17400 31.13500 21.84000
N  -3.27000 32.50000 26.64600
C  -3.98300 31.68800 25.78500
C  -4.55100 30.61900 26.50600
C  -4.37300 30.92500 27.84600
C  -3.62100 32.10300 27.87300
C  -5.29100 29.45300 25.99500
C  -4.83100 30.58600 29.19900
O  -5.55700 29.73300 29.65900
C  -4.03500 31.53600 30.13500
C  -5.07000 32.29700 30.97600
O  -5.72500 33.25700 30.66900
O  -5.19000 31.51600 32.10100
C  -5.87500 32.21000 33.17700
H  -0.33700 37.36100 29.00800
H  -1.30700 36.60200 22.59300
H  -4.58900 31.31700 23.74300
H  -3.08500 34.25300 31.55600
H  -0.44800 35.40100 31.04200
H  -2.90900 36.51000 31.84000
H  -2.34200 37.43900 30.52200
H  -1.27100 37.25200 31.94500
H  -0.25300 33.33500 31.85600
H  -1.25000 32.10600 31.01900
H  -1.94100 31.29500 32.81500
H  -2.92300 32.70000 33.06900
H  1.69400 38.92300 27.16200
H  0.29000 39.16400 28.33800
H  0.41400 39.98100 26.71800
H  1.55700 40.43000 23.32600
H  1.95300 39.88300 24.90400
H  0.45600 40.84600 24.63600
H  -1.94600 34.38700 21.37700
H  -4.73500 33.40200 22.17100
H  -3.09200 36.12500 20.57400
H  -3.96400 36.44900 22.04600
H  -4.62900 35.20500 20.86500
H  -2.66600 32.72900 20.51000
H  -4.00100 31.65600 20.85800
H  -2.58300 30.12900 21.94000
H  -1.85700 31.36600 22.85700
H  -1.19900 31.05700 21.36000
H  -4.79000 28.52200 25.73100
H  -5.85300 29.87300 25.16000
H  -6.06800 29.12900 26.68800
H  -3.44300 30.94200 30.83100
H  -6.74400 32.74500 32.79300
H  -5.23700 32.81400 33.82100
H  -6.29300 31.42200 33.80500

