158

Mg -2.17300 17.59600 26.89900
C  -2.68600 15.10100 29.61900
C  -2.75700 19.92600 29.30200
C  -1.97100 19.79800 24.46100
C  -2.71600 14.93700 24.64900
N  -2.75700 17.49300 29.13600
C  -2.71300 16.38900 30.05700
C  -2.75100 16.81400 31.57600
C  -2.89700 18.29900 31.38000
C  -2.73700 18.60200 29.85900
C  -4.15100 18.92800 31.98000
C  -1.54300 16.34900 32.50200
C  -1.29600 17.06000 33.90900
H  -0.77300 16.15700 35.07300
N  -2.15500 19.60200 26.92600
C  -2.55400 20.41500 27.97500
C  -2.39600 21.73200 27.58500
C  -2.04500 21.74700 26.20500
C  -2.01800 20.35300 25.76800
C  -2.66300 22.93900 28.49600
C  -1.91200 22.93200 25.16000
O  -1.76500 22.73300 23.97900
C  -2.04700 24.36100 25.65800
N  -2.34900 17.39400 24.82100
C  -2.25400 18.48100 24.04700
C  -2.44800 18.10300 22.60500
C  -2.56700 16.57100 22.64600
C  -2.50000 16.24400 24.14700
C  -3.60500 18.80100 21.87900
C  -1.60100 15.75800 21.68200
C  -0.34400 14.98700 22.10600
N  -2.51500 15.51200 27.05100
C  -2.74600 14.60100 26.09200
C  -2.92700 13.22900 26.65900
C  -2.83600 13.44600 28.06500
C  -2.65200 14.80400 28.25800
C  -3.11500 11.91600 25.97900
C  -2.90800 12.71000 29.33500
O  -3.11300 11.50200 29.57900
C  -2.85100 13.82400 30.44700
C  -1.54100 13.48700 31.08800
O  -0.47900 13.99400 30.82900
O  -1.74400 12.54400 31.98500
C  -0.63800 12.36900 32.94500
H  -2.83800 20.69200 30.07600
H  -1.92700 20.47800 23.60700
H  -2.74500 14.07600 23.97800
H  -3.62100 16.28200 31.96100
H  -2.02800 18.83800 31.75800
H  -4.74100 19.46400 31.23600
H  -3.93900 19.38000 32.94900
H  -4.80100 18.08100 32.20100
H  -0.63800 16.36100 31.89400
H  -1.74200 15.36600 32.92900
H  -2.20000 17.64100 34.08800
H  -0.45500 17.70500 33.65700
H  -1.86000 23.66100 28.34700
H  -2.70100 22.66400 29.55000
H  -3.60300 23.41300 28.21400
H  -2.92100 24.37500 26.30800
H  -2.23500 25.15200 24.93300
H  -1.19500 24.65600 26.26900
H  -1.52500 18.36100 22.08500
H  -3.55800 16.25600 22.32000
H  -4.27300 19.22800 22.62700
H  -4.25100 18.19700 21.24100
H  -3.24800 19.65100 21.29800
H  -1.26100 16.43100 20.89500
H  -2.23400 14.94800 21.32100
H  -0.48000 13.95900 21.77100
H  -0.24500 15.03100 23.19100
H  0.59800 15.37900 21.72400
H  -3.69300 11.28100 26.64900
H  -2.18500 11.38500 25.77600
H  -3.77600 12.19000 25.15700
H  -3.63300 13.66500 31.18900
H  -0.01000 13.25700 32.88900
H  -0.01700 11.47500 32.88000
H  -1.12900 12.33600 33.91800
Mg 48.53100 35.33600 28.60400
C  46.55200 33.60500 30.80100
C  48.42100 37.94700 30.77400
C  49.57500 37.33100 26.00400
C  48.14400 32.76200 26.25800
N  47.87100 35.59400 30.64200
C  47.00200 34.79900 31.36500
C  46.90900 35.23500 32.85900
C  47.12200 36.77200 32.54500
C  47.88600 36.79700 31.27800
C  45.86500 37.78400 32.52500
C  48.14500 34.64900 33.60300
C  47.93800 34.39300 35.09100
H  47.00500 35.43700 35.72300
N  49.09900 37.43200 28.46600
C  49.00900 38.33300 29.50800
C  49.47200 39.58500 28.97500
C  49.89700 39.38200 27.60500
C  49.55600 37.97200 27.29000
C  49.58500 40.84200 29.90200
C  50.51000 40.36500 26.68900
O  50.75700 40.14700 25.50500
C  50.90400 41.77900 27.20200
N  48.77000 35.11500 26.38800
C  49.25600 36.06600 25.60700
C  49.21400 35.60900 24.06600
C  48.91800 34.02700 24.19900
C  48.74500 33.92000 25.73300
C  48.33700 36.28800 23.01100
C  49.99200 33.19500 23.49300
C  49.95500 33.28300 21.97400
N  47.81000 33.54700 28.58300
C  47.72000 32.57600 27.57600
C  46.87600 31.47200 28.03000
C  46.42300 31.83400 29.25800
C  46.99300 33.10900 29.55400
C  46.57400 30.22700 27.31100
C  45.55300 31.40100 30.33400
O  44.91300 30.38800 30.53500
C  45.43100 32.63500 31.30000
C  45.57600 32.21500 32.69600
O  46.59500 31.64900 33.04200
O  44.51300 32.63300 33.51200
C  44.62400 32.34500 34.99500
H  48.21400 38.78500 31.44300
H  50.01700 37.87500 25.16600
H  47.97300 31.89500 25.61700
H  45.95700 35.03400 33.35200
H  47.84400 37.09300 33.29500
H  44.98100 37.24800 32.87100
H  45.76000 38.11800 31.49300
H  46.20100 38.65200 33.09300
H  49.07200 35.21200 33.49100
H  48.24700 33.64500 33.19100
H  48.80700 34.46400 35.74500
H  47.56000 33.37900 35.21900
H  50.60400 41.22800 29.94400
H  49.38900 40.49900 30.91800
H  48.81200 41.57600 29.67300
H  50.01200 42.15300 27.70500
H  51.26200 42.39200 26.37400
H  51.73200 41.65400 27.89900
H  50.25700 35.76400 23.78800
H  47.97700 33.68200 23.77100
H  47.53700 35.58800 22.77100
H  48.90700 36.64200 22.15200
H  47.88000 37.17600 23.44800
H  49.73700 32.17900 23.79600
H  50.94900 33.48300 23.92700
H  48.98200 33.61700 21.61500
H  50.22100 32.33100 21.51400
H  50.66200 34.04700 21.65100
H  47.29500 29.98000 26.53100
H  45.69300 30.49800 26.72900
H  46.36000 29.38300 27.96600
H  44.54300 33.24200 31.12500
H  43.86300 31.59300 35.19900
H  44.43700 33.27800 35.52700
H  45.63400 31.98500 35.19100

