158

Mg 9.25500 2.65800 27.54500
C  10.44800 1.12800 30.45200
C  7.73000 4.93800 29.58700
C  7.78300 4.01500 24.80000
C  10.65500 0.14900 25.64800
N  9.16300 3.04600 29.83400
C  9.69500 2.25600 30.76500
C  9.42300 2.86100 32.15900
C  8.28000 3.85700 31.88400
C  8.37900 3.96300 30.33600
C  6.92800 3.43900 32.47200
C  10.73600 3.46700 32.75900
C  10.63700 4.22400 34.15000
H  10.94100 3.36000 35.34300
N  8.03000 4.34700 27.24900
C  7.55400 5.17200 28.21600
C  6.72800 6.24100 27.55400
C  6.71900 5.92100 26.15700
C  7.49500 4.73700 26.00900
C  6.15900 7.34700 28.34300
C  6.01300 6.71300 25.04900
O  6.04600 6.28000 23.89500
C  5.19000 7.86500 25.21900
N  9.15900 2.17400 25.58700
C  8.58900 2.91200 24.59700
C  8.83500 2.28600 23.20300
C  9.86500 1.19900 23.52300
C  9.89900 1.14000 25.02400
C  7.53500 1.60700 22.62900
C  11.33600 1.57700 23.07800
C  11.78900 0.79300 21.86100
N  10.38300 0.96400 27.90200
C  10.84600 0.00200 27.02600
C  11.51100 -1.04900 27.77100
C  11.39200 -0.62600 29.13400
C  10.69400 0.56300 29.16600
C  12.13500 -2.27200 27.17200
C  11.73200 -1.04200 30.47300
O  12.36900 -1.99500 30.92700
C  11.15300 0.06800 31.39000
C  10.13200 -0.49000 32.37800
O  9.09300 -1.04200 32.10500
O  10.48700 -0.11300 33.64800
C  9.66900 -0.42500 34.82200
H  7.04600 5.58700 30.13900
H  7.56300 4.39700 23.80100
H  11.12400 -0.59200 24.99700
H  9.16600 2.05300 32.84400
H  8.51400 4.86900 32.21300
H  6.59900 4.29800 33.05700
H  7.05700 2.52200 33.04700
H  6.20100 3.28800 31.67500
H  11.15400 4.10800 31.98300
H  11.42500 2.65700 32.99800
H  9.63100 4.62300 34.27900
H  11.26200 5.11000 34.25800
H  5.07500 7.27600 28.25500
H  6.42600 8.34800 28.00600
H  6.54300 7.37700 29.36300
H  5.87200 8.56700 25.69800
H  4.38500 7.59000 25.90100
H  4.81800 8.20100 24.25100
H  9.21900 3.01400 22.48900
H  9.52800 0.25500 23.09400
H  7.48500 0.52100 22.71300
H  7.54800 1.70500 21.54400
H  6.64900 2.11000 23.01700
H  12.01300 1.42500 23.91900
H  11.42000 2.65100 22.91200
H  10.92600 0.53100 21.25000
H  12.32300 -0.15100 21.96700
H  12.27900 1.51500 21.20800
H  11.84400 -2.37100 26.12600
H  11.77600 -3.07200 27.81900
H  13.21200 -2.11200 27.12800
H  12.08700 0.45500 31.79800
H  10.33200 -1.02600 35.44500
H  8.81900 -1.08400 34.64900
H  9.33300 0.46200 35.36000
Mg 30.67000 59.56800 38.69600
C  27.72600 58.24100 37.39800
C  32.27300 56.68300 37.84300
C  33.70100 61.10000 38.93500
C  29.06600 62.61400 39.20000
N  30.14900 57.71900 37.56600
C  28.84300 57.39500 37.34600
C  28.82000 55.93900 36.87400
C  30.06100 55.34700 37.67300
C  30.89500 56.64200 37.69100
C  29.55200 54.84500 39.08200
C  28.85700 55.87600 35.29500
C  27.87400 54.87500 34.54700
H  27.09000 55.31300 33.29500
N  32.72400 58.94600 38.47600
C  33.20200 57.71300 38.13300
C  34.60800 57.59300 38.08400
C  35.11900 58.90200 38.41800
C  33.85000 59.73600 38.67100
C  35.42700 56.31700 37.76900
C  36.59200 59.29100 38.50400
O  37.45800 58.43200 38.25000
C  37.03900 60.64900 38.91800
N  31.27500 61.54600 39.01100
C  32.58600 61.98500 38.99200
C  32.70400 63.52700 39.23100
C  31.19300 63.92200 39.42600
C  30.44700 62.57500 39.21200
C  33.57300 63.94900 40.43400
C  30.70000 65.13500 38.54300
C  29.80800 66.19700 39.25500
N  28.67200 60.30600 38.58200
C  28.19300 61.55000 38.79500
C  26.73700 61.47800 38.72000
C  26.50900 60.17400 38.17300
C  27.76200 59.54200 38.01800
C  25.82000 62.63900 38.77600
C  25.45500 59.27400 37.66600
O  24.26500 59.42800 37.52300
C  26.23200 58.05400 37.08100
C  25.59300 56.84600 37.77700
O  25.60900 56.53700 38.96400
O  24.95600 56.06000 36.83800
C  24.55400 54.67800 37.24500
H  32.65800 55.68000 37.64900
H  34.63600 61.66300 38.90100
H  28.52600 63.55100 39.35300
H  27.89900 55.48500 37.23800
H  30.54900 54.65400 36.98900
H  29.75900 55.65500 39.78200
H  30.08600 53.92600 39.32200
H  28.47900 54.66900 39.00300
H  29.83900 55.47500 35.04400
H  28.85000 56.90300 34.92700
H  27.19100 54.56900 35.33900
H  28.50600 54.01400 34.32700
H  36.16100 56.59400 37.01200
H  34.76100 55.65900 37.21200
H  35.74300 55.85000 38.70100
H  38.12500 60.60900 39.00600
H  36.62400 61.01600 39.85600
H  36.92500 61.35700 38.09700
H  33.02900 64.00400 38.30700
H  30.97400 64.00600 40.49100
H  33.07500 64.81900 40.86300
H  34.60700 64.21100 40.21000
H  33.45100 63.09100 41.09500
H  30.11400 64.63900 37.76900
H  31.50700 65.67600 38.04900
H  29.90000 66.04000 40.33000
H  28.77100 65.92400 39.05800
H  30.13900 67.20600 39.00600
H  25.40000 62.74800 37.77700
H  26.34100 63.57900 38.95800
H  25.01600 62.48300 39.49500
H  25.99700 58.12000 36.01900
H  23.66000 54.67200 37.86800
H  25.33200 54.30800 37.91300
H  24.44300 54.19500 36.27400

