158

Mg 1.53800 -1.60500 44.35500
C  4.77600 -0.72400 43.40100
C  0.36000 1.27800 42.60000
C  -1.69600 -2.79600 44.37000
C  2.73300 -4.68300 45.52200
N  2.47200 0.12000 43.18600
C  3.80700 0.20900 42.93100
C  4.05600 1.51400 42.11300
C  2.70800 2.31700 42.18200
C  1.79700 1.16800 42.69000
C  2.65400 3.49600 43.19600
C  4.38600 1.15500 40.63300
C  5.53200 2.04000 40.10200
H  5.24400 2.64000 38.72700
N  -0.51400 -0.79300 43.70200
C  -0.71400 0.34800 42.98700
C  -2.09100 0.38500 42.61800
C  -2.78700 -0.73600 43.10400
C  -1.65400 -1.52100 43.76100
C  -2.62600 1.53400 41.77900
C  -4.28800 -1.10800 43.10900
O  -5.02200 -0.40400 42.42700
C  -4.87000 -2.13300 44.00100
N  0.59600 -3.45900 44.91100
C  -0.69700 -3.74000 44.83800
C  -0.92700 -5.15500 45.47600
C  0.45200 -5.82300 45.62600
C  1.35700 -4.56800 45.26400
C  -1.89300 -5.13600 46.75600
C  0.68100 -7.03700 44.73000
C  1.60600 -8.11600 45.36200
N  3.39100 -2.50300 44.64600
C  3.75400 -3.76500 45.12500
C  5.18400 -3.93100 44.99500
C  5.58600 -2.78500 44.32200
C  4.48300 -1.99100 44.11900
C  5.88800 -5.11600 45.40000
C  6.80500 -2.13200 43.80500
O  7.96900 -2.46200 43.74500
C  6.28000 -0.67200 43.27900
C  6.87700 0.47100 43.98700
O  6.75500 0.73900 45.17200
O  7.57900 1.23800 43.04500
C  8.40700 2.30200 43.65500
H  -0.03200 2.23600 42.25200
H  -2.65900 -3.30300 44.45900
H  2.96800 -5.69900 45.84600
H  4.82900 2.00900 42.70200
H  2.38500 2.69600 41.21200
H  2.37200 4.35800 42.59200
H  3.70800 3.57500 43.46300
H  2.04700 3.42500 44.09800
H  3.48400 1.19200 40.02300
H  4.65300 0.10900 40.47900
H  6.47700 1.49700 40.11400
H  5.72100 2.91900 40.71800
H  -2.89900 1.20700 40.77600
H  -2.01000 2.43300 41.80900
H  -3.54100 1.95300 42.19900
H  -5.90100 -1.85100 44.21800
H  -4.46800 -2.00000 45.00500
H  -4.90400 -3.16300 43.64600
H  -1.43100 -5.59000 44.61400
H  0.51000 -6.10000 46.67800
H  -2.86400 -5.57700 46.53000
H  -2.00800 -4.14400 47.19200
H  -1.39700 -5.65400 47.57700
H  1.25000 -6.81200 43.82700
H  -0.30200 -7.48000 44.57100
H  1.97300 -8.72400 44.53500
H  1.02500 -8.92600 45.80400
H  2.43800 -7.69200 45.92500
H  5.85800 -5.91400 44.65800
H  5.43300 -5.50400 46.31200
H  6.90100 -4.76700 45.60200
H  6.57300 -0.61100 42.23100
H  9.26800 2.55300 43.03600
H  8.75200 1.90600 44.61000
H  7.83400 3.20000 43.88600
Mg 34.85500 2.95100 29.35600
C  32.79000 4.14900 31.94900
C  37.26800 2.43600 31.67900
C  36.83500 2.27600 26.72100
C  32.22300 3.52300 27.12600
N  34.97900 3.30400 31.53400
C  34.05800 3.74200 32.39800
C  34.51700 3.59400 33.84300
C  36.03400 3.34000 33.70100
C  36.12300 3.07000 32.18800
C  36.92000 4.46900 34.28400
C  33.77900 2.49300 34.62600
C  33.61300 2.79500 36.16300
H  34.31700 4.08700 36.70600
N  36.83400 2.33500 29.21300
C  37.71500 2.23600 30.26900
C  38.99700 1.83100 29.70500
C  38.88100 1.77000 28.28300
C  37.47700 2.16600 28.00200
C  40.23700 1.56800 30.51500
C  39.87800 1.31400 27.23800
O  39.61100 1.16900 26.10400
C  41.39300 1.06300 27.62300
N  34.64800 2.84300 27.27800
C  35.52700 2.36700 26.42300
C  34.98700 2.29900 24.99600
C  33.49500 2.64000 25.13300
C  33.45100 3.04700 26.62100
C  35.79400 3.11500 23.89200
C  32.40700 1.41400 24.83300
C  31.06700 1.92500 24.31800
N  32.87700 3.74100 29.46100
C  31.96900 3.81000 28.44400
C  30.73500 4.32800 28.99100
C  31.03700 4.54500 30.37000
C  32.31000 4.09400 30.59400
C  29.46600 4.51000 28.22100
C  30.43900 4.78500 31.63700
O  29.24800 4.99900 31.90100
C  31.58600 4.67300 32.78100
C  31.87400 5.96000 33.47800
O  32.51400 6.82200 32.96500
O  31.22400 6.01700 34.70500
C  31.46900 7.14800 35.62900
H  38.15600 2.34600 32.30800
H  37.38500 1.94300 25.83900
H  31.38700 3.63500 26.43300
H  34.41100 4.58100 34.29400
H  36.29500 2.47600 34.31300
H  37.25400 4.10700 35.25600
H  36.41200 5.42000 34.44400
H  37.72900 4.62200 33.57000
H  34.23900 1.50800 34.53500
H  32.81800 2.28900 34.15500
H  33.97200 1.97300 36.78200
H  32.54200 2.88300 36.34400
H  40.78100 0.62400 30.52700
H  40.00100 1.75800 31.56200
H  40.88900 2.40800 30.27600
H  41.76200 1.90200 28.21200
H  41.91800 1.06600 26.66800
H  41.54000 0.07900 28.06700
H  34.89700 1.27700 24.62900
H  33.15300 3.52400 24.59600
H  35.07600 3.73300 23.35400
H  36.42800 2.51500 23.23900
H  36.46700 3.80000 24.40900
H  32.30300 0.88100 25.77800
H  32.76900 0.67200 24.12100
H  30.20000 1.36800 24.67500
H  31.04100 1.93900 23.22800
H  30.93200 2.98800 24.51700
H  29.48300 3.79900 27.39400
H  29.42800 5.50300 27.77300
H  28.66500 4.44000 28.95700
H  31.30600 3.95400 33.55000
H  32.31400 7.77200 35.33800
H  31.57500 6.63100 36.58300
H  30.54300 7.71500 35.72500

