158

Mg -0.70100 7.15700 26.72200
C  0.39100 9.23700 29.36100
C  -1.06700 4.66800 29.12500
C  -1.24300 5.07000 24.19900
C  0.22100 9.73700 24.39800
N  -0.36100 7.02500 28.98700
C  -0.03600 8.04700 29.87000
C  -0.30400 7.68900 31.29700
C  -0.37200 6.07800 31.16700
C  -0.60400 5.89300 29.72200
C  1.00400 5.50900 31.79800
C  -1.54900 8.45200 31.91100
C  -1.72200 8.66700 33.48500
H  -0.73400 8.25300 34.48900
N  -1.15300 5.15200 26.71500
C  -1.32400 4.30500 27.73600
C  -1.75900 3.04000 27.26200
C  -1.77300 3.07700 25.85800
C  -1.39000 4.45900 25.50500
C  -1.96900 1.81200 28.12600
C  -2.19400 2.01900 24.79300
O  -2.05300 2.14500 23.58100
C  -2.82000 0.73100 25.26000
N  -0.59600 7.37900 24.56700
C  -0.93800 6.37900 23.75600
C  -0.95200 6.84100 22.30800
C  -0.63900 8.38900 22.45100
C  -0.32000 8.55300 23.90500
C  0.05900 6.03600 21.36400
C  -1.68600 9.41500 21.98800
C  -1.24700 10.50600 20.95400
N  0.27300 9.05200 26.76900
C  0.59700 9.90800 25.74800
C  1.18600 11.12700 26.30100
C  1.05800 10.94100 27.71200
C  0.55900 9.58500 27.96800
C  1.63400 12.35600 25.61700
C  1.28700 11.53800 29.03100
O  1.72200 12.64200 29.25700
C  0.78900 10.50200 30.11800
C  1.80900 10.44900 31.21400
O  2.57600 9.50200 31.31700
O  1.77500 11.52000 31.99200
C  2.46900 11.40200 33.29200
H  -1.28400 3.86700 29.83500
H  -1.31600 4.35800 23.37500
H  0.49500 10.39800 23.57300
H  0.47600 8.07600 31.95200
H  -1.12100 5.53600 31.74300
H  0.68400 4.84700 32.60200
H  1.63500 6.29200 32.21900
H  1.55700 5.04300 30.98300
H  -2.40600 7.84200 31.62600
H  -1.73700 9.44100 31.49400
H  -2.62300 8.14500 33.80700
H  -1.99500 9.70500 33.67700
H  -1.92300 2.10300 29.17500
H  -1.23900 1.01400 27.98900
H  -2.97200 1.47200 27.87000
H  -3.14000 0.11700 24.41900
H  -3.75300 0.98600 25.76200
H  -2.13100 0.17600 25.89700
H  -1.98300 6.74300 21.96800
H  0.29100 8.48600 21.89000
H  0.62300 5.39000 22.03800
H  0.78000 6.64200 20.81600
H  -0.55900 5.46500 20.67100
H  -2.18700 9.91000 22.82000
H  -2.48800 8.82900 21.54000
H  -1.74600 10.47500 19.98600
H  -0.16100 10.55200 20.87700
H  -1.58800 11.43400 21.41300
H  0.99100 12.70700 24.80900
H  2.60700 12.05600 25.22900
H  1.75400 13.05800 26.44100
H  0.00600 10.88700 30.77100
H  2.38800 10.41500 33.74900
H  1.96200 12.01200 34.03900
H  3.48100 11.78100 33.15000
Mg -12.88100 16.28700 40.99200
C  -9.85800 14.60000 40.35400
C  -11.35800 19.18600 39.73000
C  -15.93600 17.83000 40.61100
C  -14.49600 13.16100 40.95600
N  -10.81100 16.76700 40.15200
C  -9.74900 15.94600 40.05100
C  -8.66200 16.60500 39.28500
C  -9.08300 18.12400 39.31000
C  -10.48900 18.03900 39.80900
C  -8.08500 19.08300 40.06200
C  -8.35500 16.04500 37.85800
C  -6.87100 16.25500 37.47900
H  -6.26500 15.30700 36.48400
N  -13.51800 18.30100 40.51400
C  -12.72900 19.27300 39.95700
C  -13.57200 20.43800 39.79700
C  -14.90200 20.07400 40.16600
C  -14.83300 18.65700 40.44200
C  -13.07800 21.74300 39.24800
C  -16.04000 20.95200 40.16900
O  -15.89600 22.19200 39.87200
C  -17.35200 20.56100 40.80900
N  -14.99300 15.62800 40.90500
C  -16.05300 16.48500 40.81200
C  -17.38400 15.69500 40.99800
C  -16.91300 14.21800 40.95700
C  -15.35800 14.31200 40.95500
C  -18.19600 16.09100 42.18700
C  -17.37100 13.37600 39.79000
C  -18.16300 12.10500 40.08500
N  -12.36000 14.30500 41.01500
C  -13.10400 13.16300 41.06700
C  -12.19300 11.98800 41.07900
C  -10.87800 12.51700 40.94900
C  -11.06500 13.94200 40.85200
C  -12.48500 10.53900 40.96100
C  -9.44800 12.16600 40.68700
O  -8.88400 11.10300 40.46100
C  -8.75000 13.55400 40.38200
C  -7.80100 13.88900 41.44600
O  -8.02200 14.23800 42.59400
O  -6.56700 13.85300 40.86700
C  -5.44800 14.39000 41.74300
H  -10.80000 20.00400 39.26900
H  -16.93900 18.16800 40.34200
H  -14.93200 12.19600 41.22100
H  -7.72800 16.52700 39.84200
H  -9.02600 18.54600 38.30600
H  -7.69300 19.85000 39.39400
H  -7.19900 18.54200 40.39700
H  -8.47600 19.72600 40.84900
H  -8.95900 16.60000 37.14000
H  -8.67900 15.00900 37.75600
H  -6.25300 16.29800 38.37500
H  -6.76000 17.22800 37.00000
H  -13.78200 22.14900 38.52200
H  -12.16300 21.68800 38.65700
H  -12.79800 22.50600 39.97400
H  -18.06500 20.18700 40.07500
H  -17.87200 21.42800 41.21600
H  -17.11500 19.91900 41.65800
H  -18.03900 15.89900 40.15000
H  -17.29400 13.70600 41.84100
H  -19.15300 16.35900 41.73900
H  -17.58600 16.92200 42.54200
H  -18.24700 15.26100 42.89200
H  -16.54200 12.93400 39.23600
H  -17.97400 13.91100 39.05700
H  -17.89900 11.49100 39.22400
H  -19.24600 12.22300 40.12400
H  -17.81000 11.48600 40.91000
H  -13.27300 10.36900 40.22700
H  -12.59900 10.04900 41.92800
H  -11.63800 10.10800 40.42700
H  -8.17600 13.41100 39.46600
H  -4.55300 14.45500 41.12500
H  -5.27800 13.68000 42.55200
H  -5.53100 15.37900 42.19300

