158

Mg 1.07500 7.52200 25.79700
C  1.72500 9.49000 28.66300
C  1.30700 4.71800 27.71600
C  0.87100 5.75300 22.87300
C  1.21300 10.38500 23.81900
N  1.43000 7.20800 27.94600
C  1.49800 8.14600 28.99000
C  1.22800 7.44400 30.33400
C  1.52500 5.90800 30.02400
C  1.49200 5.91800 28.47900
C  2.87400 5.18500 30.56400
C  -0.28600 7.81200 30.84700
C  -0.33700 8.13800 32.35100
H  0.67000 7.49400 33.24900
N  0.87900 5.58800 25.41400
C  1.07400 4.59500 26.32100
C  0.87200 3.32400 25.68000
C  0.85600 3.53900 24.19200
C  0.85400 5.02800 24.13800
C  0.80700 1.99100 26.45800
C  0.67100 2.53200 23.16200
O  0.74500 2.75600 21.95500
C  0.39700 1.04300 23.53000
N  1.09000 7.93800 23.67200
C  0.93500 7.07700 22.66000
C  1.00800 7.77400 21.27600
C  0.67700 9.22100 21.64500
C  1.00600 9.18800 23.14700
C  2.29700 7.63200 20.41200
C  -0.79800 9.76800 21.21800
C  -0.84200 11.07100 20.35700
N  1.60900 9.51200 26.05600
C  1.51900 10.52600 25.19100
C  1.67200 11.78900 25.86400
C  1.80600 11.46000 27.19500
C  1.69200 10.06900 27.30700
C  1.69600 13.23400 25.33300
C  2.03700 11.99700 28.60000
O  2.21500 13.14800 29.00000
C  1.76300 10.69900 29.64200
C  2.89200 10.66700 30.63400
O  3.98900 10.12400 30.55800
O  2.38500 11.11100 31.80800
C  3.24800 11.15700 32.92300
H  1.35400 3.89600 28.43300
H  0.83600 5.16600 21.95300
H  1.05000 11.29500 23.23700
H  1.99800 7.79900 31.01900
H  0.67600 5.37100 30.44700
H  3.30500 4.61100 29.74400
H  2.76800 4.61900 31.48900
H  3.59600 5.98600 30.72600
H  -0.96000 6.97600 30.66000
H  -0.63300 8.68800 30.29900
H  -1.26300 7.80500 32.81900
H  -0.27700 9.20600 32.56400
H  1.66000 1.33300 26.29200
H  -0.15300 1.56800 26.16200
H  0.84300 2.20000 27.52700
H  1.29300 0.64900 24.01100
H  0.15400 0.40300 22.68200
H  -0.44300 0.99100 24.22200
H  0.21100 7.31600 20.69100
H  1.41700 9.88200 21.19400
H  3.11000 7.61400 21.13900
H  2.41400 8.50200 19.76700
H  2.22900 6.74700 19.77900
H  -1.38900 9.88200 22.12600
H  -1.41300 8.98900 20.76700
H  -1.43600 10.99600 19.44700
H  0.17900 11.30900 20.05800
H  -1.25400 11.82800 21.02400
H  0.78200 13.72800 25.66100
H  1.46700 13.33600 24.27200
H  2.57900 13.84500 25.52300
H  0.80000 10.75500 30.15000
H  2.77800 11.48400 33.85000
H  4.10300 11.79200 32.69000
H  3.53600 10.13400 33.16700
Mg -9.89400 40.29700 42.37100
C  -8.95000 37.03000 41.49000
C  -6.70200 41.28900 41.39800
C  -10.98900 43.42100 42.28700
C  -13.12400 39.13100 43.18700
N  -8.13000 39.24300 41.32000
C  -7.94000 37.97000 41.15700
C  -6.48600 37.55500 40.68000
C  -5.80700 38.91200 41.05200
C  -6.89700 39.88600 41.31500
C  -4.71700 39.02100 42.16500
C  -6.51200 37.15000 39.17800
C  -5.63500 36.06600 38.73100
H  -4.81600 36.44400 37.44100
N  -8.96400 42.07000 41.90900
C  -7.69300 42.31900 41.55800
C  -7.44300 43.74500 41.44600
C  -8.68000 44.34000 41.61800
C  -9.61700 43.26200 42.01700
C  -6.16200 44.40800 40.94400
C  -8.85100 45.85700 41.50500
O  -7.90200 46.61000 41.20600
C  -10.22600 46.48000 41.61400
N  -11.87300 41.14400 42.40800
C  -12.01000 42.49200 42.57200
C  -13.34400 42.89700 43.14300
C  -13.96400 41.51900 43.55600
C  -12.94500 40.50100 42.98700
C  -13.21200 43.92300 44.27900
C  -15.41300 41.19700 43.15900
C  -16.29900 40.77200 44.38800
N  -10.88000 38.45200 42.46400
C  -12.16200 38.15400 42.78700
C  -12.37900 36.71000 42.65400
C  -11.08100 36.25500 42.32300
C  -10.23600 37.32300 42.12300
C  -13.70600 35.94400 42.79500
C  -10.42200 35.03800 41.95100
O  -10.78500 33.86300 41.84300
C  -9.00200 35.54400 41.37200
C  -7.88200 34.93400 42.17400
O  -7.83700 34.90900 43.43000
O  -6.96600 34.35500 41.29200
C  -5.92600 33.62600 41.92000
H  -5.67100 41.64500 41.34000
H  -11.26700 44.47700 42.30600
H  -14.01500 38.81400 43.73300
H  -6.16300 36.74400 41.33300
H  -5.26900 39.33100 40.20200
H  -3.71400 39.17800 41.76800
H  -4.70400 38.08300 42.72100
H  -4.85700 39.80100 42.91300
H  -6.36300 38.05500 38.58900
H  -7.54300 36.84300 38.99900
H  -6.06300 35.08500 38.52500
H  -4.89100 35.92600 39.51500
H  -6.32900 44.84800 39.96000
H  -5.39400 43.64200 40.84300
H  -5.78600 45.11400 41.68400
H  -10.55500 46.39600 42.65000
H  -10.90500 45.93700 40.95700
H  -10.24900 47.55500 41.43400
H  -13.86500 43.40600 42.33300
H  -13.74300 41.51400 44.62300
H  -12.14700 44.03100 44.48700
H  -13.69800 43.55100 45.18100
H  -13.55700 44.92200 44.01300
H  -15.36000 40.43900 42.37700
H  -15.85300 42.08500 42.70500
H  -16.63700 39.76700 44.13700
H  -17.16300 41.40200 44.60100
H  -15.62200 40.75700 45.24100
H  -13.58200 34.86100 42.81200
H  -14.38600 36.23800 41.99600
H  -14.21200 36.25700 43.70900
H  -8.89500 35.13800 40.36600
H  -5.88700 33.47200 42.99900
H  -5.00100 34.17400 41.74300
H  -5.79100 32.69400 41.37200

