158

Mg 8.96800 3.02500 28.38500
C  10.58300 1.48700 31.11400
C  7.21900 4.94500 30.46000
C  7.55800 4.31900 25.60400
C  10.71500 0.75700 26.27900
N  8.79000 3.10900 30.57700
C  9.67400 2.51700 31.44400
C  9.36200 2.99500 32.90400
C  8.22800 4.03100 32.64700
C  8.03000 4.03500 31.12100
C  6.88700 3.89700 33.49800
C  10.65400 3.74000 33.48400
C  10.39600 4.57300 34.78800
H  11.33000 4.32900 36.02000
N  7.53600 4.42400 28.10400
C  6.93100 5.11800 29.08300
C  6.07500 6.13200 28.54700
C  6.08300 5.97600 27.10200
C  7.07900 4.84900 26.86200
C  5.22400 7.15400 29.37100
C  5.38600 6.75500 26.00800
O  5.42500 6.46800 24.83200
C  4.35500 7.77400 26.27900
N  9.02800 2.53000 26.31500
C  8.42300 3.26300 25.33000
C  8.89300 2.94000 23.85700
C  10.06900 2.09700 24.21700
C  9.95300 1.74000 25.68500
C  7.79200 2.31700 23.01200
C  11.50400 2.65800 23.95700
C  11.70600 4.17700 24.10800
N  10.34900 1.44300 28.53700
C  10.95100 0.58100 27.63400
C  11.89200 -0.39300 28.33900
C  11.71600 -0.01100 29.69400
C  10.89300 1.06800 29.73900
C  12.77400 -1.41500 27.72500
C  12.25700 -0.23800 31.02800
O  13.01700 -1.15500 31.40600
C  11.50600 0.67000 32.00400
C  10.73700 -0.12000 32.99200
O  9.78500 -0.91300 32.75200
O  11.23000 0.04100 34.30000
C  10.58400 -0.59200 35.44500
H  6.67900 5.63000 31.11600
H  7.14600 4.81500 24.72300
H  11.23100 0.12800 25.55100
H  9.02100 2.20400 33.57200
H  8.55300 5.07200 32.65400
H  6.18400 3.29400 32.92400
H  6.63300 4.90900 33.81400
H  7.05200 3.30600 34.39900
H  11.19300 4.32100 32.73700
H  11.31600 2.92800 33.78400
H  9.38600 4.32400 35.11400
H  10.51700 5.63600 34.58100
H  4.21900 6.73400 29.38500
H  5.08200 8.05600 28.77600
H  5.58500 7.23200 30.39700
H  3.82100 8.18800 25.42400
H  4.91900 8.63800 26.63100
H  3.58600 7.37000 26.93700
H  9.17800 3.85800 23.34200
H  9.98900 1.20500 23.59600
H  6.85100 2.40600 23.55400
H  7.95300 1.28900 22.68700
H  7.70700 3.04600 22.20500
H  11.74300 2.42300 22.92000
H  12.19900 2.25200 24.69100
H  12.63600 4.47400 24.59300
H  10.93400 4.64100 24.72200
H  11.57600 4.56400 23.09700
H  12.23100 -2.00800 26.98900
H  13.04400 -2.19600 28.43500
H  13.53600 -0.86900 27.16800
H  12.14600 1.26900 32.65200
H  9.99400 0.17600 35.94600
H  11.29600 -1.01300 36.15500
H  9.78600 -1.23700 35.07700
Mg 49.50700 44.60400 43.60900
C  46.22700 45.24400 42.38600
C  49.05500 41.25700 42.64300
C  52.73800 44.11400 43.88600
C  49.86900 48.20600 43.93700
N  47.82200 43.43600 42.67200
C  46.63100 43.92300 42.25800
C  45.76700 42.82000 41.53200
C  46.53800 41.53100 42.01000
C  47.91700 42.09000 42.38600
C  46.01700 40.78400 43.22400
C  45.71400 42.97200 39.97700
C  44.85000 41.90100 39.31200
H  45.50000 41.17900 38.13100
N  50.77100 42.91000 43.31800
C  50.39400 41.65200 42.97700
C  51.53000 40.75200 43.08100
C  52.56300 41.53900 43.52500
C  52.03000 42.91200 43.68900
C  51.40000 39.26100 42.85600
C  54.01900 41.02900 43.77600
O  54.27500 39.82900 43.76600
C  55.14800 41.96100 44.18700
N  51.02500 45.96100 43.73000
C  52.30800 45.48400 43.97800
C  53.34000 46.68200 44.14100
C  52.37300 47.93000 44.17500
C  50.97400 47.35400 43.97900
C  54.14500 46.40100 45.43100
C  52.64300 48.99000 43.04600
C  52.53000 50.47000 43.48800
N  48.30100 46.39200 43.50300
C  48.53700 47.67900 43.71600
C  47.29800 48.43300 43.57100
C  46.37300 47.53700 43.01600
C  47.04400 46.27900 43.01200
C  47.18700 49.92100 43.79400
C  45.02900 47.41700 42.45100
O  44.13100 48.28600 42.36000
C  44.94700 45.99000 41.88500
C  43.66700 45.32400 42.07300
O  42.92900 45.05300 41.14000
O  43.35500 45.12600 43.39200
C  41.94700 44.65100 43.62200
H  48.86300 40.18500 42.55800
H  53.78900 43.95900 44.13900
H  50.09100 49.27100 44.02800
H  44.79700 42.84100 42.02800
H  46.54000 40.79900 41.20300
H  45.72000 39.78400 42.90900
H  45.10400 41.22600 43.62300
H  46.84800 40.59300 43.90300
H  46.71700 42.80300 39.58300
H  45.31900 43.91900 39.61000
H  43.90900 42.38200 39.04400
H  44.56600 41.12800 40.02500
H  52.39100 38.84800 42.67000
H  50.71800 39.00500 42.04500
H  50.91600 38.87700 43.75300
H  56.04000 41.40000 44.47000
H  54.90800 42.37700 45.16500
H  55.38000 42.78000 43.50700
H  53.84000 46.65200 43.17300
H  52.36200 48.34700 45.18200
H  53.52900 45.78200 46.08300
H  54.32600 47.26700 46.06700
H  55.08400 45.96200 45.09400
H  52.01600 48.91800 42.15700
H  53.65900 48.77100 42.71800
H  52.18000 50.61900 44.51000
H  51.75000 50.87300 42.84100
H  53.45200 51.04900 43.44200
H  47.16200 50.38300 42.80700
H  47.96100 50.37500 44.41200
H  46.25400 50.16100 44.30300
H  44.99500 46.08400 40.80000
H  41.18500 45.42700 43.55200
H  41.88700 44.25400 44.63500
H  41.72400 43.87200 42.89300

