158

Mg 24.46000 -4.86500 45.37800
C  27.04800 -2.66300 43.93500
C  22.19300 -3.33600 43.25200
C  22.52900 -7.48300 45.88900
C  27.08300 -6.23500 47.41300
N  24.65800 -3.16100 43.78400
C  25.76600 -2.37900 43.39500
C  25.36000 -1.30500 42.45500
C  23.80000 -1.52300 42.39100
C  23.48500 -2.77000 43.21500
C  22.91300 -0.31700 42.91000
C  25.95900 -1.33600 40.96900
C  26.00600 0.00900 40.13800
H  25.20300 -0.06100 38.80300
N  22.54300 -5.35100 44.62700
C  21.75900 -4.55800 43.81100
C  20.62200 -5.34400 43.57800
C  20.69200 -6.55900 44.26800
C  21.97000 -6.56000 44.95400
C  19.49400 -4.92800 42.63700
C  19.58600 -7.68400 44.21700
O  18.61300 -7.57800 43.46100
C  19.72600 -8.94100 45.06000
N  24.69900 -6.47000 46.63400
C  23.72700 -7.44700 46.63500
C  24.14500 -8.57700 47.61200
C  25.40600 -7.99200 48.30700
C  25.79300 -6.85800 47.39500
C  23.08300 -9.11700 48.57500
C  26.52000 -8.96900 48.58400
C  26.97600 -9.21600 50.04900
N  26.56700 -4.54700 45.68100
C  27.53500 -5.19000 46.55100
C  28.81800 -4.53300 46.44700
C  28.58700 -3.51900 45.48500
C  27.27500 -3.62400 44.95000
C  30.10500 -4.86700 47.25900
C  29.30800 -2.45700 44.81000
O  30.42400 -2.08800 45.03600
C  28.30700 -1.87300 43.77400
C  28.15600 -0.44400 44.02300
O  28.06600 0.03000 45.14800
O  28.13500 0.22400 42.85700
C  28.10600 1.69200 42.98900
H  21.44700 -2.81900 42.64500
H  22.00100 -8.43800 45.90000
H  27.83500 -6.62100 48.10400
H  25.50400 -0.36600 42.98900
H  23.53100 -1.59500 41.33700
H  23.55000 0.53700 43.13800
H  22.48200 -0.67200 43.84700
H  22.15100 -0.06400 42.17200
H  25.40500 -2.09800 40.42100
H  26.99500 -1.67300 40.96700
H  27.03400 0.31000 39.93800
H  25.69900 0.86900 40.73200
H  19.49100 -5.47500 41.69400
H  19.55800 -3.84800 42.50300
H  18.55400 -5.16000 43.13700
H  19.73900 -8.79600 46.14100
H  20.58400 -9.48400 44.66300
H  18.84600 -9.55200 44.86400
H  24.53200 -9.39900 47.00900
H  25.13800 -7.44500 49.21100
H  22.19200 -8.50600 48.42800
H  23.33500 -9.07200 49.63400
H  22.81800 -10.16100 48.41000
H  27.46300 -8.73000 48.09300
H  26.33900 -10.00400 48.29300
H  26.40500 -10.01700 50.51900
H  26.90900 -8.25600 50.56100
H  28.02800 -9.49800 50.06000
H  30.73600 -3.97800 47.25700
H  30.59900 -5.72000 46.79400
H  29.67700 -5.08000 48.23900
H  28.70700 -2.03300 42.77300
H  29.09400 2.15200 43.02300
H  27.60900 2.06800 43.88300
H  27.64900 2.04600 42.06500
Mg 41.42500 8.82600 29.16000
C  43.15200 9.77900 32.12200
C  38.83500 7.54200 31.04900
C  40.15700 7.60200 26.31000
C  44.44100 9.83300 27.37900
N  41.02700 8.65800 31.32900
C  41.83200 9.21300 32.32400
C  41.04000 9.03800 33.65300
C  39.90800 8.02600 33.33700
C  39.85900 8.07700 31.79200
C  40.18600 6.58000 33.72100
C  40.75500 10.46100 34.19000
C  40.10900 10.55100 35.62900
H  40.90500 11.31800 36.70400
N  39.73700 7.73000 28.76400
C  38.72900 7.32900 29.62100
C  37.67200 6.67600 28.89600
C  37.93400 6.84800 27.53900
C  39.33100 7.38500 27.50000
C  36.42500 6.15500 29.68300
C  37.07300 6.47900 26.28800
O  37.60500 6.49800 25.18500
C  35.62400 6.03800 26.44600
N  42.28100 8.50800 27.21200
C  41.49900 8.05200 26.19700
C  42.25900 8.13300 24.77000
C  43.55500 8.96700 25.13900
C  43.42100 9.07000 26.71300
C  42.49000 6.69400 24.16900
C  43.46300 10.35900 24.43300
C  42.59500 11.45300 25.05700
N  43.43100 9.62500 29.59200
C  44.48200 10.02400 28.75200
C  45.52700 10.62300 29.57900
C  45.04900 10.51700 30.88900
C  43.77000 9.94300 30.86100
C  46.73200 11.25400 29.05100
C  45.45000 10.75900 32.25500
O  46.44200 11.22600 32.78600
C  44.16100 10.32600 33.10600
C  44.47300 9.37500 34.20400
O  44.96900 8.23900 34.05100
O  43.95400 9.85300 35.36300
C  44.02000 8.97600 36.56500
H  38.16700 6.94900 31.67700
H  39.80200 7.10700 25.40300
H  45.30200 10.17500 26.80100
H  41.78600 8.56500 34.29100
H  39.06300 8.31700 33.96100
H  40.18300 5.83200 32.92800
H  39.37200 6.33500 34.40200
H  41.08800 6.56200 34.33300
H  39.98200 10.83900 33.52000
H  41.64500 11.09000 34.17800
H  40.10100 9.54800 36.05700
H  39.08700 10.92000 35.54800
H  36.51800 6.18300 30.76900
H  36.09500 5.21200 29.24800
H  35.64100 6.82200 29.32500
H  35.30800 5.36600 25.64800
H  35.04700 6.96200 26.48400
H  35.45600 5.48500 27.37000
H  41.66700 8.68500 24.04000
H  44.52800 8.53700 24.90300
H  42.09800 5.96200 24.87500
H  43.52900 6.40600 24.00800
H  42.12800 6.55100 23.15100
H  43.09800 10.16700 23.42400
H  44.46300 10.79300 24.42800
H  41.76300 11.48200 24.35400
H  43.07300 12.43200 25.03100
H  42.17100 11.26900 26.04400
H  47.29100 11.73700 29.85200
H  46.40400 11.95300 28.28200
H  47.27400 10.45400 28.54500
H  43.97300 11.27500 33.60800
H  43.29600 9.28800 37.31800
H  45.03100 8.92600 36.96800
H  43.74000 7.94400 36.35300

