158

Mg 1.61000 -0.95100 44.32000
C  4.99900 -0.46000 43.52600
C  0.85400 1.72800 42.45900
C  -1.48500 -2.13100 44.24600
C  2.64500 -3.89400 46.04900
N  2.75900 0.42500 43.07900
C  4.09400 0.36900 42.87200
C  4.58300 1.55400 41.99400
C  3.25700 2.35900 41.74200
C  2.22100 1.51300 42.58600
C  3.25300 3.94800 42.00900
C  5.35400 1.24400 40.69500
C  6.50700 2.29600 40.39400
H  6.38000 3.15600 39.16400
N  -0.09000 -0.21000 43.55300
C  -0.22400 0.95600 42.81500
C  -1.61200 1.25000 42.57500
C  -2.34200 0.16100 43.16600
C  -1.28700 -0.82100 43.69700
C  -2.04900 2.53500 41.97700
C  -3.82700 0.05800 43.30400
O  -4.55600 0.94000 42.87100
C  -4.44700 -0.96600 44.19500
N  0.72000 -2.82000 44.97100
C  -0.58400 -3.02600 44.78400
C  -0.92700 -4.47400 45.26100
C  0.21400 -4.73800 46.22200
C  1.28100 -3.81400 45.72800
C  -2.39400 -4.66900 45.96700
C  0.61700 -6.27300 46.42000
C  0.73200 -6.63100 47.94800
N  3.40400 -1.98400 44.79600
C  3.65600 -3.19100 45.46100
C  5.08400 -3.26300 45.62900
C  5.68500 -2.19000 44.96200
C  4.59600 -1.48600 44.43100
C  5.73800 -4.36200 46.41200
C  6.94200 -1.54800 44.53000
O  8.11200 -1.82700 44.76300
C  6.50500 -0.46400 43.53900
C  7.02600 0.72400 44.08800
O  6.60400 1.36700 45.03400
O  8.16400 1.13500 43.31000
C  8.52700 2.57600 43.70800
H  0.60700 2.60900 41.86300
H  -2.53800 -2.40700 44.33700
H  2.89100 -4.72400 46.71600
H  5.14200 2.26400 42.60300
H  2.89500 2.08800 40.75100
H  2.67600 4.55800 41.31400
H  4.27300 4.31600 42.12000
H  2.72800 4.05000 42.95800
H  4.80800 1.20300 39.75200
H  5.82200 0.27800 40.88000
H  7.39000 1.66400 40.29800
H  6.55700 3.09300 41.13600
H  -3.10100 2.62700 41.70800
H  -1.57300 2.83800 41.04400
H  -1.80200 3.25800 42.75300
H  -5.47100 -0.68400 44.43900
H  -3.87900 -0.99800 45.12500
H  -4.44100 -1.90200 43.63600
H  -0.90300 -5.12800 44.38900
H  -0.13900 -4.32100 47.16500
H  -3.20000 -4.35200 45.30400
H  -2.38400 -4.24500 46.97200
H  -2.69900 -5.70300 46.12600
H  1.58500 -6.61400 46.05300
H  -0.13500 -6.87500 45.91100
H  -0.16600 -7.13500 48.30500
H  0.99700 -5.71600 48.47700
H  1.61800 -7.26200 48.01000
H  6.76300 -4.65200 46.18400
H  5.16400 -5.26100 46.18800
H  5.63300 -4.11800 47.46900
H  6.97300 -0.52100 42.55500
H  9.09500 3.08800 42.93100
H  9.08300 2.46000 44.63800
H  7.71000 3.29200 43.80200
Mg 46.93600 25.10500 27.87500
C  48.01800 27.28500 30.29600
C  46.68400 22.72000 30.28700
C  46.53600 22.84500 25.36800
C  47.82400 27.42300 25.32800
N  47.31500 25.04400 30.01900
C  47.69200 26.07500 30.85200
C  47.83900 25.74700 32.32700
C  47.33300 24.23100 32.30000
C  47.17900 23.90200 30.76900
C  48.17300 23.18300 33.09000
C  46.93700 26.66800 33.15500
C  46.21900 26.02500 34.35700
H  46.11900 26.92100 35.60600
N  46.58800 23.08800 27.86800
C  46.47500 22.31700 28.96100
C  46.27000 20.93900 28.53800
C  46.01300 20.94900 27.13700
C  46.38900 22.35100 26.74700
C  46.17600 19.78600 29.46000
C  45.59700 19.79300 26.17300
O  45.48300 19.91900 24.95200
C  45.12600 18.50100 26.67100
N  47.23600 25.06500 25.56600
C  46.87500 24.06800 24.79000
C  46.74800 24.38900 23.33100
C  47.05700 25.94000 23.39800
C  47.37000 26.21300 24.90300
C  47.72400 23.66000 22.44000
C  45.82200 26.74800 22.90200
C  46.07000 27.89900 21.88200
N  47.70800 26.93600 27.76100
C  48.09800 27.77100 26.69100
C  48.51800 29.05000 27.18500
C  48.39800 28.92400 28.57100
C  48.01700 27.62800 28.90600
C  48.69200 30.29300 26.38800
C  48.56000 29.64600 29.84500
O  48.88800 30.80200 30.15200
C  48.30900 28.66400 31.01000
C  49.42800 28.77600 31.99800
O  50.45200 28.21600 31.87000
O  49.01000 29.50600 33.09500
C  49.73900 29.20700 34.30400
H  46.48400 21.91500 30.99700
H  46.34500 22.08200 24.61000
H  47.83100 28.22200 24.58300
H  48.88400 25.78100 32.63600
H  46.32000 24.18300 32.70000
H  48.77700 23.71700 33.82300
H  48.75000 22.62500 32.35200
H  47.49600 22.45500 33.53500
H  46.29300 27.31100 32.55500
H  47.72900 27.23500 33.64300
H  46.73100 25.12500 34.69900
H  45.21600 25.77200 34.01300
H  45.13300 19.50700 29.61200
H  46.50500 19.94000 30.48800
H  46.67100 18.89100 29.08400
H  44.84400 17.91500 25.79700
H  44.34200 18.55800 27.42700
H  45.99500 18.15100 27.22800
H  45.74800 24.17200 22.95600
H  47.95800 26.19000 22.83800
H  48.57200 24.17600 21.99100
H  47.14000 23.38800 21.56100
H  48.03800 22.68100 22.80200
H  45.33000 27.14100 23.79200
H  45.14100 26.05500 22.40800
H  47.12000 27.85100 21.59300
H  45.77700 28.83500 22.35900
H  45.44100 27.69900 21.01500
H  47.91700 30.20200 25.62800
H  49.75800 30.24100 26.16600
H  48.51700 31.21700 26.93900
H  47.37900 29.04700 31.43000
H  49.15600 28.54600 34.94500
H  49.87000 30.09200 34.92600
H  50.70400 28.70900 34.20600

