158

Mg 0.29400 43.85700 26.16500
C  2.73500 43.35500 28.72800
C  -2.17300 43.53400 28.43500
C  -1.71100 43.15300 23.60000
C  3.11100 43.79300 23.92000
N  0.36800 43.43600 28.29600
C  1.41600 43.40300 29.17300
C  0.91900 43.50100 30.66300
C  -0.62300 43.38200 30.56800
C  -0.88600 43.47500 28.97700
C  -1.32400 42.15200 31.18800
C  1.29600 44.83700 31.37000
C  1.51400 44.97800 32.86100
H  1.12600 43.70600 33.67300
N  -1.71400 43.51300 26.03000
C  -2.57400 43.43900 27.06400
C  -3.84600 43.27900 26.56600
C  -3.70900 43.07000 25.14100
C  -2.35300 43.17800 24.88600
C  -5.08300 43.27700 27.33700
C  -4.86900 42.75400 24.11100
O  -4.58900 42.72100 22.89100
C  -6.24000 42.39900 24.59600
N  0.67300 43.29200 24.03800
C  -0.39600 43.34300 23.22700
C  -0.13200 43.52800 21.73900
C  1.39000 44.06300 21.89200
C  1.81200 43.71000 23.34000
C  -0.35800 42.38700 20.67600
C  1.66600 45.56300 21.61300
C  2.95000 45.85700 20.80700
N  2.43200 43.66500 26.24900
C  3.37500 43.69500 25.32200
C  4.67200 43.61000 25.83000
C  4.53000 43.50500 27.16700
C  3.07600 43.54900 27.37100
C  5.95100 43.73800 25.06200
C  5.17700 43.37000 28.52700
O  6.34900 43.23000 28.82800
C  4.00000 43.41600 29.51200
C  4.11100 42.47200 30.68000
O  3.83700 41.31800 30.68400
O  4.69200 43.15500 31.72800
C  5.20200 42.26800 32.75500
H  -3.03500 43.55200 29.10600
H  -2.37900 43.08100 22.73900
H  3.91000 43.94900 23.19300
H  1.23500 42.72800 31.36400
H  -1.08600 44.20300 31.11500
H  -1.76200 42.48400 32.12900
H  -0.57300 41.48000 31.60200
H  -1.99500 41.68200 30.47000
H  0.45000 45.48100 31.12900
H  2.20200 45.24700 30.92300
H  1.01800 45.87900 33.22200
H  2.58400 45.11200 33.01800
H  -5.89900 43.83100 26.87400
H  -4.87600 43.89400 28.21200
H  -5.32100 42.23200 27.53500
H  -6.20300 41.55900 25.29000
H  -6.91100 42.20200 23.76000
H  -6.56200 43.32100 25.08200
H  -0.75400 44.36700 21.42700
H  1.96300 43.41800 21.22600
H  0.22700 42.65100 19.79500
H  -1.42300 42.41300 20.44600
H  -0.10200 41.47100 21.21000
H  1.83800 46.04200 22.57700
H  0.76300 45.99400 21.18100
H  2.55700 46.07500 19.81400
H  3.59700 44.98000 20.83100
H  3.33400 46.68500 21.40200
H  5.85600 44.28600 24.12500
H  6.42500 42.85700 24.63000
H  6.69700 44.20800 25.70200
H  4.17500 44.42000 29.90100
H  4.34900 41.84200 33.28500
H  5.97000 42.70500 33.39400
H  5.74600 41.39000 32.40500
Mg -12.69000 15.77100 42.43400
C  -9.48900 14.38300 42.49800
C  -11.32200 18.58300 40.84000
C  -15.77300 16.97900 41.93300
C  -13.98900 12.61200 43.18900
N  -10.65000 16.34200 41.69700
C  -9.47800 15.61700 41.89200
C  -8.31100 16.23100 41.12000
C  -8.93500 17.65100 40.71200
C  -10.44000 17.55200 41.11700
C  -8.39200 18.96800 41.34300
C  -8.02800 15.36400 39.82200
C  -6.54300 15.27000 39.40200
H  -6.16700 16.10500 38.20500
N  -13.42900 17.59200 41.51400
C  -12.70400 18.59800 40.94200
C  -13.66900 19.64500 40.45400
C  -15.00900 19.22700 40.91500
C  -14.79900 17.86700 41.46600
C  -13.24100 21.07800 39.91300
C  -16.28800 19.99200 40.67700
O  -16.35600 21.08600 40.13900
C  -17.63800 19.53800 41.20600
N  -14.59000 14.85300 42.39200
C  -15.71000 15.63500 42.25100
C  -16.95100 14.74500 42.49400
C  -16.38700 13.29700 42.77600
C  -14.87000 13.60300 42.76400
C  -17.89900 15.37000 43.53300
C  -16.81400 12.19000 41.75200
C  -18.01100 11.27600 42.28300
N  -11.89700 13.85100 42.93700
C  -12.52300 12.67300 43.25700
C  -11.54600 11.71600 43.59400
C  -10.29400 12.33800 43.25400
C  -10.61100 13.64900 42.82900
C  -11.75900 10.35300 44.19800
C  -8.79500 12.15500 43.24400
O  -8.05600 11.18900 43.53500
C  -8.20200 13.52000 42.64800
C  -7.14200 14.14400 43.60700
O  -7.28600 14.75000 44.64300
O  -5.87500 13.89700 43.01700
C  -4.76400 14.62600 43.64900
H  -11.06600 19.59600 40.52200
H  -16.79900 17.30800 41.75800
H  -14.38200 11.63100 43.46600
H  -7.52700 16.27300 41.87700
H  -9.01800 17.81100 39.63700
H  -9.11300 19.08100 42.15200
H  -8.46400 19.75800 40.59600
H  -7.38600 18.90300 41.75900
H  -8.53600 15.69400 38.91600
H  -8.50100 14.39000 39.94900
H  -6.33700 14.22000 39.19900
H  -6.00000 15.62200 40.27900
H  -13.98200 21.82400 40.20000
H  -12.99700 21.11300 38.85100
H  -12.36100 21.48600 40.41100
H  -18.00300 18.62300 40.73900
H  -18.29800 20.38500 41.02100
H  -17.45400 19.51600 42.28000
H  -17.55600 14.80300 41.59000
H  -16.47400 12.99300 43.81900
H  -18.92300 15.26100 43.17500
H  -17.67800 16.41000 43.77500
H  -17.80400 14.89700 44.51100
H  -15.99900 11.57100 41.37800
H  -17.22000 12.78000 40.93100
H  -17.64300 10.25200 42.34400
H  -18.74600 11.38400 41.48500
H  -18.36100 11.51500 43.28700
H  -11.91300 9.48800 43.55300
H  -12.62200 10.41700 44.86200
H  -10.88700 10.14600 44.81800
H  -7.68600 13.23400 41.73200
H  -4.23100 14.12000 44.45400
H  -5.03300 15.66300 43.84800
H  -4.01800 14.56700 42.85600

