158

Mg 25.66200 0.96500 29.82500
C  27.72500 0.96700 32.63300
C  22.91900 1.49100 31.95900
C  23.64600 1.02500 27.12200
C  28.36300 0.38400 27.69500
N  25.41600 1.24100 32.15000
C  26.40300 1.24100 33.04300
C  25.87700 1.48400 34.42600
C  24.32600 1.59100 34.15100
C  24.19900 1.38300 32.66000
C  23.49700 0.51300 34.92800
C  26.46300 2.73100 35.13400
C  26.61900 2.47900 36.62600
H  26.16700 3.66800 37.53600
N  23.58900 1.05600 29.61400
C  22.62500 1.21100 30.57900
C  21.35900 1.28300 29.96100
C  21.55300 1.19200 28.54200
C  23.02300 1.06900 28.37200
C  20.02600 1.49800 30.65900
C  20.45300 1.14900 27.40200
O  20.76200 1.13200 26.18900
C  18.99500 1.19700 27.64800
N  25.91400 0.69000 27.68000
C  24.97000 1.01400 26.78300
C  25.55900 1.08700 25.40700
C  27.08200 0.86300 25.60400
C  27.08900 0.60800 27.06700
C  24.91600 0.21100 24.23200
C  27.99000 2.01100 25.10200
C  29.38400 1.61200 24.59500
N  27.58500 0.61400 30.01100
C  28.57600 0.33100 29.10800
C  29.79400 0.24100 29.80300
C  29.50300 0.40300 31.17600
C  28.14600 0.64500 31.29600
C  31.09400 0.00900 29.09200
C  30.03200 0.39600 32.44900
O  31.18500 0.31000 32.78100
C  28.93500 0.80000 33.50000
C  28.88100 -0.23800 34.43700
O  28.52500 -1.38300 34.23300
O  29.37700 0.19000 35.66500
C  29.32700 -0.59500 36.84800
H  22.03800 1.66400 32.58100
H  23.13100 1.33000 26.20900
H  29.14500 0.23800 26.94700
H  26.05600 0.61100 35.05400
H  23.97400 2.59700 34.38200
H  23.77200 0.51600 35.98300
H  23.68000 -0.46700 34.48700
H  22.41900 0.67200 34.95400
H  25.75500 3.54100 34.95800
H  27.36900 3.10200 34.65600
H  27.65400 2.24800 36.87600
H  26.01600 1.61900 36.91900
H  19.48800 2.35800 30.25900
H  20.13800 1.68300 31.72700
H  19.33400 0.66300 30.55500
H  18.62200 0.42800 28.32300
H  18.35200 1.10000 26.77300
H  18.78400 2.15400 28.12400
H  25.46400 2.15500 25.20900
H  27.25800 -0.12400 25.17700
H  25.71500 -0.36200 23.76100
H  24.53200 0.89800 23.47900
H  24.22900 -0.54400 24.61600
H  28.25300 2.80000 25.80600
H  27.42600 2.56000 24.34800
H  30.07300 2.22800 25.17300
H  29.35400 1.91200 23.54800
H  29.58200 0.54200 24.66200
H  31.15900 -0.93600 28.55300
H  31.89900 0.15600 29.81200
H  31.19500 0.76800 28.31500
H  29.29200 1.71800 33.96500
H  28.62100 -0.19700 37.57700
H  30.25400 -0.44800 37.40200
H  29.23300 -1.65700 36.61900
Mg 0.78500 42.57200 26.62900
C  2.72800 42.87200 29.60900
C  -1.76200 41.42400 28.68900
C  -0.81500 41.57500 23.89600
C  3.51000 43.58800 24.80800
N  0.55400 42.31700 28.88500
C  1.40500 42.54500 29.91800
C  0.83600 42.34300 31.34000
C  -0.51600 41.62700 30.94600
C  -0.59900 41.79800 29.43400
C  -0.68400 40.09500 31.48400
C  0.57300 43.66700 32.14400
C  1.01800 43.73700 33.62400
H  0.64400 42.52200 34.48600
N  -0.98800 41.71000 26.27500
C  -1.97700 41.37800 27.27300
C  -3.12100 40.87000 26.63400
C  -2.86700 40.87000 25.22300
C  -1.46200 41.33300 25.06200
C  -4.27100 40.39800 27.46500
C  -3.85800 40.47700 24.09100
O  -3.56800 40.39800 22.88300
C  -5.24600 40.19000 24.44300
N  1.32500 42.57700 24.65700
C  0.50100 42.11900 23.70100
C  1.20400 42.25500 22.27900
C  2.46500 43.08000 22.57900
C  2.43800 43.16600 24.03000
C  1.54600 40.92400 21.59000
C  2.49700 44.56300 21.98600
C  1.46200 45.57800 22.47300
N  2.74400 43.14400 27.10100
C  3.71400 43.49600 26.23100
C  4.93000 43.76400 26.98900
C  4.61100 43.51300 28.36900
C  3.30500 43.13700 28.32100
C  6.21400 44.14600 26.31800
C  5.10800 43.43400 29.67200
O  6.27300 43.53900 30.06700
C  3.83500 43.11900 30.57900
C  4.22200 41.84400 31.22900
O  4.59300 40.88100 30.60500
O  4.02200 41.89500 32.62300
C  4.24800 40.65900 33.42500
H  -2.68600 41.24900 29.24300
H  -1.25700 41.32200 22.93000
H  4.33700 44.05200 24.26700
H  1.48900 41.76600 31.99400
H  -1.34400 42.17400 31.39600
H  -1.02300 39.35900 30.75500
H  -1.24900 39.98600 32.40900
H  0.31800 39.71500 31.68600
H  -0.44700 44.01900 31.99000
H  1.20100 44.38700 31.61900
H  0.59700 44.55600 34.20700
H  2.10500 43.73300 33.55500
H  -3.98900 39.58100 28.12900
H  -5.19000 40.23700 26.90300
H  -4.56900 41.21400 28.12300
H  -5.85900 39.99200 23.56400
H  -5.73400 41.00700 24.97600
H  -5.35400 39.29300 25.05300
H  0.53500 42.84100 21.64900
H  3.39100 42.51900 22.45400
H  2.08400 40.36200 22.35400
H  2.11700 41.18700 20.70000
H  0.62400 40.43300 21.27800
H  2.46700 44.57000 20.89600
H  3.49200 44.90400 22.27400
H  0.77900 45.96600 21.71700
H  2.06200 46.36000 22.93800
H  0.84200 45.19500 23.28400
H  6.06100 44.50000 25.29900
H  6.78200 43.21800 26.38400
H  6.72200 44.86400 26.96300
H  3.65800 43.86900 31.35000
H  5.20500 40.58900 33.94100
H  4.18800 39.74600 32.83200
H  3.39900 40.55300 34.09900

