158

Mg 0.81200 7.59700 25.18600
C  1.45700 9.70500 27.97200
C  1.22200 4.86600 27.19500
C  0.60500 5.56300 22.45300
C  0.88500 10.30100 23.18400
N  1.57700 7.36500 27.38900
C  1.54300 8.35200 28.32800
C  1.71700 7.62700 29.68600
C  1.81100 6.14000 29.40800
C  1.51800 6.08800 27.89400
C  3.15000 5.45600 29.81200
C  0.54200 7.98100 30.70800
C  0.84100 8.06400 32.18600
H  2.17100 7.60700 32.78300
N  0.76600 5.49500 24.93200
C  0.97000 4.57800 25.89600
C  0.82400 3.20400 25.30100
C  0.59300 3.42300 23.92400
C  0.65700 4.90500 23.65600
C  0.97000 1.89300 26.08100
C  0.48400 2.37000 22.82800
O  0.57900 2.60800 21.62200
C  0.13500 1.01400 23.25100
N  0.85700 7.87800 23.04100
C  0.64000 6.87800 22.11700
C  0.69200 7.49500 20.72700
C  0.72500 9.03400 20.97100
C  0.86400 9.10300 22.48400
C  1.89700 6.94300 19.89800
C  -0.50300 9.81100 20.30700
C  -1.84100 9.52900 21.01600
N  0.98700 9.62700 25.50100
C  1.00000 10.64700 24.52600
C  1.04600 11.93700 25.18900
C  1.33600 11.57400 26.57200
C  1.25500 10.20300 26.66700
C  1.16000 13.35100 24.70100
C  1.65800 12.05000 27.86800
O  1.83500 13.20400 28.28500
C  1.67000 10.96300 28.85200
C  3.00200 11.02400 29.57700
O  4.03900 10.59000 29.15600
O  2.80900 11.54600 30.84600
C  3.96200 11.46300 31.67000
H  1.45200 3.99000 27.80400
H  0.24600 4.95200 21.62100
H  0.81000 11.18400 22.54500
H  2.63600 7.98800 30.14800
H  1.05300 5.46100 29.79900
H  3.88100 6.21300 30.09800
H  3.56700 4.73500 29.10800
H  2.91300 4.95600 30.75100
H  -0.23200 7.22900 30.55200
H  0.03900 8.89900 30.40500
H  0.07400 7.45900 32.66800
H  0.73000 9.06200 32.60900
H  1.91100 1.44000 25.76900
H  0.14800 1.17900 26.02400
H  0.95900 2.04500 27.16000
H  0.97700 0.60900 23.81200
H  -0.09900 0.43900 22.35500
H  -0.79500 0.94900 23.81500
H  -0.22400 7.14500 20.25100
H  1.62000 9.49600 20.55500
H  2.57700 7.73600 19.58700
H  1.45500 6.40200 19.06200
H  2.41600 6.28500 20.59500
H  -0.48800 9.45900 19.27600
H  -0.37900 10.89000 20.40600
H  -2.39700 8.78100 20.45100
H  -2.50800 10.37500 21.17900
H  -1.50100 9.11400 21.96500
H  0.58800 13.93400 25.42400
H  0.73900 13.47600 23.70400
H  2.08700 13.92400 24.74000
H  0.81600 11.08900 29.51700
H  4.98100 11.50600 31.28500
H  3.99800 10.54500 32.25700
H  3.86800 12.31500 32.34300
Mg 24.52200 -8.08600 47.95600
C  26.89800 -5.71000 46.95600
C  22.33300 -6.61900 45.63600
C  22.48900 -10.77900 48.09600
C  26.95100 -9.77200 49.81500
N  24.61800 -6.19000 46.61200
C  25.67700 -5.37300 46.29500
C  25.46400 -4.45500 45.09200
C  23.92200 -4.68600 44.86000
C  23.51600 -5.88000 45.80400
C  22.92700 -3.53800 45.01500
C  26.36700 -4.89400 43.85300
C  26.83900 -3.70100 42.90500
H  26.19800 -3.59700 41.51400
N  22.64000 -8.64900 46.97200
C  21.88800 -7.87000 46.10100
C  20.70900 -8.61900 45.77700
C  20.71900 -9.80800 46.49200
C  22.00700 -9.76900 47.20600
C  19.60600 -8.09400 44.79100
C  19.65300 -10.92000 46.53500
O  18.60000 -10.74200 46.01000
C  19.83200 -12.14900 47.29800
N  24.65300 -9.96100 48.91600
C  23.62800 -10.87000 48.87500
C  23.93500 -12.09000 49.75900
C  25.28200 -11.71500 50.49900
C  25.65400 -10.44200 49.71500
C  22.76900 -12.34500 50.77400
C  26.35800 -12.89700 50.41700
C  27.48100 -12.85500 51.50100
N  26.46900 -7.81400 48.42500
C  27.33600 -8.54000 49.16200
C  28.68200 -7.97900 49.17400
C  28.48900 -6.82200 48.40000
C  27.15200 -6.78900 47.90300
C  29.96200 -8.48300 49.82400
C  29.14600 -5.63100 47.87500
O  30.28700 -5.24200 48.03600
C  28.20800 -4.94600 46.85100
C  28.06000 -3.47600 47.16800
O  27.56800 -2.90500 48.17100
O  28.72600 -2.77800 46.20000
C  28.54500 -1.28400 46.24800
H  21.70100 -6.22200 44.83900
H  21.92400 -11.67600 48.36000
H  27.70300 -10.26600 50.43400
H  25.67400 -3.44100 45.43200
H  23.82600 -5.05300 43.83800
H  22.56500 -3.29700 44.01500
H  23.51300 -2.66100 45.29200
H  22.10400 -3.73500 45.70100
H  25.76800 -5.62200 43.30600
H  27.08300 -5.55800 44.33700
H  27.88100 -3.94700 42.69800
H  26.94000 -2.79100 43.49600
H  19.88100 -7.27100 44.13100
H  18.75800 -7.70000 45.35000
H  19.16100 -8.97300 44.32400
H  20.70800 -12.70100 46.95800
H  19.01800 -12.87100 47.23500
H  19.83900 -11.95300 48.37000
H  23.93600 -12.84700 48.97500
H  25.22800 -11.40200 51.54100
H  22.56200 -13.41300 50.83000
H  21.85900 -11.77800 50.57700
H  23.22800 -12.13800 51.74100
H  26.87600 -12.75600 49.46800
H  25.87400 -13.87400 50.41800
H  27.28100 -12.16100 52.31800
H  28.44300 -12.67300 51.02300
H  27.42700 -13.88300 51.85900
H  29.81500 -8.87600 50.83000
H  30.69700 -7.68100 49.89700
H  30.29900 -9.33600 49.23500
H  28.66900 -5.08600 45.87400
H  29.17300 -0.79600 46.99300
H  27.51500 -0.96700 46.41000
H  28.84300 -0.95700 45.25200

