158

Mg 47.40000 25.75500 29.18800
C  48.24100 28.04600 31.67500
C  46.12000 23.77000 31.67400
C  46.85300 23.48100 26.85500
C  49.06300 27.65300 26.78500
N  47.01800 26.09200 31.40100
C  47.45400 27.08400 32.21400
C  47.13300 26.92100 33.69900
C  46.81500 25.35900 33.67500
C  46.57900 25.07700 32.16100
C  47.67400 24.40300 34.52800
C  45.91600 27.77300 34.25000
C  46.21400 28.50400 35.47700
H  45.35300 28.19100 36.76300
N  46.49200 23.91600 29.22600
C  46.05900 23.32300 30.31100
C  45.47200 22.06700 29.91900
C  45.58000 21.96600 28.50800
C  46.33100 23.12900 28.12800
C  44.80700 21.16200 30.92700
C  45.08000 20.94200 27.53200
O  45.24900 20.95100 26.30200
C  44.34700 19.85800 28.13500
N  47.98100 25.54500 27.12800
C  47.63400 24.48700 26.43300
C  48.08700 24.53800 25.00100
C  48.41800 26.04400 24.85500
C  48.47800 26.45500 26.33000
C  49.21000 23.51500 24.63200
C  47.26100 26.82500 24.14700
C  47.72300 28.33800 23.88200
N  48.60200 27.45400 29.22000
C  49.24300 28.07500 28.20000
C  49.81800 29.29200 28.69900
C  49.47000 29.32200 30.06400
C  48.71000 28.16000 30.32600
C  50.56000 30.27300 27.89900
C  49.65600 30.01300 31.30700
O  50.20300 31.05700 31.45200
C  48.79700 29.25700 32.35400
C  49.61600 29.05600 33.58000
O  50.31800 28.07800 33.74800
O  49.47500 30.10300 34.46200
C  50.09400 29.93300 35.75300
H  45.95500 22.98100 32.41000
H  46.53000 22.89900 25.98900
H  49.37800 28.27600 25.94500
H  47.96700 27.02500 34.39300
H  45.84500 25.16700 34.13200
H  48.05400 23.63100 33.85800
H  47.04600 23.84800 35.22600
H  48.41200 24.89500 35.16200
H  45.06000 27.15600 34.52300
H  45.51600 28.47200 33.51500
H  46.07800 29.51400 35.09100
H  47.26400 28.38800 35.74700
H  43.89300 20.74600 30.50400
H  44.51400 21.49300 31.92300
H  45.36000 20.22600 31.01200
H  44.98200 19.55300 28.96700
H  44.19900 19.08000 27.38600
H  43.36500 20.20000 28.46300
H  47.30100 24.44100 24.25200
H  49.43200 26.20800 24.49000
H  49.22600 22.96900 25.57600
H  50.20200 23.94800 24.51000
H  48.98000 22.86900 23.78500
H  46.45200 26.88600 24.87600
H  46.89800 26.49000 23.17500
H  47.37700 28.86200 24.77300
H  47.15400 28.84800 23.10500
H  48.78100 28.31500 23.62100
H  51.43200 29.75400 27.50000
H  50.89800 31.03300 28.60300
H  49.95300 30.64000 27.07200
H  47.94700 29.91700 32.53100
H  51.16600 29.90000 35.55800
H  49.90000 28.99300 36.27000
H  50.02300 30.82500 36.37500
Mg -11.38100 37.69700 42.31700
C  -9.15700 35.05000 41.45000
C  -9.27700 39.92700 40.86400
C  -13.98000 39.99500 42.05700
C  -13.71300 35.14600 43.02500
N  -9.62500 37.43500 41.21000
C  -8.87000 36.29500 40.92800
C  -7.68000 36.53600 40.06600
C  -7.53000 38.09600 40.18400
C  -8.89300 38.55100 40.81600
C  -6.25000 38.52600 40.96500
C  -7.93900 36.08500 38.59900
C  -6.85600 35.17400 38.02400
H  -6.13300 35.68500 36.72500
N  -11.47500 39.86400 41.90100
C  -10.51900 40.54800 41.24400
C  -10.92700 41.90800 41.27800
C  -12.34200 41.87600 41.38500
C  -12.69800 40.55500 41.81500
C  -10.00700 43.02900 40.94500
C  -13.25700 43.02400 41.09600
O  -12.77000 44.14200 40.93200
C  -14.66000 42.93700 41.07300
N  -13.45600 37.60600 42.59600
C  -14.29600 38.72600 42.58700
C  -15.66600 38.33500 43.15600
C  -15.64700 36.80100 43.41600
C  -14.17600 36.48000 43.01000
C  -16.28400 39.14500 44.33300
C  -16.69600 35.95600 42.61200
C  -17.35200 34.82100 43.37400
N  -11.43600 35.50600 42.33300
C  -12.41800 34.68400 42.67400
C  -11.95100 33.34000 42.75900
C  -10.62500 33.40800 42.28400
C  -10.38900 34.76400 41.99600
C  -12.70100 32.16600 43.39600
C  -9.39100 32.69200 41.97100
O  -9.16300 31.49000 42.11300
C  -8.40900 33.72800 41.38900
C  -7.24300 33.77200 42.32600
O  -6.07500 33.80300 42.02700
O  -7.69800 33.90000 43.62500
C  -6.74200 34.09600 44.69800
H  -8.53800 40.65100 40.51600
H  -14.92600 40.53100 41.95700
H  -14.43900 34.36500 43.26100
H  -6.81200 36.02400 40.48100
H  -7.42600 38.56000 39.20300
H  -5.40300 37.87000 40.76000
H  -6.38300 38.55300 42.04600
H  -5.88600 39.50100 40.64200
H  -8.01700 36.98000 37.98200
H  -8.94000 35.65500 38.60200
H  -7.23400 34.23000 37.63100
H  -5.98200 35.05800 38.66500
H  -10.33100 43.61400 40.08400
H  -8.98300 42.70000 40.76800
H  -9.82200 43.76000 41.73200
H  -15.07300 43.89200 40.74900
H  -14.84400 42.80000 42.13800
H  -15.01000 42.06700 40.51700
H  -16.39200 38.55200 42.37200
H  -15.63400 36.65300 44.49600
H  -16.97200 38.50800 44.88900
H  -16.96500 39.88600 43.91600
H  -15.55400 39.57700 45.01700
H  -16.17700 35.58800 41.72700
H  -17.52800 36.60400 42.33500
H  -18.43800 34.90800 43.39200
H  -16.99700 34.86700 44.40400
H  -17.08000 33.87000 42.91600
H  -12.95300 31.37700 42.68700
H  -13.59700 32.54400 43.88700
H  -12.02800 31.63800 44.07200
H  -7.96900 33.45800 40.42900
H  -7.01200 34.89200 45.39300
H  -5.77400 34.40600 44.30500
H  -6.72000 33.12000 45.18200

