158

Mg 16.48300 -2.57000 28.15900
C  15.89500 -0.44200 30.90300
C  17.83400 -4.81300 30.41900
C  17.66000 -4.42200 25.50700
C  15.29600 -0.35000 26.07500
N  16.91400 -2.61200 30.48300
C  16.52200 -1.63900 31.27900
C  16.86000 -2.04600 32.75000
C  17.77900 -3.32500 32.55000
C  17.46300 -3.65900 31.09200
C  19.29900 -2.96700 32.77600
C  15.61900 -2.45400 33.56900
C  15.36800 -1.65500 34.87600
H  16.66800 -1.19400 35.64700
N  17.51000 -4.44500 27.97300
C  17.84500 -5.22300 29.01700
C  18.38200 -6.47800 28.48500
C  18.24400 -6.42200 27.04400
C  17.77200 -5.03900 26.77300
C  18.88300 -7.57600 29.36200
C  18.58600 -7.47600 25.97500
O  18.38000 -7.27800 24.74700
C  19.24500 -8.77700 26.51900
N  16.55400 -2.33400 26.08700
C  17.07600 -3.22800 25.19000
C  16.95300 -2.72600 23.77400
C  15.88000 -1.62600 23.97800
C  15.80700 -1.46500 25.48400
C  18.27100 -2.18000 23.21400
C  14.40000 -1.77800 23.38300
C  13.11300 -1.97100 24.22000
N  15.71900 -0.76700 28.34100
C  15.26600 0.03800 27.38400
C  14.67600 1.17300 27.93800
C  14.87900 1.08200 29.34900
C  15.57500 -0.13900 29.48000
C  13.99300 2.29800 27.22800
C  14.68600 1.59300 30.67700
O  14.16800 2.63700 31.04500
C  15.37800 0.63600 31.72800
C  16.41700 1.48600 32.33200
O  17.58900 1.41800 32.03300
O  15.85300 2.42600 33.13500
C  16.70400 3.48900 33.67500
H  18.26400 -5.46800 31.17900
H  18.05000 -5.05300 24.70600
H  14.90400 0.44700 25.44000
H  17.39300 -1.20400 33.19200
H  17.74700 -4.13100 33.28400
H  19.51500 -1.96500 33.14600
H  19.86200 -3.15900 31.86200
H  19.66000 -3.54700 33.62400
H  15.46200 -3.53200 33.58700
H  14.88900 -2.05900 32.86200
H  14.91600 -2.25500 35.66500
H  14.69300 -0.88400 34.50600
H  18.50500 -8.58400 29.19600
H  18.42000 -7.44000 30.33900
H  19.95700 -7.51800 29.54300
H  20.04200 -8.52600 27.21900
H  19.72400 -9.31900 25.70400
H  18.50000 -9.43100 26.97300
H  16.51100 -3.54600 23.20800
H  16.16400 -0.67400 23.52700
H  18.95800 -1.83000 23.98500
H  18.10800 -1.30600 22.58300
H  19.01400 -2.77100 22.67800
H  14.38400 -2.57100 22.63400
H  14.19300 -0.84500 22.85900
H  12.74200 -1.02900 24.62500
H  13.31900 -2.51800 25.14000
H  12.44400 -2.55000 23.58400
H  12.98600 1.93900 27.01300
H  14.56400 2.51300 26.32500
H  13.95700 3.25100 27.75500
H  14.69800 0.28000 32.50200
H  16.09500 4.05200 34.38200
H  17.01800 4.17400 32.88700
H  17.59000 3.02200 34.10500
Mg 25.91200 50.27600 26.41900
C  23.59300 51.52400 28.70600
C  28.04700 49.54900 29.04500
C  28.14800 49.52000 24.11700
C  23.70100 51.53500 23.79400
N  25.79000 50.55300 28.67200
C  24.72000 51.07800 29.39600
C  24.94800 50.84900 30.89700
C  26.37900 50.47600 30.88600
C  26.81600 50.18600 29.42100
C  27.40800 51.32300 31.72000
C  23.96600 49.82200 31.56900
C  24.16400 49.37100 33.03800
H  24.68700 50.36100 34.08100
N  27.83400 49.52000 26.51500
C  28.53700 49.22400 27.69000
C  29.83800 48.64300 27.29900
C  29.82800 48.64700 25.86800
C  28.57600 49.27200 25.41200
C  30.88500 48.21500 28.36000
C  30.94800 48.09300 24.92900
O  30.77700 48.01500 23.66500
C  32.29700 47.49900 25.45200
N  25.78600 50.24400 24.22000
C  26.90100 49.98000 23.53200
C  26.60000 50.22400 22.02300
C  25.12200 50.70700 21.98800
C  24.85800 50.83500 23.43700
C  27.55500 51.06800 21.33400
C  23.99500 49.82400 21.40000
C  23.05100 50.62500 20.35200
N  23.91200 51.31500 26.22200
C  23.18800 51.68000 25.12700
C  21.99000 52.27800 25.56300
C  22.11000 52.25300 26.94300
C  23.28900 51.67000 27.30800
C  20.87100 52.83200 24.74900
C  21.40000 52.58800 28.19200
O  20.36200 53.15200 28.41600
C  22.32300 52.14500 29.34900
C  22.72500 53.20500 30.19800
O  23.48100 54.10500 29.90700
O  22.27600 52.95900 31.44300
C  22.35600 54.17600 32.41200
H  28.66100 49.28800 29.90900
H  28.79100 49.23800 23.28100
H  23.05600 51.93400 23.00900
H  24.99000 51.80400 31.42100
H  26.42100 49.50800 31.38600
H  27.82700 52.09700 31.07700
H  28.23900 50.81100 32.20500
H  26.88400 51.88700 32.49200
H  24.05800 48.92200 30.96100
H  22.97700 50.22100 31.34000
H  24.67800 48.41100 33.01600
H  23.10800 49.36000 33.31100
H  31.11300 47.16300 28.18900
H  30.48700 48.34300 29.36700
H  31.73900 48.89000 28.41700
H  32.97900 48.26900 25.81200
H  32.57100 46.84200 24.62700
H  32.09200 46.78100 26.24600
H  26.79000 49.25600 21.56100
H  25.07100 51.69400 21.52900
H  28.44700 51.27500 21.92600
H  27.17400 52.08500 21.24400
H  27.95000 50.66500 20.40100
H  23.29100 49.33600 22.07400
H  24.46700 48.97700 20.90100
H  22.81900 49.99000 19.49800
H  23.60200 51.52100 20.06600
H  22.15700 50.89000 20.91700
H  20.32600 53.52700 25.38800
H  20.24700 52.01200 24.39400
H  21.34200 53.42100 23.96200
H  21.86100 51.33900 29.91800
H  22.36500 55.08200 31.80600
H  23.24400 54.04700 33.03100
H  21.49500 54.12500 33.07800

