158

Mg 53.12600 23.46900 44.85200
C  50.82800 25.96400 43.84200
C  51.08100 21.05600 43.46600
C  55.64700 21.25700 45.17000
C  55.26300 26.05700 45.95800
N  51.22600 23.56100 43.79800
C  50.37600 24.69700 43.47500
C  49.07800 24.24200 42.80700
C  49.02000 22.70900 43.35500
C  50.55000 22.40400 43.51900
C  48.20200 22.54200 44.59200
C  49.02100 24.49000 41.27700
C  47.59900 24.87900 40.69400
H  47.28500 24.47700 39.26600
N  53.34000 21.44200 44.38000
C  52.38700 20.62200 43.82200
C  52.93900 19.29000 43.71400
C  54.29100 19.34000 44.16400
C  54.45800 20.68900 44.66500
C  52.20600 18.18000 42.98300
C  55.19100 18.11600 44.22800
O  54.77000 16.96700 43.92800
C  56.69100 18.35700 44.35000
N  55.31700 23.68700 45.07500
C  56.05800 22.57800 45.42400
C  57.41500 22.86500 46.06900
C  57.21000 24.41200 46.39800
C  55.83400 24.79700 45.74900
C  57.73200 21.91200 47.25300
C  58.48900 25.32500 45.97000
C  59.92100 24.75900 46.00400
N  53.10100 25.56100 44.97600
C  54.02400 26.45400 45.48200
C  53.42300 27.74700 45.59400
C  52.22900 27.62600 44.90800
C  52.06700 26.26800 44.55500
C  54.02800 29.03000 46.24000
C  51.10100 28.33900 44.38700
O  50.88000 29.54000 44.46900
C  50.17200 27.31100 43.63400
C  50.16900 27.81600 42.24500
O  51.19800 28.09800 41.64900
O  48.93900 27.91400 41.81200
C  48.74400 28.57100 40.48600
H  50.40000 20.24100 43.21300
H  56.36500 20.48200 45.44600
H  55.89800 26.79000 46.45900
H  48.21600 24.74600 43.24500
H  48.62900 22.08600 42.55000
H  47.71100 23.47900 44.85200
H  48.85400 22.35000 45.44500
H  47.46400 21.74100 44.56800
H  49.30100 23.59300 40.72400
H  49.57000 25.37100 40.94600
H  47.48100 25.96100 40.74600
H  46.86600 24.34500 41.29900
H  52.93400 17.86700 42.23400
H  51.38300 18.51000 42.35000
H  51.89300 17.32400 43.58000
H  56.88300 19.33800 43.91700
H  57.36800 17.62800 43.90500
H  56.98900 18.33700 45.39800
H  58.16200 22.61400 45.31700
H  57.21800 24.61600 47.46800
H  58.32700 21.08400 46.87000
H  56.76700 21.48700 47.53000
H  58.16000 22.34100 48.16000
H  58.49500 26.15800 46.67300
H  58.32200 25.69300 44.95800
H  60.37400 24.99500 45.04100
H  60.02700 23.67500 45.95900
H  60.61800 25.24000 46.69000
H  53.29800 29.78600 45.94800
H  54.98000 29.38900 45.85100
H  54.00200 28.83600 47.31200
H  49.15600 27.25100 44.02500
H  47.99300 28.07800 39.87000
H  49.66700 28.76200 39.93800
H  48.42200 29.59000 40.70300
Mg 17.22700 52.67400 25.26400
C  18.99300 51.53000 28.17100
C  14.60600 53.21600 27.37600
C  15.47200 53.37600 22.55800
C  19.92600 51.52800 23.30800
N  16.88900 52.50600 27.58900
C  17.74900 52.00500 28.51000
C  17.26300 52.34100 29.90700
C  15.72800 52.62300 29.66400
C  15.69800 52.76300 28.14100
C  14.73700 51.54500 30.10300
C  18.03800 53.51100 30.51900
C  17.95900 53.84000 31.96400
H  17.00900 53.01100 32.84500
N  15.46600 53.39900 25.00600
C  14.46400 53.55300 25.97800
C  13.23200 53.98800 25.38500
C  13.47200 54.10900 23.99600
C  14.85800 53.63600 23.80100
C  12.02300 54.45700 26.14700
C  12.49100 54.65700 22.90800
O  12.90300 54.81900 21.78400
C  11.05500 55.07900 23.21300
N  17.72400 52.57400 23.17200
C  16.81300 52.96100 22.25200
C  17.38100 52.93600 20.82000
C  18.89400 52.42900 21.09800
C  18.83400 52.00600 22.60100
C  16.58300 51.93200 19.98100
C  19.96400 53.51200 20.89400
C  21.33700 52.91900 20.43200
N  18.92100 51.51100 25.60500
C  19.91600 51.17500 24.68800
C  21.02000 50.54700 25.43800
C  20.67600 50.74000 26.78300
C  19.41600 51.29700 26.82700
C  22.26500 49.97500 24.86100
C  21.19400 50.47800 28.15000
O  22.30500 50.08600 28.54300
C  20.09200 51.01300 29.09400
C  19.62200 49.84800 29.99000
O  18.94200 48.90400 29.65000
O  20.08600 50.01400 31.32600
C  19.38500 49.28100 32.35500
H  13.76600 53.39200 28.05200
H  14.77300 53.60200 21.75000
H  20.82500 51.21200 22.77500
H  17.40800 51.40500 30.44700
H  15.41800 53.57300 30.10100
H  14.08100 51.17400 29.31600
H  14.13100 51.94100 30.91800
H  15.22200 50.70200 30.59500
H  17.70100 54.45900 30.10000
H  19.08800 53.45500 30.23300
H  17.79600 54.91000 32.09300
H  18.96700 53.73200 32.36400
H  12.04300 55.54100 26.03200
H  12.03200 54.14200 27.19000
H  11.13200 54.06600 25.65400
H  10.47900 54.20500 23.51600
H  10.66300 55.41900 22.25500
H  11.11300 55.88600 23.94400
H  17.26900 53.94400 20.42200
H  19.19600 51.53900 20.54700
H  15.54500 52.02100 20.30200
H  16.87800 50.89100 20.11400
H  16.72100 52.08400 18.91100
H  19.98500 54.11700 21.80000
H  19.54400 54.10900 20.08400
H  22.09000 53.05200 21.20900
H  21.66400 53.34000 19.48100
H  21.22200 51.87400 20.14400
H  22.76100 50.74600 24.27200
H  22.10000 49.04200 24.32300
H  22.98800 49.74100 25.64200
H  20.53300 51.79400 29.71300
H  19.31900 48.19500 32.28700
H  18.32900 49.54500 32.30800
H  19.87200 49.63000 33.26500

