158

Mg 26.17000 0.53100 28.31200
C  28.13000 0.29000 31.31300
C  23.47600 1.30000 30.33100
C  24.50700 0.89400 25.60600
C  29.00300 -0.50300 26.54900
N  25.84300 0.64000 30.61000
C  26.83500 0.75500 31.56300
C  26.17900 0.90800 32.93300
C  24.72100 1.31200 32.64900
C  24.64400 1.00900 31.10500
C  23.69600 0.67700 33.63100
C  26.86300 2.00300 33.78400
C  27.33800 1.70000 35.21500
H  27.53200 2.84900 36.26200
N  24.21300 0.90900 27.99800
C  23.26200 1.17100 28.93700
C  22.02400 1.41300 28.20000
C  22.30200 1.38800 26.83700
C  23.70600 0.90700 26.75400
C  20.67700 1.63000 28.97300
C  21.37500 1.72300 25.71000
O  21.69700 1.68500 24.50700
C  19.95800 2.11500 26.03300
N  26.70800 0.21300 26.32800
C  25.82100 0.61400 25.39100
C  26.39500 0.28000 23.99600
C  27.85300 -0.20500 24.28100
C  27.93600 -0.11800 25.85300
C  25.55500 -0.68000 23.12500
C  28.80100 0.67000 23.54600
C  29.00100 2.08300 24.05700
N  28.18500 0.00500 28.76800
C  29.17100 -0.47500 27.92500
C  30.36600 -0.81800 28.74800
C  30.00100 -0.58200 30.07100
C  28.65300 0.02500 30.04500
C  31.61600 -1.47700 28.19300
C  30.44400 -0.70800 31.46900
O  31.45500 -1.17400 31.97200
C  29.26900 -0.09100 32.29700
C  28.77900 -1.07200 33.28900
O  27.91100 -1.92300 33.08100
O  29.46900 -0.96600 34.47700
C  29.00500 -1.71100 35.59300
H  22.62200 1.69300 30.88700
H  23.96800 1.15800 24.69400
H  29.91500 -0.94300 26.14000
H  26.25500 -0.05100 33.44600
H  24.53100 2.37500 32.79600
H  22.85500 0.22400 33.10600
H  23.38600 1.39100 34.39500
H  24.25900 -0.08400 34.17100
H  26.20700 2.87300 33.81000
H  27.76300 2.37100 33.29200
H  28.37000 1.35800 35.14100
H  26.95100 0.76300 35.61600
H  20.56300 1.15400 29.94700
H  19.91700 1.07100 28.42600
H  20.31400 2.65700 28.99800
H  19.41600 1.25700 26.43000
H  19.40100 2.34200 25.12400
H  20.12000 2.94900 26.71500
H  26.39100 1.22600 23.45600
H  28.08800 -1.23100 23.99700
H  25.73000 -0.35000 22.10100
H  24.48400 -0.57700 23.30200
H  25.89300 -1.70000 23.30900
H  28.33200 0.74000 22.56500
H  29.72300 0.08800 23.56100
H  29.18200 2.74000 23.20700
H  29.83600 2.11400 24.75700
H  28.12000 2.32900 24.65000
H  31.96500 -1.26400 27.18200
H  31.43800 -2.54900 28.28500
H  32.49400 -1.18200 28.76800
H  29.69000 0.76700 32.82200
H  27.93000 -1.67300 35.76800
H  29.59600 -1.53000 36.49100
H  29.13200 -2.72700 35.22100
Mg -10.86500 16.05200 42.49100
C  -7.43300 15.73500 42.06000
C  -10.59000 19.45100 41.49000
C  -14.15500 16.22700 42.13500
C  -11.05000 12.62500 43.25600
N  -9.26000 17.36500 41.69500
C  -7.91400 17.02400 41.70600
C  -7.02500 18.20300 41.26700
C  -8.04900 19.38900 41.45400
C  -9.39800 18.74600 41.54500
C  -7.64500 20.27800 42.75100
C  -6.55200 17.94600 39.79000
C  -5.19900 18.51100 39.29700
H  -4.89100 18.79100 37.86700
N  -12.19700 17.62700 41.90600
C  -11.88900 18.91600 41.55700
C  -13.08000 19.61800 41.25800
C  -14.16300 18.70200 41.41800
C  -13.54200 17.41600 41.79100
C  -13.11600 21.04700 40.76400
C  -15.66800 19.04900 41.23600
O  -16.04100 20.20400 41.02000
C  -16.81700 18.06800 41.22800
N  -12.36100 14.62800 42.57300
C  -13.61000 14.96600 42.56200
C  -14.56800 13.76500 42.72300
C  -13.66300 12.81000 43.48500
C  -12.26300 13.38600 43.17800
C  -15.98300 13.98700 43.52600
C  -13.83400 11.30100 43.44100
C  -14.21900 10.61800 44.88700
N  -9.56700 14.37800 42.54500
C  -9.71600 13.04600 42.94300
C  -8.35700 12.33700 42.92200
C  -7.46000 13.41800 42.59800
C  -8.20000 14.58500 42.36800
C  -8.04000 11.01000 43.54700
C  -6.10500 13.76700 42.61100
O  -5.09000 13.16000 42.92700
C  -6.06000 15.29200 42.17000
C  -5.40300 16.18300 43.15600
O  -5.85100 16.47100 44.23600
O  -4.19100 16.53200 42.73800
C  -3.32500 17.13100 43.73200
H  -10.61200 20.53700 41.37500
H  -15.24300 16.28900 42.06300
H  -11.10600 11.64700 43.73700
H  -6.15200 18.29100 41.91300
H  -7.95000 20.11800 40.65000
H  -7.45700 21.27500 42.35400
H  -6.74400 19.88600 43.22300
H  -8.46700 20.20500 43.46300
H  -7.24500 18.46100 39.12500
H  -6.73900 16.89500 39.57000
H  -4.39100 17.87800 39.66400
H  -5.16800 19.48800 39.77900
H  -13.93900 21.03900 40.04900
H  -12.17700 21.18800 40.23000
H  -13.22200 21.71200 41.62200
H  -17.74600 18.51800 40.87700
H  -16.96600 17.58600 42.19400
H  -16.64400 17.29800 40.47600
H  -14.71500 13.30300 41.74700
H  -13.68700 13.12500 44.52800
H  -15.91900 14.94000 44.05200
H  -16.24100 13.25500 44.29100
H  -16.87900 14.14600 42.92600
H  -12.92600 10.77200 43.15300
H  -14.66300 11.06300 42.77500
H  -13.31900 10.50800 45.49200
H  -14.76500 9.68900 44.72100
H  -14.91600 11.31900 45.34600
H  -7.66500 11.21500 44.55000
H  -7.45300 10.44400 42.82400
H  -8.92600 10.39400 43.70200
H  -5.63900 15.55300 41.19900
H  -3.69700 18.14300 43.89000
H  -2.36600 17.16600 43.21500
H  -3.35500 16.55800 44.65800

