158

Mg -11.06000 39.24900 41.14600
C  -9.65200 36.15100 40.33600
C  -8.45000 40.83500 39.48400
C  -12.88100 42.14400 41.15400
C  -13.80300 37.46000 42.22800
N  -9.28200 38.54000 40.12900
C  -9.00000 37.23900 39.74600
C  -7.76100 37.25900 38.80500
C  -7.15800 38.70700 39.07000
C  -8.40700 39.43100 39.59900
C  -6.03900 38.53000 40.12000
C  -8.18200 37.05700 37.40300
C  -7.23100 36.15400 36.56500
H  -7.02600 36.51600 35.10900
N  -10.71000 41.23800 40.51200
C  -9.57700 41.65200 39.84100
C  -9.64300 43.13800 39.71600
C  -10.83500 43.56500 40.30700
C  -11.55500 42.28100 40.62500
C  -8.55400 43.82300 39.02700
C  -11.19900 45.06600 40.50200
O  -10.35700 45.94800 40.23400
C  -12.45300 45.45800 41.15100
N  -13.06200 39.70600 41.41200
C  -13.56300 40.96900 41.43700
C  -14.99200 40.97500 41.84000
C  -15.33800 39.44900 42.04300
C  -14.03000 38.80200 41.79700
C  -15.31300 41.92200 43.10500
C  -16.45600 38.86700 41.13300
C  -17.87000 38.58500 41.75100
N  -11.60400 37.19500 41.40000
C  -12.70700 36.65700 41.92400
C  -12.56100 35.22800 42.03700
C  -11.31600 34.99600 41.42300
C  -10.82300 36.20800 40.99600
C  -13.51800 34.25700 42.66600
C  -10.36900 33.96900 41.13500
O  -10.32300 32.74300 41.37300
C  -9.25500 34.70900 40.25100
C  -7.94800 34.44900 40.97500
O  -7.38700 35.11900 41.83700
O  -7.39400 33.30600 40.39400
C  -6.23000 32.86800 41.11200
H  -7.56400 41.28900 39.03600
H  -13.38100 43.07100 41.44600
H  -14.69200 36.92700 42.57100
H  -7.09400 36.46500 39.14000
H  -6.92400 39.29900 38.18500
H  -6.17000 37.74000 40.86000
H  -5.89700 39.38600 40.78000
H  -5.15700 38.39300 39.49400
H  -8.14900 37.97900 36.82200
H  -9.18900 36.64300 37.36300
H  -7.47900 35.09300 36.61300
H  -6.26100 36.31300 37.03600
H  -8.57400 43.61000 37.95900
H  -7.59800 43.53800 39.46500
H  -8.70800 44.90100 39.09200
H  -12.44300 44.97000 42.12600
H  -13.31900 45.03700 40.64100
H  -12.57100 46.54100 41.19900
H  -15.63800 41.32700 41.03600
H  -15.74400 39.39300 43.05300
H  -14.55300 42.59800 43.49600
H  -15.59200 41.37000 44.00200
H  -16.21700 42.45200 42.80300
H  -16.23800 37.87100 40.74800
H  -16.66900 39.44400 40.23300
H  -17.74800 37.91100 42.59900
H  -18.60400 38.36800 40.97500
H  -18.10700 39.57500 42.14000
H  -13.54800 34.48100 43.73200
H  -13.29900 33.20500 42.48300
H  -14.57500 34.43200 42.46600
H  -9.17100 34.47000 39.19100
H  -6.04800 31.88800 40.67100
H  -6.42200 32.67800 42.16800
H  -5.45900 33.59500 40.85600
Mg -0.30000 44.18500 26.31800
C  1.47900 43.88200 29.38800
C  -3.17500 43.61000 28.00800
C  -1.68000 43.77100 23.32600
C  2.93100 44.57900 24.77700
N  -0.78600 43.75700 28.39600
C  0.10500 43.71900 29.45800
C  -0.71500 43.44700 30.74800
C  -2.19900 43.37000 30.32900
C  -2.03000 43.54000 28.83800
C  -2.94000 42.01100 30.72400
C  -0.50700 44.47800 31.98100
C  -0.01900 44.01800 33.39900
H  -0.57400 42.68100 33.95500
N  -2.20000 43.83100 25.70700
C  -3.30900 43.65400 26.58600
C  -4.46600 43.53100 25.73400
C  -4.04800 43.47100 24.32400
C  -2.62900 43.71000 24.39000
C  -5.83600 43.31700 26.37200
C  -4.92600 43.17400 23.08700
O  -4.37200 43.04900 22.00400
C  -6.36300 42.81600 23.19300
N  0.49900 44.18000 24.39100
C  -0.28500 44.07200 23.30300
C  0.56400 43.96800 22.05600
C  1.93900 44.56700 22.45400
C  1.82600 44.43000 23.96500
C  0.75600 42.48400 21.62700
C  2.28200 45.99500 21.94500
C  1.14100 47.01600 21.89400
N  1.78800 44.27000 26.90700
C  2.94900 44.54400 26.22500
C  4.02200 44.51900 27.08300
C  3.51800 44.23200 28.34600
C  2.16900 44.13900 28.19600
C  5.55700 44.54000 26.77300
C  3.79400 43.98400 29.74100
O  4.87800 43.92800 30.28200
C  2.51200 43.74600 30.45500
C  2.53200 42.48500 31.21400
O  2.04400 41.42300 30.84400
O  3.05400 42.67000 32.46600
C  3.03900 41.45300 33.33300
H  -4.06900 43.80400 28.60400
H  -2.04600 43.51700 22.32900
H  3.87600 44.62500 24.23200
H  -0.38300 42.43000 30.95700
H  -2.80500 44.23800 30.58700
H  -3.88600 42.23100 31.21900
H  -2.33000 41.36200 31.35200
H  -3.21800 41.46400 29.82300
H  -1.46500 44.97800 32.12000
H  0.04800 45.37600 31.71100
H  -0.33600 44.72600 34.16400
H  1.06600 44.12100 33.41700
H  -6.19400 42.29000 26.29400
H  -6.61700 43.95400 25.95600
H  -5.84300 43.66000 27.40600
H  -6.39700 41.84900 23.69500
H  -6.84500 42.63300 22.23300
H  -6.95200 43.52300 23.77700
H  0.11500 44.52200 21.23200
H  2.80700 43.97400 22.16400
H  1.79200 42.15900 21.71800
H  0.34600 42.40700 20.62000
H  0.10100 41.89000 22.26500
H  2.79700 45.91300 20.98800
H  2.99100 46.33800 22.69800
H  0.25200 46.53800 22.30700
H  0.95800 47.51400 20.94200
H  1.31700 47.76600 22.66500
H  6.15900 44.55800 27.68200
H  5.69100 45.50800 26.29000
H  5.77600 43.70100 26.11400
H  2.42200 44.61400 31.10800
H  2.28600 41.40900 34.11900
H  3.99600 41.34100 33.84500
H  2.88800 40.49000 32.84500

