158

Mg 53.24900 23.72300 44.39100
C  50.49200 25.70300 43.44800
C  51.33600 20.98000 43.07200
C  56.03900 21.83200 44.30700
C  54.92600 26.52600 45.14600
N  51.24200 23.42300 43.09000
C  50.30500 24.41100 42.90700
C  49.01100 23.84100 42.18900
C  49.14200 22.36900 42.45100
C  50.64800 22.20900 42.83800
C  48.20200 21.86700 43.51700
C  49.08800 24.31500 40.67200
C  47.74800 24.66000 39.98500
H  47.12900 23.72400 38.92200
N  53.62800 21.62700 43.91800
C  52.69200 20.69000 43.45100
C  53.31400 19.42500 43.44800
C  54.69100 19.58300 43.80200
C  54.84500 21.03300 44.07800
C  52.66700 18.18200 43.14700
C  55.70600 18.46200 43.93400
O  55.37000 17.36500 43.50700
C  57.13000 18.73600 44.39300
N  55.26600 24.16600 44.45700
C  56.25300 23.20400 44.52400
C  57.58400 23.82400 44.96800
C  57.22200 25.34500 45.30500
C  55.72100 25.38200 44.96200
C  58.42100 23.12900 46.04600
C  57.98000 26.35500 44.47500
C  58.40100 27.64000 45.19300
N  52.84500 25.66500 44.38400
C  53.60900 26.74000 44.81600
C  52.80200 27.92200 44.95400
C  51.57000 27.58600 44.44800
C  51.65700 26.17100 44.06900
C  53.16700 29.28700 45.41700
C  50.21300 28.09500 44.19000
O  49.72500 29.20400 44.31800
C  49.42200 26.79800 43.64700
C  48.84600 27.28200 42.37900
O  49.45900 27.60500 41.35800
O  47.50500 27.51500 42.49200
C  46.80000 28.29600 41.43400
H  50.68800 20.11400 42.92100
H  57.00100 21.31600 44.32700
H  55.41800 27.40500 45.56800
H  48.13400 24.27300 42.67100
H  48.96800 21.92500 41.47100
H  47.35900 21.35500 43.05400
H  47.85500 22.67500 44.16200
H  48.70900 21.06900 44.05800
H  49.51700 23.57300 39.99800
H  49.72500 25.18700 40.52100
H  47.96700 25.55400 39.40200
H  47.02600 24.94700 40.74900
H  52.44000 17.56400 44.01600
H  53.27700 17.64300 42.42300
H  51.72900 18.37200 42.62500
H  57.68000 19.25800 43.60900
H  57.54000 17.73100 44.49100
H  57.13500 19.19900 45.38000
H  58.18100 23.89500 44.06000
H  57.43300 25.57800 46.34900
H  58.04500 22.12000 46.21800
H  58.38300 23.66200 46.99700
H  59.42600 22.96300 45.66000
H  57.31900 26.70000 43.68000
H  58.82900 25.86800 43.99600
H  59.47300 27.79900 45.07800
H  58.26000 27.69400 46.27300
H  57.88400 28.51200 44.79100
H  54.23400 29.45400 45.27500
H  52.92200 29.40400 46.47200
H  52.57900 30.05000 44.90500
H  48.62700 26.46700 44.31500
H  46.07500 28.86900 42.01200
H  46.28000 27.72300 40.66700
H  47.45200 29.06100 41.01200
Mg -2.27500 34.75400 26.70300
C  -3.36700 32.91900 29.41800
C  -0.63400 36.88200 28.85600
C  -1.48100 36.58700 24.03200
C  -3.58700 32.34200 24.57000
N  -2.08100 34.85500 28.88500
C  -2.53500 33.95800 29.81700
C  -2.06600 34.34100 31.16900
C  -1.29800 35.58800 31.01700
C  -1.33100 35.80900 29.45600
C  -1.82700 36.81800 31.91100
C  -1.18600 33.18400 31.83700
C  -1.63700 32.57500 33.18900
H  -0.68900 32.41000 34.46100
N  -1.23500 36.52000 26.44300
C  -0.66100 37.23400 27.44900
C  -0.03400 38.36800 26.84600
C  -0.30500 38.34900 25.49200
C  -1.01000 37.10500 25.21400
C  0.81300 39.37600 27.66400
C  0.15200 39.39100 24.45800
O  0.01000 39.20200 23.29400
C  0.84200 40.64900 24.84500
N  -2.37200 34.48500 24.60300
C  -2.05300 35.39500 23.68800
C  -2.58000 35.12800 22.32500
C  -2.94400 33.58300 22.47000
C  -2.89800 33.41000 23.98400
C  -3.77400 35.95200 21.87100
C  -2.08200 32.58000 21.71900
C  -0.71300 32.11700 22.41200
N  -3.41700 32.91800 26.90100
C  -3.86100 32.02000 25.92600
C  -4.60400 30.98000 26.58700
C  -4.52300 31.33200 27.98500
C  -3.74800 32.56300 28.08700
C  -5.07400 29.74600 25.85600
C  -4.84600 30.92100 29.29200
O  -5.46100 29.94300 29.68100
C  -4.11100 31.91500 30.27600
C  -5.13800 32.53100 31.14100
O  -5.92600 33.37400 30.76400
O  -5.13300 31.93300 32.43600
C  -6.27600 32.39700 33.22000
H  -0.12400 37.55700 29.54600
H  -1.37700 37.18000 23.12100
H  -4.03600 31.66700 23.83800
H  -2.96000 34.60900 31.73200
H  -0.26000 35.41100 31.29800
H  -0.94100 37.15600 32.44600
H  -2.57500 36.41100 32.59200
H  -2.25400 37.61900 31.30800
H  -0.14000 33.45400 31.97900
H  -1.07900 32.37900 31.11000
H  -1.69800 31.52100 32.92000
H  -2.63700 32.91400 33.45800
H  1.85600 39.50900 27.38000
H  0.98700 39.05900 28.69200
H  0.27800 40.31300 27.82300
H  0.16000 41.27100 25.42600
H  1.24300 41.11400 23.94400
H  1.74300 40.40400 25.40700
H  -1.68300 35.18200 21.70800
H  -3.96500 33.34900 22.16800
H  -3.96100 36.59100 22.73400
H  -4.67500 35.37200 21.67300
H  -3.42700 36.57300 21.04500
H  -1.81300 33.06000 20.77700
H  -2.56900 31.63000 21.50300
H  0.08900 32.80400 22.14200
H  -0.35600 31.12900 22.12000
H  -0.70200 32.04700 23.50000
H  -4.38900 29.52700 25.03700
H  -6.02000 29.89200 25.33500
H  -5.10200 28.89800 26.54000
H  -3.41500 31.39300 30.93200
H  -7.19500 32.60500 32.67200
H  -6.06700 33.32800 33.74800
H  -6.48100 31.60100 33.93500

