158

Mg 0.76600 -1.93000 44.45400
C  4.34900 -1.39700 43.99400
C  0.40300 0.91900 42.47200
C  -2.34600 -2.77700 44.27000
C  1.56400 -4.94600 45.95900
N  2.29500 -0.40000 43.46200
C  3.66000 -0.48000 43.32900
C  4.20300 0.64600 42.45600
C  2.88900 1.41800 42.04800
C  1.74900 0.62600 42.68100
C  2.88300 2.96900 42.38400
C  5.13800 -0.01000 41.31500
C  6.56000 0.66100 41.11300
H  6.91100 0.73000 39.56500
N  -0.76200 -1.04800 43.45000
C  -0.71600 0.10300 42.77100
C  -2.09100 0.48400 42.46000
C  -2.93400 -0.61200 42.83000
C  -2.08600 -1.57800 43.53000
C  -2.44300 1.82200 41.68100
C  -4.45300 -0.62600 42.68000
O  -4.98500 0.33500 42.13900
C  -5.29800 -1.72800 43.13400
N  -0.23800 -3.75600 44.91600
C  -1.55800 -3.67500 44.93800
C  -2.12700 -5.03400 45.46200
C  -0.81700 -5.84600 45.85800
C  0.22900 -4.79000 45.64900
C  -3.15600 -4.79000 46.59800
C  -0.54700 -7.19100 44.99300
C  -0.31200 -8.44000 45.86700
N  2.52100 -2.87000 45.05600
C  2.70900 -4.06700 45.75900
C  4.09700 -4.46300 45.86400
C  4.75100 -3.42100 45.14900
C  3.77100 -2.45000 44.67800
C  4.71300 -5.53300 46.53900
C  6.06400 -2.89100 44.79100
O  7.08700 -3.46500 45.04300
C  5.83400 -1.53200 44.11700
C  6.49100 -0.42000 44.96100
O  6.53700 -0.35400 46.14600
O  7.20100 0.43800 44.09700
C  7.95500 1.40300 44.78500
H  0.38100 1.75600 41.77200
H  -3.40000 -3.05700 44.30600
H  1.72700 -5.90900 46.44800
H  4.78900 1.18100 43.20300
H  2.80400 1.50700 40.96500
H  2.13000 3.07100 43.16600
H  2.77000 3.43600 41.40600
H  3.84300 3.21200 42.84000
H  4.53000 0.07300 40.41400
H  5.31000 -1.08600 41.29700
H  7.26700 0.10300 41.72600
H  6.53300 1.65600 41.55700
H  -1.57900 2.31100 41.23000
H  -3.03500 2.56500 42.21400
H  -2.99300 1.53400 40.78500
H  -5.28300 -1.83300 44.21800
H  -5.10100 -2.73900 42.77800
H  -6.31600 -1.50500 42.81600
H  -2.62300 -5.53400 44.63000
H  -0.69600 -6.10600 46.91000
H  -3.50400 -3.75700 46.58800
H  -2.72500 -4.93900 47.58800
H  -3.96700 -5.50300 46.44400
H  0.36400 -7.01400 44.42200
H  -1.37700 -7.45300 44.33600
H  0.41700 -9.03800 45.32000
H  -1.26700 -8.93500 46.04000
H  0.15500 -8.18200 46.81700
H  5.51100 -5.99200 45.95500
H  4.00900 -6.21700 47.01400
H  5.27900 -5.09600 47.36200
H  6.30700 -1.58700 43.13700
H  8.86600 0.87300 45.06300
H  7.56000 1.94900 45.64200
H  8.18800 2.14600 44.02200
Mg 7.12400 53.31500 40.40700
C  6.46900 49.80100 40.15600
C  10.48200 52.65100 39.93000
C  7.57500 56.60200 40.21200
C  3.62800 53.73200 40.65900
N  8.36700 51.40500 40.13500
C  7.84400 50.11800 40.05200
C  8.94800 49.20100 39.65200
C  10.21300 49.98300 40.12500
C  9.68700 51.48900 40.02300
C  10.62900 49.65700 41.58200
C  8.96700 48.82300 38.11700
C  8.38500 49.80800 37.08500
H  7.55700 49.22200 35.91500
N  8.79500 54.46900 40.05900
C  10.09800 54.00000 39.86900
C  10.96100 55.15900 39.48400
C  10.19600 56.33400 39.65200
C  8.78800 55.81100 40.05300
C  12.37100 55.11300 39.10300
C  10.70800 57.76700 39.50800
O  11.90400 58.04500 39.28100
C  9.75500 58.96500 39.68300
N  5.78800 54.91500 40.45000
C  6.23600 56.20900 40.48100
C  5.05800 57.21200 40.62800
C  3.81500 56.24600 40.53600
C  4.45500 54.87600 40.56000
C  5.13300 58.13000 41.86000
C  3.00500 56.44300 39.19800
C  1.51400 56.23800 39.33600
N  5.36000 52.11400 40.49500
C  4.06500 52.37900 40.68900
C  3.27800 51.15200 40.82200
C  4.25900 50.08700 40.62100
C  5.43300 50.71000 40.47700
C  1.78000 51.04700 41.07900
C  4.41400 48.68500 40.56200
O  3.54400 47.85800 40.75000
C  5.85700 48.38200 40.16500
C  5.73300 47.69200 38.89200
O  5.25900 48.12600 37.86100
O  6.05800 46.37300 39.08500
C  5.95700 45.57300 37.82900
H  11.52500 52.40800 39.71900
H  7.70300 57.68300 40.29600
H  2.56700 53.85500 40.88200
H  8.81100 48.23500 40.13800
H  11.01300 49.71400 39.43600
H  10.17800 48.78200 42.05000
H  10.32100 50.45100 42.26200
H  11.71600 49.60100 41.62100
H  8.39000 47.91100 37.96200
H  9.99000 48.58200 37.82800
H  9.14100 50.34000 36.50800
H  7.77300 50.60400 37.51000
H  12.98300 55.68000 39.80500
H  12.58000 55.36000 38.06200
H  12.69500 54.07600 39.18600
H  10.38800 59.82100 39.44900
H  9.42400 59.09300 40.71400
H  8.93700 58.98000 38.96200
H  5.05600 57.85100 39.74500
H  3.24000 56.49500 41.42800
H  5.25300 59.20100 41.69600
H  6.01600 57.75400 42.37600
H  4.29100 57.87200 42.50200
H  3.46100 55.92200 38.35600
H  3.18100 57.48900 38.94800
H  1.10900 55.67600 38.49400
H  0.90300 57.10300 39.59500
H  1.45400 55.59000 40.20900
H  1.27500 51.97600 40.81600
H  1.61000 50.80500 42.12800
H  1.41900 50.25800 40.41900
H  6.28300 47.69400 40.89600
H  6.71000 46.01700 37.17900
H  4.94800 45.57700 37.41600
H  6.34800 44.57000 38.00000

