158

Mg 34.88300 2.39000 29.22200
C  32.70600 3.93900 31.46100
C  37.22800 2.06500 31.72300
C  36.98600 1.28000 26.96500
C  32.49700 3.09900 26.64800
N  35.01500 3.04400 31.31000
C  33.94200 3.57900 32.07200
C  34.30800 3.37400 33.58200
C  35.88300 3.20400 33.53500
C  36.12600 2.70500 32.10000
C  36.87300 4.39700 33.91200
C  33.45000 2.26900 34.30000
C  32.78900 2.84500 35.57700
H  33.45500 4.02800 36.33000
N  36.83200 1.64800 29.38000
C  37.61400 1.64300 30.43000
C  38.82400 0.92400 30.11000
C  38.71100 0.58300 28.73200
C  37.44400 1.16600 28.26200
C  40.08900 0.79500 31.07100
C  39.72500 -0.19500 27.80500
O  39.51100 -0.52900 26.61300
C  41.10700 -0.72800 28.43600
N  34.72300 2.29100 27.14200
C  35.75300 1.77000 26.46400
C  35.43800 1.68700 24.94700
C  33.90800 1.98800 24.93200
C  33.69500 2.58300 26.30900
C  36.26200 2.61200 24.11100
C  32.95600 0.78400 24.55900
C  32.56700 -0.25400 25.63400
N  32.98800 3.40300 29.02300
C  32.09800 3.53600 27.93600
C  30.79500 3.99400 28.43200
C  30.95800 4.15800 29.81700
C  32.31700 3.80000 30.10500
C  29.60800 4.30800 27.54100
C  30.34300 4.62800 31.01800
O  29.25000 5.03700 31.17900
C  31.42900 4.43100 32.14000
C  31.53300 5.77500 32.78500
O  31.96200 6.76200 32.22800
O  31.06400 5.77200 34.02700
C  31.17000 7.07100 34.73100
H  38.04300 1.94600 32.43900
H  37.65600 0.95300 26.16700
H  31.80000 3.22500 25.81700
H  34.15300 4.40300 33.90400
H  36.21300 2.41200 34.20700
H  37.59000 4.68500 33.14300
H  37.45600 4.10300 34.78400
H  36.38400 5.35700 34.07800
H  33.96900 1.36000 34.60200
H  32.63800 2.02400 33.61500
H  32.78100 2.03700 36.30800
H  31.76100 3.08000 35.30100
H  39.90100 1.25200 32.04200
H  41.00700 1.20700 30.65300
H  40.23000 -0.27300 31.24100
H  40.94100 -1.05600 29.46200
H  41.88300 0.03700 28.40200
H  41.51600 -1.58600 27.90300
H  35.57900 0.63100 24.71500
H  33.79100 2.83300 24.25300
H  36.93300 3.22600 24.71100
H  35.65800 3.33000 23.55600
H  36.88900 1.99300 23.47000
H  33.33400 0.22100 23.70600
H  32.03300 1.18600 24.14000
H  31.51300 -0.04500 25.81600
H  33.12900 -0.22800 26.56800
H  32.76700 -1.23700 25.20800
H  29.87300 4.34800 26.48500
H  29.10300 5.25600 27.72800
H  29.02000 3.41200 27.74000
H  31.02200 3.73800 32.87700
H  30.44900 7.73200 34.25000
H  32.19200 7.43800 34.63800
H  30.93700 6.79300 35.75900
Mg 1.45200 42.11900 26.30100
C  2.78300 42.34400 29.60500
C  -1.54500 41.14600 27.73800
C  0.23800 41.42800 23.18500
C  4.50200 43.01400 24.97500
N  0.71300 41.92900 28.45800
C  1.47800 42.00100 29.62300
C  0.52000 42.04600 30.87000
C  -0.82200 41.69400 30.26700
C  -0.59900 41.59000 28.69900
C  -1.58400 40.55200 30.91000
C  0.55100 43.41800 31.58100
C  1.22800 43.45900 33.00700
H  0.19400 43.40800 34.11100
N  -0.38700 41.27100 25.53400
C  -1.46000 40.97400 26.33800
C  -2.48400 40.36500 25.53700
C  -1.98600 40.40400 24.20700
C  -0.70500 41.08300 24.23100
C  -3.81800 39.87600 26.11300
C  -2.68000 40.04300 22.90400
O  -2.09800 40.00100 21.80200
C  -4.16200 39.62000 23.00700
N  2.22100 42.30600 24.37700
C  1.55200 41.99000 23.23300
C  2.50700 42.19800 21.96700
C  3.60300 43.04100 22.66300
C  3.42900 42.80200 24.09800
C  3.00400 40.85600 21.35000
C  3.50900 44.46200 22.37800
C  3.60500 44.72800 20.82100
N  3.35200 42.54700 27.11200
C  4.48800 42.90900 26.41200
C  5.52000 43.08400 27.38200
C  4.88500 42.92200 28.64300
C  3.58300 42.50600 28.40800
C  6.95300 43.43000 26.96800
C  5.14800 42.85000 30.07500
O  6.10900 42.88600 30.74500
C  3.70800 42.52400 30.75200
C  3.83500 41.17400 31.49700
O  3.89700 40.07800 30.94500
O  4.01100 41.34700 32.87000
C  4.12400 40.10200 33.59500
H  -2.56600 41.00700 28.10100
H  -0.10900 41.11800 22.19700
H  5.41400 43.44200 24.55200
H  0.95800 41.26500 31.49100
H  -1.37200 42.62800 30.37900
H  -2.06000 40.85900 31.84100
H  -1.12300 39.60800 31.20000
H  -2.32800 40.23700 30.17800
H  -0.45300 43.83900 31.64700
H  1.17000 44.12600 31.02900
H  1.81300 44.37500 33.09100
H  1.88900 42.60100 33.12900
H  -4.09000 40.21900 27.11100
H  -3.95200 38.79500 26.14600
H  -4.59400 40.19000 25.41600
H  -4.50300 39.27800 22.03000
H  -4.61200 40.54200 23.37500
H  -4.12100 38.81700 23.74400
H  1.95600 42.69900 21.17100
H  4.57100 42.74500 22.26000
H  2.52300 40.05400 21.90900
H  4.08700 40.80400 21.46300
H  2.72700 40.90700 20.29700
H  4.30900 45.03100 22.85100
H  2.62200 44.96000 22.76800
H  2.71600 45.21800 20.42500
H  3.76800 43.80000 20.27300
H  4.49000 45.35100 20.68800
H  7.20800 44.49000 26.96900
H  7.03600 42.99200 25.97300
H  7.68700 42.95700 27.62000
H  3.44500 43.28000 31.49300
H  5.06300 39.72200 33.19200
H  3.27700 39.45300 33.37200
H  4.19000 40.23400 34.67500

