158

Mg 1.24900 7.28000 26.57700
C  1.95600 9.38300 29.43300
C  0.99200 4.68600 28.90600
C  0.85700 5.33700 24.04500
C  1.86700 10.05200 24.62400
N  1.36400 7.11000 28.97500
C  1.66000 8.05100 29.88600
C  1.68200 7.45800 31.35500
C  1.57700 5.92400 31.05200
C  1.30500 5.91200 29.54200
C  2.82600 5.05000 31.35500
C  0.52300 8.06400 32.16000
C  0.69300 8.40800 33.62900
H  1.75900 7.62100 34.36900
N  0.79600 5.32800 26.48600
C  0.76100 4.40700 27.55300
C  0.35000 3.18100 26.98700
C  0.30000 3.30400 25.56700
C  0.66100 4.68100 25.29900
C  0.25700 1.92800 27.80000
C  -0.10200 2.36600 24.52100
O  -0.30800 2.68100 23.33300
C  -0.42400 0.95300 24.79700
N  1.67900 7.56500 24.61300
C  1.28100 6.58100 23.71100
C  1.39200 7.16400 22.22900
C  1.48800 8.66800 22.55200
C  1.66700 8.81800 24.09200
C  2.63100 6.70200 21.36300
C  0.14900 9.44200 22.15200
C  0.42300 10.69200 21.26200
N  1.84300 9.32000 26.89700
C  1.87900 10.34200 25.98700
C  2.14000 11.61900 26.63800
C  2.17000 11.27900 28.01000
C  2.02900 9.84900 28.08600
C  2.14700 12.97300 25.98200
C  2.27400 11.86100 29.35200
O  2.34500 13.04300 29.63600
C  2.17500 10.53900 30.33400
C  3.28600 10.49200 31.31100
O  4.29300 9.76100 31.28600
O  2.93900 11.36000 32.35300
C  3.92400 11.44100 33.41900
H  0.99300 3.79800 29.54100
H  0.54800 4.77800 23.15900
H  1.97900 10.95100 24.01500
H  2.60900 7.74800 31.85000
H  0.75000 5.51000 31.62900
H  2.64600 4.20500 32.02000
H  3.64900 5.60700 31.80400
H  3.28500 4.63700 30.45700
H  -0.32600 7.38700 32.06200
H  0.16000 8.95200 31.64300
H  -0.22900 8.26100 34.19200
H  1.07900 9.42100 33.51700
H  -0.75600 1.52500 27.79600
H  0.51100 1.89400 28.86000
H  0.83400 1.19600 27.23500
H  -0.71500 0.34900 23.93900
H  -1.32000 0.95400 25.41700
H  0.44700 0.42900 25.19100
H  0.54400 6.82900 21.63300
H  2.37400 9.19200 22.19400
H  3.05100 7.58000 20.87200
H  2.41100 5.86700 20.69800
H  3.43300 6.52700 22.08000
H  -0.38500 9.79700 23.03300
H  -0.49400 8.77700 21.57600
H  0.07300 10.41300 20.26800
H  1.42000 11.12000 21.16400
H  -0.25000 11.49700 21.55800
H  2.08000 12.92400 24.89500
H  3.03700 13.47000 26.36900
H  1.20300 13.39000 26.33100
H  1.25000 10.69800 30.88900
H  4.86000 11.66300 32.90500
H  4.20300 10.51500 33.92100
H  3.53300 12.20700 34.08900
Mg 7.16400 54.49300 40.24300
C  6.07100 50.93500 39.85200
C  10.17400 53.49800 39.33900
C  7.64600 57.61100 39.61300
C  3.57600 55.08200 40.76800
N  7.96500 52.41800 39.35400
C  7.41700 51.17100 39.44100
C  8.55400 50.14400 39.20300
C  9.82500 50.94000 39.40300
C  9.30800 52.40900 39.27300
C  10.62900 50.65000 40.69900
C  8.49600 49.36800 37.87300
C  8.40200 50.10800 36.56000
H  7.14400 49.80000 35.75600
N  8.71200 55.44000 39.55000
C  9.90100 54.85000 39.29400
C  10.91600 55.91600 39.07800
C  10.25000 57.18800 39.22900
C  8.80900 56.80800 39.49100
C  12.32500 55.57900 38.74400
C  10.89100 58.61000 39.30100
O  12.12400 58.71100 39.26400
C  10.11800 59.90000 39.51700
N  5.83600 56.04700 40.25400
C  6.31400 57.26900 39.89600
C  5.24500 58.34700 39.92000
C  3.90100 57.51600 40.05800
C  4.45400 56.11100 40.46100
C  5.46600 59.43200 40.92600
C  3.02700 57.38100 38.80700
C  1.62800 57.95300 39.04400
N  5.26400 53.32500 40.48000
C  3.98200 53.72800 40.77500
C  3.10100 52.55900 40.97200
C  3.89100 51.52300 40.66600
C  5.16200 51.98600 40.23500
C  1.71300 52.65100 41.31200
C  3.87800 50.07500 40.65500
O  2.98000 49.28900 40.98400
C  5.29200 49.63100 40.08100
C  4.96300 48.75800 38.89100
O  4.39300 49.10700 37.87400
O  5.61900 47.53900 39.05700
C  5.35600 46.68300 37.90500
H  11.21600 53.18300 39.25100
H  7.80500 58.68100 39.46200
H  2.50400 55.28600 40.80600
H  8.49000 49.38900 39.98600
H  10.45600 50.83200 38.52100
H  11.66400 50.35400 40.52900
H  10.03400 49.94400 41.27900
H  10.72700 51.63400 41.15700
H  7.61700 48.73800 38.01100
H  9.31300 48.65200 37.78800
H  9.16800 49.81000 35.84300
H  8.48700 51.18700 36.68500
H  12.80100 54.90400 39.45500
H  12.99900 56.43600 38.75900
H  12.39100 55.09000 37.77200
H  9.69600 60.16600 38.54800
H  10.73800 60.62300 40.04600
H  9.30100 59.77900 40.22900
H  5.29600 58.88500 38.97400
H  3.38400 57.74800 40.99000
H  6.17900 59.11500 41.68800
H  4.56700 59.67200 41.49400
H  5.91000 60.32000 40.47600
H  2.91300 56.38800 38.37200
H  3.53400 58.00200 38.06800
H  1.65300 58.97200 38.65700
H  1.28400 57.90600 40.07700
H  0.89200 57.35600 38.50700
H  1.56300 53.67100 41.66600
H  1.39700 52.08300 42.18600
H  1.07000 52.61200 40.43300
H  5.82600 49.10200 40.86900
H  5.58500 47.30000 37.03600
H  4.32300 46.36000 37.77200
H  6.04000 45.83600 37.95700

