158

Mg 25.29900 1.60600 29.89700
C  27.34600 1.54800 32.81200
C  22.64200 1.77600 32.02500
C  23.36900 1.55000 27.17100
C  28.16100 1.37300 28.00700
N  25.02300 1.77800 32.19700
C  26.00800 1.80700 33.14900
C  25.45300 2.08800 34.54300
C  23.89700 2.20500 34.26500
C  23.84700 1.94700 32.74000
C  22.99000 1.22700 35.02200
C  26.06700 3.35900 35.31300
C  25.46600 3.86300 36.69100
H  26.22300 3.70300 37.95900
N  23.27100 1.60300 29.66600
C  22.30800 1.56600 30.65600
C  20.99800 1.38800 30.06000
C  21.14000 1.46500 28.63200
C  22.64000 1.47400 28.44100
C  19.73400 1.37800 30.82600
C  20.14000 1.60000 27.47100
O  20.45000 1.68900 26.29400
C  18.62000 1.37300 27.81000
N  25.70800 1.22200 27.84500
C  24.78200 1.50700 26.92000
C  25.37800 1.88000 25.58500
C  26.86700 1.79800 25.90600
C  26.91600 1.48000 27.38700
C  24.81200 0.99900 24.39200
C  27.82400 2.86900 25.32200
C  27.62600 4.36500 25.71000
N  27.29200 1.20400 30.26600
C  28.35400 1.15000 29.37100
C  29.57000 1.07400 30.13700
C  29.17800 1.19000 31.49000
C  27.82500 1.29700 31.54700
C  30.91100 0.87600 29.55200
C  29.75100 1.25800 32.74900
O  30.91000 1.14100 33.13000
C  28.53600 1.55500 33.69800
C  28.42400 0.47500 34.74900
O  28.31500 -0.80100 34.59400
O  28.73600 1.07700 35.94600
C  28.88500 0.18100 37.12900
H  21.79700 1.89300 32.70700
H  22.80700 1.72900 26.25200
H  29.08700 1.50500 27.44300
H  25.81800 1.21600 35.08500
H  23.61700 3.24900 34.41100
H  22.58300 0.43300 34.39600
H  22.17700 1.84700 35.40100
H  23.59000 0.80100 35.82600
H  26.14900 4.20600 34.63300
H  27.10800 3.07400 35.46700
H  24.54700 3.34000 36.95700
H  25.30000 4.94000 36.65600
H  19.93900 1.33200 31.89500
H  19.28800 0.43800 30.50200
H  19.08000 2.18600 30.49700
H  18.36700 0.63200 28.56900
H  17.99900 1.16200 26.94000
H  18.23200 2.34500 28.11600
H  24.94500 2.87300 25.46900
H  27.13700 0.82700 25.49100
H  25.64200 0.60900 23.80400
H  24.05900 1.61400 23.89900
H  24.27000 0.14500 24.79900
H  27.77800 2.76500 24.23800
H  28.84700 2.65700 25.63400
H  28.52600 4.95300 25.88700
H  26.91400 4.50700 26.52400
H  27.10200 4.70900 24.81800
H  31.00200 1.56300 28.71100
H  31.15000 -0.17300 29.37800
H  31.60300 1.24600 30.30800
H  28.74700 2.51900 34.16300
H  29.96200 0.09000 37.26400
H  28.45700 -0.81700 37.02500
H  28.52500 0.69700 38.01900
Mg 41.15200 9.58200 29.58500
C  43.23900 10.67900 32.14400
C  38.83700 8.76000 31.88800
C  39.30100 8.49400 27.07400
C  43.81800 10.08000 27.19300
N  41.18700 9.66500 31.86500
C  41.95600 10.22900 32.73800
C  41.34200 10.31700 34.15800
C  39.93700 9.70500 33.89500
C  40.00400 9.34600 32.42100
C  39.51500 8.52700 34.84800
C  41.31300 11.79600 34.70700
C  40.54000 11.97000 35.98100
H  41.08700 12.76900 37.18700
N  39.32900 8.66400 29.48600
C  38.49600 8.41100 30.54100
C  37.29100 7.63100 30.10200
C  37.39300 7.64300 28.63600
C  38.69200 8.33500 28.35900
C  36.16800 7.18300 31.00400
C  36.49500 7.11300 27.54800
O  36.63800 7.22500 26.32700
C  35.22700 6.40500 27.96000
N  41.55700 9.04800 27.53300
C  40.58700 8.77700 26.65500
C  40.98600 8.95300 25.18800
C  42.33300 9.78300 25.27100
C  42.57900 9.52100 26.76800
C  40.96100 7.59600 24.43400
C  42.14900 11.27500 24.76100
C  41.29100 12.22100 25.61700
N  43.00400 10.35300 29.57800
C  43.95300 10.51100 28.52100
C  45.18100 11.04300 29.12600
C  44.87100 11.21500 30.52200
C  43.59600 10.68300 30.71000
C  46.42600 11.45200 28.39200
C  45.41700 11.77300 31.77700
O  46.47300 12.36800 32.02300
C  44.31500 11.41900 32.89700
C  45.07200 10.60100 33.97200
O  45.90400 9.71500 33.79500
O  44.68600 11.02700 35.21500
C  45.31100 10.39400 36.31400
H  37.97900 8.59500 32.54300
H  38.71800 8.14200 26.22000
H  44.56700 10.27800 26.42300
H  42.00900 9.70200 34.76100
H  39.21300 10.51800 33.93100
H  38.73400 8.94000 35.48500
H  40.33800 8.17900 35.47300
H  39.04200 7.70300 34.31500
H  41.10100 12.51200 33.91300
H  42.29900 12.16100 34.99600
H  40.12500 11.01600 36.30800
H  39.71100 12.58900 35.63700
H  35.18900 7.38300 30.56800
H  36.25900 7.50300 32.04200
H  36.36100 6.11800 31.13200
H  35.39500 5.68500 28.76000
H  34.89200 5.82800 27.09800
H  34.43800 7.05500 28.33800
H  40.17500 9.55800 24.78200
H  43.14500 9.35200 24.68500
H  40.57100 7.67000 23.41900
H  40.34900 6.91000 25.02100
H  41.91600 7.08300 24.32200
H  41.43300 11.27600 23.93900
H  43.09400 11.67700 24.39600
H  40.95000 11.72300 26.52500
H  40.50500 12.72400 25.05500
H  41.95500 13.03600 25.90500
H  46.64300 10.79200 27.55200
H  47.31600 11.31400 29.00600
H  46.32900 12.51000 28.14700
H  43.96000 12.36600 33.30400
H  45.58400 9.34600 36.19300
H  44.69300 10.62000 37.18300
H  46.23100 10.94500 36.50900

