158

Mg 46.74900 15.36000 27.93800
C  44.96100 15.22500 30.99400
C  48.84500 17.59500 29.52100
C  48.35600 15.69900 25.13300
C  44.33500 13.49400 26.55900
N  46.91700 16.17000 30.07700
C  46.15100 15.93400 31.16000
C  46.61900 16.65900 32.39200
C  47.65500 17.68600 31.86900
C  47.85400 17.17700 30.38600
C  47.30000 19.15900 31.87100
C  47.18900 15.60500 33.38800
C  47.12700 16.02600 34.85700
H  48.43100 15.88500 35.65500
N  48.44400 16.35800 27.46100
C  49.20900 17.14000 28.24500
C  50.34200 17.59100 27.47700
C  50.25200 17.05000 26.19600
C  48.93700 16.40300 26.23200
C  51.38000 18.61300 28.01800
C  51.19800 17.04700 25.01300
O  51.12800 16.23300 24.08500
C  52.37300 17.92200 25.01800
N  46.21300 14.91200 26.04500
C  47.19000 14.95900 25.08100
C  46.79500 14.09400 23.82200
C  45.70900 13.18800 24.41900
C  45.35200 13.87500 25.79800
C  46.50300 14.95400 22.53400
C  46.12400 11.70600 24.53800
C  46.01000 10.97000 23.22300
N  44.90200 14.62700 28.52200
C  43.97200 13.92500 27.80600
C  42.90400 13.60200 28.60800
C  43.19100 14.23300 29.84800
C  44.44600 14.77700 29.82600
C  41.74400 12.73000 28.30300
C  42.65100 14.37300 31.12800
O  41.56200 14.03100 31.61500
C  43.86800 15.01300 31.99600
C  43.18100 16.22000 32.66500
O  42.90800 17.23700 32.03600
O  42.94000 16.07100 34.02300
C  42.53700 17.26900 34.79200
H  49.56700 18.22800 30.04100
H  48.88100 15.82900 24.18500
H  43.67200 12.76300 26.09300
H  45.78400 17.17100 32.87000
H  48.61500 17.54500 32.36600
H  46.75500 19.45800 30.97600
H  48.21400 19.70300 32.11100
H  46.59100 19.32200 32.68200
H  48.20300 15.30500 33.12600
H  46.46900 14.80200 33.22800
H  46.35700 15.44400 35.36300
H  46.76000 17.04400 34.98700
H  52.42500 18.32200 27.90800
H  51.24900 18.78500 29.08600
H  51.13900 19.54600 27.50900
H  52.01600 18.94100 24.86800
H  52.89100 17.52300 24.14600
H  53.11000 17.89000 25.82100
H  47.65000 13.53800 23.43600
H  44.83000 13.25100 23.77800
H  46.94800 14.41800 21.69500
H  46.95600 15.93800 22.65600
H  45.44600 15.14500 22.35400
H  45.56500 11.16900 25.30500
H  47.17800 11.61400 24.80000
H  45.99700 11.69700 22.41000
H  45.02300 10.51100 23.15900
H  46.87300 10.31300 23.11600
H  41.44900 12.13900 29.17000
H  41.94500 12.00500 27.51400
H  40.84100 13.25900 28.00000
H  44.17400 14.30000 32.76200
H  42.61500 16.89500 35.81200
H  41.53500 17.67900 34.66200
H  43.33800 18.00800 34.81700
Mg 41.36300 41.13400 27.20400
C  40.59200 43.54700 29.45200
C  42.32400 38.97700 29.67200
C  42.02200 38.83900 24.72300
C  40.72900 43.60500 24.69800
N  41.40800 41.28900 29.21000
C  41.00500 42.33200 30.00700
C  41.00700 41.98000 31.47900
C  41.61400 40.58100 31.51100
C  41.89000 40.25000 29.99800
C  42.83700 40.45700 32.47100
C  39.73100 42.21900 32.35500
C  39.78500 43.32200 33.35700
H  39.13600 43.01400 34.73700
N  42.09000 39.14500 27.21000
C  42.43600 38.45200 28.34000
C  42.79600 37.07800 27.90300
C  42.64200 37.02200 26.45700
C  42.26000 38.41300 26.06700
C  43.24200 36.00900 28.93600
C  42.81100 35.84500 25.53500
O  42.44300 35.92800 24.34200
C  43.24500 34.47500 26.09600
N  41.57700 41.26500 25.00100
C  41.66900 40.10700 24.22900
C  41.31300 40.43600 22.70400
C  40.64200 41.79800 22.84200
C  40.95800 42.26200 24.25600
C  42.60100 40.40000 21.80400
C  39.08800 41.92300 22.70200
C  38.31500 40.87700 23.32100
N  40.92300 43.17100 27.00900
C  40.80500 44.05300 25.92800
C  40.67200 45.37900 26.41000
C  40.44200 45.23500 27.82200
C  40.71400 43.90000 28.11700
C  40.46600 46.65400 25.71500
C  40.08000 45.89700 29.09900
O  39.70300 47.04300 29.35700
C  40.26500 44.85700 30.17500
C  41.36000 45.43500 30.97000
O  42.58500 45.27800 30.92400
O  40.83500 46.11200 32.08100
C  41.77000 46.83100 32.97400
H  42.51300 38.40000 30.57900
H  42.29300 38.17900 23.89700
H  40.32000 44.28700 23.94900
H  41.78300 42.58700 31.94500
H  40.96700 39.89000 32.05200
H  43.16300 39.41700 32.48300
H  42.60600 40.83000 33.46900
H  43.62500 41.13700 32.14800
H  39.52300 41.27500 32.85800
H  38.87500 42.47600 31.73000
H  39.09600 44.09100 33.00900
H  40.72600 43.85700 33.48400
H  42.82100 36.20100 29.92200
H  44.32300 36.13800 28.87400
H  42.99200 35.00300 28.59900
H  44.10600 34.63700 26.74400
H  43.53500 33.75300 25.33300
H  42.38700 33.97500 26.54600
H  40.62400 39.73100 22.23700
H  41.14500 42.55400 22.23800
H  42.45400 39.73400 20.95400
H  43.51000 40.15200 22.35200
H  42.81500 41.39400 21.41100
H  39.09200 41.66500 21.64300
H  38.82800 42.97300 22.83800
H  39.00500 40.16100 23.76700
H  37.68300 40.39600 22.57500
H  37.72100 41.41400 24.06100
H  39.52000 46.73100 25.17900
H  41.24900 46.77000 24.96500
H  40.61700 47.50600 26.37800
H  39.34900 44.70600 30.74700
H  42.58800 47.33000 32.45500
H  42.25000 46.11000 33.63500
H  41.17200 47.48600 33.60800

