158

Mg 8.18400 2.94300 27.65600
C  9.32800 1.26600 30.50100
C  6.27300 4.92200 29.66900
C  6.87700 4.16200 25.01500
C  9.73000 0.38200 25.63700
N  7.76800 3.06000 29.83100
C  8.45700 2.38900 30.83400
C  8.04900 2.85500 32.23200
C  6.98500 3.98200 31.89100
C  6.90400 3.94300 30.35400
C  5.56300 3.84900 32.57700
C  9.24400 3.26900 33.12800
C  8.83900 4.16500 34.31600
H  9.77000 4.03500 35.61900
N  6.91400 4.48200 27.35300
C  6.23500 5.16700 28.25400
C  5.46600 6.18400 27.55600
C  5.76700 6.13200 26.19100
C  6.56300 4.90800 26.14700
C  4.65700 7.14200 28.25900
C  5.25100 6.91800 24.95500
O  5.66500 6.68200 23.84200
C  4.20100 7.94800 25.26800
N  8.17600 2.24400 25.58800
C  7.58900 3.04500 24.75800
C  7.78900 2.56200 23.25900
C  8.75100 1.31700 23.40500
C  8.98600 1.36200 24.95100
C  6.53900 2.22800 22.45900
C  10.06000 1.44400 22.69600
C  10.11100 0.48400 21.51900
N  9.19300 1.08700 27.96500
C  9.83000 0.28200 27.04400
C  10.61800 -0.67700 27.86300
C  10.43500 -0.30900 29.19300
C  9.60600 0.80400 29.19600
C  11.55300 -1.72100 27.38100
C  10.78200 -0.63600 30.51500
O  11.41900 -1.57500 30.97900
C  10.09900 0.37200 31.43300
C  9.14200 -0.37400 32.37100
O  8.04500 -0.90200 32.03100
O  9.64700 -0.29000 33.65600
C  8.66900 -0.90400 34.59100
H  5.59200 5.60100 30.18600
H  6.50000 4.61700 24.09800
H  10.44400 -0.15500 25.01000
H  7.59600 1.93200 32.59200
H  7.41500 4.95500 32.12600
H  4.78900 4.15600 31.87500
H  5.48500 4.70300 33.24900
H  5.49200 2.84300 32.99300
H  9.99700 3.63600 32.43000
H  9.80700 2.40600 33.48300
H  7.81400 3.98200 34.64000
H  8.81100 5.19500 33.96000
H  4.86400 8.18100 28.00000
H  4.70300 7.16600 29.34700
H  3.62900 6.93600 27.95800
H  4.66100 8.67800 25.93500
H  3.32600 7.41800 25.64200
H  3.82600 8.39800 24.34800
H  8.29400 3.35400 22.70600
H  8.16400 0.40300 23.30600
H  5.62400 2.42100 23.01800
H  6.57100 1.27200 21.93700
H  6.35000 3.01400 21.72900
H  10.92200 1.32000 23.35200
H  10.23200 2.46100 22.34600
H  10.77500 0.86100 20.74100
H  9.13500 0.26500 21.08700
H  10.51900 -0.47900 21.82700
H  12.34600 -1.62900 28.12400
H  11.89200 -1.44300 26.38300
H  11.08500 -2.70500 27.39600
H  10.95600 0.76600 31.98100
H  7.99000 -1.67800 34.23300
H  8.10000 -0.01900 34.87600
H  9.17900 -1.36100 35.43800
Mg 25.13600 1.36700 29.38200
C  27.24200 1.22300 32.12500
C  22.44300 1.64900 31.61100
C  23.08500 0.69100 26.78800
C  27.95000 0.63500 27.30400
N  24.86900 1.58400 31.63000
C  25.92500 1.52500 32.51700
C  25.39000 1.69000 33.93000
C  23.87000 1.69400 33.83000
C  23.69600 1.60400 32.26700
C  23.14500 0.47200 34.55700
C  26.00600 2.87100 34.67900
C  26.59800 2.54300 36.11300
H  26.06400 3.51000 37.23000
N  23.08700 1.31100 29.23400
C  22.14000 1.42300 30.29600
C  20.81300 1.36600 29.66300
C  20.94600 1.08100 28.22500
C  22.42600 0.98100 28.01500
C  19.58900 1.63700 30.46400
C  19.85700 1.04600 27.11000
O  20.12400 0.75600 25.95100
C  18.43000 1.23700 27.38400
N  25.48700 0.67800 27.36100
C  24.43300 0.52200 26.52400
C  24.87400 0.39800 25.04800
C  26.45100 0.42200 25.18400
C  26.66900 0.66800 26.68800
C  24.39700 -0.98200 24.40300
C  27.12300 1.53700 24.37100
C  26.84800 3.05700 24.77700
N  27.15800 1.10100 29.61300
C  28.18000 0.81300 28.73400
C  29.42100 0.65500 29.38800
C  29.11400 0.80600 30.74200
C  27.73100 1.13300 30.84900
C  30.73200 0.20600 28.83700
C  29.68700 0.84300 32.08000
O  30.86400 0.78400 32.45200
C  28.41200 0.91200 33.00000
C  28.21900 -0.23700 33.85200
O  27.53600 -1.21100 33.62300
O  28.90800 0.00900 35.04800
C  28.81000 -1.02600 36.08500
H  21.63000 1.84700 32.31300
H  22.49900 0.46100 25.89500
H  28.80000 0.28600 26.71400
H  25.74400 0.79700 34.44400
H  23.49800 2.63400 34.23700
H  22.64500 0.85100 35.44800
H  23.88100 -0.23700 34.93600
H  22.43100 -0.03900 33.91100
H  25.37600 3.76100 34.68600
H  26.87500 3.11300 34.06700
H  27.65800 2.74200 35.96000
H  26.45700 1.47400 36.27500
H  19.69500 1.51100 31.54100
H  18.74900 0.97500 30.25300
H  19.24200 2.64800 30.24800
H  18.31300 2.23700 27.80000
H  18.26900 0.49800 28.16900
H  17.82400 1.00300 26.50800
H  24.45400 1.27700 24.56000
H  26.95400 -0.50600 24.91200
H  23.83800 -0.75600 23.49600
H  23.92200 -1.43700 25.27200
H  25.23400 -1.56400 24.01600
H  26.89500 1.35200 23.32200
H  28.19500 1.42200 24.53400
H  26.68400 3.65000 23.87800
H  27.71100 3.42000 25.33500
H  25.90300 3.18200 25.30600
H  30.57400 -0.22300 27.84700
H  31.14600 -0.53700 29.51800
H  31.38500 1.07200 28.73500
H  28.67700 1.70300 33.70100
H  28.97600 -1.97300 35.57200
H  27.82700 -0.85500 36.52300
H  29.64200 -0.80700 36.75400

