158

Mg -11.88400 38.04800 42.27600
C  -9.79800 35.35500 41.15500
C  -9.50100 40.16400 41.27700
C  -14.05000 40.50400 42.66400
C  -14.41800 35.68900 42.71600
N  -9.96400 37.77400 41.14200
C  -9.28800 36.59400 40.94600
C  -7.94600 36.88000 40.44700
C  -7.73000 38.41400 40.74300
C  -9.14400 38.84700 41.19400
C  -6.69400 38.66900 41.89800
C  -7.91500 36.49500 38.89500
C  -6.99400 35.34500 38.52900
H  -5.95400 35.61200 37.41500
N  -11.80200 40.11100 41.89700
C  -10.70400 40.75100 41.51900
C  -11.03100 42.19400 41.53700
C  -12.36700 42.29400 42.04800
C  -12.83000 40.95800 42.16000
C  -9.92200 43.24800 41.30400
C  -13.03900 43.53700 42.45400
O  -12.53900 44.60700 42.16500
C  -14.39100 43.74100 43.15100
N  -13.85200 38.11000 42.58700
C  -14.58200 39.22900 42.88900
C  -16.09100 39.05200 43.31700
C  -16.13000 37.50500 43.23000
C  -14.70700 37.02700 42.86000
C  -16.62700 39.63700 44.67400
C  -17.19500 36.94500 42.18900
C  -18.42700 36.38400 42.71900
N  -12.03000 35.91900 42.20500
C  -13.14700 35.09600 42.36400
C  -12.77600 33.77100 42.22200
C  -11.43100 33.76300 41.73900
C  -11.07900 35.10200 41.70000
C  -13.71000 32.61400 42.40200
C  -10.30300 32.96700 41.25600
O  -10.09900 31.81700 41.21200
C  -9.11300 33.98500 40.94500
C  -8.06400 33.62600 41.88600
O  -8.26300 33.72400 43.07800
O  -6.79900 33.32700 41.25100
C  -5.59900 32.93700 42.06900
H  -8.71600 40.90500 41.11500
H  -14.87300 41.17300 42.92400
H  -15.08500 34.87300 43.00200
H  -7.27000 36.27300 41.05000
H  -7.26200 38.86600 39.86900
H  -5.77100 38.09500 41.81400
H  -6.98000 38.56300 42.94400
H  -6.39700 39.71200 41.79000
H  -7.55900 37.30600 38.25900
H  -8.89000 36.20400 38.50500
H  -7.66900 34.53100 38.26500
H  -6.49500 34.88700 39.38300
H  -9.64800 43.81500 42.19300
H  -10.31700 43.86000 40.49300
H  -9.00300 42.81000 40.91400
H  -14.53000 43.05200 43.98300
H  -15.09300 43.35200 42.41300
H  -14.65200 44.76600 43.41700
H  -16.69400 39.47400 42.51300
H  -16.44700 37.15500 44.21300
H  -17.09200 38.90100 45.33000
H  -17.33900 40.44000 44.48400
H  -15.71600 40.01300 45.14000
H  -16.75100 36.22200 41.50500
H  -17.55000 37.68700 41.47400
H  -18.62200 35.43900 42.21000
H  -19.27900 36.98800 42.40800
H  -18.41100 36.10900 43.77300
H  -14.75800 32.85500 42.22700
H  -13.46800 32.20200 43.38200
H  -13.50000 31.82800 41.67700
H  -8.79500 33.77200 39.92500
H  -5.89200 32.30900 42.91000
H  -4.89900 33.75300 42.24900
H  -5.00600 32.20900 41.51500
Mg -6.10100 24.99800 25.56400
C  -4.16700 26.43700 28.24700
C  -7.80100 23.17300 27.85700
C  -7.74700 23.74300 23.04300
C  -4.10100 26.89000 23.43600
N  -5.93600 24.77400 27.77200
C  -5.17200 25.53200 28.67700
C  -5.62200 25.14500 30.08300
C  -6.47100 23.85700 29.95500
C  -6.77000 23.95000 28.45600
C  -5.84500 22.45700 30.33200
C  -6.21700 26.34300 30.79700
C  -6.05200 26.46600 32.38000
H  -5.58700 25.17000 33.07600
N  -7.56900 23.61800 25.50800
C  -8.16700 23.00000 26.50500
C  -9.20200 22.15000 26.04400
C  -9.20300 22.29300 24.60000
C  -8.18100 23.27300 24.31600
C  -10.06200 21.31700 27.01500
C  -10.20700 21.63200 23.55300
O  -10.36200 21.99400 22.35600
C  -11.34200 20.66300 24.02500
N  -5.84100 25.18200 23.44900
C  -6.64900 24.50700 22.63700
C  -6.18800 24.73800 21.16500
C  -5.26200 26.03900 21.29200
C  -5.05300 26.12700 22.81700
C  -5.56500 23.52300 20.45900
C  -5.94500 27.21300 20.56400
C  -5.12000 28.04900 19.62700
N  -4.41000 26.35000 25.72100
C  -3.74300 27.03800 24.79100
C  -2.72600 27.85400 25.38500
C  -2.83600 27.62600 26.76800
C  -3.89700 26.73200 26.87800
C  -1.80700 28.77700 24.68700
C  -2.36700 27.95600 28.05900
O  -1.44200 28.70400 28.34200
C  -3.21300 27.25000 29.09800
C  -2.28300 26.47900 29.98800
O  -1.46200 25.66400 29.69200
O  -2.55400 26.89900 31.27800
C  -1.81400 26.37900 32.38600
H  -8.34500 22.70100 28.67800
H  -8.10200 23.15500 22.19400
H  -3.45700 27.58400 22.89200
H  -4.66000 24.80900 30.47000
H  -7.29400 24.05000 30.64300
H  -5.75700 21.85800 29.42600
H  -6.57400 22.05400 31.03400
H  -4.85700 22.45400 30.79400
H  -7.27000 26.40600 30.52500
H  -5.74200 27.25700 30.43900
H  -7.08500 26.70800 32.63000
H  -5.47400 27.35700 32.62600
H  -11.09300 21.45500 26.69000
H  -9.93800 21.66500 28.04100
H  -9.64300 20.31300 27.08000
H  -11.95600 20.36100 23.17700
H  -11.88000 20.97800 24.91900
H  -10.68700 19.86900 24.38300
H  -7.11000 24.99300 20.64100
H  -4.28500 25.77700 20.88500
H  -6.20800 23.23800 19.62600
H  -5.27100 22.72400 21.13900
H  -4.58800 23.77300 20.04500
H  -6.19000 27.93300 21.34500
H  -6.82800 26.82500 20.05700
H  -5.70900 28.24800 18.73100
H  -4.26300 27.50600 19.22800
H  -4.90500 29.04700 20.00800
H  -1.02900 28.29600 24.09400
H  -1.21100 29.28400 25.44600
H  -2.29200 29.51500 24.04800
H  -3.70800 28.01800 29.69300
H  -0.79900 26.71200 32.16600
H  -1.76900 25.29000 32.38900
H  -2.17800 26.79300 33.32600

