158

Mg 53.81500 22.68400 44.81000
C  51.51700 25.39600 44.02500
C  51.39200 20.51500 44.14000
C  56.31500 20.36500 44.56800
C  56.35300 25.19900 45.23600
N  51.75700 22.93200 44.07800
C  51.00000 24.09500 43.95100
C  49.46200 23.70300 43.81600
C  49.47900 22.21800 44.28500
C  50.94600 21.84600 44.10400
C  49.01700 21.94900 45.73300
C  48.88900 23.94400 42.34200
C  49.82600 23.47000 41.17700
H  49.24300 23.07100 39.81700
N  53.89700 20.65200 44.33400
C  52.74200 19.96500 44.09400
C  53.10900 18.56700 43.89900
C  54.55100 18.49500 44.06100
C  54.99000 19.85800 44.34400
C  52.26500 17.52700 43.43400
C  55.37200 17.17100 43.99500
O  54.87500 16.07600 43.83800
C  56.87900 17.26800 44.16400
N  56.08500 22.79700 44.92700
C  56.84400 21.64900 44.85100
C  58.28800 21.90100 45.25000
C  58.31700 23.52200 45.52900
C  56.84000 23.92600 45.23400
C  58.70500 20.95800 46.42300
C  59.35500 24.36700 44.70300
C  60.09500 25.44300 45.56800
N  53.94200 24.80300 44.66200
C  55.04400 25.65800 44.88800
C  54.62200 27.05800 44.81900
C  53.24200 26.98200 44.52500
C  52.87100 25.61500 44.39800
C  55.54200 28.25400 45.06900
C  52.10300 27.78600 44.18700
O  51.93400 28.98800 44.15100
C  50.98500 26.78800 43.85400
C  50.74200 26.93300 42.39100
O  51.49300 26.52700 41.46400
O  49.56200 27.57600 42.17400
C  49.11500 27.74000 40.80100
H  50.59200 19.77400 44.18300
H  57.19600 19.72000 44.58900
H  57.17800 25.89400 45.40600
H  49.00900 24.35300 44.56400
H  48.89000 21.62200 43.58800
H  48.78500 22.80600 46.36600
H  49.86800 21.53300 46.27200
H  48.26100 21.16300 45.70800
H  48.75400 25.01900 42.22700
H  47.90400 23.49200 42.22200
H  50.17300 22.47100 41.44100
H  50.61200 24.20900 41.02200
H  51.25600 17.81400 43.13700
H  52.07500 16.89100 44.29900
H  52.70700 16.98900 42.59500
H  56.90400 17.70500 45.16300
H  57.18200 17.91100 43.33800
H  57.35900 16.31500 43.93900
H  58.86500 21.72600 44.34200
H  58.59900 23.65800 46.57300
H  58.98500 19.99200 46.00100
H  57.82900 20.83000 47.05800
H  59.58200 21.32400 46.95600
H  58.84400 24.96900 43.95200
H  60.10600 23.74000 44.22200
H  60.13200 26.44300 45.13700
H  61.15800 25.20300 45.59500
H  59.77100 25.58800 46.59900
H  55.83500 28.12100 46.11000
H  55.03900 29.20600 44.90200
H  56.41800 28.19100 44.42300
H  50.10100 26.93700 44.47300
H  49.89400 28.00700 40.08600
H  48.36700 28.53200 40.78000
H  48.65000 26.83000 40.42200
Mg 48.04300 34.31800 27.22300
C  46.19100 32.93000 29.86900
C  48.40900 37.19400 29.14900
C  48.94800 36.07900 24.48300
C  47.13700 31.66500 25.15300
N  47.35200 35.01100 29.19800
C  46.75000 34.17700 30.17500
C  46.94500 34.74800 31.59200
C  47.33000 36.20300 31.25000
C  47.79400 36.13600 29.78100
C  46.21100 37.23200 31.41400
C  48.13000 33.89500 32.25300
C  48.05000 33.70900 33.74700
H  47.17000 34.75800 34.53300
N  48.68800 36.28900 26.95200
C  48.78400 37.34100 27.81600
C  49.31200 38.56300 27.17300
C  49.52100 38.21000 25.77700
C  49.03500 36.78100 25.72000
C  49.59400 39.89300 27.92400
C  50.00800 39.12600 24.59000
O  50.16000 38.71900 23.45800
C  50.51900 40.50500 24.82700
N  47.88900 33.98700 25.09800
C  48.43700 34.81600 24.19800
C  48.64300 34.25800 22.78500
C  47.99800 32.82900 22.96900
C  47.64300 32.80500 24.49300
C  48.13600 35.10500 21.56700
C  48.96700 31.72300 22.59100
C  50.26200 31.64200 23.40900
N  46.98500 32.57600 27.41600
C  46.75500 31.56600 26.51700
C  46.03500 30.52400 27.22500
C  45.63800 31.07400 28.50800
C  46.33800 32.33200 28.61900
C  45.85100 29.17500 26.70800
C  44.91400 30.82000 29.67100
O  44.23300 29.86900 29.99400
C  45.08000 32.13700 30.52000
C  45.29500 31.72300 31.90600
O  46.08800 30.86600 32.30600
O  44.46300 32.40400 32.73700
C  44.35700 31.95300 34.14400
H  48.62200 38.12400 29.68200
H  49.22500 36.66100 23.60200
H  46.70000 30.92300 24.48100
H  46.00600 34.66400 32.13900
H  48.25200 36.53200 31.72900
H  46.75800 38.16900 31.51600
H  45.50700 37.01700 32.21800
H  45.64600 37.36500 30.49200
H  49.01400 34.50000 32.05300
H  48.26200 32.94400 31.73700
H  49.06500 33.86700 34.11000
H  47.75900 32.67000 33.90300
H  50.34700 40.54300 27.47800
H  49.90400 39.60500 28.92900
H  48.59900 40.32000 28.05200
H  51.49400 40.41200 25.30500
H  49.74100 41.09500 25.31200
H  50.79700 40.88800 23.84500
H  49.72800 34.24800 22.67500
H  47.12700 32.59400 22.35900
H  47.38500 35.86800 21.77500
H  47.68900 34.45200 20.81700
H  49.00200 35.61500 21.14600
H  49.27000 31.99400 21.57900
H  48.47700 30.76900 22.39600
H  50.37500 32.45900 24.12200
H  51.11500 31.63800 22.73000
H  50.26700 30.70700 23.97000
H  45.45100 28.54800 27.50500
H  46.81800 28.80000 26.37100
H  45.09400 29.09900 25.92700
H  44.13600 32.66900 30.40000
H  44.06100 30.90400 34.14400
H  43.61500 32.59600 34.61800
H  45.34900 32.07000 34.58000

