158

Mg 26.69100 51.83500 25.70700
C  24.15900 52.46400 27.90700
C  28.78000 51.06200 28.37700
C  29.15200 51.43300 23.51100
C  24.52600 52.74300 23.08900
N  26.53800 51.91500 27.86700
C  25.37800 52.07200 28.52000
C  25.50300 51.66800 30.01700
C  27.01400 51.38500 30.12800
C  27.49300 51.46700 28.69000
C  27.77900 52.21100 31.25400
C  24.51600 50.50400 30.51800
C  24.84500 49.74700 31.85700
H  23.84400 49.79700 33.07100
N  28.70000 51.34700 25.87700
C  29.32600 51.10800 27.06300
C  30.71800 50.71200 26.68200
C  30.90200 50.93100 25.29400
C  29.55100 51.26100 24.81200
C  31.73500 50.19700 27.71200
C  32.14000 50.78800 24.39700
O  32.15300 51.04400 23.21400
C  33.28200 50.11800 24.94100
N  26.77800 51.96600 23.56300
C  27.91200 51.71500 22.90900
C  27.70500 51.74800 21.34900
C  26.21000 52.03300 21.14200
C  25.79300 52.28300 22.67100
C  28.62800 52.70900 20.46300
C  25.44000 50.77700 20.52600
C  24.33300 51.14400 19.45600
N  24.78200 52.57000 25.46200
C  23.98800 52.78100 24.38600
C  22.69900 53.23000 24.83300
C  22.64700 53.10000 26.23600
C  23.96000 52.74000 26.53200
C  21.65800 53.77100 23.93700
C  21.88600 53.24600 27.42600
O  20.76100 53.71900 27.64600
C  22.79600 52.78200 28.55300
C  22.90400 53.86300 29.49700
O  23.29400 54.99600 29.18500
O  22.44100 53.47800 30.69100
C  22.54600 54.31600 31.83600
H  29.39800 50.79000 29.23600
H  29.93100 51.23400 22.77300
H  23.73400 52.78500 22.33800
H  25.27900 52.59000 30.55300
H  27.13300 50.38200 30.53700
H  28.22400 53.07700 30.76300
H  28.60600 51.64000 31.67500
H  27.05300 52.48500 32.02000
H  24.45200 49.85500 29.64500
H  23.61200 51.05300 30.78100
H  25.66200 50.35500 32.24500
H  25.07200 48.69400 31.68900
H  32.70500 50.66200 27.53500
H  31.91400 49.12200 27.67700
H  31.43500 50.45800 28.72700
H  33.94100 49.66800 24.19800
H  32.85500 49.29200 25.51000
H  33.71300 50.79800 25.67600
H  27.91000 50.72900 21.02000
H  26.04000 52.97500 20.62000
H  28.08800 53.63000 20.24300
H  28.93800 52.14300 19.58400
H  29.47500 53.05300 21.05500
H  24.96400 50.20200 21.32000
H  26.12900 50.05600 20.08500
H  24.38700 50.56700 18.53300
H  24.28300 52.19100 19.15500
H  23.34300 50.99900 19.88900
H  20.76300 53.71200 24.55600
H  21.57700 53.25200 22.98100
H  21.97500 54.78200 23.68200
H  22.33600 51.88700 28.97100
H  23.36600 53.87000 32.39900
H  21.63400 54.21500 32.42500
H  22.62900 55.33400 31.45500
Mg -9.96600 40.65200 43.34700
C  -8.86300 37.42100 42.55900
C  -6.93500 41.77800 41.95500
C  -11.13300 43.75100 43.51200
C  -13.15300 39.48500 44.09400
N  -8.07400 39.65800 42.24000
C  -7.80400 38.31600 42.26200
C  -6.33000 38.04700 41.81500
C  -5.76400 39.54300 41.80500
C  -6.95900 40.45900 42.06000
C  -4.51500 39.77700 42.74900
C  -6.32300 37.30900 40.43400
C  -5.00600 36.53500 40.12300
H  -3.98200 37.22200 39.13800
N  -9.18700 42.54600 42.73400
C  -7.93400 42.76600 42.18100
C  -7.76000 44.14300 42.08100
C  -8.96400 44.81200 42.47000
C  -9.84500 43.69700 42.91300
C  -6.44200 44.82300 41.60100
C  -9.29100 46.35600 42.54000
O  -8.41900 47.21700 42.33400
C  -10.73400 46.86500 42.73900
N  -11.87500 41.51000 43.89400
C  -12.00500 42.82700 44.06100
C  -13.39500 43.26300 44.43000
C  -14.14400 41.78600 44.61900
C  -13.00000 40.82500 44.24200
C  -13.59000 44.29600 45.57400
C  -15.45500 41.67900 43.91300
C  -16.48200 40.76500 44.59000
N  -10.85100 38.87600 43.33900
C  -12.20100 38.55000 43.68400
C  -12.34200 37.07400 43.60000
C  -11.09900 36.62600 43.19200
C  -10.21900 37.77600 42.93400
C  -13.46800 36.17600 43.89000
C  -10.29200 35.45700 42.90000
O  -10.60000 34.27000 42.83100
C  -8.87400 35.88600 42.38900
C  -7.83800 35.03200 42.97200
O  -7.45000 35.13200 44.09100
O  -7.43000 34.09800 42.09000
C  -6.44000 33.10800 42.53800
H  -5.91900 42.15000 41.80500
H  -11.63000 44.72300 43.48800
H  -14.11500 39.02800 44.33600
H  -5.92100 37.45200 42.63200
H  -5.31400 39.70200 40.82500
H  -3.58900 39.43500 42.28800
H  -4.52600 39.08500 43.59200
H  -4.28300 40.79600 43.05800
H  -6.44100 38.07500 39.66700
H  -7.12000 36.58800 40.25500
H  -5.29500 35.56600 39.71800
H  -4.52300 36.36200 41.08500
H  -6.53300 45.48600 40.74000
H  -5.63800 44.09600 41.48900
H  -6.09300 45.56000 42.32300
H  -10.91600 47.84500 42.29800
H  -10.86400 46.84900 43.82200
H  -11.47100 46.23600 42.24000
H  -13.88900 43.57800 43.51100
H  -14.29800 41.65200 45.68900
H  -12.71800 44.93300 45.72400
H  -13.94500 43.74800 46.44600
H  -14.28700 45.05700 45.22100
H  -15.15800 41.30400 42.93400
H  -15.87100 42.68200 43.81500
H  -16.06800 40.13400 45.37600
H  -16.78700 40.08900 43.79100
H  -17.26400 41.43600 44.94600
H  -14.11100 36.52600 44.69800
H  -13.26400 35.16700 44.24800
H  -14.00800 35.91900 42.97900
H  -8.85500 35.75200 41.30700
H  -5.90200 32.69800 41.68300
H  -6.83900 32.45000 43.30900
H  -5.64300 33.70900 42.97700

