158

Mg 2.19000 8.87700 27.96400
C  2.67800 11.03100 30.75700
C  2.33500 6.22600 30.13600
C  2.10100 6.91100 25.34500
C  2.22700 11.74500 25.93300
N  2.56400 8.65500 30.12600
C  2.53300 9.70500 31.08100
C  2.24000 9.21200 32.50600
C  2.53400 7.69200 32.32500
C  2.40300 7.51700 30.80600
C  3.90800 7.16000 32.86900
C  0.76400 9.48600 32.95400
C  0.43500 9.19100 34.39600
H  1.51800 8.72300 35.48500
N  2.12800 6.88800 27.75500
C  2.17900 5.95800 28.77600
C  1.95400 4.55400 28.20500
C  1.83000 4.77200 26.82900
C  2.05500 6.23300 26.57300
C  2.11500 3.33100 29.14000
C  1.49100 3.77700 25.68700
O  1.57500 4.06100 24.49700
C  0.98600 2.37400 26.05500
N  2.19700 9.27000 25.94500
C  2.06900 8.27200 25.10200
C  2.00300 8.79900 23.67700
C  1.63500 10.32100 23.92100
C  2.12000 10.52400 25.35900
C  3.34400 8.54900 22.90700
C  0.13100 10.57800 23.80200
C  -0.39400 11.16100 22.46400
N  2.53900 10.96100 28.20100
C  2.50200 12.06100 27.28800
C  2.75800 13.28300 28.02100
C  2.79300 12.91200 29.33700
C  2.60800 11.50900 29.39900
C  2.90000 14.69600 27.48500
C  2.93800 13.45300 30.75100
O  3.22600 14.59800 31.05800
C  2.64800 12.19300 31.68200
C  3.64900 12.19800 32.70500
O  4.81000 11.80400 32.56500
O  3.05800 12.67500 33.87200
C  3.99200 12.58200 35.01700
H  2.41600 5.42400 30.87300
H  1.96400 6.24700 24.48900
H  1.96500 12.47700 25.16600
H  3.06600 9.64500 33.07000
H  1.71900 7.11900 32.76600
H  4.68200 7.89400 32.64500
H  4.06400 6.19400 32.38900
H  3.84500 6.94100 33.93500
H  0.10000 8.84100 32.38000
H  0.43900 10.50600 32.74700
H  -0.40400 8.49600 34.36600
H  0.10400 10.12400 34.85300
H  1.42500 3.55300 29.95500
H  3.10100 3.33600 29.60400
H  1.90800 2.42900 28.56500
H  1.82600 1.76900 26.39600
H  0.52100 1.93400 25.17300
H  0.18100 2.40000 26.78900
H  1.22900 8.34700 23.05600
H  2.28200 10.97300 23.33300
H  3.48500 7.47100 22.82700
H  4.18800 8.94100 23.47400
H  3.45000 8.95700 21.90200
H  -0.18400 11.30800 24.54800
H  -0.39500 9.68500 24.13800
H  0.09700 10.73100 21.59100
H  -0.23900 12.24000 22.47900
H  -1.47400 11.02100 22.42200
H  3.90400 15.12000 27.50900
H  2.19900 15.31900 28.04000
H  2.57800 14.68900 26.44400
H  1.64100 12.30200 32.08600
H  4.40900 11.57600 34.96400
H  3.41700 12.75400 35.92700
H  4.71300 13.38300 34.85600
Mg 26.13100 1.02000 29.01700
C  28.08500 0.45500 31.85100
C  23.31000 0.94700 30.95000
C  24.25900 1.28900 26.25600
C  28.88000 0.16700 27.00600
N  25.79800 0.67600 31.15800
C  26.71800 0.64500 32.17300
C  26.05400 0.98900 33.51100
C  24.54800 0.84100 33.20200
C  24.53100 0.88200 31.64900
C  23.67200 -0.33100 33.73900
C  26.54200 2.39400 33.88200
C  27.50900 2.42200 35.10600
H  27.46800 3.31200 36.31400
N  24.00600 1.10400 28.63100
C  23.07200 1.00500 29.58600
C  21.80300 1.08000 28.87300
C  21.98000 1.23700 27.50900
C  23.43700 1.27100 27.42100
C  20.51200 0.99800 29.56300
C  20.95500 1.29000 26.29600
O  21.39700 1.56400 25.12700
C  19.50600 0.98200 26.45100
N  26.50400 0.71900 26.92400
C  25.60000 1.15100 26.00700
C  26.26900 1.15500 24.60900
C  27.76700 0.93500 24.90400
C  27.71200 0.59800 26.38300
C  25.68700 0.09100 23.67100
C  28.65300 2.24800 24.60400
C  28.32700 3.46400 25.37000
N  28.02900 0.41100 29.25300
C  29.05100 0.09700 28.38300
C  30.26800 -0.24800 29.03600
C  29.90600 -0.06500 30.39900
C  28.57200 0.32000 30.50100
C  31.45400 -0.83700 28.36800
C  30.44800 -0.10400 31.73300
O  31.61100 -0.30100 32.10600
C  29.31800 0.25900 32.69200
C  29.20800 -0.71600 33.83100
O  28.73100 -1.84500 33.76600
O  29.49000 -0.10700 35.00800
C  29.39200 -0.84600 36.28800
H  22.48800 1.07300 31.65900
H  23.71000 1.48500 25.33200
H  29.80400 -0.04500 26.46500
H  26.30600 0.15200 34.16200
H  23.99000 1.69100 33.59300
H  22.98600 0.11100 34.46100
H  24.27600 -0.95900 34.39400
H  23.25600 -0.87900 32.89300
H  25.73300 3.10300 34.05900
H  27.16600 2.83100 33.10100
H  28.49800 2.62500 34.69600
H  27.52500 1.39200 35.46200
H  19.89200 0.17200 29.21400
H  20.02300 1.94500 29.33800
H  20.57800 0.93100 30.64900
H  19.38200 0.19300 27.19300
H  18.98300 0.89400 25.49800
H  18.94300 1.82900 26.84200
H  26.02800 2.13800 24.20500
H  28.11000 0.03800 24.38800
H  24.78700 -0.39600 24.04700
H  26.31300 -0.71200 23.28200
H  25.27600 0.70900 22.87200
H  28.42100 2.43000 23.55400
H  29.72800 2.07100 24.61100
H  27.63800 3.15500 26.15600
H  27.82700 4.16900 24.70600
H  29.25800 3.93100 25.69100
H  31.94300 -0.01600 27.84400
H  31.14900 -1.68800 27.75800
H  32.09600 -1.15600 29.18800
H  29.60700 1.26300 33.00200
H  29.31100 -1.93100 36.20900
H  28.48300 -0.39000 36.67900
H  30.21900 -0.67600 36.97700

