158

Mg 9.29700 3.70000 27.37300
C  10.54200 2.11800 30.22000
C  7.32500 5.62000 29.33600
C  7.60800 4.66300 24.52600
C  10.88900 1.09600 25.50200
N  8.96700 3.83000 29.51900
C  9.64100 3.14800 30.51200
C  9.39700 3.77400 31.88700
C  8.25800 4.86500 31.56400
C  8.09800 4.75600 30.02800
C  6.89600 4.85500 32.34900
C  10.68700 4.50600 32.47600
C  11.47800 3.90400 33.59100
H  11.34200 4.60700 34.93300
N  7.81700 5.04700 26.96000
C  7.15700 5.79500 27.92800
C  6.32000 6.72300 27.21400
C  6.26900 6.33800 25.89700
C  7.24700 5.26600 25.73200
C  5.58800 7.86300 27.91500
C  5.34900 6.91300 24.82600
O  5.39400 6.49700 23.66800
C  4.42200 8.03800 25.02400
N  9.11700 2.89300 25.31200
C  8.46800 3.55600 24.30500
C  8.74600 2.96900 22.91900
C  9.85800 1.92600 23.29400
C  10.01200 2.02000 24.82700
C  7.49900 2.31000 22.14400
C  11.18900 2.16100 22.46600
C  11.64000 0.85800 21.73300
N  10.51500 1.95400 27.75500
C  11.09400 1.03900 26.87900
C  11.89400 0.11300 27.59100
C  11.73200 0.54900 28.95100
C  10.85700 1.59600 28.96900
C  12.70800 -0.97000 26.97400
C  12.13500 0.28400 30.27600
O  12.93500 -0.56200 30.67400
C  11.33100 1.28200 31.20900
C  10.58100 0.38900 32.16000
O  9.69200 -0.39500 31.87800
O  11.28200 0.51700 33.37700
C  10.46900 0.17700 34.61500
H  6.67700 6.31100 29.87900
H  7.12100 5.01700 23.61500
H  11.25500 0.43900 24.71000
H  9.05800 2.97400 32.54600
H  8.60300 5.88700 31.71800
H  6.12700 4.48200 31.67300
H  6.51100 5.84400 32.59500
H  6.92900 4.23800 33.24600
H  10.46300 5.55000 32.69300
H  11.39400 4.52600 31.64600
H  12.53300 4.02500 33.34400
H  11.26100 2.86500 33.84000
H  4.52300 7.63200 27.88200
H  5.67000 8.79900 27.36200
H  5.85800 8.03600 28.95700
H  3.86800 8.10100 24.08800
H  5.00100 8.91000 25.32700
H  3.65200 7.72100 25.72900
H  9.13900 3.75300 22.27100
H  9.50700 0.94100 22.98700
H  6.53400 2.32700 22.65100
H  7.65400 1.24700 21.96100
H  7.49300 2.98100 21.28500
H  12.02000 2.27600 23.16200
H  11.21000 3.02400 21.80100
H  12.44700 1.19200 21.08200
H  10.92000 0.49700 20.99800
H  12.04300 0.08700 22.38900
H  12.64000 -0.92600 25.88700
H  12.12700 -1.87900 27.12800
H  13.75500 -1.01900 27.27000
H  12.07300 1.88500 31.73100
H  11.10000 -0.48100 35.21300
H  9.45800 -0.22100 34.52500
H  10.49100 1.03900 35.28200
Mg 35.56600 1.54500 28.86700
C  33.44400 2.60100 31.30400
C  38.10400 1.30900 31.12800
C  37.80600 1.22000 26.19100
C  33.02400 1.81600 26.49600
N  35.71400 1.74300 31.01000
C  34.68900 2.20700 31.84200
C  35.11600 2.28100 33.30500
C  36.69000 2.01100 33.16100
C  36.80900 1.61500 31.67400
C  37.43700 3.22900 33.43200
C  34.37900 1.30000 34.31600
C  33.81800 1.93500 35.70500
H  34.51400 3.21400 36.26600
N  37.67500 1.27600 28.67200
C  38.52700 1.08900 29.77300
C  39.75800 0.48300 29.28600
C  39.74900 0.60200 27.85300
C  38.31800 1.04400 27.48700
C  40.89800 0.00200 30.17300
C  40.86100 0.40200 26.86500
O  40.67600 0.64900 25.67700
C  42.19900 -0.18400 27.37300
N  35.40600 1.68100 26.65200
C  36.50100 1.49600 25.79300
C  36.01000 1.71300 24.36700
C  34.45100 1.50600 24.39200
C  34.24400 1.68600 25.92800
C  36.36400 3.12200 23.77000
C  34.00500 0.06000 24.02700
C  33.03300 0.01900 22.78400
N  33.61000 1.97800 28.89100
C  32.69500 2.10400 27.78600
C  31.45900 2.69500 28.24200
C  31.70500 2.93000 29.61400
C  33.02000 2.49200 29.92300
C  30.14500 2.96400 27.52900
C  31.11400 3.42000 30.88000
O  30.00100 3.74100 31.21000
C  32.24300 3.28400 32.04100
C  32.58300 4.70000 32.46200
O  33.54500 5.35500 32.10600
O  31.64900 5.13200 33.37300
C  31.98000 6.36100 34.02200
H  38.88200 1.13300 31.87300
H  38.50200 1.33200 25.35700
H  32.23200 1.88700 25.74800
H  34.96800 3.29000 33.68900
H  37.06800 1.13400 33.68700
H  36.84700 4.02500 33.88600
H  37.93800 3.68900 32.58000
H  38.18100 2.94500 34.17600
H  35.04700 0.51700 34.67400
H  33.52100 0.95400 33.74100
H  33.79700 1.10700 36.41400
H  32.78500 2.21900 35.50200
H  41.80400 0.60000 30.06900
H  41.21600 -1.02500 29.99500
H  40.70800 0.03000 31.24600
H  42.91700 0.58000 27.67200
H  42.52000 -0.71800 26.47800
H  42.23700 -1.01400 28.07900
H  36.52600 0.96300 23.76800
H  33.91800 2.28500 23.84600
H  37.38600 3.02500 23.40200
H  36.30900 3.84000 24.58800
H  35.77500 3.48000 22.92500
H  33.53900 -0.32500 24.93400
H  34.91800 -0.48600 23.79100
H  33.23800 -0.85500 22.16600
H  33.24500 0.89600 22.17300
H  31.97300 -0.02600 23.03400
H  30.01500 2.31100 26.66500
H  30.19900 4.01000 27.22900
H  29.40300 2.75200 28.29900
H  31.85800 2.69700 32.87400
H  33.00800 6.39600 34.38300
H  31.29000 6.67000 34.80700
H  31.85400 7.16600 33.29800

