158

Mg 16.23200 -1.02000 28.14100
C  15.17900 1.01000 30.71000
C  18.50100 -2.54700 30.42900
C  18.00700 -2.19700 25.65000
C  14.41900 0.92700 25.87500
N  16.74800 -0.72200 30.35200
C  16.06300 0.07100 31.18800
C  16.56100 -0.02800 32.63600
C  17.81800 -0.90600 32.48200
C  17.74800 -1.42400 31.01000
C  19.23100 -0.42600 32.75500
C  15.43100 -0.53700 33.69100
C  15.26900 0.03900 35.07000
H  16.42400 0.84600 35.61900
N  17.91400 -2.27200 28.07000
C  18.64200 -2.85200 29.08700
C  19.61100 -3.82600 28.57400
C  19.44400 -3.78100 27.11100
C  18.40700 -2.71000 26.89900
C  20.50300 -4.69300 29.49900
C  20.21100 -4.52600 26.02800
O  20.03900 -4.29900 24.80400
C  21.19000 -5.58900 26.40100
N  16.08700 -0.77500 26.05000
C  16.96600 -1.35100 25.18300
C  16.60600 -1.09300 23.70400
C  15.48800 -0.10700 23.86100
C  15.26300 0.00100 25.33100
C  17.80100 -0.53100 22.88000
C  14.18000 -0.48500 23.19300
C  14.00900 -0.23300 21.65200
N  14.99300 0.57700 28.24500
C  14.26500 1.24800 27.25900
C  13.54600 2.37500 27.79500
C  13.83800 2.26300 29.20100
C  14.78000 1.21000 29.40300
C  12.70300 3.33800 27.09500
C  13.61100 2.88200 30.44300
O  12.92800 3.84300 30.74900
C  14.52300 2.11400 31.53400
C  15.45000 3.15100 32.06000
O  16.30300 3.66800 31.31100
O  15.14800 3.67900 33.34100
C  16.06700 4.83800 33.66000
H  19.18900 -2.93500 31.18200
H  18.37500 -2.76800 24.79500
H  13.79500 1.51300 25.19800
H  16.90800 0.94600 32.98000
H  17.52300 -1.73300 33.12800
H  19.11800 0.64500 32.92300
H  19.77400 -0.40900 31.81000
H  19.75400 -0.92600 33.57100
H  15.54300 -1.62100 33.71600
H  14.49300 -0.26000 33.21100
H  15.11500 -0.82300 35.71900
H  14.38000 0.67000 35.08300
H  21.58300 -4.55500 29.46000
H  20.50500 -5.73500 29.18000
H  20.15200 -4.75000 30.53000
H  21.69600 -5.76600 25.45200
H  20.68100 -6.52400 26.63500
H  21.91300 -5.33800 27.17700
H  16.17800 -2.02200 23.32800
H  15.73200 0.92000 23.58900
H  18.55400 -0.08300 23.52900
H  17.46700 0.14500 22.09300
H  18.38500 -1.26800 22.32900
H  13.32500 0.07400 23.57200
H  14.02000 -1.55400 23.33600
H  14.97500 0.10100 21.27600
H  13.17800 0.46700 21.56500
H  13.75600 -1.20000 21.21600
H  13.19700 3.52300 26.14100
H  12.73300 4.29500 27.61500
H  11.73100 2.85000 27.01800
H  13.94100 1.74100 32.37700
H  15.82900 5.03600 34.70500
H  15.87100 5.72700 33.06100
H  17.09700 4.50800 33.52400
Mg 42.29600 41.45200 26.08800
C  41.65600 43.52400 28.81600
C  44.03400 39.35000 28.37200
C  43.07500 39.45600 23.58400
C  41.33800 43.90800 23.99800
N  42.91500 41.51700 28.35100
C  42.34200 42.36900 29.27200
C  42.71800 41.96400 30.77300
C  43.47200 40.60400 30.59200
C  43.49800 40.48900 28.99700
C  44.95900 40.66700 31.12300
C  41.46600 41.90700 31.76500
C  41.77600 42.42800 33.21100
H  40.82500 42.02500 34.43000
N  43.41000 39.64300 25.98100
C  44.03100 38.90900 27.02000
C  44.41800 37.57600 26.43100
C  44.02400 37.58900 25.08000
C  43.44000 38.94000 24.82100
C  45.02300 36.50500 27.29000
C  44.08300 36.47700 23.96900
O  43.79100 36.57000 22.84400
C  44.56900 35.14900 24.52200
N  42.24100 41.67400 24.06700
C  42.62500 40.72500 23.15600
C  42.19400 41.08600 21.73800
C  41.70400 42.50800 21.89200
C  41.81900 42.76900 23.37300
C  43.38500 40.97100 20.64700
C  40.35800 42.89300 21.19100
C  40.52400 44.18200 20.32700
N  41.68900 43.33700 26.30900
C  41.23500 44.21400 25.33900
C  40.68800 45.36700 25.97300
C  40.93200 45.18400 27.37900
C  41.40500 43.89300 27.50200
C  40.22500 46.60000 25.16200
C  40.73900 45.72500 28.60500
O  40.19900 46.78300 28.94400
C  41.18800 44.66800 29.67500
C  42.24700 45.24300 30.49800
O  43.44500 45.18500 30.35400
O  41.67000 45.78000 31.67300
C  42.65100 46.43000 32.62100
H  44.37200 38.72200 29.19900
H  43.23400 38.82400 22.70700
H  40.98900 44.67500 23.30300
H  43.45600 42.67200 31.14900
H  42.94200 39.74900 31.01200
H  44.83200 40.87300 32.18600
H  45.52500 41.43100 30.58900
H  45.31300 39.64300 31.01100
H  41.19500 40.86300 31.91700
H  40.61700 42.43400 31.32900
H  41.78900 43.48800 32.95600
H  42.81700 42.16300 33.39300
H  45.01700 36.86000 28.32100
H  46.06800 36.37300 27.01000
H  44.50900 35.54700 27.22200
H  44.59900 34.40900 23.72200
H  43.78000 34.94600 25.24600
H  45.57900 35.34600 24.88300
H  41.45900 40.29300 21.60700
H  42.51600 43.13600 21.52500
H  44.32600 40.50600 20.94300
H  43.61300 41.93900 20.19900
H  42.90900 40.34500 19.89200
H  39.55400 42.97200 21.92300
H  40.04500 42.08900 20.52500
H  39.76600 44.94400 20.50400
H  40.79700 43.97500 19.29200
H  41.41500 44.74700 20.60200
H  40.81700 46.70600 24.25300
H  40.28300 47.46100 25.82800
H  39.16900 46.48600 24.91500
H  40.33800 44.47300 30.32800
H  43.10600 47.21600 32.01800
H  43.45400 45.80800 33.01600
H  42.23800 46.92300 33.50100

