158

Mg 36.54700 49.85600 26.26900
C  36.67300 47.93200 29.36000
C  35.54900 52.50100 28.20700
C  35.96600 51.54900 23.37800
C  37.03100 46.98800 24.46500
N  36.25700 50.19800 28.53600
C  36.43100 49.28400 29.60800
C  36.16500 49.94500 30.99800
C  35.67300 51.33800 30.48600
C  35.85900 51.39100 28.98400
C  34.24800 51.79800 31.07900
C  37.55600 49.97000 31.75500
C  37.71200 49.71200 33.28200
H  36.44100 49.79300 34.00600
N  35.99400 51.75000 25.87700
C  35.68400 52.72500 26.84100
C  35.40900 53.95000 26.16200
C  35.49700 53.69700 24.74400
C  35.82300 52.26500 24.60000
C  34.64000 55.08000 26.77700
C  35.37600 54.66200 23.57800
O  35.37800 54.29500 22.38300
C  35.21200 56.12900 24.00700
N  36.59200 49.32200 24.23000
C  36.40800 50.25300 23.20900
C  36.53100 49.60800 21.80700
C  37.15000 48.17600 22.21100
C  36.91900 48.14400 23.71800
C  35.17700 49.49600 20.98900
C  38.65800 48.02700 21.95500
C  39.17200 46.66200 21.30000
N  36.78700 47.83200 26.68900
C  37.04200 46.78500 25.86100
C  37.17800 45.55000 26.62500
C  36.98300 45.96800 27.95200
C  36.78200 47.38300 27.95600
C  37.64200 44.23200 26.14000
C  37.04300 45.51200 29.32400
O  37.27700 44.42100 29.77400
C  36.85700 46.79300 30.30100
C  35.56500 46.49200 31.15500
O  34.42600 46.89600 30.98200
O  35.96700 45.77900 32.24100
C  34.86400 45.41400 33.18300
H  35.04400 53.26200 28.80600
H  35.78000 52.03900 22.42000
H  37.27800 46.05100 23.96000
H  35.39400 49.41800 31.56000
H  36.29100 52.12500 30.91700
H  33.85200 50.92200 31.59100
H  33.54600 51.98400 30.26600
H  34.32400 52.56700 31.84800
H  37.97600 50.96100 31.58300
H  38.14800 49.14600 31.35800
H  38.46600 50.41500 33.63800
H  38.17300 48.73200 33.40600
H  33.77900 55.38700 26.18200
H  35.28900 55.92100 27.01900
H  34.25800 54.92600 27.78600
H  34.24300 56.28500 24.48000
H  35.11200 56.63000 23.04500
H  35.99000 56.48700 24.68200
H  37.26600 50.16200 21.22400
H  36.51900 47.34500 21.89800
H  34.74500 48.52800 21.24200
H  35.57500 49.48700 19.97400
H  34.49400 50.32800 21.16200
H  39.09800 48.01100 22.95200
H  39.08800 48.81200 21.33200
H  39.95200 47.02900 20.63200
H  38.34100 46.30800 20.68900
H  39.65300 45.97000 21.99100
H  38.14200 44.30000 25.17400
H  36.79200 43.55000 26.14500
H  38.32500 43.84200 26.89500
H  37.82700 46.87100 30.79300
H  35.30900 44.56100 33.69600
H  33.92500 45.21600 32.66700
H  34.75300 46.21100 33.91800
Mg -5.55500 25.94400 26.24900
C  -4.30800 27.60900 29.02400
C  -7.00000 23.68800 28.29900
C  -6.53600 24.21800 23.38900
C  -3.72500 28.06500 24.13200
N  -5.66300 25.80500 28.35600
C  -5.20300 26.61600 29.33900
C  -5.61000 26.15100 30.73300
C  -6.13200 24.72200 30.46900
C  -6.28200 24.70800 28.90200
C  -5.27900 23.59700 31.08800
C  -6.66600 27.12300 31.27400
C  -6.65700 27.00600 32.83200
H  -6.04700 25.76900 33.65200
N  -6.63300 24.26700 25.93500
C  -7.17900 23.43100 26.90500
C  -7.95600 22.43500 26.31300
C  -7.95000 22.61600 24.92700
C  -6.97300 23.70500 24.66000
C  -8.37100 21.20800 27.11100
C  -8.65900 21.81500 23.87400
O  -8.43500 22.00300 22.70000
C  -9.71200 20.68000 24.09700
N  -5.22000 26.15200 24.07100
C  -5.78300 25.37900 23.09300
C  -5.42100 25.80800 21.68100
C  -4.64300 27.10000 21.90500
C  -4.61200 27.19300 23.40500
C  -4.60900 24.74900 20.89100
C  -5.35900 28.43900 21.32500
C  -5.21500 28.70400 19.72000
N  -4.14000 27.44700 26.46000
C  -3.50400 28.25200 25.57500
C  -2.68600 29.21800 26.29200
C  -2.91500 29.00600 27.63300
C  -3.89400 27.94800 27.68300
C  -1.85800 30.35500 25.65800
C  -2.62500 29.42300 28.98900
O  -1.97500 30.33600 29.46900
C  -3.55900 28.60900 29.93000
C  -2.68400 27.96200 30.82300
O  -1.87400 27.13600 30.52900
O  -2.96000 28.37700 32.14900
C  -2.34400 27.46000 33.13400
H  -7.55600 23.04600 28.98500
H  -6.85400 23.66100 22.50500
H  -3.30700 28.77300 23.41300
H  -4.71600 26.10700 31.35500
H  -7.16900 24.69400 30.80300
H  -5.92700 22.93500 31.66200
H  -4.43600 24.04100 31.61700
H  -4.77800 22.99300 30.33100
H  -7.63200 26.83500 30.85900
H  -6.57300 28.17300 30.99600
H  -7.67000 27.11400 33.22000
H  -6.01500 27.79000 33.23300
H  -8.48700 20.34700 26.45400
H  -9.44200 21.27000 27.29900
H  -7.77400 21.10500 28.01700
H  -10.34100 20.40100 23.25200
H  -10.39500 20.98100 24.89200
H  -9.27000 19.72700 24.38600
H  -6.30800 25.91400 21.05500
H  -3.61400 27.02600 21.55300
H  -4.31000 23.88000 21.47700
H  -3.70900 25.21900 20.49500
H  -5.20000 24.39100 20.04800
H  -4.97500 29.30000 21.87200
H  -6.42700 28.27000 21.46400
H  -4.97200 29.76700 19.70400
H  -6.15500 28.43900 19.23700
H  -4.43100 28.04000 19.35700
H  -2.43700 31.27500 25.74400
H  -1.92700 30.26000 24.57400
H  -0.81000 30.38500 25.95400
H  -4.28500 29.28000 30.38900
H  -2.57500 26.40100 33.02500
H  -2.67700 27.87500 34.08500
H  -1.27600 27.63800 33.00600

