158

Mg 44.08200 5.43800 47.49100
C  41.66600 7.86200 47.27300
C  41.61400 3.13100 47.08100
C  46.56700 3.00400 47.12800
C  46.50800 7.80100 47.59000
N  41.82800 5.52700 47.30200
C  41.06100 6.61000 47.26100
C  39.57800 6.30200 47.00600
C  39.54300 4.75600 47.03100
C  41.03100 4.40500 47.15300
C  38.83900 4.07100 48.16100
C  39.03500 6.80200 45.66500
C  40.03300 6.67400 44.40800
H  39.37400 6.85900 43.06100
N  44.09200 3.40300 47.21900
C  42.96600 2.59300 47.04400
C  43.39900 1.24800 46.77100
C  44.77100 1.20300 46.71200
C  45.23400 2.57100 47.06300
C  42.38700 0.07700 46.57200
C  45.50700 -0.02600 46.52500
O  44.91000 -1.06200 46.22100
C  47.03800 -0.12700 46.48700
N  46.24200 5.40300 47.38400
C  47.05200 4.25400 47.34300
C  48.51700 4.69600 47.34500
C  48.48600 6.22600 47.61400
C  46.96600 6.49300 47.59500
C  49.64900 3.80800 48.19400
C  49.33100 7.08300 46.64000
C  50.87900 7.23800 46.89000
N  44.18000 7.42200 47.39200
C  45.21100 8.30100 47.42700
C  44.67000 9.66900 47.25200
C  43.27800 9.57100 47.34100
C  43.00700 8.17100 47.37300
C  45.47700 10.95100 47.35700
C  42.04300 10.31500 47.49400
O  41.88100 11.49400 47.63100
C  40.90300 9.13100 47.41100
C  40.19700 9.30500 48.67800
O  40.51200 8.80100 49.76700
O  39.16400 10.12100 48.40600
C  38.22500 10.43100 49.48900
H  40.81300 2.39200 47.15100
H  47.36300 2.30900 46.85400
H  47.31800 8.49500 47.82500
H  38.87000 6.67900 47.74300
H  39.31700 4.39400 46.02700
H  37.86600 4.55400 48.25400
H  39.48200 4.14300 49.03800
H  38.72100 3.03500 47.84500
H  38.63200 7.78400 45.91300
H  38.12900 6.28100 45.35500
H  40.58000 5.73200 44.45700
H  40.72800 7.50300 44.54200
H  42.59300 -0.33700 45.58500
H  41.34100 0.37600 46.64900
H  42.49800 -0.64600 47.37900
H  47.59100 0.09200 47.40100
H  47.50500 0.36300 45.63300
H  47.16300 -1.18700 46.26500
H  48.74500 4.58600 46.28400
H  48.98100 6.48000 48.55100
H  50.19800 3.04200 47.64600
H  49.20100 3.29900 49.04800
H  50.42200 4.55900 48.35900
H  48.89500 8.06200 46.44200
H  49.21900 6.58700 45.67600
H  51.29500 6.59600 46.11400
H  51.11500 6.89900 47.89900
H  51.19900 8.26200 46.69800
H  44.77900 11.75400 47.11900
H  46.33500 11.03100 46.68900
H  45.81000 11.09400 48.38500
H  40.37200 9.38500 46.49400
H  38.51400 11.44600 49.76000
H  38.36800 9.84500 50.39700
H  37.20400 10.41700 49.10900
Mg 46.81200 24.49500 28.33700
C  47.74700 26.88500 30.83900
C  45.86000 22.38700 30.85900
C  46.22900 22.25800 26.07600
C  48.21600 26.69800 26.00400
N  46.79700 24.68300 30.54000
C  47.18900 25.70700 31.36400
C  46.91100 25.34100 32.88800
C  46.46400 23.85100 32.89900
C  46.40800 23.56800 31.33300
C  47.36800 22.79900 33.63900
C  45.82400 26.24700 33.67100
C  46.12700 26.67000 35.16400
H  44.97800 26.86700 36.13400
N  46.25200 22.55000 28.43300
C  45.79300 21.89600 29.52200
C  45.45700 20.52900 29.12400
C  45.38500 20.43700 27.75100
C  45.95500 21.73900 27.34900
C  45.09800 19.42300 30.13200
C  44.99600 19.33300 26.78700
O  45.07800 19.38900 25.59100
C  44.39600 18.12400 27.35700
N  47.29900 24.46500 26.36900
C  46.78700 23.46200 25.59200
C  47.03200 23.66300 24.09200
C  47.50500 25.17400 24.11200
C  47.59800 25.55100 25.59400
C  48.11400 22.75000 23.43300
C  46.58600 26.16800 23.34700
C  47.13700 26.94700 22.15500
N  47.70800 26.43700 28.39500
C  48.23400 27.20300 27.31900
C  48.58200 28.52700 27.82700
C  48.55000 28.39400 29.21900
C  47.93500 27.14100 29.50900
C  49.09900 29.72300 26.99200
C  48.74100 29.11500 30.45000
O  49.19500 30.22200 30.72000
C  48.20900 28.10400 31.53600
C  49.33000 27.84100 32.46700
O  50.33600 27.12500 32.34900
O  49.02100 28.53500 33.66000
C  49.97600 28.42800 34.76400
H  45.37300 21.83800 31.66700
H  46.15400 21.56400 25.23700
H  48.55800 27.26100 25.13300
H  47.83300 25.48000 33.45300
H  45.43000 23.66800 33.19100
H  47.31800 21.85700 33.09200
H  46.88700 22.61600 34.59900
H  48.41100 23.06900 33.80600
H  44.91400 25.64900 33.62400
H  45.62000 27.14600 33.08900
H  46.72200 27.58200 35.21000
H  46.77200 25.89900 35.58500
H  44.02600 19.27500 30.00800
H  45.24000 19.80600 31.14300
H  45.57300 18.45000 30.00300
H  45.08000 17.52700 27.95900
H  44.05700 17.46100 26.56000
H  43.50600 18.39300 27.92600
H  46.05100 23.57300 23.62400
H  48.51300 25.33700 23.72900
H  47.79800 22.60000 22.40100
H  48.10800 21.86700 24.07100
H  49.06300 23.28300 23.37500
H  46.22000 26.80800 24.14900
H  45.64700 25.70600 23.04000
H  46.69900 26.56200 21.23400
H  48.21100 26.77400 22.09900
H  47.02600 27.99000 22.45000
H  49.98500 30.08500 27.51300
H  48.36800 30.53100 27.02100
H  49.42500 29.43700 25.99200
H  47.35000 28.47100 32.09900
H  50.28100 29.42000 35.09600
H  50.92000 28.05800 34.36400
H  49.45100 27.82700 35.50600

