158

Mg 9.02000 3.84800 27.07200
C  10.17600 2.08800 29.85600
C  7.00100 5.59000 29.18000
C  7.77700 5.48000 24.40000
C  10.49100 1.39800 25.00100
N  8.43500 3.63000 29.21400
C  9.18800 2.97600 30.19000
C  8.93100 3.41700 31.59300
C  7.77200 4.50100 31.35100
C  7.65000 4.54100 29.83100
C  6.56600 4.52000 32.27100
C  10.18200 4.02300 32.27000
C  10.26700 3.58500 33.79300
H  10.80900 4.54200 34.92300
N  7.63800 5.38200 26.83200
C  6.88500 5.95100 27.80000
C  6.06000 6.99900 27.29100
C  6.31000 7.03400 25.89900
C  7.28900 5.96900 25.62300
C  5.31600 7.96400 28.09700
C  5.86900 8.03200 24.80300
O  6.26300 7.94900 23.61300
C  4.83000 8.90700 25.22700
N  9.00000 3.39500 25.05200
C  8.50100 4.27800 24.14200
C  8.86300 3.81800 22.68100
C  9.82400 2.60600 22.86200
C  9.69300 2.40000 24.41300
C  7.65500 3.72900 21.73200
C  11.25600 2.92500 22.42400
C  12.21700 3.52600 23.35200
N  10.08700 2.04200 27.29600
C  10.61100 1.15100 26.39400
C  11.55400 0.30000 27.12800
C  11.38600 0.58200 28.49800
C  10.41200 1.62900 28.54100
C  12.51400 -0.57500 26.51900
C  11.84900 0.27700 29.81000
O  12.69000 -0.58900 30.12800
C  11.07000 1.26200 30.75300
C  10.31500 0.46200 31.67200
O  9.15500 0.00700 31.40700
O  10.87500 0.46500 32.92100
C  10.20700 -0.19600 33.99700
H  6.41700 6.21700 29.85700
H  7.40600 5.99100 23.51000
H  11.17400 0.76700 24.42800
H  8.49200 2.54600 32.08000
H  8.18600 5.50500 31.44000
H  6.87000 4.06800 33.21500
H  5.77700 3.93100 31.80400
H  6.21800 5.54500 32.40000
H  10.14000 5.11200 32.23700
H  11.11100 3.79000 31.74900
H  10.79300 2.63600 33.89800
H  9.25900 3.24300 34.02600
H  5.49800 9.01100 27.85200
H  5.53400 7.92900 29.16500
H  4.26000 7.78800 27.89500
H  4.03500 8.23000 25.53900
H  4.59200 9.44800 24.31100
H  5.06100 9.52800 26.09200
H  9.45800 4.64700 22.29800
H  9.35400 1.74200 22.39400
H  6.73600 4.03500 22.23100
H  7.45100 2.82800 21.15300
H  7.77600 4.40100 20.88200
H  11.25900 3.60700 21.57400
H  11.60600 2.00700 21.95300
H  12.70200 4.33800 22.81000
H  12.81200 2.67500 23.68500
H  11.67200 3.92900 24.20500
H  12.12300 -1.53000 26.16800
H  13.25900 -0.74800 27.29600
H  12.98800 -0.02600 25.70600
H  11.88500 1.72500 31.31000
H  9.47700 0.51700 34.38000
H  10.81100 -0.43000 34.87400
H  9.68300 -1.10100 33.68700
Mg -0.35700 44.12200 25.12000
C  1.42100 43.56100 28.22000
C  -3.17900 43.25200 26.71800
C  -1.66600 43.67300 22.05400
C  2.96000 44.36300 23.54600
N  -0.80500 43.39300 27.24700
C  0.02300 43.37900 28.36200
C  -0.83500 43.32900 29.64700
C  -2.20600 42.88900 29.06500
C  -2.09600 43.31500 27.56200
C  -2.69100 41.39500 29.25400
C  -0.80700 44.61100 30.59600
C  -0.49100 44.46600 32.08900
H  -0.82500 43.15200 32.82000
N  -2.16800 43.61800 24.43700
C  -3.19700 43.33000 25.29600
C  -4.41800 43.25700 24.48000
C  -4.03800 43.43100 23.14100
C  -2.57800 43.60200 23.14400
C  -5.77800 43.00000 25.20600
C  -4.81500 43.31100 21.90400
O  -4.32300 43.49400 20.83500
C  -6.29400 43.04000 22.04700
N  0.55100 43.82400 23.09200
C  -0.26500 43.79000 22.03800
C  0.49500 43.83500 20.74200
C  1.95300 44.15200 21.19900
C  1.86800 44.08100 22.71200
C  0.30300 42.54900 19.88800
C  2.52300 45.54400 20.74400
C  1.68500 46.74600 21.21000
N  1.70400 44.24100 25.71900
C  2.87700 44.46100 24.98800
C  3.99600 44.60500 25.88700
C  3.44500 44.23100 27.11200
C  2.07500 43.94400 26.98700
C  5.47100 44.83400 25.55300
C  3.85200 44.10100 28.49200
O  4.91000 44.21500 29.13800
C  2.54900 43.65100 29.28400
C  2.86800 42.41400 30.05900
O  3.04900 41.31300 29.61000
O  2.91900 42.71200 31.44600
C  3.03300 41.53600 32.41300
H  -4.15700 43.01000 27.14000
H  -2.09900 43.81400 21.06100
H  3.87400 44.57400 22.98700
H  -0.36400 42.51000 30.19100
H  -2.88600 43.60900 29.52000
H  -1.85800 40.86200 29.71200
H  -2.93600 40.82900 28.35500
H  -3.47700 41.32700 30.00600
H  -1.77900 45.09500 30.49300
H  -0.05700 45.26500 30.15200
H  -1.13500 45.25100 32.48400
H  0.52600 44.78600 32.31800
H  -6.03700 43.78900 25.91200
H  -5.55000 42.10600 25.78500
H  -6.58600 42.71800 24.53100
H  -6.46600 42.00900 22.35500
H  -6.71200 43.19400 21.05200
H  -6.80700 43.87100 22.53000
H  0.12800 44.65400 20.12300
H  2.60900 43.37000 20.81600
H  -0.04600 41.86000 20.65600
H  1.23200 42.20400 19.43200
H  -0.41500 42.72900 19.08800
H  2.33500 45.55800 19.67000
H  3.56800 45.69600 21.01200
H  1.10900 47.13000 20.36800
H  2.47200 47.45600 21.46800
H  1.02300 46.60800 22.06500
H  5.68900 44.44000 24.56100
H  6.12700 44.31700 26.25400
H  5.69300 45.90100 25.54900
H  2.32800 44.43400 30.00900
H  4.04500 41.17300 32.23500
H  2.31900 40.74200 32.19300
H  2.87900 42.00500 33.38500

