158

Mg 16.30300 52.53800 26.78300
C  18.27300 51.14300 29.35300
C  13.73600 52.94800 28.98000
C  14.76800 53.96900 24.30100
C  18.96200 51.46800 24.58100
N  15.97400 52.02700 28.97800
C  16.94300 51.60700 29.87400
C  16.43300 51.87900 31.25600
C  14.92800 52.19900 31.10700
C  14.78900 52.29000 29.57100
C  13.98000 51.21600 31.80400
C  17.28600 53.00800 31.97800
C  17.46100 52.86000 33.51100
H  16.50000 53.60600 34.46900
N  14.45400 53.34400 26.59200
C  13.51200 53.36600 27.63700
C  12.36200 54.11500 27.22100
C  12.56200 54.39900 25.82500
C  13.99400 53.97000 25.49900
C  11.14000 54.37200 28.11000
C  11.65300 55.14900 24.82500
O  12.10100 55.55000 23.72900
C  10.29200 55.35800 25.25400
N  16.76200 52.54800 24.66800
C  16.00700 53.39500 23.92600
C  16.74200 53.64700 22.62100
C  18.05000 52.77400 22.67500
C  17.92700 52.17000 24.01600
C  15.97800 53.40000 21.25300
C  19.47400 53.45100 22.45000
C  20.43400 52.62900 21.69700
N  18.15300 51.54100 26.85000
C  19.05800 51.10100 25.87500
C  20.12500 50.28800 26.43900
C  19.90300 50.38500 27.80900
C  18.68600 51.08200 27.97000
C  21.22100 49.52000 25.77100
C  20.38100 50.04400 29.13300
O  21.31800 49.28300 29.37800
C  19.44000 50.66500 30.13800
C  19.17700 49.56900 31.18600
O  18.68300 48.49200 30.96400
O  19.50000 49.96300 32.44500
C  19.05100 49.20400 33.60500
H  13.07000 53.17700 29.81400
H  14.21800 54.55800 23.56400
H  19.66600 50.99800 23.89000
H  16.62900 50.99700 31.86500
H  14.75900 53.20900 31.48000
H  13.48900 50.54900 31.09600
H  13.19300 51.81500 32.26000
H  14.51600 50.75300 32.63400
H  16.75000 53.94700 31.84100
H  18.22200 53.11200 31.43000
H  18.44800 53.21000 33.81400
H  17.42200 51.80600 33.78400
H  10.32000 53.88200 27.58400
H  10.98300 55.41800 28.37500
H  11.34500 54.00400 29.11500
H  10.15600 55.90200 26.18900
H  9.80600 54.38600 25.33600
H  9.84500 55.79900 24.36300
H  16.98400 54.70600 22.53700
H  17.96600 51.93600 21.98300
H  16.35200 52.57900 20.64100
H  16.02300 54.28000 20.61100
H  14.92600 53.18500 21.44000
H  19.86800 53.79900 23.40500
H  19.43000 54.41300 21.94000
H  19.95900 51.84700 21.10500
H  21.16500 52.26400 22.41800
H  21.05800 53.08900 20.93200
H  21.64000 49.97800 24.87600
H  20.70300 48.60600 25.47900
H  21.97100 49.39100 26.55100
H  19.92400 51.53100 30.59100
H  17.99800 49.45300 33.73400
H  19.49400 49.54500 34.54100
H  18.97400 48.11800 33.54500
Mg 0.48700 43.73400 26.34700
C  2.91900 43.35100 28.94800
C  -1.94600 42.90500 28.68100
C  -1.59300 43.44300 23.88800
C  3.23200 43.94300 24.09800
N  0.58500 43.29300 28.56100
C  1.58500 43.23000 29.36900
C  1.14900 43.10400 30.88800
C  -0.24500 42.51400 30.65700
C  -0.58200 42.92800 29.23300
C  -0.21600 40.86500 30.78900
C  1.12500 44.49900 31.51300
C  1.47700 44.56300 32.99800
H  1.09600 43.43000 33.91700
N  -1.52900 43.35400 26.31800
C  -2.36900 43.06200 27.36700
C  -3.66300 43.05900 26.84700
C  -3.60700 43.07600 25.45300
C  -2.26000 43.30400 25.13700
C  -4.81600 43.13900 27.78200
C  -4.82000 42.98200 24.40100
O  -4.66000 43.32000 23.22800
C  -6.25700 42.75100 24.85500
N  0.79700 43.52400 24.31800
C  -0.26400 43.48800 23.48400
C  0.19200 43.22000 22.05000
C  1.70300 43.59000 22.08600
C  1.95600 43.61700 23.62200
C  -0.05700 41.74700 21.62100
C  1.94400 44.96300 21.44500
C  2.51500 44.95200 20.02000
N  2.66500 43.80000 26.48800
C  3.57500 43.96500 25.47600
C  4.94200 43.99200 26.00400
C  4.71300 43.88800 27.38300
C  3.39200 43.59400 27.58500
C  6.16700 43.99400 25.24700
C  5.31400 43.77600 28.73500
O  6.50100 43.82700 28.96900
C  4.24700 43.41700 29.82000
C  4.53700 42.20000 30.52400
O  4.46700 41.05800 30.06500
O  4.87700 42.53800 31.81100
C  5.30400 41.51600 32.71400
H  -2.74200 42.74100 29.41000
H  -2.31400 43.27700 23.08600
H  3.97800 44.07000 23.31000
H  1.87600 42.43900 31.35400
H  -0.95300 42.85600 31.41200
H  -0.80200 40.61400 31.67200
H  0.78300 40.43200 30.73800
H  -0.74600 40.41900 29.94700
H  0.19700 45.03800 31.32000
H  1.85400 45.03500 30.90500
H  1.04700 45.45700 33.45000
H  2.55000 44.73300 33.08800
H  -5.11600 42.14600 28.11600
H  -5.62300 43.64300 27.25000
H  -4.57800 43.68100 28.69700
H  -6.90400 42.47300 24.02300
H  -6.60600 43.75400 25.10000
H  -6.22400 41.90700 25.54500
H  -0.42500 43.85400 21.41200
H  2.42600 42.90400 21.64500
H  0.74200 41.08200 21.94800
H  -0.34200 41.59300 20.58100
H  -0.93300 41.35500 22.13800
H  2.69600 45.58200 21.93400
H  0.98600 45.46400 21.30600
H  1.74500 45.17200 19.28100
H  2.81500 43.94000 19.74700
H  3.31300 45.67500 19.84600
H  6.22400 44.96000 24.74600
H  6.15100 43.18600 24.51500
H  7.10500 44.03900 25.80200
H  4.12300 44.24200 30.52100
H  6.32100 41.12400 32.68300
H  4.67000 40.63300 32.63700
H  5.10600 41.99100 33.67500

