158

Mg -1.66800 17.28500 26.13400
C  -2.38000 15.21200 28.92800
C  -2.23900 19.99100 28.15000
C  -1.35600 19.25600 23.31900
C  -1.90100 14.42300 24.03400
N  -2.33200 17.57200 28.27400
C  -2.42400 16.59500 29.27900
C  -2.67300 17.27300 30.63700
C  -2.89400 18.81900 30.29700
C  -2.38500 18.76200 28.81100
C  -4.33300 19.38000 30.42800
C  -1.53800 17.07900 31.61900
C  -1.66400 17.93700 32.88200
H  -2.01400 17.11000 34.19000
N  -1.77100 19.32400 25.78700
C  -1.94200 20.31100 26.76300
C  -1.88500 21.63600 26.19900
C  -1.62300 21.39300 24.81500
C  -1.55200 19.95800 24.57900
C  -2.02100 22.90300 27.05000
C  -1.46300 22.47900 23.67200
O  -1.28300 22.21500 22.51000
C  -1.66800 23.84400 24.04200
N  -1.51400 16.81000 23.97300
C  -1.35100 17.83800 23.04300
C  -1.16800 17.24700 21.58300
C  -1.05700 15.69600 21.90600
C  -1.42400 15.60100 23.39700
C  -2.27800 17.59300 20.62400
C  0.33200 14.93100 21.66800
C  1.58600 15.73000 21.99000
N  -2.11000 15.25900 26.37000
C  -2.17000 14.18500 25.45400
C  -2.46800 12.93000 26.05900
C  -2.45900 13.28800 27.43100
C  -2.24000 14.69800 27.54900
C  -2.62500 11.61800 25.45200
C  -2.58000 12.75500 28.81500
O  -2.75100 11.61400 29.23000
C  -2.48900 14.05000 29.83000
C  -1.33000 13.87200 30.63400
O  -0.17300 14.14300 30.22600
O  -1.65100 13.24600 31.83200
C  -0.51800 13.28400 32.80700
H  -2.37400 20.84000 28.82400
H  -1.36600 19.79000 22.36700
H  -1.92400 13.56600 23.35800
H  -3.54800 16.80900 31.09300
H  -2.13600 19.36300 30.86100
H  -4.97700 18.67700 30.95700
H  -4.79600 19.65600 29.48000
H  -4.34200 20.27500 31.05000
H  -0.65000 17.33700 31.04200
H  -1.45900 16.05800 31.99100
H  -2.35900 18.76100 32.71900
H  -0.69400 18.39300 33.08200
H  -1.22900 23.61700 26.82500
H  -2.04800 22.78400 28.13300
H  -2.92300 23.41900 26.72000
H  -2.63600 24.00500 24.51600
H  -1.64900 24.48100 23.15700
H  -0.84000 24.15400 24.67900
H  -0.19400 17.55800 21.20300
H  -1.89400 15.16000 21.45900
H  -2.53500 18.64600 20.74300
H  -3.07300 16.86900 20.80200
H  -1.84300 17.53200 19.62600
H  0.40300 14.58200 20.63700
H  0.35600 14.03800 22.29300
H  2.10200 15.87200 21.04000
H  2.22800 15.17000 22.67000
H  1.40900 16.69800 22.45900
H  -3.48100 11.05400 25.82400
H  -1.70100 11.05100 25.55900
H  -2.79000 11.70000 24.37800
H  -3.45500 13.95500 30.32600
H  -1.05100 13.73400 33.64400
H  0.31900 13.93600 32.55500
H  -0.11700 12.31700 33.11000
Mg 25.10300 -7.27600 48.01400
C  27.34600 -5.09000 46.82400
C  22.97800 -6.51700 45.36500
C  23.08300 -9.93800 48.76700
C  27.44700 -8.47800 50.21100
N  25.14500 -5.97100 46.26900
C  26.19300 -5.14000 46.01900
C  25.90100 -4.19300 44.80600
C  24.34800 -4.46000 44.63100
C  24.12500 -5.73600 45.45100
C  23.35100 -3.27100 45.08600
C  26.75200 -4.49400 43.48500
C  27.45400 -3.25900 42.88800
H  27.07900 -2.80400 41.46600
N  23.19500 -8.06900 47.23200
C  22.56400 -7.56100 46.14600
C  21.33600 -8.32300 45.89800
C  21.33400 -9.42700 46.83100
C  22.53600 -9.15600 47.70200
C  20.29900 -7.90400 44.83400
C  20.30300 -10.59300 46.81500
O  19.45200 -10.66100 45.89500
C  20.21800 -11.67400 47.82600
N  25.25000 -8.99800 49.32700
C  24.29500 -9.89900 49.53900
C  24.83600 -11.13100 50.29000
C  26.15900 -10.59600 50.78000
C  26.30900 -9.25100 50.05400
C  23.96500 -11.54000 51.57600
C  27.40300 -11.56200 50.39300
C  28.29900 -11.96400 51.60800
N  26.94800 -6.80500 48.48200
C  27.80500 -7.33100 49.48800
C  28.97100 -6.48000 49.60400
C  28.86400 -5.62100 48.54200
C  27.61500 -5.84600 47.88900
C  30.10100 -6.60000 50.59100
C  29.50700 -4.52900 47.87500
O  30.59400 -4.04200 48.01800
C  28.49300 -4.14400 46.73000
C  28.25700 -2.72700 46.94500
O  28.05000 -2.16700 48.03200
O  28.08000 -2.08400 45.76000
C  27.68200 -0.63800 45.78800
H  22.44100 -6.34000 44.43000
H  22.68700 -10.93900 48.94600
H  28.22000 -8.92600 50.84000
H  25.92000 -3.14800 45.11600
H  24.01800 -4.60700 43.60300
H  23.82300 -2.34600 45.41700
H  22.95000 -3.69100 46.00900
H  22.59400 -3.06400 44.33000
H  25.95000 -4.74000 42.78800
H  27.48000 -5.29600 43.60500
H  28.51500 -3.49500 42.80000
H  27.37700 -2.33700 43.46500
H  20.57900 -7.96700 43.78200
H  20.13000 -6.83000 44.90100
H  19.33900 -8.37800 45.04200
H  20.09800 -11.25200 48.82400
H  21.07800 -12.34000 47.74800
H  19.26500 -12.18000 47.66900
H  24.82800 -12.04100 49.68900
H  26.10600 -10.20100 51.79500
H  23.50900 -10.58800 51.85000
H  24.48500 -11.94700 52.44300
H  23.27600 -12.25600 51.12900
H  27.89900 -11.16100 49.50900
H  26.97400 -12.54100 50.17900
H  29.34400 -11.89700 51.30500
H  28.17600 -13.02100 51.84500
H  28.08200 -11.30800 52.45100
H  29.89200 -6.33300 51.62700
H  30.98000 -6.05700 50.24300
H  30.47900 -7.62300 50.57800
H  29.05300 -4.16300 45.79500
H  28.16300 -0.18100 46.65300
H  26.61500 -0.49800 45.96100
H  27.97500 -0.25500 44.81000

