158

Mg 26.62000 49.29700 26.95800
C  24.49600 50.52100 29.26200
C  28.85700 48.37000 29.50800
C  28.92100 48.20700 24.61800
C  24.64000 50.61400 24.42100
N  26.68200 49.48000 29.15200
C  25.62400 49.87400 29.89500
C  25.83800 49.57800 31.39100
C  27.36100 49.09800 31.38500
C  27.68400 48.93400 29.93000
C  28.24500 50.16600 32.09100
C  24.85400 48.60300 31.91700
C  24.11000 49.03900 33.21400
H  24.95600 49.78700 34.26700
N  28.54400 48.26900 27.12500
C  29.25100 48.00300 28.26500
C  30.44300 47.24600 27.93300
C  30.53100 47.31000 26.49100
C  29.30700 47.96600 26.02700
C  31.46800 46.75700 29.02000
C  31.55900 46.65600 25.61400
O  31.42700 46.45000 24.37800
C  32.80200 45.95400 26.33800
N  26.79300 49.45100 24.83900
C  27.76000 48.85500 24.16600
C  27.54900 48.99100 22.62300
C  26.18300 49.70100 22.48100
C  25.84100 50.00100 23.98500
C  28.76800 49.78700 21.91700
C  25.18800 48.80000 21.75100
C  24.54000 47.66700 22.62100
N  24.99100 50.44200 26.85500
C  24.28000 50.87100 25.75600
C  23.14100 51.64500 26.21800
C  23.20200 51.57300 27.60900
C  24.33500 50.78900 27.95800
C  22.08000 52.31500 25.37400
C  22.48700 51.87400 28.81000
O  21.43100 52.44500 29.00500
C  23.21900 51.16900 29.90000
C  23.75800 52.31400 30.71300
O  24.67500 53.07700 30.52200
O  22.87400 52.46000 31.66800
C  23.27200 53.31200 32.80300
H  29.58400 48.08800 30.27300
H  29.67000 47.77700 23.95000
H  24.01000 50.98500 23.61000
H  25.71600 50.57800 31.80700
H  27.60100 48.16100 31.88900
H  28.73200 49.79500 32.99300
H  27.73000 51.10400 32.29800
H  29.09700 50.37000 31.44300
H  25.22200 47.63400 32.25400
H  24.02600 48.45900 31.22400
H  23.70300 48.13000 33.65800
H  23.26800 49.65000 32.88700
H  31.62400 45.68600 28.88500
H  31.08800 46.77500 30.04100
H  32.40000 47.32200 28.98800
H  33.52000 45.46300 25.68000
H  32.32600 45.13700 26.87900
H  33.24700 46.69300 27.00400
H  27.53800 48.04700 22.07800
H  26.24000 50.67800 22.00200
H  29.60900 49.78700 22.61100
H  28.54500 50.82200 21.65500
H  29.15500 49.26700 21.04100
H  25.74400 48.34400 20.93200
H  24.33600 49.39500 21.42000
H  23.47500 47.84000 22.77500
H  25.06000 47.53300 23.57000
H  24.59100 46.70300 22.11500
H  21.12100 52.19400 25.87600
H  22.01300 51.85600 24.38700
H  22.34300 53.36600 25.24700
H  22.69000 50.42200 30.49100
H  24.35700 53.31800 32.90800
H  22.95300 53.13300 33.83000
H  22.93400 54.32500 32.58200
Mg 5.96800 53.69900 40.49000
C  5.31600 50.20500 40.18200
C  9.20900 53.14400 39.56300
C  6.13600 56.92000 39.81100
C  2.39300 54.04300 40.81500
N  7.03600 51.91300 39.84200
C  6.61200 50.61800 39.79700
C  7.79100 49.70000 39.25600
C  9.01800 50.65100 39.39000
C  8.36000 52.01000 39.63600
C  9.99100 50.19500 40.42200
C  7.57400 49.03100 37.80700
C  6.77300 49.87600 36.77100
H  6.20000 49.23600 35.60500
N  7.54400 54.87400 39.94200
C  8.86500 54.49800 39.72900
C  9.63300 55.65600 39.82600
C  8.75100 56.78000 40.00600
C  7.37000 56.23800 39.84500
C  11.13700 55.54600 39.71100
C  9.17600 58.21400 40.19200
O  10.32700 58.54600 39.95800
C  8.21100 59.17700 40.77900
N  4.46100 55.23600 40.33800
C  4.82700 56.47300 39.99700
C  3.56500 57.40500 39.74400
C  2.41200 56.51200 40.10800
C  3.11600 55.17800 40.43200
C  3.47400 58.71800 40.54700
C  1.39400 56.33100 38.98600
C  0.48200 57.49400 38.67400
N  4.23700 52.46500 40.72200
C  2.91900 52.73100 40.98500
C  2.13900 51.55900 41.07800
C  3.04300 50.51600 40.78600
C  4.30700 51.16200 40.52800
C  0.64500 51.43900 41.38600
C  3.20800 49.09300 40.72400
O  2.34600 48.24300 40.84400
C  4.67500 48.83000 40.34900
C  4.74800 47.97600 39.12800
O  4.18300 48.24200 38.04500
O  5.25100 46.69900 39.48000
C  4.96200 45.77500 38.37300
H  10.25600 52.87600 39.40200
H  6.34400 57.99100 39.76200
H  1.31100 54.19100 40.84200
H  7.75200 48.85900 39.94800
H  9.58100 50.73600 38.46100
H  10.90600 50.28200 39.83600
H  9.97300 49.14100 40.69800
H  10.08400 50.71700 41.37400
H  7.10500 48.05100 37.89100
H  8.58000 48.96800 37.39100
H  7.54700 50.58100 36.47000
H  5.92200 50.35500 37.25400
H  11.63900 56.50600 39.82900
H  11.44800 55.22100 38.71900
H  11.62600 54.85800 40.40100
H  8.73000 59.99900 41.27300
H  7.59700 58.61400 41.48200
H  7.74100 59.75200 39.98100
H  3.55800 57.74800 38.70900
H  1.82900 56.82300 40.97400
H  4.32500 58.76400 41.22600
H  2.56500 58.93900 41.10600
H  3.63900 59.57800 39.89800
H  0.61400 55.64600 39.31900
H  1.84000 56.07100 38.02600
H  0.79600 58.04100 37.78500
H  0.30900 58.13700 39.53700
H  -0.51900 57.11700 38.46200
H  0.43000 51.13300 42.41000
H  0.26900 50.80400 40.58400
H  0.20200 52.42300 41.22800
H  5.14300 48.37400 41.22200
H  3.90700 45.83300 38.10600
H  5.08800 44.75500 38.73800
H  5.57000 46.06600 37.51700

