158

Mg -1.31700 17.35000 26.76900
C  -1.99800 15.15000 29.41400
C  -2.03900 19.94400 29.02000
C  -1.23100 19.55000 24.18200
C  -1.33400 14.63700 24.65000
N  -2.00100 17.50300 28.98400
C  -2.18700 16.49800 29.79700
C  -2.51000 16.92000 31.27100
C  -2.66500 18.46400 31.06500
C  -2.20700 18.66600 29.56600
C  -4.01200 19.13700 31.47000
C  -1.53200 16.53500 32.44200
C  -1.50900 17.26200 33.77200
H  -0.27800 17.04500 34.60700
N  -1.52000 19.42900 26.60600
C  -1.79600 20.34900 27.64300
C  -1.77500 21.66500 27.14000
C  -1.64900 21.57300 25.74200
C  -1.43200 20.15300 25.44800
C  -2.05600 22.82800 28.03900
C  -1.75600 22.65300 24.67200
O  -1.74900 22.48400 23.47200
C  -1.91000 24.07200 25.09500
N  -1.39900 17.17700 24.79100
C  -1.22600 18.16800 23.87500
C  -0.88800 17.65400 22.42900
C  -0.73700 16.16900 22.75800
C  -1.17900 15.97400 24.18600
C  -1.98700 18.05600 21.44100
C  0.60200 15.55600 22.46100
C  1.76500 16.19700 23.26400
N  -1.54900 15.30900 26.97700
C  -1.54400 14.33700 26.03700
C  -1.81700 13.06500 26.53300
C  -1.88000 13.29200 27.93900
C  -1.73200 14.70900 28.11200
C  -1.96200 11.75700 25.71300
C  -2.14200 12.65100 29.18000
O  -2.26900 11.47100 29.51700
C  -2.24000 13.83600 30.20200
C  -1.19000 13.53400 31.16400
O  -0.08900 13.93300 31.10100
O  -1.85100 12.95600 32.21200
C  -0.99300 12.66500 33.37200
H  -2.23500 20.72100 29.76200
H  -1.14400 20.16200 23.28100
H  -1.35900 13.87400 23.87000
H  -3.42400 16.36000 31.46900
H  -1.84700 19.01100 31.53400
H  -4.70000 18.30300 31.60900
H  -4.34300 19.73700 30.62200
H  -3.92100 19.86300 32.27800
H  -0.55900 16.42800 31.96300
H  -1.76500 15.51100 32.73600
H  -2.36300 16.94100 34.36900
H  -1.58200 18.34800 33.72000
H  -3.11900 22.99900 27.87300
H  -1.48000 23.71500 27.77400
H  -1.93500 22.67800 29.11200
H  -1.09100 24.36300 25.75200
H  -2.89900 24.17100 25.54300
H  -1.72600 24.73500 24.25000
H  0.04000 18.10900 22.08300
H  -1.45200 15.65700 22.11400
H  -2.72100 18.79300 21.76500
H  -2.49000 17.12100 21.19200
H  -1.45300 18.59000 20.65500
H  0.71300 15.67700 21.38300
H  0.60000 14.48400 22.65900
H  1.43500 16.79700 24.11200
H  2.22200 16.77400 22.46100
H  2.47500 15.41900 23.54500
H  -0.94900 11.53100 25.37700
H  -2.60300 11.79000 24.83200
H  -2.36200 11.03200 26.42100
H  -3.20900 13.91400 30.69500
H  -0.55800 11.66700 33.33100
H  -1.64100 12.75100 34.24400
H  -0.18900 13.39000 33.49600
Mg 36.53100 2.46000 30.66300
C  33.67000 3.46500 32.59300
C  38.28400 2.79100 33.66800
C  39.20700 1.91400 28.95800
C  34.54000 2.66300 27.84500
N  35.97900 3.21400 32.82700
C  34.80600 3.37200 33.38600
C  34.83800 3.56100 34.91500
C  36.42300 3.63400 35.13500
C  36.95900 3.19700 33.77600
C  36.96800 5.08800 35.43100
C  34.06700 2.38200 35.62600
C  33.55300 2.43600 37.13600
H  34.21100 3.44500 38.07100
N  38.49800 2.26800 31.34700
C  39.05500 2.33500 32.54600
C  40.43400 1.93000 32.51700
C  40.75200 1.80900 31.14300
C  39.46400 2.04000 30.40900
C  41.23300 1.60300 33.70000
C  42.11700 1.45100 30.48000
O  42.32400 1.35000 29.29000
C  43.36500 1.24700 31.36700
N  36.83000 2.32800 28.67000
C  38.05700 2.08700 28.20600
C  38.00100 2.01000 26.69900
C  36.46200 2.16800 26.36900
C  35.89700 2.41400 27.73700
C  38.77200 3.15400 26.06100
C  35.75400 1.08000 25.58200
C  35.59700 -0.27300 26.29800
N  34.48800 2.91400 30.28900
C  33.83200 2.91200 29.06900
C  32.40800 3.23600 29.21200
C  32.34300 3.40500 30.60900
C  33.61400 3.24900 31.16800
C  31.36100 3.15400 28.19100
C  31.40300 3.68500 31.73800
O  30.18700 3.85800 31.68200
C  32.25500 3.64000 33.06900
C  32.06700 4.90600 33.89600
O  32.62300 5.96300 33.70800
O  31.18800 4.75700 34.95600
C  31.29200 5.82000 35.98200
H  38.81700 2.72500 34.61800
H  40.03700 1.61600 28.31400
H  33.91500 2.76900 26.95500
H  34.44400 4.55200 35.14100
H  36.81300 2.98000 35.91500
H  37.25900 5.09900 36.48100
H  36.25300 5.89500 35.27000
H  37.79800 5.29600 34.75500
H  34.74400 1.53200 35.70900
H  33.26900 1.99400 34.99300
H  33.70600 1.46900 37.61300
H  32.48600 2.64800 37.08000
H  41.56800 0.56700 33.65500
H  40.72200 1.72700 34.65400
H  42.13900 2.18900 33.85300
H  43.38200 0.32000 31.94100
H  43.28400 2.11700 32.01900
H  44.25900 1.23200 30.74300
H  38.33900 1.08100 26.23900
H  36.28800 3.11700 25.86200
H  39.84100 3.02000 26.22400
H  38.41200 4.03100 26.60000
H  38.60800 3.29000 24.99200
H  36.26100 0.95000 24.62600
H  34.77300 1.48900 25.34000
H  35.86000 -0.28100 27.35500
H  36.12700 -1.09300 25.81400
H  34.54600 -0.56200 26.26500
H  31.33700 3.95800 27.45600
H  30.39700 3.11700 28.69800
H  31.55100 2.16600 27.77100
H  31.89100 2.78200 33.63500
H  30.79000 6.75800 35.74400
H  32.32700 6.00700 36.26800
H  30.74100 5.47000 36.85500

