158

Mg 0.79000 42.81500 25.35800
C  2.16000 43.04800 28.68600
C  -2.22300 42.26200 26.66400
C  -0.35600 42.35100 22.23000
C  3.88700 43.36100 24.16400
N  0.14400 42.60200 27.53000
C  0.75400 42.77100 28.70400
C  -0.22000 42.68300 29.82000
C  -1.57400 42.28400 29.09100
C  -1.18900 42.41700 27.61900
C  -2.05100 40.86100 29.47300
C  -0.40700 44.03400 30.50700
C  -1.28800 44.00600 31.82900
H  -2.26200 42.83600 32.09800
N  -1.10900 42.34700 24.57800
C  -2.22000 42.15300 25.24600
C  -3.30300 41.90200 24.27500
C  -2.65800 41.89400 22.97900
C  -1.27800 42.21700 23.23500
C  -4.74300 41.64700 24.78800
C  -3.27900 41.65400 21.66400
O  -2.67800 41.65500 20.56000
C  -4.72800 41.37300 21.62500
N  1.60900 42.79700 23.48000
C  0.95700 42.59400 22.35300
C  1.88500 42.65400 21.12200
C  3.12100 43.29500 21.75300
C  2.90000 43.06200 23.22400
C  2.11400 41.40000 20.26100
C  3.40100 44.78600 21.39300
C  2.94300 45.98500 22.28600
N  2.59800 43.25900 26.20500
C  3.77500 43.49600 25.58000
C  4.88900 43.81300 26.54700
C  4.25700 43.61700 27.76100
C  2.88800 43.30900 27.51900
C  6.40000 44.18100 26.20500
C  4.45300 43.61100 29.19600
O  5.42800 43.77700 29.92200
C  3.06400 43.22400 29.83600
C  3.24500 41.99500 30.57100
O  3.88700 41.00600 30.20500
O  2.55700 42.12000 31.75100
C  2.44200 40.89100 32.58700
H  -3.18500 42.00900 27.11600
H  -0.58800 42.26600 21.16700
H  4.82500 43.73600 23.75000
H  0.06800 41.97700 30.59900
H  -2.32900 43.03200 29.33100
H  -3.12200 40.89100 29.67300
H  -1.46500 40.34100 30.23000
H  -1.82800 40.26000 28.59100
H  -0.92300 44.71700 29.83300
H  0.60200 44.35500 30.76700
H  -2.05400 44.76800 31.68800
H  -0.75300 44.27700 32.73900
H  -5.40300 42.42900 24.41100
H  -4.75900 41.62400 25.87800
H  -5.02600 40.67000 24.39800
H  -4.95200 40.46900 22.19200
H  -5.02000 41.11000 20.60800
H  -5.35600 42.16300 22.03600
H  1.30900 43.35200 20.51500
H  4.01500 42.73200 21.48600
H  3.15000 41.19000 19.99600
H  1.54800 41.52000 19.33700
H  1.85300 40.51100 20.83500
H  3.09500 45.00700 20.37000
H  4.49000 44.78200 21.36300
H  2.54800 45.74300 23.27300
H  2.25200 46.57700 21.68500
H  3.76300 46.68700 22.43500
H  7.22600 43.50100 26.41400
H  6.54300 45.17400 26.63000
H  6.56300 44.40500 25.15100
H  2.73300 43.97400 30.55300
H  2.56300 41.24400 33.61100
H  3.12400 40.05900 32.41000
H  1.39200 40.61200 32.50900
Mg -12.41200 17.38900 41.49500
C  -9.25800 15.65400 40.82800
C  -10.91400 20.15400 40.12700
C  -15.45700 18.76200 41.58300
C  -13.78700 14.25100 42.23000
N  -10.22400 17.79000 40.65400
C  -9.17500 17.01500 40.53200
C  -8.02300 17.83400 39.84800
C  -8.52200 19.28500 39.92700
C  -9.96200 19.08800 40.20200
C  -7.90700 20.06700 41.09400
C  -7.79000 17.36000 38.36000
C  -6.38600 17.00400 37.88400
H  -6.31500 15.73800 37.08200
N  -13.08800 19.29100 41.03600
C  -12.30900 20.28700 40.42000
C  -13.16700 21.48200 40.33600
C  -14.52600 21.14900 40.67700
C  -14.42300 19.71700 41.14200
C  -12.59500 22.87500 39.89100
C  -15.73000 21.91800 40.57500
O  -15.71600 23.08600 40.22100
C  -17.20900 21.33800 40.92600
N  -14.38900 16.54900 41.63100
C  -15.52200 17.34100 41.74000
C  -16.74400 16.55300 42.14500
C  -16.13100 15.19700 42.52400
C  -14.67300 15.36500 42.15300
C  -17.55600 17.17000 43.28700
C  -16.76500 14.10100 41.62100
C  -17.12000 12.86400 42.37300
N  -11.66900 15.38000 41.48300
C  -12.34200 14.27200 41.94400
C  -11.53000 13.10000 41.81000
C  -10.28300 13.61700 41.48400
C  -10.42600 14.96800 41.25200
C  -11.97500 11.72300 42.16100
C  -8.87400 13.24900 41.28000
O  -8.18000 12.22700 41.33100
C  -8.14700 14.59600 40.85200
C  -7.15600 14.93200 41.91200
O  -7.48900 15.27100 43.00700
O  -5.90300 14.79000 41.47600
C  -4.88300 15.24000 42.45400
H  -10.48900 21.14400 39.95100
H  -16.51300 19.04100 41.57300
H  -14.35600 13.36400 42.51900
H  -7.05600 17.61800 40.30100
H  -8.29400 19.80700 38.99800
H  -6.94300 19.69800 41.44500
H  -8.68700 20.04600 41.85400
H  -7.83300 21.13700 40.90000
H  -8.14400 18.03400 37.58000
H  -8.49400 16.52800 38.38400
H  -5.62400 16.90600 38.65700
H  -6.03100 17.84800 37.29200
H  -11.92400 22.73100 39.04400
H  -11.79200 22.98800 40.61900
H  -13.34300 23.66800 39.88200
H  -17.28000 20.49400 40.24000
H  -17.99000 22.03600 40.62400
H  -17.22400 21.10800 41.99100
H  -17.16200 16.48900 41.14000
H  -16.20400 14.97800 43.59000
H  -17.65600 16.61700 44.22100
H  -18.59300 17.16700 42.95000
H  -17.35800 18.23400 43.41700
H  -15.96700 13.75600 40.96400
H  -17.68100 14.37300 41.09700
H  -17.02100 13.03600 43.44500
H  -16.41200 12.07600 42.11700
H  -18.14400 12.53900 42.18800
H  -12.62900 11.35400 41.37100
H  -12.52800 11.71900 43.10100
H  -11.23600 10.92600 42.23800
H  -7.61300 14.57500 39.90200
H  -4.06100 14.52600 42.40300
H  -5.26600 15.39100 43.46400
H  -4.59100 16.24200 42.14200

