158

Mg 42.62800 41.87600 26.24600
C  42.01700 44.09100 28.70400
C  43.85800 39.62900 28.62600
C  43.85800 39.75200 23.75700
C  42.13200 44.35400 23.80900
N  42.76900 41.82100 28.39800
C  42.33100 42.79800 29.17800
C  42.47600 42.41400 30.68700
C  43.43700 41.15900 30.61300
C  43.32600 40.80000 29.15100
C  44.92400 41.34600 31.03900
C  41.03000 42.19300 31.28800
C  40.75600 42.88700 32.62400
H  41.78400 42.69100 33.78600
N  43.50000 39.85100 26.21500
C  43.86900 39.12800 27.32200
C  44.33500 37.81300 26.94200
C  44.44900 37.88400 25.47700
C  43.85800 39.20700 25.04200
C  44.54600 36.75900 27.93700
C  44.96300 36.82400 24.53100
O  45.06300 36.93600 23.34400
C  45.46000 35.43500 25.21700
N  42.92500 42.00300 24.13800
C  43.45700 41.01000 23.30300
C  43.40700 41.36200 21.86100
C  42.67100 42.76400 21.85000
C  42.53400 43.06500 23.33400
C  44.92400 41.45000 21.29600
C  41.33400 42.72700 21.14000
C  40.29200 41.83900 21.77200
N  42.06800 43.82800 26.15300
C  41.96200 44.74100 25.14500
C  41.59600 46.04000 25.75700
C  41.53400 45.80900 27.19000
C  41.89300 44.50600 27.31800
C  41.33000 47.23000 24.96800
C  41.33800 46.46200 28.42400
O  41.03400 47.57100 28.70300
C  41.54500 45.33100 29.53300
C  42.54100 45.80000 30.50400
O  43.69600 45.89900 30.20100
O  42.00000 46.14100 31.73800
C  42.92200 46.61900 32.76500
H  44.28200 38.91100 29.33100
H  44.29300 39.04100 23.05100
H  41.96500 45.16800 23.10000
H  42.89200 43.25500 31.24200
H  43.00100 40.33600 31.17900
H  45.66200 41.26700 30.24100
H  45.06100 40.48500 31.69300
H  44.95600 42.20800 31.70400
H  40.78000 41.13200 31.27800
H  40.29000 42.62100 30.61200
H  39.77900 42.56000 32.98000
H  40.60500 43.90500 32.26500
H  43.98100 36.94300 28.85100
H  45.60400 36.61600 28.15500
H  44.21100 35.73600 27.76600
H  44.54700 34.87400 25.41900
H  46.03700 35.45600 26.14200
H  46.03200 34.83400 24.51000
H  42.84000 40.58500 21.34700
H  43.34200 43.46800 21.35800
H  45.71200 41.06800 21.94500
H  45.23500 42.44800 20.98500
H  44.93400 40.75800 20.45500
H  41.48400 42.48200 20.08800
H  40.90100 43.72700 21.13600
H  40.48700 41.42000 22.76000
H  39.97100 41.08600 21.05300
H  39.38600 42.38900 22.02400
H  42.04800 47.16100 24.15100
H  41.53000 48.15700 25.50500
H  40.32400 47.30200 24.55500
H  40.61500 45.12500 30.06300
H  43.40000 47.54500 32.44500
H  43.67600 45.83500 32.83100
H  42.43600 46.92300 33.69200
Mg 16.90300 51.49500 26.49600
C  18.84300 50.38800 29.13800
C  14.49800 52.49600 28.60500
C  15.22000 52.44700 23.78600
C  19.46800 50.22700 24.22400
N  16.81500 51.65400 28.68300
C  17.65100 51.03100 29.56800
C  17.07400 51.11000 30.97800
C  15.66100 51.68800 30.85500
C  15.59700 51.91800 29.27100
C  14.53100 50.80500 31.41700
C  18.05800 51.71800 32.00300
C  17.50400 52.52000 33.21600
H  16.51700 51.78900 34.10200
N  15.16500 52.43400 26.31500
C  14.29600 52.75200 27.30300
C  13.14300 53.45300 26.64200
C  13.41900 53.52700 25.23800
C  14.61800 52.74800 25.05700
C  12.07600 54.00500 27.50000
C  12.51500 54.16100 24.13300
O  12.71500 54.03100 22.92600
C  11.24100 54.92800 24.49200
N  17.24900 51.24800 24.24500
C  16.40500 51.81400 23.35400
C  16.83600 51.66800 21.93200
C  18.37700 51.27100 22.06800
C  18.39200 50.83200 23.57600
C  16.03700 50.58200 21.14200
C  19.42800 52.39100 21.79700
C  20.80600 51.86400 21.29500
N  18.74000 50.40700 26.59300
C  19.68500 50.06400 25.58700
C  20.79000 49.49900 26.20700
C  20.52100 49.51200 27.58400
C  19.28800 50.20400 27.80200
C  22.02400 48.93100 25.45400
C  21.03600 49.20600 28.97300
O  22.02700 48.62500 29.39500
C  19.97600 49.79400 29.99100
C  19.47100 48.62700 30.67900
O  18.60800 47.86000 30.25900
O  19.95200 48.54900 31.93200
C  19.24000 47.56900 32.70500
H  13.67500 52.81500 29.24900
H  14.77500 52.98100 22.94300
H  20.27300 49.96600 23.53400
H  16.96900 50.04500 31.18100
H  15.62300 52.70000 31.25900
H  13.93300 51.34800 32.14800
H  14.94000 49.91600 31.89700
H  13.85800 50.50900 30.61200
H  18.89200 52.25400 31.55000
H  18.52500 50.85800 32.48200
H  16.96500 53.39200 32.84600
H  18.37000 52.85800 33.78600
H  12.33200 55.04700 27.69500
H  11.77200 53.43000 28.37500
H  11.12400 54.14400 26.98900
H  10.64400 54.05300 24.74900
H  10.79500 55.57500 23.73800
H  11.39600 55.53200 25.38600
H  16.81000 52.69300 21.56200
H  18.64700 50.32900 21.59000
H  16.75900 49.87500 20.73400
H  15.53600 51.18700 20.38600
H  15.41100 50.20100 21.94900
H  19.63000 52.83500 22.77200
H  18.89500 53.08000 21.14200
H  21.04300 52.44800 20.40600
H  20.67200 50.82100 21.00900
H  21.60000 51.94500 22.03700
H  22.85200 48.78300 26.14700
H  22.27900 49.63500 24.66200
H  21.90100 47.96000 24.97600
H  20.55400 50.38100 30.70500
H  19.84800 47.46600 33.60300
H  19.22500 46.56700 32.27700
H  18.23700 47.86700 33.01200

