158

Mg 41.88400 42.33000 26.41100
C  41.19000 44.56200 28.94100
C  42.70100 39.91100 28.85100
C  42.57700 40.12800 24.01600
C  41.29800 44.86100 24.04100
N  41.77500 42.21400 28.62600
C  41.46800 43.26200 29.40700
C  41.55800 42.78100 30.93600
C  42.28200 41.40300 30.89200
C  42.34900 41.19200 29.40600
C  43.60100 41.19600 31.60900
C  40.09500 42.72400 31.50000
C  39.95500 43.37300 32.86900
H  39.28700 42.58900 33.93700
N  42.56300 40.32500 26.43700
C  42.62900 39.53000 27.54800
C  43.10100 38.16800 27.04900
C  42.99500 38.17500 25.60900
C  42.69800 39.57500 25.29600
C  43.54900 37.06300 27.94900
C  42.99200 37.04900 24.59500
O  42.63100 37.22100 23.46300
C  43.28000 35.64800 25.02500
N  41.97400 42.46400 24.36200
C  42.24100 41.40700 23.61300
C  42.11800 41.79000 22.12500
C  41.44400 43.22400 22.14400
C  41.68300 43.58400 23.61100
C  43.53300 41.62700 21.56200
C  39.91100 43.25500 21.84400
C  39.02700 42.20400 22.47600
N  41.39400 44.29900 26.41500
C  41.09500 45.19100 25.39200
C  40.65400 46.42700 25.96200
C  40.66100 46.19100 27.38000
C  41.13600 44.91700 27.56300
C  40.29400 47.69200 25.19900
C  40.37800 46.81000 28.62300
O  39.95500 47.92900 28.96800
C  40.63700 45.73900 29.69700
C  41.62200 46.30400 30.69700
O  42.69900 46.89200 30.36400
O  41.27200 46.14800 31.99700
C  42.15300 46.86200 32.90600
H  42.80100 39.16700 29.64400
H  42.93600 39.49700 23.20100
H  40.93200 45.63600 23.36500
H  42.12500 43.52000 31.50300
H  41.62700 40.63900 31.31200
H  44.46100 41.12000 30.94400
H  43.51300 40.27000 32.17700
H  43.69800 42.06200 32.26400
H  39.67800 41.71700 31.53300
H  39.54300 43.31500 30.76900
H  39.50500 44.36400 32.81300
H  40.94600 43.52000 33.29900
H  42.91400 36.20600 27.72300
H  43.34700 37.33200 28.98500
H  44.56500 36.74700 27.71100
H  42.42600 35.15700 25.49200
H  44.22900 35.63900 25.56000
H  43.48100 34.87000 24.28900
H  41.46500 41.06300 21.64200
H  41.96900 43.97100 21.54800
H  43.50800 40.90000 20.75000
H  44.25600 41.27100 22.29600
H  43.93800 42.59200 21.25800
H  39.73900 43.07200 20.78400
H  39.49700 44.24800 22.02100
H  38.24200 42.83800 22.88700
H  39.48300 41.70100 23.33000
H  38.59900 41.53800 21.72700
H  39.54600 47.46600 24.44000
H  41.20700 47.81000 24.61500
H  40.04100 48.53900 25.83600
H  39.73700 45.55000 30.28100
H  42.24600 47.89000 32.55500
H  43.12800 46.37600 32.94000
H  41.70200 46.73700 33.89100
Mg 9.39100 48.43200 25.86300
C  7.36300 48.98800 28.72700
C  12.07000 50.10800 27.63600
C  11.43200 48.23200 23.10100
C  6.68000 47.42800 24.16400
N  9.68600 49.40600 27.99000
C  8.73000 49.51300 28.97400
C  9.43400 49.86100 30.27600
C  10.82200 50.41600 29.82900
C  10.87200 50.01100 28.36700
C  11.10100 51.92900 30.09400
C  9.50600 48.68900 31.19800
C  9.11000 48.98100 32.67400
H  8.91500 47.80200 33.61400
N  11.46100 48.94300 25.47100
C  12.31700 49.69700 26.30000
C  13.60500 49.60800 25.72000
C  13.45400 49.06200 24.39600
C  12.08600 48.67600 24.27300
C  14.84300 50.28000 26.43000
C  14.63000 48.84900 23.38800
O  14.39900 48.32900 22.29800
C  16.09000 49.41000 23.58700
N  9.19200 47.89600 23.89600
C  10.10900 47.91200 22.92200
C  9.47700 47.48400 21.53300
C  8.09600 46.97000 22.01200
C  7.94600 47.42900 23.43500
C  9.46800 48.69800 20.57200
C  7.90900 45.40300 21.89100
C  8.57600 44.52500 22.96200
N  7.34100 48.22600 26.25000
C  6.32800 47.95200 25.40600
C  5.12200 47.91500 26.13600
C  5.44900 48.35800 27.40400
C  6.86400 48.57700 27.45800
C  3.83000 47.57900 25.56500
C  4.83500 48.69300 28.74400
O  3.69100 48.76200 29.10400
C  6.13000 48.89900 29.69100
C  6.15000 47.67300 30.53000
O  6.73200 46.60900 30.25000
O  5.21200 47.74800 31.54000
C  5.04100 46.46000 32.32100
H  12.86800 50.63300 28.16500
H  12.07900 48.07700 22.23600
H  5.85400 46.98900 23.60100
H  8.90900 50.70200 30.72800
H  11.66700 49.84000 30.20500
H  10.71300 52.41400 29.19800
H  12.16500 52.16100 30.13000
H  10.58300 52.25600 30.99500
H  10.50100 48.25500 31.09400
H  8.89800 47.84400 30.87600
H  8.12900 49.42800 32.51700
H  9.81100 49.66700 33.15000
H  14.68500 50.59900 27.46000
H  15.19900 51.16300 25.90000
H  15.64600 49.54300 26.43800
H  15.89800 50.45000 23.32500
H  16.74300 48.98800 22.82200
H  16.46600 49.15700 24.57800
H  10.15500 46.72500 21.14400
H  7.39900 47.39600 21.29100
H  9.70600 49.63300 21.08000
H  8.49300 48.85500 20.11000
H  10.27900 48.58900 19.85100
H  8.37200 45.16300 20.93300
H  6.85600 45.12300 21.89200
H  9.37600 45.01300 23.51900
H  8.95000 43.68500 22.37700
H  7.87200 44.25000 23.74700
H  3.64200 46.51500 25.42700
H  3.83600 48.10200 24.60800
H  3.03700 47.92700 26.22700
H  5.98600 49.84900 30.20600
H  5.39700 46.70900 33.32100
H  5.61200 45.60900 31.95100
H  4.00200 46.14900 32.43200

