158

Mg -1.63200 17.21900 26.67300
C  -2.07800 14.83600 29.07200
C  -2.42300 19.60800 28.85900
C  -1.47200 19.37900 24.11400
C  -1.87800 14.62200 24.18100
N  -1.86400 17.18900 28.78800
C  -1.94200 16.11400 29.57700
C  -2.10600 16.57900 31.06400
C  -2.73500 18.04600 30.90700
C  -2.39100 18.31900 29.38900
C  -4.19600 18.34300 31.23900
C  -0.68400 16.63200 31.67000
C  -0.52400 17.22800 33.10400
H  -0.29900 16.30200 34.32500
N  -1.77500 19.21800 26.49000
C  -1.96300 20.06600 27.62200
C  -1.94900 21.49500 27.18000
C  -1.74000 21.44700 25.72600
C  -1.62500 19.97900 25.35700
C  -2.37900 22.63500 28.07300
C  -1.79000 22.55700 24.73100
O  -1.68000 22.40900 23.51700
C  -1.89600 23.90200 25.30500
N  -1.59400 16.99700 24.52800
C  -1.51600 18.08900 23.69400
C  -1.60700 17.68800 22.25300
C  -1.46400 16.16100 22.25000
C  -1.64900 15.92500 23.72700
C  -2.88800 18.20900 21.54200
C  -0.12500 15.64800 21.55300
C  1.07400 15.36200 22.52100
N  -1.87900 15.13400 26.58600
C  -2.02900 14.21800 25.51800
C  -2.20400 12.89300 26.01000
C  -2.21900 13.10400 27.41600
C  -2.03500 14.49200 27.69600
C  -2.09200 11.73700 25.23200
C  -2.24800 12.46900 28.72500
O  -2.30100 11.27400 29.03200
C  -2.41300 13.58900 29.81300
C  -1.53700 13.37800 30.98000
O  -0.39500 13.05700 31.06300
O  -2.38700 13.55000 32.05700
C  -1.86200 13.46800 33.44100
H  -2.64200 20.34800 29.63200
H  -1.34000 20.12600 23.32700
H  -1.93600 13.82200 23.44000
H  -2.78800 15.87600 31.54200
H  -2.21300 18.74600 31.56000
H  -4.13300 19.23500 31.86200
H  -4.61700 17.46100 31.72100
H  -4.77200 18.61600 30.35400
H  0.03700 17.06700 30.97900
H  -0.28300 15.63900 31.87300
H  -1.47900 17.74300 33.20800
H  0.25600 17.99000 33.11300
H  -2.76500 22.29500 29.03500
H  -3.21900 23.04600 27.51400
H  -1.47100 23.22400 28.20100
H  -1.74800 24.61100 24.49000
H  -1.02900 23.94100 25.96300
H  -2.88800 24.05400 25.73200
H  -0.82000 18.19700 21.69600
H  -2.34100 15.61800 21.89800
H  -3.59100 17.37900 21.48400
H  -2.63700 18.40500 20.49900
H  -3.29600 19.10000 22.02000
H  0.24700 16.45700 20.92400
H  -0.34300 14.82900 20.86900
H  0.77700 15.27800 23.56600
H  1.79500 16.17800 22.47500
H  1.63500 14.49400 22.17700
H  -2.95800 11.54100 24.60000
H  -2.07900 10.93300 25.96700
H  -1.13000 11.77300 24.72200
H  -3.47100 13.68200 30.05900
H  -2.40200 14.16600 34.08100
H  -0.80800 13.74400 33.48200
H  -1.89500 12.43500 33.78700
Mg 0.75800 -1.69400 43.78100
C  4.24800 -1.51200 42.90300
C  0.32700 1.29200 42.12500
C  -2.32900 -2.34500 43.88200
C  1.58600 -4.96300 45.07600
N  2.16800 -0.22600 42.74400
C  3.46800 -0.44900 42.41100
C  3.99400 0.70700 41.46200
C  2.83600 1.75600 41.55600
C  1.72100 0.90400 42.16100
C  3.14700 3.07300 42.33600
C  4.18200 0.13200 40.01800
C  5.36300 0.73500 39.27900
H  5.24600 1.41000 37.89000
N  -0.81300 -0.71900 43.03400
C  -0.80400 0.48700 42.45000
C  -2.20000 0.94800 42.26200
C  -2.97900 -0.16000 42.60100
C  -2.02400 -1.13700 43.18200
C  -2.63400 2.33500 41.80800
C  -4.48200 -0.19200 42.48200
O  -5.14200 0.85900 42.34800
C  -5.32300 -1.46100 42.55200
N  -0.24600 -3.36300 44.56000
C  -1.60500 -3.35600 44.49100
C  -2.22200 -4.61200 45.05900
C  -0.96300 -5.47400 45.40000
C  0.20800 -4.60500 44.89600
C  -3.36200 -4.62500 46.13100
C  -0.95200 -6.91900 44.75300
C  -0.03200 -7.94400 45.38700
N  2.52200 -2.93000 44.24200
C  2.70400 -4.17700 44.78500
C  4.09800 -4.47000 44.86300
C  4.77900 -3.53800 44.11300
C  3.75100 -2.60500 43.71000
C  4.75700 -5.77200 45.36500
C  6.08900 -3.13600 43.62800
O  7.24700 -3.60600 43.57100
C  5.71300 -1.87200 42.73300
C  6.62400 -0.65400 42.94600
O  6.63800 0.13500 43.83500
O  7.55200 -0.57400 41.91200
C  8.45000 0.60800 41.98500
H  0.11800 2.25200 41.65000
H  -3.39300 -2.50400 44.07400
H  1.86000 -5.96400 45.41600
H  4.86700 1.15600 41.93500
H  2.62300 2.03800 40.52500
H  3.26300 3.86000 41.59200
H  4.08500 2.87000 42.85300
H  2.35000 3.23500 43.06200
H  3.25000 0.29800 39.47800
H  4.19000 -0.95800 40.01000
H  6.18400 0.01900 39.26700
H  5.64200 1.60100 39.88000
H  -3.68600 2.57300 41.96400
H  -2.45300 2.60100 40.76700
H  -2.05600 3.02300 42.42500
H  -6.18900 -1.28800 41.91200
H  -5.77300 -1.55100 43.54100
H  -4.77500 -2.33700 42.20300
H  -2.56500 -5.02400 44.10900
H  -0.87100 -5.69700 46.46300
H  -4.30800 -4.86000 45.64300
H  -3.43400 -3.64000 46.59300
H  -3.26400 -5.25700 47.01400
H  -0.47000 -6.85700 43.77700
H  -1.93700 -7.38300 44.71000
H  -0.62300 -8.84100 45.57500
H  0.24400 -7.65600 46.40100
H  0.88400 -8.11200 44.82100
H  4.53600 -6.48800 44.57300
H  4.28600 -6.02000 46.31700
H  5.81900 -5.78100 45.61000
H  5.72200 -2.13500 41.67500
H  8.41000 0.95800 40.95400
H  9.48200 0.31700 42.18100
H  8.18500 1.47000 42.59800

