158

Mg 26.01200 0.89000 29.26800
C  27.69300 0.56300 32.19200
C  23.05500 1.42700 30.88600
C  24.57400 0.92000 26.16800
C  29.14900 0.18400 27.61100
N  25.32700 0.66600 31.36100
C  26.28700 0.79700 32.32900
C  25.53700 1.21400 33.69100
C  24.14500 1.37000 33.23700
C  24.13500 1.18900 31.74300
C  23.17100 0.41100 34.01200
C  26.14700 2.46600 34.30600
C  26.85900 2.24900 35.65600
H  26.44200 3.11100 36.89300
N  24.14000 1.09100 28.61300
C  23.03800 1.33400 29.44500
C  21.86100 1.36900 28.59400
C  22.25100 1.23100 27.29000
C  23.69600 1.08100 27.31500
C  20.48400 1.50600 29.24600
C  21.47700 1.45200 25.97300
O  21.91000 1.23000 24.85500
C  20.01200 1.85300 26.09300
N  26.74700 0.67000 27.19000
C  25.96100 0.85400 26.11000
C  26.73900 0.58500 24.81400
C  28.23600 0.59300 25.25100
C  28.08400 0.55200 26.79100
C  26.34000 -0.66300 23.94600
C  29.16200 1.80000 24.83200
C  29.74000 1.64100 23.47500
N  27.99500 0.20800 29.73600
C  29.19000 0.06000 28.95200
C  30.26800 -0.18700 29.83200
C  29.69800 0.04600 31.11300
C  28.33100 0.26600 31.03100
C  31.62700 -0.66100 29.56700
C  30.02500 0.12700 32.56100
O  31.04700 0.06400 33.21800
C  28.73400 0.44000 33.27100
C  28.50100 -0.67300 34.27000
O  27.86800 -1.72300 34.05600
O  28.88300 -0.26000 35.53600
C  28.45100 -1.13900 36.65100
H  22.19200 1.88100 31.37800
H  24.17900 0.91400 25.15000
H  30.10700 0.02600 27.11200
H  25.67700 0.35200 34.34300
H  23.81700 2.37300 33.51200
H  23.66700 -0.49400 34.36200
H  22.35200 0.20900 33.32200
H  22.85400 0.89100 34.93700
H  25.37200 3.18100 34.58300
H  26.93200 2.82800 33.64300
H  27.89200 2.56200 35.50400
H  26.90800 1.18300 35.87800
H  19.79600 0.76900 28.83400
H  20.05700 2.50100 29.11700
H  20.32200 1.18500 30.27500
H  19.41700 1.11700 26.63300
H  19.49000 2.05200 25.15700
H  19.86600 2.76400 26.67400
H  26.61200 1.36300 24.06000
H  28.71000 -0.34700 24.96900
H  25.62000 -1.31000 24.44700
H  27.22700 -1.18600 23.59000
H  25.79900 -0.26600 23.08700
H  30.02800 2.03600 25.45000
H  28.52900 2.68400 24.75600
H  29.55500 0.66600 23.02500
H  30.80700 1.86400 23.49300
H  29.32300 2.35200 22.76200
H  32.24700 0.06400 29.04000
H  31.65800 -1.57100 28.97000
H  32.09000 -0.94800 30.51100
H  28.99300 1.39200 33.73600
H  28.71400 -2.17900 36.45400
H  27.37400 -1.06100 36.79800
H  28.99200 -0.81000 37.53800
Mg 16.96200 51.52200 25.48200
C  18.77800 50.27100 28.33800
C  14.44600 52.44500 27.64600
C  15.67400 52.98000 22.97800
C  19.54700 50.22600 23.56800
N  16.64500 51.26500 27.68800
C  17.46000 50.75500 28.66000
C  16.91500 51.21100 30.02800
C  15.41200 51.41000 29.78000
C  15.51000 51.74300 28.25400
C  14.57300 50.10600 30.04900
C  17.67100 52.47000 30.56400
C  17.98800 52.48700 32.10500
H  17.02100 51.84700 33.17100
N  15.18600 52.65100 25.29500
C  14.29300 52.91500 26.28500
C  13.25000 53.76900 25.67900
C  13.58000 53.93300 24.27300
C  14.86200 53.24700 24.12700
C  12.00000 54.07900 26.36000
C  12.85200 54.73700 23.14800
O  13.23400 54.82300 21.99600
C  11.70300 55.54700 23.51700
N  17.49500 51.45200 23.59300
C  16.82400 52.25000 22.74000
C  17.44700 52.29800 21.31800
C  18.69800 51.37100 21.54900
C  18.58800 50.97500 23.00900
C  16.52400 51.89200 20.16200
C  20.03100 52.03100 21.19800
C  20.48200 51.58300 19.87600
N  18.69900 50.26900 25.80500
C  19.70700 49.90100 24.91800
C  20.80500 49.26600 25.56700
C  20.53800 49.35700 26.90900
C  19.22800 50.01100 27.01500
C  22.06600 48.78000 24.82100
C  21.04600 49.07000 28.28000
O  22.09500 48.57500 28.75500
C  19.82600 49.66900 29.29300
C  19.35800 48.61000 30.06400
O  19.05000 47.44100 29.72100
O  19.42700 48.92800 31.42600
C  18.95800 47.93200 32.39200
H  13.66600 52.88300 28.27200
H  15.28300 53.49500 22.09800
H  20.32700 49.85700 22.89900
H  17.07800 50.32700 30.64500
H  15.00700 52.25500 30.33800
H  13.61900 50.30500 30.53700
H  15.09200 49.43600 30.73500
H  14.28900 49.72000 29.07000
H  17.08200 53.36600 30.36900
H  18.60000 52.52300 29.99500
H  18.01800 53.53900 32.39000
H  18.92700 51.96100 32.27900
H  11.19200 53.73600 25.71300
H  11.94500 55.16800 26.38900
H  11.86000 53.58700 27.32200
H  10.87400 54.90200 23.81000
H  11.40300 56.15600 22.66300
H  11.94300 56.14300 24.39800
H  17.62800 53.35100 21.10200
H  18.55500 50.40800 21.06100
H  15.48900 52.20400 20.30200
H  16.54300 50.81200 20.01900
H  16.79400 52.40900 19.24100
H  20.84500 51.73400 21.86000
H  19.83200 53.10100 21.15300
H  21.17200 50.77800 20.12900
H  21.12400 52.26200 19.31600
H  19.75600 51.13400 19.19700
H  22.27400 49.47600 24.00800
H  21.80400 47.78900 24.45000
H  22.92600 48.52400 25.43900
H  20.29300 50.43500 29.91300
H  18.21100 48.33700 33.07500
H  19.82500 47.63200 32.98100
H  18.63300 46.96500 32.00800

