158

Mg 26.19300 0.02700 29.34200
C  28.09900 -0.33600 32.22200
C  23.39400 0.65800 31.36900
C  24.24000 0.20800 26.66200
C  28.86000 -1.28100 27.45800
N  25.80100 0.10300 31.54500
C  26.72900 -0.01600 32.57300
C  26.15900 0.12100 33.95200
C  24.59400 0.12000 33.58200
C  24.57100 0.29700 32.10000
C  23.79200 -1.14800 34.12600
C  26.78900 1.35700 34.59300
C  26.01000 1.85900 35.88900
H  26.79700 2.06800 37.15400
N  24.19900 0.46300 29.05600
C  23.20300 0.69400 29.96400
C  21.92000 0.90200 29.31800
C  22.10200 0.86300 27.96100
C  23.56100 0.53900 27.83300
C  20.65300 1.19700 30.07100
C  21.20000 1.11200 26.75900
O  21.54100 1.02000 25.59800
C  19.86000 1.61100 27.01800
N  26.56700 -0.41200 27.36400
C  25.56400 -0.22200 26.44300
C  26.14000 -0.69300 25.07900
C  27.69200 -0.73400 25.28700
C  27.72800 -0.87300 26.80400
C  25.53300 -2.02300 24.47100
C  28.55900 0.49300 24.82800
C  30.03000 0.19900 24.50700
N  28.06600 -0.62900 29.68300
C  29.10000 -1.11400 28.85300
C  30.26900 -1.35500 29.53900
C  30.00000 -1.06200 30.85800
C  28.61400 -0.59900 30.91300
C  31.44800 -2.05600 28.86500
C  30.48900 -1.04500 32.24000
O  31.57800 -1.26700 32.69700
C  29.28300 -0.63200 33.14000
C  29.03000 -1.84200 34.04300
O  28.54800 -2.88600 33.68800
O  29.29900 -1.52800 35.35500
C  29.17200 -2.60800 36.33000
H  22.46300 0.80300 31.92100
H  23.79700 0.29300 25.66800
H  29.66400 -1.60300 26.79300
H  26.34000 -0.78200 34.53400
H  24.19800 1.03500 34.02100
H  24.46500 -1.84000 34.63300
H  23.38700 -1.73300 33.30100
H  23.02600 -0.81000 34.82300
H  26.79100 2.26200 33.98500
H  27.80800 1.15100 34.92000
H  25.07700 1.32000 36.05600
H  25.60500 2.85700 35.72500
H  20.08800 1.99900 29.59700
H  20.69800 1.48900 31.12100
H  19.93300 0.39400 29.91000
H  19.96600 2.56000 27.54500
H  19.29700 0.84300 27.54900
H  19.31800 1.81800 26.09600
H  25.94700 0.11300 24.37100
H  28.07900 -1.63200 24.80500
H  26.22200 -2.86300 24.55700
H  25.17200 -1.80900 23.46500
H  24.66600 -2.30000 25.07100
H  28.58000 1.10700 25.72800
H  28.22400 1.06300 23.96200
H  30.27100 0.72100 23.58100
H  30.17400 -0.88100 24.47700
H  30.68500 0.60600 25.27700
H  32.24000 -2.33600 29.55900
H  31.90100 -1.38600 28.13400
H  31.07100 -2.97800 28.42200
H  29.47000 0.19300 33.82700
H  29.95800 -3.36300 36.34300
H  28.19400 -3.02400 36.08800
H  29.00000 -2.15700 37.30700
Mg 46.48900 24.84300 28.57900
C  46.97300 26.88700 31.41100
C  45.12500 22.53400 30.69100
C  46.67000 22.70900 26.05200
C  47.78000 27.36500 26.54800
N  46.29500 24.73500 30.84300
C  46.43000 25.67500 31.72100
C  45.96400 25.30500 33.19800
C  45.41800 23.82500 32.87900
C  45.61300 23.73900 31.35500
C  46.12100 22.67000 33.63900
C  44.90200 26.31100 33.78300
C  45.05600 26.94600 35.16700
H  44.05100 26.71900 36.26500
N  45.90200 22.85300 28.39500
C  45.31600 22.11000 29.36000
C  44.92500 20.87300 28.65900
C  45.61900 20.76700 27.41000
C  46.07900 22.18000 27.23000
C  44.16800 19.78400 29.37300
C  45.62900 19.53300 26.41300
O  46.04600 19.61900 25.27200
C  45.08200 18.21000 26.84300
N  47.18300 25.08000 26.57800
C  47.12500 23.97500 25.69000
C  47.82600 24.37400 24.32900
C  47.87800 25.94400 24.43800
C  47.53800 26.15300 25.91600
C  49.18400 23.71400 24.03600
C  46.99300 26.72800 23.38300
C  45.45200 26.71300 23.41600
N  47.20100 26.74300 28.85400
C  47.70700 27.68000 27.93000
C  48.06500 28.88600 28.52700
C  47.83000 28.60900 29.94600
C  47.31200 27.30200 30.09700
C  48.67300 30.03100 27.85900
C  47.91700 29.23000 31.21800
O  48.24500 30.38800 31.53300
C  47.52500 28.02300 32.28500
C  48.75300 27.70100 32.99900
O  49.73200 27.09000 32.49500
O  48.62000 27.78400 34.39200
C  49.70900 27.17600 35.19300
H  44.70900 21.75600 31.33400
H  46.74400 21.86400 25.36300
H  48.31500 28.07100 25.90900
H  46.91700 25.32900 33.72500
H  44.36700 23.65800 33.11700
H  45.49200 22.25400 34.42600
H  47.00700 23.12700 34.08200
H  46.41600 21.91700 32.90800
H  43.89000 25.90500 33.77000
H  44.86300 27.17200 33.11600
H  45.34800 27.98900 35.03800
H  45.92400 26.42700 35.57200
H  43.45700 19.35300 28.66900
H  43.50500 20.14000 30.16100
H  44.78000 18.97600 29.77500
H  45.36600 17.79000 27.80800
H  45.53000 17.45400 26.19800
H  43.99500 18.20100 26.77000
H  47.10400 24.12100 23.55200
H  48.91200 26.29000 24.41600
H  49.86800 24.25300 23.37900
H  49.05800 22.71100 23.62900
H  49.75300 23.62800 24.96100
H  47.42900 26.45000 22.42400
H  47.29500 27.77400 23.32900
H  45.12600 25.99100 24.16400
H  45.23200 26.44000 22.38400
H  45.03800 27.68900 23.66500
H  49.50500 29.72600 27.22400
H  49.05700 30.70500 28.62500
H  47.95200 30.65800 27.33400
H  46.73100 28.37100 32.94500
H  49.68900 27.60400 36.19500
H  50.68500 27.31800 34.72700
H  49.35700 26.14500 35.16700

