158

Mg 2.04500 0.12000 44.03500
C  5.54800 0.26600 43.03400
C  1.59000 2.62000 41.61700
C  -1.20100 -0.64800 43.96200
C  2.84500 -2.94100 45.69100
N  3.41800 1.27000 42.42100
C  4.80100 1.25300 42.32200
C  5.24200 2.35600 41.35800
C  4.05000 3.35500 41.31800
C  2.94500 2.28300 41.68800
C  4.05400 4.49400 42.37800
C  5.70700 1.84700 39.93300
C  7.07400 2.33800 39.38000
H  7.06600 2.89600 37.96600
N  0.43200 0.81000 42.90900
C  0.45400 1.87100 42.05300
C  -0.94500 2.24800 41.75800
C  -1.78100 1.37800 42.47700
C  -0.91200 0.44000 43.16900
C  -1.33800 3.45700 40.97300
C  -3.31800 1.40000 42.40600
O  -3.89000 2.34100 41.91000
C  -4.18500 0.34400 43.01300
N  1.02600 -1.73100 44.47900
C  -0.31800 -1.58700 44.59600
C  -0.87400 -2.70000 45.39600
C  0.40100 -3.48900 45.93700
C  1.51200 -2.69100 45.31800
C  -1.96700 -2.35800 46.46400
C  0.45600 -5.03000 45.48600
C  -0.36500 -6.00300 46.33700
N  3.76600 -0.99200 44.42800
C  3.90200 -2.17500 45.16800
C  5.24700 -2.61500 45.17400
C  5.97100 -1.65200 44.39100
C  4.98600 -0.70300 43.95000
C  5.87200 -3.77200 45.90000
C  7.26700 -1.29700 43.84400
O  8.37200 -1.85500 43.97500
C  7.03800 -0.05300 42.92000
C  7.78200 1.12200 43.38000
O  7.80400 1.67400 44.53200
O  8.54800 1.55100 42.30700
C  9.41900 2.66900 42.67500
H  1.36300 3.42300 40.91300
H  -2.26500 -0.74700 44.18700
H  3.11000 -3.68700 46.44300
H  6.08400 2.92200 41.75600
H  3.87400 3.81600 40.34500
H  3.11500 4.56000 42.92700
H  4.26500 5.42000 41.84400
H  4.88500 4.34000 43.06700
H  4.88400 2.02300 39.24000
H  5.65000 0.76100 40.00700
H  7.74300 1.49700 39.19500
H  7.52700 3.03800 40.08100
H  -2.15200 3.12800 40.32600
H  -0.55900 3.77400 40.28100
H  -1.69800 4.34000 41.50100
H  -5.24600 0.54000 42.86200
H  -4.05200 0.47200 44.08700
H  -3.84000 -0.60900 42.61000
H  -1.47000 -3.34000 44.74600
H  0.59900 -3.59500 47.00400
H  -2.83100 -3.00700 46.32200
H  -2.36600 -1.34600 46.39900
H  -1.64900 -2.50300 47.49600
H  1.45800 -5.40800 45.68900
H  0.18600 -5.08700 44.43100
H  -0.73100 -5.43900 47.19500
H  0.14100 -6.85700 46.78700
H  -1.19200 -6.37800 45.73500
H  6.88200 -3.95200 45.53200
H  5.34800 -4.69000 45.63300
H  6.04800 -3.73100 46.97500
H  7.37200 -0.29100 41.91000
H  8.84900 3.58800 42.81500
H  9.98700 2.86300 41.76500
H  9.97900 2.48000 43.59100
Mg 47.00100 24.18800 28.97100
C  47.81100 26.67800 31.48300
C  46.20000 22.10600 31.36300
C  46.95300 21.92400 26.67700
C  48.16100 26.62500 26.57900
N  46.88800 24.44200 31.12300
C  47.28500 25.51100 31.98900
C  46.72300 25.19300 33.40400
C  46.51700 23.68700 33.42400
C  46.47400 23.39400 31.91000
C  47.68000 22.87900 34.15200
C  45.48200 26.06000 33.80700
C  45.64000 26.88400 35.08200
H  44.63300 26.67200 36.19300
N  46.45500 22.26200 28.97200
C  46.14200 21.55500 30.06800
C  45.82800 20.17900 29.62900
C  46.04000 20.12700 28.27500
C  46.52100 21.47700 27.91400
C  45.48600 19.10500 30.66400
C  45.76600 18.89300 27.30900
O  45.88900 19.02800 26.12200
C  45.21500 17.57000 27.84700
N  47.45200 24.28600 26.97000
C  47.33400 23.13700 26.22600
C  47.85000 23.39500 24.89000
C  47.88400 24.95500 24.75300
C  47.91200 25.35300 26.20500
C  49.27300 22.74600 24.62900
C  46.69500 25.57400 23.99700
C  45.43600 25.94400 24.67300
N  47.81500 26.25900 28.94800
C  48.12600 27.10400 27.89800
C  48.47700 28.44200 28.42300
C  48.47100 28.30500 29.85700
C  48.02100 26.95800 30.10100
C  48.94600 29.61700 27.67400
C  48.70400 28.98600 31.13800
O  49.13700 30.06800 31.48500
C  48.27000 27.91500 32.20900
C  49.38400 27.66400 33.14600
O  50.43400 27.07700 32.91100
O  49.08300 28.19000 34.41000
C  50.11400 27.91000 35.42200
H  45.91300 21.47900 32.20900
H  47.15900 21.24600 25.84600
H  48.47300 27.28000 25.76300
H  47.59500 25.46600 33.99900
H  45.55800 23.38100 33.84100
H  47.20600 22.36000 34.98500
H  48.41600 23.60400 34.50200
H  48.23400 22.18000 33.52600
H  44.70900 25.30600 33.95900
H  45.24900 26.78700 33.02900
H  45.47900 27.96200 35.07500
H  46.58300 26.62400 35.56200
H  45.48400 19.47200 31.69000
H  46.13800 18.23800 30.76300
H  44.51000 18.71700 30.37300
H  45.87000 17.35600 28.69200
H  45.05100 16.89300 27.00900
H  44.22000 17.85100 28.19100
H  47.25800 22.89800 24.12200
H  48.78300 25.29600 24.24100
H  49.51600 22.37900 25.62700
H  49.88300 23.58400 24.29200
H  49.14800 21.96800 23.87700
H  46.52900 24.92100 23.14000
H  47.03800 26.53600 23.61900
H  44.62500 25.80000 23.96000
H  45.54100 26.90900 25.16800
H  45.26800 25.15400 25.40500
H  48.29400 29.69400 26.80400
H  50.01000 29.51500 27.46000
H  48.81500 30.54100 28.23800
H  47.32800 28.29800 32.60200
H  50.24900 26.83300 35.51600
H  49.76400 28.29100 36.38200
H  51.00100 28.47400 35.13300

