158

Mg 1.77800 -2.20400 43.12600
C  5.15100 -1.50000 42.35000
C  0.98000 0.69200 41.45000
C  -1.40100 -3.11600 43.23200
C  2.77500 -5.48900 43.90700
N  3.00700 -0.66800 41.95100
C  4.31300 -0.53700 41.88800
C  4.71900 0.84000 41.20500
C  3.35200 1.57100 41.11300
C  2.38000 0.46400 41.50800
C  3.19100 2.88900 42.00500
C  5.48700 0.68500 39.86300
C  6.49100 1.76400 39.59900
H  6.62300 2.41900 38.18400
N  -0.00200 -1.23900 42.53300
C  -0.11500 -0.01700 41.93800
C  -1.51100 0.33800 41.86700
C  -2.21400 -0.81800 42.31900
C  -1.23100 -1.79700 42.77200
C  -1.92100 1.63800 41.20800
C  -3.75800 -0.96000 42.36200
O  -4.55500 -0.08300 42.00800
C  -4.42800 -2.12200 43.08000
N  0.81000 -4.06200 43.45300
C  -0.49800 -4.15400 43.53100
C  -0.94600 -5.49700 44.17600
C  0.41100 -6.32300 44.18600
C  1.37100 -5.28200 43.69600
C  -1.73400 -5.48300 45.44400
C  0.33200 -7.63300 43.35900
C  1.28700 -8.78200 43.73200
N  3.56300 -3.29400 43.24600
C  3.84100 -4.57100 43.63700
C  5.28400 -4.75600 43.81200
C  5.79900 -3.62800 43.27700
C  4.72200 -2.76100 42.87800
C  5.90200 -6.04200 44.40700
C  7.04400 -2.89200 42.97800
O  8.21900 -3.11900 43.13000
C  6.59500 -1.49300 42.39600
C  7.02400 -0.39200 43.30500
O  6.67800 -0.16800 44.43800
O  7.97600 0.35000 42.71800
C  8.60100 1.40500 43.56700
H  0.73800 1.65700 40.99900
H  -2.41600 -3.50300 43.34600
H  3.11700 -6.46200 44.26600
H  5.39600 1.38900 41.86000
H  3.00700 1.87500 40.12500
H  3.86800 2.85000 42.85800
H  2.19900 2.99600 42.44300
H  3.44800 3.75300 41.39200
H  4.80300 0.74900 39.01600
H  5.99100 -0.28000 39.82100
H  7.44900 1.28400 39.79800
H  6.34100 2.67500 40.18000
H  -1.77100 1.53700 40.13300
H  -1.24900 2.44500 41.49900
H  -2.94600 1.95600 41.39900
H  -5.47900 -1.86900 43.21400
H  -3.91200 -2.24800 44.03200
H  -4.35400 -3.04900 42.51100
H  -1.55000 -6.00800 43.42600
H  0.60400 -6.49100 45.24500
H  -1.60800 -4.52600 45.95100
H  -1.47800 -6.26400 46.15900
H  -2.80000 -5.59200 45.24200
H  0.57700 -7.51400 42.30400
H  -0.67400 -8.05200 43.33600
H  1.83600 -8.65500 44.66500
H  1.96400 -9.05400 42.92200
H  0.59300 -9.62100 43.78800
H  6.95300 -5.96600 44.68600
H  5.78900 -6.93900 43.79800
H  5.36600 -6.18100 45.34600
H  7.05500 -1.41400 41.41100
H  9.59100 1.49100 43.12100
H  8.55000 1.43700 44.65500
H  8.06800 2.32300 43.31800
Mg 9.18100 3.04400 27.59700
C  10.74500 1.52300 30.36600
C  7.22700 4.80600 29.70800
C  7.65100 4.35900 24.79700
C  10.95200 0.88700 25.43200
N  8.97900 3.10800 29.80900
C  9.81500 2.53400 30.75900
C  9.52900 3.12900 32.16500
C  8.29100 4.02600 31.92900
C  8.10400 3.95900 30.41000
C  7.00100 3.69700 32.66100
C  10.76200 3.73000 32.90200
C  10.37200 4.52800 34.19100
H  11.05400 4.25600 35.52700
N  7.61900 4.49900 27.33600
C  6.95400 5.12100 28.38800
C  5.97900 6.07300 27.70600
C  6.26700 6.05000 26.28200
C  7.18300 4.92800 26.09800
C  4.95000 6.75200 28.50700
C  5.68800 6.90100 25.21300
O  5.73700 6.70200 24.02800
C  4.92000 8.02000 25.71900
N  9.19800 2.52700 25.45800
C  8.50600 3.29100 24.53000
C  8.75400 2.86600 23.06500
C  9.96600 1.79700 23.29800
C  10.06500 1.76300 24.81800
C  7.54800 2.28700 22.27300
C  11.40400 2.05800 22.72500
C  12.05800 1.07100 21.64800
N  10.55000 1.49500 27.80100
C  11.17700 0.72400 26.84400
C  12.12300 -0.15200 27.50000
C  11.92500 0.05500 28.87300
C  10.94600 1.09300 29.03000
C  12.96400 -1.28900 26.92300
C  12.35200 -0.37000 30.18900
O  13.15900 -1.25200 30.52800
C  11.74800 0.70900 31.24700
C  11.08800 0.02100 32.38800
O  10.37500 -0.96300 32.32600
O  11.47400 0.53400 33.60500
C  10.88600 -0.08300 34.77200
H  6.79400 5.56000 30.36900
H  7.09200 4.69500 23.92100
H  11.57000 0.19700 24.85300
H  9.20600 2.24200 32.71000
H  8.35900 5.09600 32.12100
H  6.75600 4.42900 33.43100
H  7.00900 2.66700 33.01600
H  6.15300 3.68200 31.97600
H  11.21600 4.40200 32.17400
H  11.38000 2.89700 33.23900
H  9.29600 4.45200 34.34600
H  10.51900 5.59000 33.99600
H  3.94800 6.41300 28.24300
H  5.15500 7.82300 28.52300
H  5.07500 6.52200 29.56500
H  4.01100 7.63100 26.17800
H  4.53100 8.70500 24.96600
H  5.54500 8.46400 26.49400
H  9.07800 3.73800 22.49600
H  9.64000 0.87400 22.81800
H  6.58900 2.34400 22.78800
H  7.64600 1.21000 22.13700
H  7.42500 2.84700 21.34500
H  12.10900 2.14500 23.55100
H  11.36500 3.07100 22.32400
H  11.32500 0.48100 21.09800
H  12.80600 0.38400 22.04500
H  12.50800 1.71700 20.89500
H  12.54400 -2.22800 27.28400
H  14.01000 -1.31600 27.22600
H  12.95400 -1.29100 25.83300
H  12.55700 1.26800 31.71900
H  9.82400 -0.30400 34.66100
H  10.90700 0.62100 35.60400
H  11.37600 -1.01300 35.06100

