158

Mg 2.45800 -1.39000 45.13200
C  6.01200 -0.85800 44.79100
C  2.02900 1.63400 43.54200
C  -0.80000 -2.23100 44.60000
C  3.25000 -4.54000 46.16400
N  3.83000 0.08400 44.25300
C  5.19100 0.11500 44.21300
C  5.73500 1.23100 43.41400
C  4.50200 2.24600 43.22700
C  3.36400 1.28500 43.72800
C  4.45100 3.52200 44.07900
C  6.46400 0.74400 42.15000
C  7.88300 1.26500 41.86300
H  8.08500 1.56700 40.40000
N  0.79300 -0.43700 44.26800
C  0.86700 0.81200 43.73400
C  -0.49100 1.25000 43.30400
C  -1.33400 0.15500 43.68500
C  -0.50400 -0.90000 44.23000
C  -0.77600 2.62900 42.54700
C  -2.85800 0.10100 43.53400
O  -3.44000 1.01800 42.92100
C  -3.63300 -0.93000 44.27400
N  1.36700 -3.21300 45.25600
C  0.00900 -3.26200 45.13200
C  -0.51100 -4.66200 45.72600
C  0.78000 -5.51900 46.14300
C  1.89900 -4.40700 45.75700
C  -1.54100 -4.59500 46.83700
C  0.89900 -6.85700 45.28400
C  1.60400 -8.03000 45.99200
N  4.23000 -2.51200 45.57000
C  4.38000 -3.71900 46.09300
C  5.76700 -4.01900 46.44300
C  6.45300 -2.92300 46.01800
C  5.50200 -2.02000 45.45400
C  6.30100 -5.25700 47.04900
C  7.69500 -2.25000 45.88700
O  8.80000 -2.61400 46.32600
C  7.52800 -0.93700 45.01200
C  8.12900 0.28900 45.57100
O  7.96800 0.61900 46.77200
O  8.95800 0.97300 44.71200
C  9.36000 2.31300 45.22400
H  1.99900 2.58900 43.01300
H  -1.80600 -2.63800 44.47600
H  3.45400 -5.46600 46.70500
H  6.53000 1.66700 44.01800
H  4.23000 2.45700 42.19300
H  5.50200 3.72500 44.28500
H  3.84100 3.44400 44.97900
H  4.00500 4.32600 43.49300
H  5.79800 0.81400 41.29000
H  6.64600 -0.33000 42.18700
H  8.57000 0.62500 42.41700
H  8.10600 2.20900 42.36000
H  -1.84300 2.82200 42.65400
H  -0.53200 2.43200 41.50300
H  -0.21300 3.46600 42.96000
H  -4.64800 -0.62100 44.52400
H  -3.01700 -1.02200 45.16900
H  -3.61700 -1.86800 43.72000
H  -1.03300 -5.17600 44.91900
H  0.77600 -5.80300 47.19600
H  -1.76800 -3.56600 47.11500
H  -1.16200 -5.05800 47.74800
H  -2.45600 -5.15000 46.63100
H  1.51000 -6.71600 44.39200
H  -0.05900 -7.25300 44.94800
H  1.44100 -8.03300 47.07000
H  2.67800 -7.96500 45.81800
H  1.14900 -8.96700 45.67000
H  5.97300 -6.18300 46.57700
H  5.96200 -5.35700 48.08000
H  7.38700 -5.16700 47.08800
H  8.03900 -1.15700 44.07500
H  8.57400 2.91100 45.68500
H  9.66400 2.84900 44.32500
H  10.16600 2.22900 45.95400
Mg 24.84900 -5.41400 45.93900
C  26.96300 -3.25500 44.24700
C  22.31600 -4.41400 43.75500
C  23.02400 -8.14400 46.80500
C  27.71900 -6.86000 47.58900
N  24.73200 -4.00200 44.25400
C  25.71300 -3.23000 43.69100
C  25.24500 -2.69100 42.29900
C  23.66600 -2.80300 42.40700
C  23.53300 -3.73900 43.58600
C  22.95500 -1.42000 42.71700
C  25.96800 -3.57300 41.07400
C  26.86700 -2.80200 40.09400
H  26.30500 -2.76500 38.65500
N  22.87800 -6.25600 45.45300
C  21.99100 -5.59600 44.58800
C  20.65400 -6.23600 44.69600
C  20.69500 -7.25400 45.69600
C  22.16300 -7.29400 46.06500
C  19.50700 -5.71500 43.82600
C  19.61000 -8.22800 46.17400
O  18.49700 -8.33500 45.64400
C  19.88000 -9.18600 47.30100
N  25.39300 -7.27900 46.96000
C  24.45500 -8.22700 47.14800
C  24.90000 -9.38900 48.00600
C  26.36700 -8.93800 48.34600
C  26.55600 -7.64100 47.53800
C  24.08300 -9.77800 49.22600
C  27.47900 -9.95700 47.93700
C  28.20400 -10.74600 48.99300
N  26.96600 -5.08900 46.04000
C  27.97000 -5.62500 46.85900
C  29.10200 -4.85800 46.72400
C  28.81900 -3.92700 45.71100
C  27.48800 -4.06900 45.31000
C  30.29400 -5.05600 47.53200
C  29.39700 -2.84800 44.88900
O  30.46400 -2.26200 44.95300
C  28.21400 -2.37800 43.92000
C  28.05700 -0.93700 44.13000
O  27.40400 -0.42400 45.01800
O  28.74800 -0.23100 43.16000
C  28.76500 1.22600 43.29300
H  21.50200 -4.13500 43.08100
H  22.46000 -8.96500 47.25200
H  28.48400 -7.25100 48.26300
H  25.53000 -1.64000 42.34700
H  23.25200 -3.19700 41.47800
H  23.67100 -0.69400 43.10400
H  22.20400 -1.67200 43.46500
H  22.52500 -0.97300 41.82000
H  25.17300 -4.03900 40.49100
H  26.46000 -4.43000 41.53500
H  27.83000 -3.30100 40.19800
H  27.05500 -1.75600 40.33500
H  19.46000 -6.35900 42.94800
H  19.57800 -4.66400 43.54600
H  18.63700 -5.72100 44.48200
H  18.96500 -9.58500 47.73800
H  20.16200 -8.54400 48.13600
H  20.61700 -9.94700 47.04600
H  24.87900 -10.14000 47.21600
H  26.54800 -8.71600 49.39800
H  24.72700 -9.97900 50.08200
H  23.70300 -10.79100 49.09500
H  23.28900 -9.07500 49.47800
H  28.28500 -9.47600 47.38100
H  27.11200 -10.76100 47.29900
H  29.18800 -10.31900 49.18400
H  28.56500 -11.70900 48.63100
H  27.61200 -10.98000 49.87800
H  30.72400 -6.03600 47.32100
H  30.10700 -5.17700 48.59900
H  31.01000 -4.23900 47.45000
H  28.61700 -2.49100 42.91400
H  29.65300 1.54900 43.83600
H  27.87500 1.66300 43.74600
H  28.92400 1.59100 42.27900

