158

Mg 40.46700 8.31600 29.03800
C  42.15900 10.17700 31.53100
C  38.48800 6.94800 31.37000
C  39.04200 6.52400 26.54300
C  43.06200 9.18700 26.68100
N  40.32000 8.54900 31.12200
C  41.07600 9.35400 31.92000
C  40.45900 9.43600 33.33500
C  39.53300 8.18800 33.33700
C  39.47200 7.86500 31.86400
C  39.98100 6.93100 34.19000
C  39.99400 10.80400 33.87300
C  39.39700 10.66900 35.27100
H  39.92000 11.69400 36.27000
N  38.91100 6.94200 28.98000
C  38.25000 6.49500 30.05700
C  37.16100 5.67300 29.64700
C  37.20000 5.62100 28.22100
C  38.41800 6.39900 27.82200
C  36.18600 5.05600 30.66100
C  36.31600 5.04300 27.19700
O  36.49700 5.29500 26.01400
C  35.09100 4.17700 27.65300
N  40.98500 7.99300 26.82300
C  40.23000 7.15900 26.06700
C  40.78800 7.04100 24.63200
C  41.90400 8.10000 24.73400
C  42.06700 8.43600 26.18500
C  41.32800 5.66100 24.21600
C  41.61700 9.25400 23.71200
C  40.90300 10.53100 24.22200
N  42.19000 9.38400 29.05100
C  43.19700 9.63200 28.03600
C  44.18700 10.59900 28.64800
C  43.80100 10.77000 30.01000
C  42.65400 10.06300 30.20400
C  45.28600 11.20500 27.88300
C  44.22900 11.39200 31.28200
O  45.08800 12.21400 31.52200
C  43.12800 11.08000 32.27700
C  43.81900 10.29600 33.43500
O  44.43400 9.21500 33.36300
O  43.35200 10.79200 34.58100
C  43.49400 9.99500 35.75800
H  37.87000 6.46200 32.12800
H  38.80600 5.80400 25.75700
H  43.82400 9.49700 25.96300
H  41.27800 8.96500 33.87800
H  38.49000 8.46700 33.48700
H  40.48000 6.32200 33.43600
H  39.14600 6.43800 34.68800
H  40.69800 7.08700 34.99700
H  39.20000 11.16200 33.21700
H  40.78500 11.55300 33.90200
H  39.40300 9.63000 35.60000
H  38.34100 10.88900 35.11600
H  36.01100 5.81400 31.42400
H  36.60300 4.15800 31.11900
H  35.24600 4.72300 30.22300
H  35.52000 3.24000 28.00800
H  34.55700 3.90100 26.74300
H  34.39300 4.69600 28.30900
H  39.93900 7.27200 23.98800
H  42.85500 7.65500 24.44400
H  41.03500 5.64300 23.16600
H  40.70000 4.88900 24.66200
H  42.39000 5.43300 24.12600
H  40.97700 8.90300 22.90200
H  42.57200 9.38800 23.20500
H  40.71200 10.54700 25.29500
H  39.90200 10.66400 23.81200
H  41.53900 11.40400 24.07300
H  45.24200 10.93700 26.82700
H  46.16200 10.66800 28.24700
H  45.21800 12.28700 27.99900
H  42.70100 12.02900 32.60000
H  43.43700 10.75600 36.53700
H  44.45000 9.47400 35.80500
H  42.69300 9.30400 36.02000
Mg 16.14000 51.36900 24.82300
C  18.23100 50.60500 27.54100
C  13.54300 51.44000 26.86600
C  14.32700 51.68800 22.17900
C  19.11900 50.88100 22.74700
N  15.95600 51.08700 26.98200
C  16.92900 50.91100 27.92700
C  16.40600 51.18700 29.33400
C  14.82100 51.42100 29.14700
C  14.73300 51.33200 27.56600
C  13.91300 50.37500 29.90900
C  17.09600 52.39600 30.07800
C  16.99400 52.43700 31.63500
H  16.17100 51.42000 32.37600
N  14.18400 51.33000 24.51400
C  13.26600 51.40800 25.46700
C  11.99700 51.25900 24.85600
C  12.14900 51.45200 23.44400
C  13.56800 51.47200 23.29300
C  10.76500 51.28200 25.62200
C  11.02700 51.56900 22.37300
O  11.38300 51.70400 21.19100
C  9.56600 51.49300 22.72800
N  16.66900 51.23300 22.74400
C  15.67300 51.66500 21.90400
C  16.28300 52.09600 20.62200
C  17.83600 51.99300 20.83600
C  17.93000 51.33400 22.15700
C  15.71800 51.32900 19.38200
C  18.64400 53.29300 20.87100
C  18.93600 53.84800 19.47400
N  18.20800 50.84500 25.03200
C  19.26100 50.60300 24.12500
C  20.43600 50.12900 24.80200
C  20.07000 50.06000 26.09900
C  18.75300 50.55200 26.22200
C  21.69300 49.80400 24.19800
C  20.60700 49.79200 27.52000
O  21.64500 49.34200 27.98500
C  19.38200 50.19200 28.43000
C  19.00200 49.10300 29.37000
O  18.64600 48.00200 28.96900
O  19.38700 49.35300 30.69000
C  19.26000 48.29100 31.72300
H  12.70300 51.41100 27.56200
H  13.72300 51.90400 21.29600
H  19.96900 50.81400 22.06400
H  16.48800 50.25100 29.88700
H  14.42300 52.40000 29.41500
H  13.42000 50.92900 30.70800
H  14.48600 49.55400 30.34000
H  13.07200 49.95800 29.35400
H  16.80700 53.35200 29.64100
H  18.16600 52.34400 29.87500
H  16.58900 53.38400 31.99200
H  17.97900 52.25400 32.06300
H  10.11800 50.59000 25.08300
H  10.34200 52.27500 25.46300
H  10.86500 51.00300 26.67100
H  9.29600 50.57400 23.24800
H  9.03800 51.58000 21.77800
H  9.29100 52.32500 23.37600
H  16.07000 53.15600 20.48600
H  18.28200 51.26400 20.15800
H  15.28300 50.41500 19.78700
H  16.44400 51.08400 18.60700
H  14.96700 52.05900 19.08100
H  19.57600 53.14200 21.41500
H  18.09400 54.06400 21.40900
H  18.45300 54.82500 19.46300
H  18.47700 53.25500 18.68400
H  20.01900 53.87700 19.35200
H  22.56900 49.89400 24.84100
H  21.94400 50.40300 23.32200
H  21.60500 48.75900 23.89800
H  19.78300 51.00500 29.03500
H  18.34900 48.50500 32.28100
H  20.08000 48.45600 32.42200
H  19.32000 47.22300 31.51200

