158

Mg -1.72100 18.40200 26.95000
C  -2.21400 16.06700 29.76300
C  -2.74100 20.93900 29.11700
C  -1.73300 20.33600 24.35800
C  -1.41400 15.58800 24.94000
N  -2.14600 18.46400 29.18600
C  -2.12800 17.47900 30.11700
C  -2.42700 18.00800 31.56900
C  -3.05600 19.43700 31.23100
C  -2.56800 19.66200 29.76400
C  -4.62200 19.52900 31.29000
C  -1.19900 18.20400 32.48000
C  -1.46600 17.66000 33.92700
H  -0.27500 17.37700 34.76200
N  -2.05800 20.29000 26.75800
C  -2.53800 21.24900 27.75700
C  -2.53500 22.59200 27.12500
C  -2.11500 22.41700 25.76900
C  -1.89900 20.98400 25.56100
C  -2.88400 23.90300 27.86200
C  -1.75000 23.43900 24.68000
O  -1.35000 23.18900 23.55200
C  -1.99500 24.91300 24.93600
N  -1.76100 17.98800 24.91000
C  -1.62400 19.01800 24.05300
C  -1.41700 18.50200 22.65500
C  -0.90900 17.02900 22.91700
C  -1.37100 16.83000 24.35700
C  -2.62200 18.54300 21.82100
C  0.64800 16.97700 22.71000
C  1.62500 17.62100 23.71100
N  -2.03700 16.23400 27.18500
C  -1.87000 15.29600 26.22700
C  -2.00500 13.96500 26.82900
C  -2.26500 14.20900 28.15100
C  -2.18200 15.63400 28.35900
C  -1.93100 12.65300 26.10000
C  -2.58300 13.65300 29.48800
O  -2.76600 12.48100 29.76000
C  -2.52500 14.83300 30.54400
C  -1.53900 14.55100 31.62400
O  -0.37900 14.87400 31.58500
O  -2.09800 13.87700 32.67900
C  -1.24300 13.39900 33.82900
H  -3.10800 21.73800 29.76400
H  -1.66600 20.96800 23.47000
H  -1.11900 14.83900 24.20200
H  -3.25900 17.42400 31.96200
H  -2.72100 20.22200 31.90900
H  -5.06300 18.64500 31.74900
H  -5.08600 19.73700 30.32600
H  -4.93800 20.35300 31.92900
H  -0.97400 19.26900 32.53700
H  -0.30800 17.67700 32.13700
H  -2.01200 16.72000 33.84600
H  -2.07700 18.35100 34.50800
H  -3.45700 24.53000 27.17900
H  -1.96500 24.40700 28.16100
H  -3.50900 23.69300 28.73000
H  -1.88600 25.36300 23.94900
H  -1.30200 25.28600 25.68900
H  -3.02100 25.19300 25.17500
H  -0.65900 19.06800 22.11200
H  -1.43000 16.30100 22.29400
H  -3.42000 19.20800 22.15200
H  -3.13100 17.59300 21.65500
H  -2.38200 18.88000 20.81300
H  0.82600 17.54900 21.79900
H  0.97800 15.94600 22.58400
H  1.11300 17.94700 24.61700
H  2.16200 18.52600 23.42600
H  2.32700 16.83400 23.98300
H  -1.28200 11.96100 26.63700
H  -1.55300 12.75100 25.08200
H  -2.90200 12.17800 25.96100
H  -3.52000 14.91200 30.98300
H  -0.16500 13.52000 33.72800
H  -1.57600 12.39700 34.09800
H  -1.63200 14.07100 34.59400
Mg 41.57600 41.37000 26.53100
C  40.80800 43.81800 28.93000
C  42.98900 39.38700 28.98500
C  42.37600 39.00100 24.23900
C  40.47600 43.48600 24.13400
N  41.84400 41.54100 28.83800
C  41.42300 42.70300 29.59100
C  41.76700 42.38400 31.01600
C  42.65300 41.07100 30.94700
C  42.51600 40.58400 29.48700
C  44.10700 41.40700 31.36500
C  40.45100 42.11600 31.89100
C  40.74300 41.66700 33.38100
H  39.75400 42.22300 34.51100
N  42.48600 39.39400 26.62500
C  42.99200 38.82300 27.69000
C  43.72300 37.65700 27.28100
C  43.26200 37.34000 25.97200
C  42.71700 38.61400 25.55300
C  44.51400 36.76600 28.35800
C  43.20000 36.02200 25.13300
O  42.68200 35.90800 24.06300
C  43.72600 34.75400 25.70300
N  41.46100 41.26800 24.49900
C  41.85400 40.21700 23.71100
C  41.52200 40.37700 22.20000
C  40.83800 41.80800 22.14500
C  40.88000 42.17600 23.72400
C  42.83800 40.06100 21.36900
C  39.40800 41.77800 21.54000
C  38.40800 40.97400 22.44800
N  40.85100 43.23400 26.47400
C  40.51100 44.04600 25.44000
C  40.00300 45.35700 25.88500
C  40.08900 45.25000 27.28000
C  40.60300 43.98500 27.59100
C  39.45500 46.52500 25.02600
C  39.88800 45.99400 28.54900
O  39.43400 47.13100 28.72200
C  40.29200 45.03600 29.64800
C  41.21900 45.73100 30.58500
O  42.37400 46.01400 30.38500
O  40.52400 45.99000 31.78000
C  41.30000 46.70500 32.79300
H  43.63900 38.94300 29.74200
H  42.53400 38.31700 23.40200
H  40.26700 44.13100 23.27900
H  42.34700 43.23500 31.37400
H  42.29600 40.33400 31.66700
H  44.60300 40.44300 31.25100
H  44.15500 41.66900 32.42200
H  44.66900 42.04700 30.68500
H  39.98000 41.33400 31.29500
H  39.83100 43.01200 31.87700
H  41.77800 41.87200 33.65100
H  40.70300 40.58300 33.48000
H  44.75900 37.31800 29.26600
H  45.37000 36.16200 28.05600
H  43.72200 36.08300 28.66400
H  44.78700 34.77700 25.45500
H  43.17100 33.88600 25.34700
H  43.61100 34.69400 26.78500
H  40.81400 39.62100 21.85900
H  41.54100 42.37200 21.53300
H  43.76600 39.87500 21.91000
H  43.07300 40.82900 20.63200
H  42.56500 39.14400 20.84800
H  39.48300 41.15900 20.64600
H  39.02200 42.76300 21.27600
H  37.47300 41.49800 22.64600
H  38.76200 40.58700 23.40300
H  38.08300 40.05300 21.96500
H  38.95600 46.06600 24.17300
H  40.18500 47.20000 24.58000
H  38.77900 46.92400 25.78200
H  39.35100 44.83500 30.15900
H  42.16500 47.28900 32.48000
H  41.67100 45.99600 33.53300
H  40.69100 47.35500 33.42200

