158

Mg 48.84000 45.43400 42.90000
C  45.40600 45.45800 41.66700
C  48.90200 41.99400 41.98100
C  52.17900 45.41600 43.17400
C  48.87100 48.87700 42.71400
N  47.39600 43.90900 41.82100
C  46.00000 44.16000 41.50200
C  45.25600 42.88700 41.19000
C  46.38800 41.80800 41.25900
C  47.67300 42.57000 41.76400
C  46.11800 40.62700 42.29200
C  44.46300 42.95000 39.79300
C  45.24400 43.29300 38.50100
H  45.44600 42.32200 37.29300
N  50.30500 43.87700 42.76800
C  50.11400 42.54600 42.42000
C  51.34000 41.88500 42.71600
C  52.30500 42.81000 43.16900
C  51.60600 44.15100 43.03600
C  51.59500 40.41800 42.43900
C  53.78000 42.64000 43.63800
O  54.18800 41.47800 43.63800
C  54.77700 43.62900 44.26000
N  50.32400 46.95800 42.74800
C  51.61900 46.65300 43.14000
C  52.36500 48.00900 43.26600
C  51.40100 49.05200 42.60100
C  50.15400 48.27600 42.70300
C  52.78100 48.39100 44.77200
C  51.70600 49.37200 41.13700
C  52.30100 50.68100 40.74200
N  47.44400 46.88800 42.48400
C  47.62500 48.21300 42.59700
C  46.27100 48.86100 42.48000
C  45.46200 47.76700 41.98000
C  46.16200 46.58200 42.06200
C  45.90800 50.33300 42.60200
C  44.13400 47.47900 41.60800
O  43.13500 48.23300 41.58600
C  44.05500 46.02800 41.29100
C  42.81700 45.44900 41.91500
O  41.79600 44.98200 41.36100
O  42.94300 45.41100 43.27100
C  41.70900 45.24800 44.06400
H  48.92700 40.90500 41.89700
H  53.26600 45.33900 43.24000
H  48.85200 49.96800 42.77200
H  44.52900 42.78400 41.99600
H  46.66800 41.37600 40.29800
H  46.81000 40.80700 43.11500
H  46.22100 39.62200 41.88400
H  45.13500 40.69200 42.75900
H  43.60700 43.57900 40.03800
H  44.11600 41.94300 39.56100
H  46.23700 43.69800 38.69700
H  44.68100 44.16200 38.15900
H  51.61000 39.78500 43.32600
H  52.48600 40.17500 41.85900
H  50.78900 39.92100 41.90000
H  55.50700 43.22200 44.96000
H  54.12900 44.29900 44.82400
H  55.30200 44.18400 43.48100
H  53.32400 47.83400 42.77800
H  51.33700 49.98800 43.15600
H  53.86500 48.28600 44.82600
H  52.29800 47.74500 45.50400
H  52.52100 49.39400 45.10900
H  50.91200 49.14800 40.42400
H  52.42900 48.65400 40.75100
H  53.37600 50.53700 40.63100
H  52.06000 51.41700 41.50900
H  51.82800 51.12600 39.86700
H  44.90400 50.57000 42.25000
H  46.55200 50.97900 42.00600
H  46.03200 50.65500 43.63500
H  43.99600 46.00900 40.20300
H  41.34600 44.22200 44.01700
H  40.95000 45.96600 43.75400
H  42.01700 45.55700 45.06400
Mg 36.92600 49.55900 24.37100
C  36.96400 47.72200 27.36100
C  35.69800 52.27200 26.37100
C  36.06700 51.10200 21.57500
C  37.53300 46.68500 22.63700
N  36.51400 49.95000 26.59300
C  36.69300 49.07500 27.63900
C  36.47600 49.78400 29.02400
C  36.15200 51.26100 28.65500
C  36.16100 51.17000 27.09900
C  34.88100 51.81400 29.33800
C  37.85400 49.61800 29.87000
C  37.87200 49.16900 31.31800
H  36.54500 48.95100 32.05000
N  36.06200 51.39200 24.06600
C  35.71500 52.42100 24.95000
C  35.19000 53.54500 24.17000
C  35.27400 53.21100 22.79600
C  35.85600 51.89600 22.78900
C  34.82000 54.76300 24.97500
C  34.80700 53.95900 21.54800
O  34.87700 53.48800 20.43500
C  34.15400 55.35500 21.71300
N  36.73100 48.93600 22.37700
C  36.44700 49.76900 21.34000
C  36.80800 49.23000 20.03800
C  37.42700 47.85400 20.39600
C  37.21100 47.77200 21.87700
C  35.56800 49.34900 19.08200
C  38.96600 47.82700 20.14400
C  39.35200 46.49900 19.55900
N  37.28600 47.61200 24.86600
C  37.50800 46.53200 24.02200
C  37.69100 45.37300 24.82200
C  37.54200 45.81500 26.16500
C  37.25300 47.16200 26.12700
C  37.86100 44.02100 24.33800
C  37.46300 45.38000 27.53900
O  37.82000 44.29900 28.01700
C  37.08600 46.57500 28.31000
C  35.79900 46.28800 29.08900
O  34.65500 46.69700 28.80300
O  36.14000 45.60100 30.17000
C  34.95400 45.23700 30.92900
H  35.28700 53.19100 26.79400
H  35.94000 51.58600 20.60400
H  37.71800 45.74900 22.10500
H  35.61500 49.40600 29.57600
H  36.97700 51.94200 28.86300
H  34.10700 52.06700 28.61400
H  35.01300 52.67700 29.99200
H  34.53300 51.06000 30.04400
H  38.42300 50.54800 29.85600
H  38.43000 48.91700 29.26500
H  38.44400 49.90200 31.88800
H  38.31000 48.17200 31.26000
H  34.34200 55.52900 24.36400
H  35.68800 55.14000 25.51500
H  34.07200 54.49800 25.72200
H  33.75200 55.69900 20.76000
H  34.87200 56.13300 21.97300
H  33.33000 55.36100 22.42700
H  37.62800 49.88500 19.74200
H  37.00100 47.01300 19.84900
H  34.68300 49.74300 19.58200
H  35.33900 48.34300 18.73000
H  35.81400 49.91000 18.18100
H  39.59900 47.92900 21.02500
H  39.36500 48.58500 19.47000
H  39.09000 45.69500 20.24600
H  40.42800 46.39400 19.41800
H  38.85500 46.40000 18.59400
H  38.87600 43.91600 23.95400
H  37.02700 43.76900 23.68300
H  37.83100 43.47300 25.27900
H  37.77000 46.93300 29.07900
H  35.17700 44.61600 31.79600
H  34.27200 44.62600 30.33600
H  34.31900 46.03000 31.32400

