158

Mg 41.70600 40.48600 26.14500
C  40.99400 43.03600 28.49400
C  43.17600 38.59600 28.63800
C  42.59100 38.20800 23.76900
C  41.12000 42.77400 23.61200
N  42.17800 40.85900 28.33900
C  41.63600 41.86100 29.10300
C  41.84400 41.56200 30.55500
C  42.64200 40.23200 30.55200
C  42.63000 39.84800 29.05200
C  44.14100 40.23000 31.08900
C  40.55500 41.49000 31.32200
C  40.68300 42.22600 32.60600
H  39.83500 41.88700 33.77300
N  42.71700 38.66500 26.23700
C  43.19300 38.07600 27.35700
C  43.63600 36.76900 27.02900
C  43.44800 36.52400 25.63900
C  42.91600 37.82100 25.13500
C  44.10800 35.77500 28.02500
C  43.85400 35.38100 24.74800
O  43.70900 35.28600 23.54600
C  44.28300 34.15300 25.40400
N  42.12100 40.62300 24.08800
C  42.26600 39.49200 23.35500
C  42.19800 39.84300 21.85200
C  41.70600 41.25900 21.83800
C  41.58900 41.56600 23.29000
C  43.54100 39.64600 21.15200
C  40.46300 41.53200 21.03000
C  39.02100 41.06900 21.58700
N  41.01000 42.47800 26.01800
C  40.85300 43.29200 24.93500
C  40.48500 44.58300 25.39400
C  40.45000 44.54400 26.73300
C  40.83000 43.23100 27.08300
C  40.11700 45.71900 24.51100
C  40.07500 45.22700 27.95400
O  39.43700 46.28700 28.06600
C  40.42000 44.29900 29.09500
C  41.34100 44.98000 30.06600
O  42.53800 45.02900 29.93600
O  40.61300 45.41400 31.20500
C  41.43700 45.87500 32.32200
H  43.70000 38.08800 29.45000
H  42.77000 37.42600 23.02800
H  40.84800 43.45800 22.80400
H  42.42600 42.43700 30.84500
H  42.17000 39.39400 31.06500
H  44.83500 40.16900 30.25100
H  44.34400 39.39300 31.75700
H  44.30400 41.13300 31.67700
H  40.37900 40.48500 31.70600
H  39.65100 41.66100 30.73800
H  40.55100 43.27000 32.32200
H  41.67800 42.26200 33.05000
H  43.70400 35.88900 29.03100
H  45.18900 35.65300 27.95600
H  43.50200 34.90000 27.79100
H  43.38300 33.71000 25.83100
H  45.02700 34.18100 26.20000
H  44.57100 33.44300 24.62800
H  41.40400 39.23900 21.41300
H  42.53100 41.84000 21.42700
H  43.88000 40.57100 20.68600
H  43.30300 38.90200 20.39200
H  44.31300 39.09500 21.69000
H  40.51400 40.98000 20.09100
H  40.50100 42.60200 20.82500
H  39.09600 40.01800 21.86800
H  38.25700 41.15600 20.81400
H  38.66200 41.63600 22.44500
H  39.30000 46.32500 24.90400
H  39.80000 45.40600 23.51700
H  40.90700 46.42200 24.24800
H  39.47900 43.98600 29.54700
H  40.87500 46.55000 32.96700
H  42.39100 46.29000 31.99600
H  41.69600 45.03600 32.96800
Mg -5.78200 25.13700 25.39100
C  -4.02800 26.44400 28.09200
C  -7.20000 22.83400 27.60600
C  -7.13700 23.50700 22.69200
C  -3.97800 27.23400 23.28500
N  -5.58600 24.75900 27.59700
C  -4.88100 25.43300 28.51100
C  -5.28900 25.01200 29.88600
C  -5.92300 23.63200 29.65700
C  -6.28700 23.74200 28.18400
C  -5.18200 22.37100 30.10700
C  -6.17200 26.04100 30.55100
C  -6.19500 26.09100 32.11600
H  -5.51200 25.00600 32.98100
N  -7.09200 23.52700 25.19900
C  -7.59100 22.75800 26.20900
C  -8.51800 21.78500 25.71100
C  -8.54400 21.97700 24.27700
C  -7.54100 23.09100 23.94400
C  -9.04200 20.61100 26.49100
C  -9.35600 21.15800 23.26700
O  -9.42100 21.35400 22.05400
C  -10.30200 20.01400 23.72600
N  -5.44100 25.24000 23.32000
C  -6.20700 24.46300 22.42200
C  -5.90400 24.87200 21.01200
C  -5.05600 26.18400 21.14000
C  -4.76700 26.22600 22.63200
C  -5.22600 23.89800 20.01700
C  -5.84100 27.38900 20.50500
C  -7.02900 28.02600 21.13700
N  -4.34600 26.54900 25.66400
C  -3.64900 27.22500 24.67500
C  -2.79400 28.16400 25.25200
C  -2.83300 27.89800 26.63500
C  -3.84000 26.88400 26.82200
C  -1.96800 29.32700 24.65200
C  -2.34400 28.21400 27.93500
O  -1.53000 29.06600 28.24900
C  -3.13800 27.31900 28.97400
C  -2.16400 26.54000 29.85300
O  -1.38900 25.63600 29.51300
O  -2.41900 26.97300 31.14800
C  -1.59500 26.33300 32.18300
H  -7.51000 22.14300 28.39200
H  -7.49600 22.99200 21.79800
H  -3.33900 27.79700 22.60200
H  -4.41900 24.94000 30.53800
H  -6.82800 23.58900 30.26200
H  -5.08000 21.67000 29.27800
H  -5.77600 21.81800 30.83400
H  -4.25300 22.68100 30.58600
H  -7.19000 25.87200 30.19800
H  -5.82200 27.01800 30.21700
H  -7.21900 26.03100 32.48600
H  -5.84500 27.04400 32.51300
H  -8.71900 20.74500 27.52300
H  -8.73000 19.65500 26.07200
H  -10.13100 20.65500 26.53300
H  -11.13200 20.42300 24.30100
H  -9.62100 19.32300 24.22400
H  -10.68400 19.46800 22.86300
H  -6.83400 25.04000 20.46900
H  -4.21200 26.16400 20.45000
H  -5.51000 22.84600 20.03700
H  -4.15600 23.97600 20.21000
H  -5.63300 24.14400 19.03600
H  -6.00600 27.17300 19.44900
H  -5.04300 28.12800 20.42700
H  -6.80800 28.98300 21.60900
H  -7.45800 27.28400 21.81100
H  -7.85000 28.21600 20.44500
H  -0.94800 28.99100 24.46900
H  -1.97700 30.15200 25.36400
H  -2.44800 29.60700 23.71400
H  -3.78400 27.91900 29.61600
H  -1.72600 26.92900 33.08600
H  -0.55100 26.44100 31.89100
H  -1.72000 25.25400 32.28300

