158

Mg 41.24100 41.36900 26.67300
C  40.74700 44.11800 29.01900
C  41.87100 39.31700 29.35900
C  42.06500 39.10400 24.52000
C  41.14300 43.77200 24.19000
N  41.27500 41.73900 28.92600
C  40.91900 42.80900 29.64100
C  40.96600 42.55500 31.10700
C  41.43700 41.02600 31.32500
C  41.63600 40.70700 29.80200
C  42.74500 40.60500 32.12800
C  39.64700 42.86300 31.92500
C  39.81400 43.78900 33.19400
H  39.32100 43.25900 34.54800
N  41.80500 39.48300 26.93000
C  42.00500 38.80600 28.08700
C  42.41300 37.45800 27.82800
C  42.38400 37.33000 26.42300
C  42.07600 38.70300 25.88200
C  42.90200 36.42200 28.90400
C  42.58400 36.14000 25.53000
O  42.46600 36.17500 24.31700
C  43.12900 34.89700 26.08000
N  41.69200 41.39000 24.65000
C  41.85600 40.31200 23.94900
C  41.67800 40.56600 22.43500
C  41.35700 42.10600 22.35000
C  41.41600 42.48000 23.82900
C  42.90400 40.10300 21.57500
C  40.01100 42.48300 21.69700
C  38.69300 42.26200 22.46500
N  40.94900 43.53400 26.56500
C  41.00500 44.31700 25.45000
C  40.83100 45.66500 25.90600
C  40.78000 45.62500 27.31500
C  40.84100 44.32300 27.66700
C  40.79200 46.85300 25.09700
C  40.70600 46.40800 28.46600
O  40.69100 47.61900 28.62500
C  40.68600 45.42300 29.65800
C  41.81700 45.79500 30.52900
O  42.96600 45.34000 30.40400
O  41.42100 46.79900 31.37600
C  42.56200 47.30500 32.17500
H  42.06300 38.79000 30.29600
H  42.11900 38.45200 23.64600
H  41.05200 44.57000 23.45000
H  41.77400 43.09500 31.60000
H  40.67700 40.33200 31.68300
H  42.69300 39.60800 32.56500
H  42.70700 41.36100 32.91200
H  43.59500 40.70600 31.45200
H  39.26800 41.92100 32.32100
H  38.89300 43.39400 31.34300
H  39.15900 44.64900 33.05800
H  40.86100 43.98700 33.42400
H  43.92300 36.07400 28.74100
H  42.32200 35.50500 29.01100
H  42.89500 36.87400 29.89600
H  42.41600 34.49600 26.80000
H  44.01000 35.08700 26.69400
H  43.38000 34.22100 25.26200
H  40.76300 40.02000 22.20500
H  42.15900 42.62000 21.82000
H  43.64400 39.53700 22.14000
H  43.57300 40.77500 21.03700
H  42.52200 39.33300 20.90500
H  39.85400 42.01000 20.72800
H  40.06500 43.52700 21.38700
H  38.80100 42.03500 23.52600
H  38.17300 41.48800 21.90000
H  38.15800 43.20300 22.34300
H  40.04300 47.57100 25.42900
H  40.57100 46.69100 24.04200
H  41.75800 47.34700 24.98800
H  39.69700 45.61000 30.07500
H  43.34900 47.72400 31.54800
H  43.06900 46.48900 32.69000
H  42.28500 48.11200 32.85300
Mg 0.79300 43.13300 26.36500
C  2.69500 42.90600 29.28800
C  -2.07200 42.47000 28.15200
C  -0.75300 42.72000 23.43700
C  3.83700 43.43200 24.63500
N  0.34100 42.59400 28.46500
C  1.32200 42.77300 29.49900
C  0.64000 42.90500 30.89000
C  -0.88300 42.52600 30.50600
C  -0.89000 42.59800 28.92600
C  -1.45900 41.22400 31.12900
C  0.84800 44.27700 31.50800
C  1.32800 44.38100 32.93300
H  0.97000 43.27900 33.94100
N  -1.11400 42.77800 25.87000
C  -2.20500 42.57200 26.74000
C  -3.43500 42.47700 26.01300
C  -3.06900 42.51700 24.63300
C  -1.58000 42.67800 24.60400
C  -4.81700 42.45600 26.63600
C  -3.88100 42.53600 23.40800
O  -3.40100 42.78400 22.31700
C  -5.31200 42.46100 23.47300
N  1.50500 42.85100 24.40000
C  0.66300 42.78100 23.33700
C  1.38600 42.71100 21.96100
C  2.77300 43.27900 22.34000
C  2.72900 43.12200 23.90400
C  1.45400 41.32700 21.32300
C  3.11900 44.72800 21.83000
C  4.24400 44.80000 20.78100
N  2.92500 43.03500 26.80700
C  3.99900 43.33500 25.99800
C  5.17600 43.61600 26.78300
C  4.73500 43.24600 28.08000
C  3.32000 43.04300 28.05800
C  6.52700 44.00700 26.32400
C  5.12300 43.04200 29.49000
O  6.26100 42.98100 29.91300
C  3.85700 42.91600 30.35900
C  4.02800 41.69600 31.29900
O  3.97900 40.53600 30.90500
O  4.22000 42.17100 32.56300
C  4.57000 41.19000 33.53900
H  -3.02800 42.28500 28.64500
H  -1.06200 42.77300 22.39000
H  4.73800 43.80300 24.14200
H  1.08700 42.08900 31.45700
H  -1.52300 43.37000 30.76500
H  -0.74900 40.80600 31.84300
H  -1.53700 40.49700 30.32000
H  -2.42600 41.33000 31.62100
H  -0.03600 44.91100 31.43700
H  1.50800 44.89500 30.89900
H  0.93000 45.30900 33.34500
H  2.41700 44.41900 32.95900
H  -5.53100 43.18600 26.25400
H  -4.89800 42.63100 27.70800
H  -5.29300 41.48100 26.52900
H  -5.75400 41.88500 24.28600
H  -5.60900 41.94600 22.55900
H  -5.69400 43.48100 23.41700
H  0.85400 43.42700 21.33400
H  3.57300 42.62800 21.98800
H  2.43700 41.10100 20.90900
H  0.79000 41.21000 20.46600
H  1.30400 40.67200 22.18100
H  3.25900 45.41300 22.66700
H  2.16000 45.00500 21.39200
H  5.08900 45.33100 21.21900
H  3.86800 45.34600 19.91600
H  4.51400 43.84000 20.34200
H  6.89900 43.33300 25.55300
H  7.26000 44.00400 27.13100
H  6.53900 44.98500 25.84300
H  3.81400 43.80500 30.98900
H  3.98900 41.33000 34.45100
H  5.62400 41.29200 33.79600
H  4.38500 40.14500 33.29100

