158

Mg 54.42500 25.25900 44.93800
C  51.67500 27.49600 44.37200
C  52.20000 22.72600 43.96700
C  57.02600 23.21900 44.69800
C  56.47000 27.91900 45.47600
N  52.15800 25.14700 44.28000
C  51.25000 26.19400 44.13900
C  49.87000 25.75100 43.57800
C  49.94200 24.23700 44.01300
C  51.52300 24.00300 44.00500
C  49.27200 23.83100 45.33400
C  49.67600 25.87800 42.07800
C  48.21700 25.83300 41.56500
H  47.99100 25.49700 40.07400
N  54.58400 23.21100 44.48600
C  53.54600 22.37300 44.07100
C  54.08100 20.99800 43.94200
C  55.46100 21.13600 44.31500
C  55.78700 22.57200 44.54200
C  53.16100 19.83000 43.71500
C  56.33900 19.86700 44.57800
O  56.01400 18.68300 44.33900
C  57.93100 19.97500 44.83600
N  56.51400 25.65800 44.84600
C  57.33600 24.62100 44.94200
C  58.78100 25.13200 44.97300
C  58.58100 26.57400 45.47200
C  57.14500 26.77500 45.24000
C  59.79200 24.26100 45.81100
C  59.49100 27.53900 44.65700
C  59.94000 28.75500 45.48400
N  54.16700 27.30400 45.07900
C  55.08900 28.21800 45.25500
C  54.48100 29.55400 45.27400
C  53.14700 29.33000 44.88200
C  52.96500 27.91400 44.79900
C  55.08700 30.90000 45.74200
C  51.83300 29.93600 44.62300
O  51.48800 31.12800 44.65500
C  50.84600 28.82800 44.18700
C  50.43600 29.14100 42.75300
O  51.20600 29.22000 41.79800
O  49.12100 29.32800 42.66200
C  48.74300 29.60300 41.21600
H  51.63700 21.79900 43.83900
H  57.83700 22.51300 44.89000
H  57.04100 28.82000 45.70500
H  49.05100 25.97900 44.26000
H  49.45600 23.68700 43.20700
H  48.29300 23.38100 45.17000
H  49.29700 24.72700 45.95300
H  49.90100 23.19600 45.95700
H  50.25300 25.12300 41.54600
H  50.09300 26.86100 41.85900
H  47.77700 26.81700 41.72700
H  47.71900 25.01500 42.08700
H  52.49000 19.81700 44.57400
H  53.67900 18.87600 43.81100
H  52.55500 19.92500 42.81400
H  58.40500 19.02900 44.57300
H  58.02900 20.37000 45.84700
H  58.33900 20.74600 44.18200
H  59.10200 25.08600 43.93200
H  58.84000 26.70500 46.52300
H  60.34300 23.63100 45.11200
H  59.34000 23.59700 46.54700
H  60.51800 24.84800 46.37200
H  58.85100 27.84600 43.82900
H  60.41300 27.05300 44.34000
H  59.72200 29.66400 44.92300
H  60.97900 28.73300 45.81300
H  59.35700 28.67100 46.40100
H  55.96400 31.10500 45.12800
H  55.23000 30.75400 46.81300
H  54.30500 31.62200 45.50600
H  49.95700 28.96100 44.80400
H  47.66700 29.43700 41.15700
H  49.12500 28.93000 40.44900
H  48.98200 30.64200 40.98900
Mg -11.71000 15.70000 42.30700
C  -8.66800 13.85200 41.86600
C  -10.13000 18.42300 41.13600
C  -14.73300 17.10700 42.14000
C  -13.27700 12.57100 43.21500
N  -9.69500 15.98000 41.31700
C  -8.62300 15.19600 41.46700
C  -7.41900 15.96500 41.02700
C  -7.81900 17.44600 41.22500
C  -9.34800 17.29700 41.27000
C  -7.12200 18.19700 42.36200
C  -6.88200 15.53400 39.69600
C  -5.36800 15.72400 39.36900
H  -4.79600 16.72600 38.38700
N  -12.27800 17.57900 41.83000
C  -11.50200 18.62100 41.31400
C  -12.22300 19.79300 41.17900
C  -13.62800 19.37600 41.46400
C  -13.60400 17.96400 41.88800
C  -11.61700 21.13600 40.65500
C  -14.82700 20.31800 41.35800
O  -14.74500 21.48400 40.94400
C  -16.13600 19.84200 41.87400
N  -13.67200 14.91200 42.62900
C  -14.74700 15.78100 42.49000
C  -16.03800 14.96200 42.46400
C  -15.69400 13.55100 43.14500
C  -14.10500 13.66300 42.93500
C  -17.17300 15.57600 43.39600
C  -16.34400 12.32000 42.50000
C  -16.81000 11.18300 43.42400
N  -11.12700 13.62200 42.59400
C  -11.84600 12.51800 43.02300
C  -10.89900 11.36400 43.21800
C  -9.65600 11.85400 42.72000
C  -9.86800 13.22700 42.29500
C  -11.18500 10.06600 43.81600
C  -8.25100 11.53500 42.50700
O  -7.67600 10.46400 42.63600
C  -7.55900 12.76400 41.92100
C  -6.52100 13.28100 42.88900
O  -6.64500 13.84900 43.95800
O  -5.30200 13.16700 42.30200
C  -4.18900 13.54800 43.07500
H  -9.56700 19.32200 40.87500
H  -15.71600 17.53200 41.92700
H  -13.71000 11.68800 43.68900
H  -6.57100 15.95100 41.71300
H  -7.45300 18.03400 40.38300
H  -7.86300 18.77000 42.92000
H  -6.38900 18.85700 41.89900
H  -6.61900 17.56900 43.09800
H  -7.45400 16.23600 39.08900
H  -7.30000 14.55900 39.44700
H  -5.01100 14.73200 39.09100
H  -4.90600 16.02700 40.30900
H  -10.55800 21.18900 40.90600
H  -12.17800 21.97100 41.07600
H  -11.81600 21.25000 39.58900
H  -16.51300 19.13600 41.13400
H  -16.76800 20.72900 41.84000
H  -16.06100 19.43800 42.88400
H  -16.38300 14.92600 41.43100
H  -15.69300 13.41800 44.22700
H  -18.14200 15.49200 42.90500
H  -16.95400 16.64100 43.46000
H  -17.30400 15.08800 44.36200
H  -15.75600 11.85800 41.70700
H  -17.21400 12.77000 42.02100
H  -16.47500 11.23400 44.46000
H  -16.33900 10.31100 42.97000
H  -17.88600 11.01600 43.46500
H  -10.78200 9.30200 43.15100
H  -12.25600 9.88700 43.91300
H  -10.63200 9.89100 44.73900
H  -7.14200 12.34800 41.00400
H  -3.31500 13.75700 42.45800
H  -3.92300 12.71100 43.72100
H  -4.30300 14.46000 43.66100

