158

Mg -1.86400 17.27100 27.33800
C  -2.32600 15.19800 30.16300
C  -2.38200 19.97100 29.48100
C  -1.56600 19.24300 24.74500
C  -2.02800 14.46700 25.28100
N  -2.25900 17.50500 29.61800
C  -2.32000 16.54400 30.55700
C  -2.28600 17.16400 31.98600
C  -2.51400 18.67800 31.70800
C  -2.42000 18.72800 30.17600
C  -3.84500 19.24200 32.21100
C  -0.98700 16.89400 32.84900
C  -0.97400 16.31800 34.23400
H  0.17900 16.65500 35.26500
N  -1.84400 19.34900 27.09900
C  -2.07500 20.32300 28.07300
C  -2.00500 21.57600 27.46300
C  -1.58600 21.36400 26.14500
C  -1.66500 19.96400 25.93100
C  -2.15000 22.83400 28.23500
C  -1.22400 22.36200 25.09300
O  -0.79600 22.07500 23.96000
C  -1.14000 23.81400 25.30900
N  -1.88400 16.86300 25.30400
C  -1.66200 17.90800 24.42100
C  -1.74600 17.39700 22.95100
C  -1.42200 15.84300 23.17800
C  -1.87600 15.70900 24.66600
C  -3.03100 17.63100 22.12600
C  0.07800 15.53900 22.87300
C  1.09600 15.95900 23.95300
N  -2.04600 15.28200 27.60900
C  -2.24800 14.25000 26.67000
C  -2.38700 12.94100 27.36300
C  -2.30700 13.31900 28.70700
C  -2.20700 14.71400 28.81900
C  -2.60900 11.55600 26.81900
C  -2.46600 12.70200 30.02500
O  -2.66500 11.53500 30.36000
C  -2.48900 13.95000 30.98100
C  -1.40100 13.66100 31.94000
O  -0.19300 13.71000 31.74800
O  -2.01200 13.19900 33.04000
C  -1.09400 12.28300 33.85100
H  -2.43500 20.80500 30.18400
H  -1.59500 19.96600 23.92700
H  -1.87600 13.56000 24.69300
H  -3.20300 16.83400 32.47500
H  -1.75900 19.32200 32.15800
H  -4.31500 19.90200 31.48300
H  -3.66900 19.85100 33.09800
H  -4.62700 18.51400 32.43000
H  -0.33200 17.76400 32.81300
H  -0.37800 16.17200 32.30400
H  -0.92800 15.24800 34.03300
H  -1.94800 16.54400 34.66700
H  -2.69500 22.69100 29.16800
H  -2.72800 23.57100 27.67800
H  -1.17400 23.24000 28.50100
H  -0.19100 23.90500 25.83700
H  -1.93900 24.28400 25.88300
H  -0.92400 24.36500 24.39400
H  -0.90600 17.83600 22.41200
H  -2.08700 15.18800 22.61500
H  -3.81900 18.29900 22.47300
H  -3.56200 16.69000 21.98600
H  -2.70200 18.12800 21.21400
H  0.34700 16.23100 22.07400
H  0.24300 14.54000 22.46900
H  0.62700 16.21100 24.90400
H  1.75500 16.76300 23.62500
H  1.77200 15.10500 23.92200
H  -1.75800 11.21400 26.23000
H  -3.52900 11.37800 26.26100
H  -2.49900 10.94500 27.71400
H  -3.46500 13.85000 31.45700
H  -0.38000 11.70300 33.26700
H  -1.69800 11.65400 34.50400
H  -0.49100 12.93400 34.48400
Mg -4.94600 25.46000 26.00200
C  -3.42500 26.49400 28.98400
C  -6.91000 23.35400 27.78600
C  -5.64800 23.73100 23.15100
C  -2.46700 27.13300 24.19400
N  -5.04200 24.85000 28.11700
C  -4.46800 25.53100 29.17900
C  -5.13100 25.16300 30.51300
C  -6.00700 23.96400 30.08400
C  -5.98400 24.05300 28.58000
C  -5.38000 22.52000 30.34800
C  -6.00000 26.35800 31.04900
C  -5.94200 26.52600 32.58300
H  -5.38500 25.42300 33.47300
N  -6.24000 23.83600 25.51700
C  -7.03800 23.20600 26.43400
C  -7.79500 22.17400 25.71100
C  -7.49300 22.26000 24.34500
C  -6.35800 23.25600 24.32100
C  -8.84800 21.26400 26.35800
C  -8.09200 21.54800 23.09700
O  -7.79700 21.85900 21.96600
C  -9.14000 20.52200 23.25700
N  -4.12900 25.38000 24.01300
C  -4.63400 24.65500 23.00400
C  -3.95100 24.91700 21.59400
C  -3.25400 26.24300 21.96500
C  -3.30700 26.37600 23.49500
C  -3.09800 23.73100 21.26800
C  -3.76600 27.56600 21.23900
C  -2.72100 28.33100 20.44400
N  -3.32700 26.75800 26.49500
C  -2.40200 27.34700 25.67400
C  -1.54400 28.18400 26.46800
C  -1.92400 27.94700 27.77900
C  -3.00000 27.00900 27.73200
C  -0.49200 29.13100 25.85300
C  -1.66600 28.31300 29.14100
O  -0.79300 29.00700 29.61500
C  -2.76200 27.47300 29.99400
C  -1.93300 26.75900 31.00700
O  -1.03300 25.94400 30.76800
O  -2.21000 27.24800 32.24900
C  -1.32600 26.77900 33.32200
H  -7.63800 22.81400 28.39600
H  -5.82100 23.18200 22.22300
H  -1.72700 27.61600 23.55300
H  -4.40600 24.85100 31.26400
H  -6.98300 23.98600 30.56800
H  -6.12800 21.73800 30.48600
H  -4.70500 22.61100 31.19800
H  -4.83400 22.17700 29.46900
H  -6.98100 26.23600 30.59100
H  -5.64800 27.29700 30.62100
H  -6.97700 26.68100 32.88800
H  -5.47100 27.46400 32.87700
H  -9.80700 21.53900 25.92000
H  -8.75900 21.36000 27.44000
H  -8.74000 20.22900 26.03500
H  -9.47700 20.23700 22.26000
H  -9.97100 21.03400 23.74400
H  -8.86800 19.68300 23.89800
H  -4.67600 25.06800 20.79400
H  -2.20500 26.03300 21.75500
H  -3.37800 22.85600 21.85400
H  -2.05500 23.99100 21.45000
H  -3.18700 23.59300 20.19100
H  -4.20600 28.28900 21.92500
H  -4.48700 27.19400 20.51100
H  -2.56500 29.40400 20.55600
H  -2.83300 28.28300 19.36100
H  -1.70200 27.95300 20.51900
H  -0.15800 28.74600 24.88900
H  0.30400 29.23100 26.59100
H  -0.97300 30.09300 25.67700
H  -3.44900 28.16500 30.48200
H  -1.41300 27.52000 34.11700
H  -0.32000 26.83400 32.90700
H  -1.54600 25.77800 33.69300

