158

Mg 25.81700 1.26400 29.21100
C  27.75700 0.76300 32.10400
C  23.07200 1.82500 31.18200
C  23.82500 1.10800 26.38400
C  28.59800 0.40300 27.37300
N  25.37400 1.09200 31.41800
C  26.37200 1.06200 32.35300
C  25.70300 1.36800 33.79200
C  24.20700 1.67100 33.52100
C  24.25000 1.57700 31.91900
C  23.20900 0.72000 34.09900
C  26.44600 2.45700 34.59300
C  26.87400 2.17800 36.05400
H  26.58500 3.26000 37.10200
N  23.74700 1.57300 28.78800
C  22.80600 1.75900 29.76600
C  21.49200 1.99700 29.09900
C  21.73600 1.80600 27.69100
C  23.14800 1.48400 27.56300
C  20.18600 2.24500 29.76900
C  20.76500 1.99600 26.54800
O  21.09500 1.95000 25.34700
C  19.37900 2.26100 26.81200
N  26.18300 0.76000 27.16800
C  25.17700 0.74400 26.23800
C  25.73400 0.50400 24.85700
C  27.30900 0.55400 25.07600
C  27.43700 0.61400 26.62800
C  25.11700 -0.67900 24.09000
C  27.99700 1.75200 24.28500
C  28.67200 1.46600 22.97400
N  27.76600 0.63200 29.61900
C  28.84100 0.36300 28.73300
C  29.97900 0.05000 29.53500
C  29.60300 0.20100 30.89200
C  28.24400 0.55400 30.85500
C  31.28200 -0.18500 28.92900
C  30.05700 0.13700 32.24200
O  31.07100 -0.26900 32.75600
C  28.87600 0.58100 33.13500
C  28.61900 -0.40700 34.23500
O  27.96700 -1.40200 34.15700
O  29.30100 0.00100 35.38900
C  28.98900 -0.74200 36.56400
H  22.20900 2.16600 31.75800
H  23.30900 1.31100 25.44300
H  29.44200 0.20800 26.70800
H  25.82400 0.40700 34.29200
H  23.92900 2.72100 33.61100
H  22.33000 1.35600 34.20100
H  23.53500 0.23200 35.01700
H  22.83200 -0.06100 33.43900
H  25.94100 3.42000 34.66900
H  27.37500 2.65000 34.05700
H  27.92700 1.91500 36.14800
H  26.32100 1.27600 36.31700
H  19.90300 3.26000 29.49000
H  20.38500 2.25100 30.84100
H  19.34500 1.60400 29.50600
H  18.85800 1.38700 27.20300
H  18.94000 2.52700 25.85100
H  19.11400 3.11700 27.43200
H  25.40700 1.40800 24.34300
H  27.81200 -0.36100 24.76100
H  25.85500 -1.45200 23.87000
H  24.79200 -0.43500 23.07900
H  24.27100 -1.23500 24.49400
H  28.79200 2.06500 24.96200
H  27.33700 2.59700 24.08800
H  28.41700 0.50100 22.53400
H  29.73100 1.62800 23.17700
H  28.26800 2.15100 22.22900
H  31.50300 0.39300 28.03100
H  31.40000 -1.22700 28.63000
H  32.03500 0.07200 29.67300
H  29.21100 1.49500 33.62600
H  29.54000 -0.30800 37.39800
H  29.16400 -1.81600 36.49400
H  27.94900 -0.68800 36.88700
Mg -10.00800 39.77800 40.72900
C  -8.56500 36.69200 39.50700
C  -7.14500 41.35000 39.49800
C  -11.65400 42.72300 40.74900
C  -13.00800 38.06100 40.96800
N  -8.10200 39.07100 39.68700
C  -7.71100 37.79200 39.28100
C  -6.34500 37.79400 38.59000
C  -5.77200 39.20800 39.03300
C  -7.07200 39.94400 39.43500
C  -4.68600 39.20300 40.12500
C  -6.23800 37.49200 37.08400
C  -7.52800 37.71800 36.26400
H  -7.82500 36.79700 35.05500
N  -9.41100 41.80200 40.34600
C  -8.23900 42.21200 39.87300
C  -8.14400 43.63700 39.90300
C  -9.45400 44.04700 40.25800
C  -10.26300 42.87100 40.49400
C  -6.90500 44.47700 39.43500
C  -9.87700 45.49100 40.43000
O  -9.13400 46.40200 40.02700
C  -11.13100 45.83900 41.13100
N  -11.88200 40.35600 40.97400
C  -12.42800 41.59900 41.00800
C  -13.97600 41.63200 41.06500
C  -14.37100 40.19100 41.30900
C  -12.98100 39.48200 41.06500
C  -14.49700 42.60600 42.17100
C  -15.60400 39.74400 40.44500
C  -16.77700 38.98200 41.05700
N  -10.66200 37.69300 40.64400
C  -11.94400 37.22200 40.72300
C  -11.82400 35.75300 40.54900
C  -10.55800 35.49800 40.06500
C  -9.87600 36.74700 40.10500
C  -12.92900 34.73900 40.68700
C  -9.67100 34.52200 39.55000
O  -9.79300 33.31800 39.37400
C  -8.34900 35.19400 39.19500
C  -7.30300 34.59200 40.02500
O  -7.25100 34.68700 41.24300
O  -6.45400 33.86600 39.25800
C  -5.39300 33.10300 39.92600
H  -6.21700 41.87000 39.25000
H  -12.22900 43.64900 40.68200
H  -13.97500 37.55500 41.01400
H  -5.70900 37.15800 39.20600
H  -5.28500 39.64800 38.16200
H  -5.06900 39.14200 41.14400
H  -3.96800 39.99200 39.90200
H  -4.05100 38.31700 40.11700
H  -5.88400 36.46600 36.98300
H  -5.39800 38.10900 36.76300
H  -7.46500 38.73500 35.87700
H  -8.45800 37.59200 36.81800
H  -7.16000 45.48600 39.11200
H  -6.45600 43.87400 38.64500
H  -6.12900 44.40900 40.19700
H  -11.16200 45.49500 42.16500
H  -11.97600 45.64400 40.47100
H  -11.23900 46.91500 40.99400
H  -14.25500 42.05600 40.10000
H  -14.46900 39.90900 42.35800
H  -13.58200 43.13900 42.43200
H  -14.87300 42.16300 43.09200
H  -15.30700 43.23900 41.80800
H  -15.28500 39.04500 39.67300
H  -15.97600 40.67300 40.01200
H  -17.69700 39.52800 40.85000
H  -16.58200 38.79000 42.11200
H  -16.85300 38.03100 40.53000
H  -13.71500 34.88300 39.94600
H  -13.31200 34.77000 41.70700
H  -12.52200 33.73300 40.58100
H  -8.22100 35.07600 38.11900
H  -5.37400 32.10000 39.49900
H  -5.45100 33.16200 41.01300
H  -4.41500 33.55600 39.76300

