158

Mg 36.24200 49.19700 24.80900
C  36.33200 47.45600 27.77300
C  34.86000 51.96600 26.42900
C  35.58900 50.59800 21.82400
C  37.00600 46.16400 23.17700
N  35.45500 49.61300 26.86600
C  35.73600 48.78200 27.94300
C  35.30500 49.49800 29.25200
C  34.66800 50.87300 28.74200
C  35.12100 50.84500 27.26500
C  33.19200 51.05400 29.11800
C  36.53400 49.73000 30.23100
C  36.34900 49.34600 31.71000
H  34.92300 49.28500 32.35700
N  35.51500 51.09300 24.20900
C  34.98100 52.10200 24.97300
C  34.71500 53.32000 24.21700
C  34.91600 52.92800 22.84100
C  35.41000 51.51500 22.89900
C  34.35400 54.62100 24.87500
C  34.82400 53.72400 21.55100
O  35.21400 53.30900 20.44800
C  34.24300 55.03300 21.56700
N  36.11900 48.42900 22.84500
C  35.93700 49.24100 21.81200
C  35.85400 48.30500 20.55800
C  36.63700 47.07700 20.91000
C  36.46400 47.15600 22.36800
C  34.42600 48.05700 20.05300
C  38.10700 46.85000 20.43800
C  39.15500 47.97600 20.71500
N  36.61100 47.19200 25.29000
C  36.99800 46.10400 24.56200
C  37.39100 45.03400 25.48400
C  37.11300 45.50000 26.75300
C  36.67200 46.80700 26.53700
C  37.86800 43.68800 25.04300
C  37.25400 45.21400 28.21300
O  37.59100 44.23000 28.86900
C  36.68600 46.40400 28.89100
C  35.53800 45.85600 29.69300
O  34.40800 45.60400 29.29800
O  36.01800 45.74200 31.01900
C  35.06500 45.08200 31.90400
H  34.47500 52.79400 27.02800
H  35.23800 50.90400 20.83600
H  37.41700 45.25100 22.74200
H  34.49000 48.89100 29.64700
H  35.24200 51.71000 29.13900
H  32.65700 50.10800 29.20100
H  32.64800 51.58200 28.33500
H  33.18200 51.50800 30.10900
H  36.90800 50.75300 30.18900
H  37.39500 49.14700 29.90500
H  36.93100 50.10800 32.22900
H  36.90000 48.41900 31.86800
H  33.29600 54.88100 24.89400
H  34.76100 55.41500 24.24900
H  34.55000 54.66400 25.94600
H  34.05200 55.45500 20.58100
H  35.06400 55.62800 21.96700
H  33.35400 54.92100 22.18700
H  36.38200 48.75400 19.71700
H  36.13700 46.17200 20.56300
H  33.64800 48.74200 20.39000
H  34.11200 47.03400 20.25700
H  34.48300 48.15800 18.96900
H  37.96600 46.78900 19.35900
H  38.53700 45.88000 20.68700
H  38.77500 48.91300 21.12300
H  39.60300 48.07300 19.72600
H  39.92800 47.66600 21.41800
H  37.34400 43.29800 24.17000
H  37.75800 42.93600 25.82400
H  38.90100 43.80800 24.71500
H  37.51600 46.78600 29.48500
H  34.81400 44.09800 31.50700
H  34.17000 45.67200 32.09900
H  35.53600 45.05300 32.88700
Mg 9.77800 48.19500 25.98700
C  8.02300 48.24400 28.97200
C  12.54400 49.24700 27.73300
C  11.45400 48.19200 23.07200
C  6.79700 47.57700 24.21900
N  10.15500 48.71200 28.06400
C  9.44400 48.47800 29.15200
C  10.14000 48.74800 30.40700
C  11.29600 49.61500 29.92200
C  11.41500 49.15100 28.46700
C  11.30200 51.13800 30.14300
C  10.60000 47.56700 31.38100
C  10.35600 47.67100 32.84500
H  10.15700 46.38500 33.70700
N  11.72600 48.62900 25.45400
C  12.75900 49.00000 26.35300
C  14.03000 48.93900 25.66600
C  13.68100 48.62200 24.27600
C  12.28600 48.39700 24.18500
C  15.47800 49.24600 26.16400
C  14.61600 48.63400 23.01100
O  14.14300 48.50300 21.90000
C  16.06100 48.84100 23.15100
N  9.13900 48.01900 23.94100
C  10.05400 48.05700 22.95300
C  9.42900 47.74300 21.59200
C  7.99400 47.30400 21.93700
C  7.93100 47.68500 23.40800
C  9.51300 49.01100 20.62300
C  7.67200 45.78000 21.72200
C  8.12700 44.78600 22.82800
N  7.78700 48.07800 26.39500
C  6.67300 47.82100 25.61000
C  5.55400 47.65400 26.48700
C  6.01600 47.75200 27.80300
C  7.40600 48.07800 27.70400
C  4.13700 47.51700 26.01900
C  5.63800 47.75500 29.18400
O  4.53300 47.62100 29.73400
C  6.94500 47.92600 29.99500
C  7.24400 46.74400 30.79000
O  7.76800 45.72500 30.43600
O  6.90300 46.97600 32.06700
C  6.85200 45.84600 33.01800
H  13.45900 49.67500 28.14700
H  11.88400 48.19000 22.06800
H  5.83100 47.33500 23.77100
H  9.53000 49.39000 31.04300
H  12.16600 49.31400 30.50500
H  10.72600 51.41000 31.02800
H  11.00900 51.60900 29.20500
H  12.25700 51.61300 30.36500
H  11.68500 47.53000 31.28900
H  10.26200 46.61100 30.98100
H  9.40000 48.18700 32.93800
H  11.08400 48.26300 33.39900
H  15.36200 49.40400 27.23700
H  15.98700 50.13400 25.79000
H  16.07600 48.33500 26.14800
H  16.39000 49.72600 23.69600
H  16.30500 48.85900 22.08900
H  16.50100 47.96900 23.63400
H  10.06100 46.94000 21.21300
H  7.12100 47.78300 21.49300
H  10.20700 49.76300 20.99900
H  8.54100 49.46000 20.41800
H  9.87500 48.68600 19.64800
H  7.98800 45.51600 20.71300
H  6.58600 45.68900 21.71600
H  7.26900 44.16000 23.07400
H  8.61300 45.33600 23.63300
H  8.83900 44.11200 22.35200
H  3.86000 46.47200 25.87700
H  3.95400 48.10900 25.12300
H  3.36000 47.89500 26.68400
H  7.01000 48.82800 30.60300
H  7.02600 46.31000 33.98900
H  7.44100 44.93700 32.90200
H  5.78700 45.61900 33.05400

