158

Mg 25.42900 52.15800 26.91700
C  22.91700 52.83400 29.46200
C  27.51000 51.24900 29.56800
C  28.01300 52.17000 24.81600
C  23.33100 53.49900 24.63600
N  25.23500 52.17100 29.28400
C  24.10000 52.27600 30.07700
C  24.32400 51.94700 31.52200
C  25.89100 51.68100 31.55900
C  26.26600 51.69900 30.04700
C  26.74500 52.76400 32.39900
C  23.41400 50.76600 32.06900
C  23.01300 50.65600 33.52900
H  23.70300 51.44800 34.60800
N  27.38500 51.64300 27.15100
C  28.04300 51.21500 28.23500
C  29.44100 50.88100 27.95600
C  29.66100 51.23200 26.60300
C  28.34300 51.70800 26.14200
C  30.43100 50.41100 28.98200
C  30.85400 51.13200 25.73400
O  30.87200 51.49900 24.54200
C  32.11200 50.57600 26.33000
N  25.62900 52.69600 24.94500
C  26.77400 52.65800 24.25100
C  26.66600 53.18000 22.84900
C  25.17000 53.46500 22.79000
C  24.63700 53.21500 24.21600
C  27.58000 54.35500 22.44800
C  24.40600 52.63300 21.74100
C  23.62100 51.39400 22.17500
N  23.47000 52.91100 27.01600
C  22.70300 53.38600 25.93500
C  21.42400 53.79900 26.39700
C  21.52700 53.71500 27.82100
C  22.72800 53.07100 28.09100
C  20.20700 54.36000 25.72800
C  20.77400 53.95500 29.07300
O  19.66700 54.32700 29.22000
C  21.67000 53.33900 30.15700
C  22.02500 54.33000 31.21800
O  22.75700 55.27000 31.09400
O  21.16500 54.11500 32.28300
C  21.19600 55.25200 33.20000
H  28.18800 50.96500 30.37600
H  28.76300 52.25900 24.02700
H  22.67600 54.09900 24.00000
H  23.92900 52.80900 32.05800
H  26.06800 50.67400 31.93700
H  27.29600 53.52400 31.84500
H  27.41000 52.23400 33.08000
H  26.17100 53.41700 33.05800
H  23.93900 49.83900 31.84200
H  22.47700 50.78600 31.51300
H  23.07100 49.59000 33.74500
H  21.97900 50.93300 33.73500
H  30.09800 50.46300 30.01900
H  31.35900 50.97400 28.87900
H  30.61600 49.38100 28.67800
H  31.90100 49.62200 26.81300
H  32.29100 51.33000 27.09700
H  33.00300 50.52400 25.70500
H  26.94400 52.36400 22.18100
H  25.02400 54.54200 22.71800
H  28.36500 54.00400 21.77800
H  28.03800 54.89900 23.27400
H  26.96200 55.06100 21.89300
H  25.14600 52.28800 21.01800
H  23.70700 53.23500 21.16000
H  24.01800 51.07100 23.13800
H  23.87400 50.57700 21.49900
H  22.54100 51.50700 22.08200
H  20.64000 54.60800 24.75900
H  19.84400 55.28000 26.18700
H  19.32500 53.72300 25.66400
H  21.21600 52.50500 30.69100
H  21.25500 56.26700 32.80700
H  22.00000 55.10800 33.92200
H  20.20000 55.19300 33.64000
Mg -9.11500 18.43400 42.37000
C  -5.61800 18.14600 42.48400
C  -8.81400 21.75000 41.60200
C  -12.36100 18.58800 41.89800
C  -9.23500 14.86600 42.12200
N  -7.45700 19.78200 42.08500
C  -6.07400 19.47400 42.16900
C  -5.22100 20.71300 42.03700
C  -6.30200 21.86200 42.02600
C  -7.64000 21.08500 41.89600
C  -6.13900 22.84700 43.23100
C  -4.11900 20.75700 40.95100
C  -4.49300 20.13400 39.62200
H  -4.56400 21.01300 38.37000
N  -10.47800 19.96000 41.90100
C  -10.08700 21.23500 41.66800
C  -11.26800 22.00400 41.33900
C  -12.39600 21.20100 41.56800
C  -11.78300 19.88700 41.85000
C  -11.23000 23.42100 40.89900
C  -13.82700 21.53700 41.42100
O  -14.13800 22.60300 40.91200
C  -14.84100 20.54400 41.80000
N  -10.62000 16.95800 42.09200
C  -11.91800 17.27800 42.07700
C  -12.83100 16.05200 42.11800
C  -11.81500 14.87700 42.10700
C  -10.43900 15.58600 42.02400
C  -13.72800 15.96500 43.35700
C  -12.00700 14.02500 40.84900
C  -12.99100 12.85600 41.00000
N  -7.74800 16.82400 42.47400
C  -7.99000 15.48300 42.29900
C  -6.75900 14.77300 42.33600
C  -5.78700 15.82600 42.53300
C  -6.46400 17.02400 42.55900
C  -6.56400 13.24100 42.12500
C  -4.32300 16.07700 42.58500
O  -3.43500 15.24800 42.62700
C  -4.13000 17.66300 42.55300
C  -3.25900 18.23100 43.66800
O  -2.26500 18.93400 43.57200
O  -3.84900 17.75900 44.88300
C  -3.38100 18.18400 46.23900
H  -8.67600 22.81900 41.42500
H  -13.40800 18.55700 41.58700
H  -9.04000 13.79300 42.18300
H  -4.79000 20.74900 43.03800
H  -6.27300 22.49300 41.13800
H  -5.13800 22.85200 43.66200
H  -6.71100 22.53000 44.10300
H  -6.36200 23.87200 42.93700
H  -3.21100 20.25600 41.28400
H  -3.77700 21.77800 40.78100
H  -5.38500 19.52100 39.75500
H  -3.73600 19.37600 39.42200
H  -10.90200 24.07700 41.70400
H  -12.10500 23.81000 40.37800
H  -10.43300 23.45000 40.15500
H  -14.48200 20.15500 42.75300
H  -14.90300 19.74000 41.06600
H  -15.80900 21.00400 42.00300
H  -13.44300 16.13600 41.22000
H  -11.79500 14.33400 43.05100
H  -13.32700 16.58200 44.16100
H  -13.85900 14.92900 43.66900
H  -14.73300 16.34400 43.16800
H  -10.99500 13.73500 40.56600
H  -12.39200 14.75200 40.13400
H  -13.79800 13.06400 40.29700
H  -13.48500 12.62600 41.94400
H  -12.47400 11.95000 40.68500
H  -6.78900 12.90600 41.11300
H  -7.10900 12.67500 42.88100
H  -5.48200 13.18000 42.24600
H  -3.63000 17.87800 41.60800
H  -2.50300 18.82600 46.17200
H  -3.21000 17.28400 46.83000
H  -4.26600 18.72200 46.57900

