158

Mg 30.56300 58.41400 38.88600
C  27.39100 56.83800 37.97000
C  32.02900 55.52700 37.70600
C  33.37500 59.99500 39.10800
C  28.66300 61.27000 39.61000
N  29.72100 56.50300 37.67300
C  28.44800 56.08300 37.53600
C  28.44300 54.83900 36.71100
C  29.83200 54.20100 37.11400
C  30.59800 55.49200 37.49100
C  29.64400 53.09400 38.24400
C  28.26700 55.01000 35.19600
C  27.00400 54.41900 34.56700
H  26.34000 55.34500 33.57200
N  32.51800 57.86500 38.41500
C  32.93000 56.61800 38.09000
C  34.35800 56.57700 38.15900
C  34.80200 57.84800 38.58900
C  33.59600 58.62400 38.82100
C  35.12600 55.29600 37.83500
C  36.27700 58.29500 38.53100
O  37.07700 57.54800 38.05200
C  36.70400 59.62100 38.93900
N  30.99700 60.42600 39.27800
C  32.26400 60.87100 39.19500
C  32.30000 62.46400 39.25500
C  30.76500 62.75100 39.60600
C  30.08000 61.44400 39.51600
C  33.29500 63.20900 40.17100
C  30.12500 63.96600 38.86000
C  29.33200 64.96600 39.67400
N  28.48600 58.93100 38.93000
C  27.88900 60.10200 39.36700
C  26.45500 59.99000 39.35600
C  26.26400 58.66700 38.90400
C  27.49800 58.11100 38.60600
C  25.51000 61.02900 39.61900
C  25.19500 57.81600 38.62500
O  23.97200 57.88600 38.70900
C  25.92200 56.54000 38.04100
C  25.64100 55.38100 38.91400
O  26.08900 55.13500 40.01900
O  24.59000 54.62100 38.28300
C  24.03600 53.50600 39.03500
H  32.51500 54.57500 37.48000
H  34.30400 60.56300 39.19200
H  28.06700 62.18400 39.58500
H  27.66600 54.22900 37.17100
H  30.32700 53.78200 36.23800
H  30.44000 53.24600 38.97300
H  29.75700 52.07600 37.87100
H  28.67800 53.16300 38.74400
H  29.12500 54.58300 34.67700
H  28.36400 56.08400 35.03700
H  26.30900 54.22400 35.38300
H  27.35100 53.50500 34.08500
H  35.46600 54.74800 38.71300
H  36.01300 55.42600 37.21500
H  34.51700 54.68800 37.16600
H  37.77300 59.61200 39.15300
H  36.26100 59.94900 39.88000
H  36.56100 60.41300 38.20500
H  32.47700 62.74900 38.21800
H  30.67900 62.92300 40.67900
H  33.81200 63.94100 39.55000
H  33.94600 62.42600 40.55900
H  32.94000 63.83400 40.99100
H  29.43100 63.56400 38.12200
H  30.93400 64.54600 38.41600
H  28.44100 65.10800 39.06300
H  29.83900 65.92900 39.63200
H  29.03400 64.68900 40.68600
H  24.56400 60.57800 39.91500
H  25.49600 61.62500 38.70600
H  25.85000 61.66800 40.43400
H  25.56700 56.28900 37.04200
H  23.40800 52.84600 38.43600
H  23.64000 53.77600 40.01300
H  24.88500 52.83900 39.18500
Mg 26.33100 50.35300 25.46700
C  24.11800 51.64400 28.11800
C  28.32800 49.25000 28.08900
C  28.44400 49.57300 23.16300
C  24.25800 52.05400 23.17200
N  26.25300 50.45500 27.89300
C  25.24100 50.95900 28.69900
C  25.58000 50.79700 30.18500
C  26.88800 50.00800 30.16400
C  27.15900 49.85200 28.61600
C  28.08900 50.64800 30.87900
C  24.44100 50.19900 31.04700
C  24.72100 49.56400 32.43200
H  24.36900 50.32400 33.69100
N  28.05800 49.47700 25.54500
C  28.75600 49.06700 26.66100
C  30.07400 48.63000 26.27600
C  30.13000 48.69000 24.86200
C  28.89600 49.27400 24.47400
C  31.21400 48.30100 27.25800
C  31.26400 48.38400 23.84700
O  31.14900 48.56200 22.61900
C  32.56400 47.94400 24.45100
N  26.39800 50.81300 23.34900
C  27.34000 50.26000 22.59500
C  26.98600 50.45300 21.07400
C  25.53000 51.10400 21.10200
C  25.39400 51.42700 22.60400
C  28.03600 51.43600 20.35000
C  24.37100 50.18300 20.52200
C  23.92400 50.62100 19.17000
N  24.54100 51.58200 25.56600
C  23.85100 52.20600 24.55500
C  22.66800 52.88300 25.14800
C  22.77500 52.68300 26.48400
C  23.92700 51.87500 26.78200
C  21.65900 53.72000 24.34600
C  22.10000 52.95900 27.78400
O  21.03700 53.55900 28.04500
C  23.01400 52.32900 28.82000
C  23.44900 53.32100 29.78500
O  24.54600 53.86200 29.95100
O  22.40600 53.46000 30.73000
C  22.65600 54.01800 32.04900
H  28.85900 48.66100 28.84000
H  29.05300 49.15000 22.36100
H  23.56600 52.39500 22.39900
H  25.75200 51.75400 30.67900
H  26.68700 48.99600 30.51500
H  28.56900 49.91300 31.52500
H  27.71300 51.48900 31.46200
H  28.93000 51.02200 30.29400
H  23.92100 49.46000 30.43700
H  23.77200 51.03500 31.24700
H  25.79200 49.38000 32.52400
H  24.26400 48.58200 32.30900
H  31.71800 47.37600 26.97800
H  30.89400 47.99900 28.25600
H  31.96100 49.08800 27.34900
H  32.63000 46.99200 24.97800
H  32.94600 48.74700 25.08200
H  33.15900 47.78100 23.55200
H  27.17800 49.47300 20.63700
H  25.45300 52.10500 20.67800
H  28.71400 51.68200 21.16800
H  27.56000 52.29500 19.87900
H  28.61100 50.84900 19.63300
H  23.52900 50.13100 21.21300
H  24.74500 49.16400 20.42100
H  24.66400 50.45000 18.38800
H  23.64500 51.66900 19.07100
H  23.02400 50.05100 18.94200
H  21.79900 53.65000 23.26700
H  21.55900 54.76900 24.62400
H  20.71100 53.20700 24.50700
H  22.40300 51.65900 29.42500
H  23.51300 54.69100 32.01100
H  23.03600 53.23600 32.70600
H  21.74700 54.43200 32.48500

