158

Mg -2.60900 16.74800 27.29800
C  -3.13800 14.49400 30.10100
C  -3.18300 19.35800 29.58800
C  -2.27000 18.81600 24.78800
C  -2.55500 13.96300 25.22800
N  -3.20700 16.78900 29.62400
C  -3.35500 15.81000 30.54700
C  -3.38800 16.44100 31.97100
C  -3.64100 17.97500 31.70800
C  -3.35200 18.06100 30.18900
C  -5.00000 18.50100 32.08100
C  -2.32200 16.13300 33.09700
C  -2.90800 15.83100 34.47100
H  -2.00200 16.06200 35.68800
N  -2.66100 18.87400 27.12600
C  -2.91000 19.70000 28.22100
C  -2.76200 21.09700 27.69600
C  -2.49200 21.01600 26.28600
C  -2.52900 19.51600 26.00700
C  -2.86400 22.34100 28.56100
C  -2.22300 22.13300 25.31500
O  -2.09700 21.98900 24.10100
C  -1.93900 23.46500 25.86300
N  -2.64300 16.37700 25.30600
C  -2.25000 17.41200 24.48800
C  -2.16800 16.96100 23.05600
C  -2.04000 15.41400 23.23700
C  -2.33900 15.19600 24.68100
C  -3.37500 17.41800 22.19900
C  -0.65000 14.84800 22.81100
C  0.63000 15.35000 23.53800
N  -2.78300 14.69900 27.59400
C  -2.81700 13.73200 26.55800
C  -2.91500 12.40000 27.23100
C  -3.02600 12.64300 28.54300
C  -2.99300 14.06600 28.73500
C  -3.01900 11.06000 26.49800
C  -3.30400 12.04200 29.76800
O  -3.49800 10.87600 30.05400
C  -3.26200 13.22400 30.89300
C  -1.99600 12.95900 31.67300
O  -0.85700 13.13300 31.25900
O  -2.34200 12.53800 32.91000
C  -1.27000 12.54500 33.85400
H  -3.38800 20.10600 30.35600
H  -1.95700 19.59000 24.08400
H  -2.46300 13.05800 24.62400
H  -4.35100 16.01300 32.25200
H  -2.91500 18.43300 32.37900
H  -4.95700 19.23600 32.88400
H  -5.72500 17.69600 32.19500
H  -5.20800 19.16700 31.24400
H  -1.69300 16.99600 33.31800
H  -1.57600 15.39400 32.80600
H  -3.25300 14.81000 34.63700
H  -3.84800 16.37500 34.56800
H  -2.84100 22.19800 29.64100
H  -3.65700 23.04100 28.30000
H  -1.92800 22.89600 28.60300
H  -2.86600 23.93300 26.19500
H  -1.56500 24.08700 25.05000
H  -1.17000 23.55300 26.63000
H  -1.21100 17.36400 22.72300
H  -2.79800 14.94800 22.60700
H  -4.12900 17.69300 22.93600
H  -3.84200 16.70500 21.51900
H  -3.21000 18.35900 21.67400
H  -0.57400 14.84600 21.72300
H  -0.55400 13.76600 22.89800
H  0.40900 16.14000 24.25600
H  1.38700 15.83900 22.92500
H  1.06700 14.49900 24.06100
H  -2.49700 11.05100 25.54100
H  -4.01500 10.61800 26.47000
H  -2.46100 10.31300 27.06300
H  -4.16100 13.14300 31.50400
H  -0.53300 13.34700 33.81200
H  -0.71900 11.60400 33.83900
H  -1.70300 12.44800 34.85000
Mg 34.71500 3.38400 29.72800
C  32.47100 4.35200 32.26700
C  37.22000 3.44000 32.22200
C  36.99700 2.81900 27.35800
C  32.29300 3.77300 27.37800
N  34.81100 3.72400 32.04900
C  33.76100 4.06000 32.84900
C  34.14600 4.26100 34.30500
C  35.72500 4.28700 34.20200
C  36.00600 3.83100 32.72200
C  36.31100 5.70700 34.61800
C  33.63400 3.14400 35.26000
C  33.36600 3.76500 36.64000
H  34.27400 4.93900 37.21400
N  36.80000 3.03500 29.82100
C  37.62300 2.99800 30.93300
C  38.94900 2.46900 30.50900
C  38.87000 2.32800 29.08200
C  37.54300 2.78100 28.68900
C  40.02300 2.19900 31.51300
C  39.90000 1.75500 28.18900
O  39.70600 1.46100 26.99000
C  41.17000 1.26300 28.74800
N  34.61500 3.25700 27.69900
C  35.71000 3.05600 26.88300
C  35.30600 2.99700 25.37200
C  33.74800 3.12200 25.39200
C  33.50900 3.37800 26.93600
C  35.91300 4.14900 24.56000
C  33.04200 1.74800 25.00200
C  31.77500 1.97500 24.25500
N  32.86600 3.92300 29.74900
C  31.97400 4.02800 28.75000
C  30.69300 4.29000 29.20400
C  30.81900 4.55600 30.53200
C  32.16700 4.23900 30.88700
C  29.40100 4.42200 28.33600
C  30.13600 5.00800 31.66800
O  28.95000 5.33000 31.80200
C  31.14700 4.76200 32.87900
C  31.18200 6.05800 33.70200
O  31.62200 7.10700 33.29200
O  30.74600 5.88900 35.01700
C  31.00900 6.96200 35.88100
H  38.03900 3.56800 32.93300
H  37.60500 2.53100 26.49800
H  31.57700 3.94200 26.57100
H  33.76000 5.26500 34.48400
H  36.23800 3.50800 34.76700
H  36.60100 6.21000 33.69500
H  37.14700 5.38000 35.23600
H  35.60500 6.32300 35.17500
H  34.43300 2.41500 35.39300
H  32.71100 2.68500 34.90600
H  33.30700 2.99700 37.41100
H  32.32900 4.08200 36.52400
H  40.98000 2.53800 31.11700
H  40.22400 1.15300 31.74700
H  39.79400 2.81600 32.38100
H  41.71900 0.80100 27.92700
H  41.02500 0.62900 29.62300
H  41.80100 2.12000 28.98200
H  35.65500 2.06600 24.92600
H  33.26200 3.87000 24.76700
H  36.14000 4.90400 25.31200
H  35.16000 4.53900 23.87500
H  36.84500 3.89100 24.05800
H  32.78000 1.23700 25.92800
H  33.77400 1.12500 24.48700
H  31.83400 1.40600 23.32700
H  31.57800 3.02000 24.01500
H  30.95300 1.51700 24.80500
H  28.60400 3.96400 28.92200
H  29.32000 3.98800 27.33900
H  29.16600 5.48500 28.27800
H  30.78200 3.98700 33.55400
H  30.83100 6.56000 36.87900
H  30.20900 7.65600 35.62100
H  32.01900 7.36100 35.79000

