158

Mg 44.00900 5.18300 47.03000
C  42.07300 7.92900 46.47500
C  41.20200 3.27100 46.06400
C  45.93900 2.38000 46.67300
C  46.83500 7.08300 46.94400
N  41.82800 5.53100 46.24600
C  41.27800 6.80000 46.18000
C  39.72500 6.77700 45.96100
C  39.42800 5.23900 46.13900
C  40.88200 4.58800 46.15900
C  38.70900 4.95300 47.46600
C  39.11800 7.34700 44.59300
C  40.12500 7.66200 43.43900
H  39.56300 7.86100 42.04800
N  43.63600 3.11100 46.50900
C  42.38300 2.55400 46.12600
C  42.56200 1.14100 45.79700
C  43.96700 0.87700 45.84200
C  44.58700 2.15400 46.33500
C  41.46200 0.28300 45.21600
C  44.58100 -0.46800 45.43700
O  43.89800 -1.39900 45.09900
C  46.08800 -0.55500 45.34800
N  46.09400 4.74700 46.85100
C  46.69600 3.57400 46.85400
C  48.24900 3.61700 46.85200
C  48.44300 5.18800 46.98700
C  47.01300 5.72900 46.92100
C  49.02700 2.75200 47.91800
C  49.33900 5.83700 45.91400
C  50.33900 6.85900 46.46700
N  44.33000 7.09100 46.88900
C  45.57300 7.77800 46.89800
C  45.34700 9.16900 46.73600
C  43.97900 9.27500 46.65800
C  43.40700 7.97400 46.71200
C  46.36700 10.16600 46.66700
C  42.90300 10.21100 46.50100
O  42.91500 11.43900 46.51300
C  41.55200 9.37100 46.40300
C  40.65200 9.65600 47.56100
O  40.86200 9.20500 48.67400
O  39.53100 10.36300 47.17500
C  38.39000 10.46600 48.22600
H  40.31100 2.70100 45.79500
H  46.64700 1.55000 46.70000
H  47.75300 7.67500 46.92900
H  39.25100 7.34800 46.76000
H  38.91900 4.88000 45.24500
H  37.81500 5.56000 47.60600
H  39.47300 5.03900 48.23900
H  38.44100 3.89600 47.47800
H  38.77000 8.32400 44.92600
H  38.37000 6.65600 44.20500
H  40.88300 6.88000 43.37400
H  40.51900 8.62500 43.76300
H  41.80800 -0.01400 44.22600
H  40.55100 0.86500 45.07700
H  41.21100 -0.66400 45.69200
H  46.31500 -1.51400 44.88200
H  46.42000 -0.55200 46.38600
H  46.51600 0.29400 44.81500
H  48.59800 3.33000 45.86000
H  48.75800 5.44200 47.99900
H  49.68800 2.03500 47.43100
H  48.25100 2.21100 48.45900
H  49.71600 3.37600 48.48600
H  48.84300 6.27800 45.04900
H  49.88900 5.04000 45.41400
H  51.32700 6.43200 46.29600
H  50.21800 6.98900 47.54200
H  50.02800 7.84200 46.11300
H  47.20500 9.78300 47.25000
H  45.93200 11.07600 47.07900
H  46.53600 10.31800 45.60100
H  41.01600 9.69500 45.51200
H  37.74500 9.59700 48.09600
H  37.75700 11.30900 47.94900
H  38.82800 10.63100 49.21000
Mg 41.02600 9.38000 29.94700
C  42.75100 10.57800 32.70800
C  38.74400 7.97200 32.17800
C  39.57400 7.86300 27.36400
C  43.73200 10.34100 27.91200
N  40.85700 9.13500 32.21000
C  41.58400 9.93200 33.08000
C  41.02400 9.81000 34.53600
C  39.74300 8.94600 34.28900
C  39.76500 8.70800 32.83500
C  39.64700 7.65400 35.18800
C  40.70500 11.22400 35.03500
C  39.86300 11.32500 36.30000
H  40.50800 12.23800 37.29500
N  39.34700 8.19400 29.76100
C  38.55200 7.71900 30.77500
C  37.44400 6.90700 30.19000
C  37.56600 6.95300 28.74900
C  38.89900 7.61700 28.57000
C  36.30400 6.41000 31.03200
C  36.69900 6.33200 27.75900
O  36.92200 6.35700 26.57500
C  35.50300 5.57400 28.23100
N  41.53800 9.17800 27.89700
C  40.75400 8.52000 27.01800
C  41.28600 8.55700 25.55000
C  42.65800 9.34300 25.80500
C  42.66000 9.66500 27.30900
C  41.59600 7.18200 24.81800
C  42.58800 10.67400 24.92300
C  41.67900 11.73600 25.47900
N  42.85700 10.37700 30.19900
C  43.84300 10.64200 29.29900
C  44.86900 11.43900 29.92500
C  44.39500 11.52600 31.27900
C  43.24600 10.72400 31.41200
C  46.15600 11.95100 29.34000
C  44.89100 12.05500 32.54300
O  45.87700 12.63000 32.95400
C  43.81400 11.38000 33.54000
C  44.62500 10.60400 34.47400
O  45.31500 9.61500 34.18400
O  44.44300 11.11100 35.68500
C  44.90900 10.29400 36.79700
H  38.02700 7.60800 32.91600
H  39.13600 7.54600 26.41600
H  44.50000 10.76900 27.26500
H  41.74900 9.28400 35.15700
H  38.84500 9.52600 34.50400
H  38.65500 7.44000 35.58600
H  40.20600 8.00100 36.05700
H  40.09300 6.79300 34.68900
H  40.06600 11.69200 34.28600
H  41.64200 11.78000 35.07000
H  39.81500 10.36000 36.80500
H  38.88200 11.69500 36.00100
H  35.40400 6.91200 30.67800
H  36.43000 6.56600 32.10400
H  36.20700 5.34100 30.84500
H  34.90700 5.14600 27.42500
H  34.87400 6.28200 28.77100
H  35.82700 4.80600 28.93200
H  40.52200 9.10600 25.00000
H  43.54300 8.74400 25.59000
H  41.51100 6.44800 25.62000
H  42.58700 7.26200 24.37200
H  40.88000 6.95500 24.02800
H  42.34900 10.53400 23.86800
H  43.61900 11.02700 24.90200
H  41.22200 11.48200 26.43500
H  40.94800 12.10200 24.75800
H  42.19200 12.69600 25.53600
H  46.09000 11.79000 28.26400
H  47.00600 11.47300 29.82800
H  46.29300 13.03200 29.36800
H  43.37700 12.25800 34.01600
H  45.82000 10.82700 37.06700
H  45.04600 9.23800 36.56400
H  44.19400 10.26700 37.61900

