158

Mg 47.10800 24.24200 27.78400
C  47.97700 26.44500 30.34800
C  46.15300 22.06500 30.11600
C  46.56300 22.16200 25.34700
C  48.10000 26.65000 25.46800
N  47.09000 24.28800 29.96600
C  47.42000 25.27800 30.84600
C  47.26900 24.85100 32.35400
C  46.55300 23.45200 32.20900
C  46.58800 23.30600 30.67200
C  47.41100 22.44000 32.99700
C  46.46500 25.87400 33.26300
C  45.89300 25.31000 34.57500
H  46.50600 26.07900 35.78500
N  46.46300 22.35600 27.74700
C  46.09000 21.59500 28.77800
C  45.61400 20.31800 28.36500
C  45.63400 20.35700 26.94800
C  46.30900 21.68300 26.63100
C  45.10500 19.27000 29.26800
C  45.33400 19.20800 25.96800
O  45.50400 19.17300 24.72300
C  44.84400 17.92900 26.61200
N  47.49500 24.32700 25.62300
C  46.99500 23.33100 24.89100
C  46.98800 23.78400 23.38000
C  47.36200 25.27200 23.39200
C  47.70200 25.46900 24.90400
C  47.89000 22.93900 22.44400
C  46.25400 26.24000 22.81500
C  46.73700 27.27400 21.80200
N  47.98100 26.04600 27.85600
C  48.29800 26.98400 26.83000
C  48.94500 28.14900 27.38600
C  48.89700 27.93500 28.77900
C  48.25000 26.70100 29.04200
C  49.56100 29.26600 26.68500
C  49.23900 28.60000 30.03000
O  49.73000 29.67600 30.34200
C  48.55800 27.68900 31.15800
C  49.54800 27.23100 32.12300
O  50.29800 26.27500 31.98600
O  49.49600 27.99800 33.30900
C  50.22000 27.53600 34.50100
H  45.71800 21.36200 30.83100
H  46.38900 21.33900 24.65100
H  48.30100 27.42900 24.72900
H  48.23800 24.69100 32.82700
H  45.55300 23.56900 32.62500
H  47.89000 22.82700 33.89700
H  48.15100 21.87500 32.43100
H  46.78400 21.67800 33.46000
H  45.70400 26.37900 32.66700
H  47.06200 26.74400 33.53700
H  46.04800 24.25000 34.77400
H  44.81200 25.44800 34.53900
H  44.06500 19.01200 29.06700
H  45.18300 19.59800 30.30400
H  45.69500 18.36000 29.15300
H  45.65400 17.53200 27.22300
H  44.54300 17.34300 25.74300
H  43.94600 18.06800 27.21400
H  45.99700 23.61800 22.95800
H  48.27500 25.51400 22.84800
H  48.59900 22.42600 23.09400
H  48.36600 23.62600 21.74400
H  47.32100 22.25600 21.81300
H  45.74600 26.79700 23.60200
H  45.43600 25.72000 22.31700
H  47.49200 26.72400 21.24000
H  47.21700 28.16100 22.21500
H  45.86900 27.62100 21.24100
H  49.90300 28.96800 25.69300
H  50.37300 29.59800 27.33200
H  48.84800 30.08500 26.58800
H  47.91300 28.36200 31.72100
H  51.25800 27.45100 34.18000
H  49.86500 26.57800 34.88100
H  50.10000 28.29400 35.27600
Mg 5.11100 53.93300 41.02500
C  4.98600 50.37000 40.90500
C  8.42500 53.72700 39.71900
C  4.88100 57.19100 40.25200
C  1.79500 53.85700 42.04700
N  6.42900 52.21200 40.15700
C  6.24900 50.87600 40.39900
C  7.50600 50.01700 40.10900
C  8.53000 51.11200 39.87400
C  7.76200 52.47600 39.92900
C  9.72200 51.10600 40.92300
C  7.54200 49.01400 38.87800
C  6.80400 49.42100 37.65000
H  7.42100 50.23100 36.48000
N  6.54500 55.22900 40.21900
C  7.82000 55.01700 39.74900
C  8.39600 56.21600 39.27400
C  7.39300 57.26800 39.34200
C  6.16800 56.58300 39.99600
C  9.79300 56.34200 38.86100
C  7.61400 58.65900 38.84700
O  8.55500 58.99000 38.15400
C  6.69200 59.83400 39.20600
N  3.43500 55.36000 41.03700
C  3.64600 56.70100 40.82500
C  2.39800 57.56500 41.03100
C  1.36300 56.46600 41.52100
C  2.26000 55.11500 41.56600
C  2.48900 58.87000 41.98800
C  0.03000 56.35300 40.80100
C  -1.19000 56.70900 41.50800
N  3.62500 52.39800 41.44500
C  2.36400 52.56000 41.95200
C  1.79700 51.25000 42.36000
C  2.86400 50.35600 41.98600
C  3.87800 51.10000 41.37400
C  0.37800 50.94400 42.83200
C  3.29300 48.95600 42.04300
O  2.81600 47.97400 42.56700
C  4.67900 48.92900 41.25700
C  4.36200 48.13300 40.10700
O  3.91900 48.58100 39.02100
O  4.65700 46.81400 40.44900
C  4.35400 45.78400 39.53400
H  9.44600 53.67900 39.33400
H  4.75500 58.24700 40.00500
H  0.76100 53.82900 42.39600
H  7.76900 49.46000 41.00800
H  9.07600 51.10600 38.93000
H  10.05400 52.07600 41.29400
H  10.56800 50.50100 40.59700
H  9.33000 50.66700 41.84000
H  7.20700 48.03500 39.22300
H  8.56900 48.98600 38.51600
H  5.92800 49.97500 37.98700
H  6.34400 48.53800 37.20600
H  10.19000 57.33800 38.66900
H  9.87500 55.60300 38.06400
H  10.35700 55.75300 39.58400
H  5.97000 59.92200 38.39400
H  7.42400 60.64200 39.21400
H  6.21900 59.73500 40.18300
H  2.00800 58.03800 40.12900
H  1.17200 56.78000 42.54700
H  2.05300 58.55400 42.93500
H  1.87800 59.67300 41.57600
H  3.49100 59.28800 42.09000
H  -0.18200 55.38200 40.35400
H  0.22700 56.99300 39.94100
H  -1.88300 55.87200 41.42100
H  -1.69800 57.56200 41.05800
H  -1.04700 56.84300 42.58000
H  -0.09200 50.23800 42.14800
H  -0.15600 51.89100 42.76200
H  0.47200 50.59800 43.86200
H  5.45900 48.44300 41.84500
H  4.99200 44.92600 39.74800
H  4.33400 46.15700 38.51000
H  3.32500 45.47000 39.70900

