158

Mg 2.32800 -1.45200 43.89200
C  5.72400 -0.83200 43.38700
C  1.68300 1.49300 42.23200
C  -0.80200 -2.45000 44.05100
C  3.33800 -4.81600 45.00600
N  3.57300 0.20200 43.07800
C  4.92100 0.21100 42.95300
C  5.39600 1.57800 42.44100
C  4.05200 2.44000 42.40100
C  3.05100 1.25000 42.44600
C  3.84400 3.49600 43.58600
C  6.07300 1.59700 40.98300
C  5.45100 0.70200 39.90400
H  5.03400 1.48300 38.68800
N  0.71000 -0.63400 43.15000
C  0.57200 0.58600 42.51800
C  -0.81300 0.68900 42.07200
C  -1.57200 -0.22000 42.85800
C  -0.55700 -1.17300 43.41200
C  -1.41000 1.87000 41.26500
C  -3.01000 -0.29000 42.88000
O  -3.69500 0.52500 42.30300
C  -3.79400 -1.34000 43.54000
N  1.41000 -3.38800 44.46300
C  0.06000 -3.44500 44.39500
C  -0.39600 -4.86800 44.77500
C  0.93400 -5.66800 45.01500
C  1.94100 -4.54500 44.81500
C  -1.35300 -4.87300 46.04200
C  1.08500 -6.97300 44.17200
C  1.52400 -8.17500 44.98000
N  4.13500 -2.65300 44.21800
C  4.34300 -3.89700 44.73700
C  5.77600 -3.98900 44.88100
C  6.31500 -2.88300 44.23700
C  5.29500 -2.05800 43.90500
C  6.46300 -5.24300 45.44700
C  7.58000 -2.31000 43.77400
O  8.71700 -2.68600 43.80500
C  7.27800 -0.92400 43.19800
C  7.94100 0.11000 44.03200
O  8.73900 0.91100 43.56600
O  7.29800 0.28800 45.24700
C  7.39700 1.68800 45.81400
H  1.36900 2.36200 41.65100
H  -1.79800 -2.84600 44.26100
H  3.79500 -5.70200 45.45200
H  6.12400 2.16200 43.00400
H  3.94800 3.00800 41.47700
H  3.11900 3.05400 44.27000
H  3.22800 4.34200 43.28100
H  4.79900 3.69700 44.07000
H  7.10200 1.26100 41.10800
H  6.09500 2.62300 40.61600
H  4.63600 0.14900 40.37100
H  6.19400 -0.07000 39.70100
H  -1.88800 1.41100 40.39900
H  -0.62200 2.47900 40.82200
H  -2.06500 2.52700 41.83700
H  -3.37000 -1.47800 44.53400
H  -3.69200 -2.25200 42.95200
H  -4.84300 -1.04900 43.59900
H  -0.92200 -5.24100 43.89600
H  0.96000 -5.99000 46.05600
H  -1.41600 -5.81300 46.59200
H  -2.34700 -4.50000 45.79900
H  -0.90400 -4.10300 46.66900
H  1.85800 -6.92900 43.40500
H  0.11900 -7.29900 43.78700
H  1.01900 -9.09300 44.67900
H  1.38600 -8.14600 46.06100
H  2.59800 -8.27400 44.82500
H  7.35100 -4.92400 45.99300
H  6.77600 -5.86400 44.60800
H  5.77400 -5.65600 46.18400
H  7.63700 -0.96700 42.17000
H  7.96900 1.72600 46.74100
H  6.34300 1.83800 46.05100
H  7.71500 2.41100 45.06400
Mg 41.64800 8.43600 28.84300
C  43.01100 9.91400 31.62400
C  39.26200 6.95300 31.00900
C  40.20400 6.92000 26.26100
C  44.20100 9.62000 26.79400
N  41.13800 8.46700 30.99500
C  41.86200 9.11500 31.92600
C  41.27200 8.84900 33.35100
C  40.33700 7.65300 33.14300
C  40.23100 7.68200 31.67400
C  40.77800 6.21400 33.70000
C  40.63700 10.11500 34.00600
C  40.84700 10.17600 35.49400
H  40.68900 11.52500 36.27200
N  39.94700 7.13000 28.62800
C  39.11900 6.63600 29.61500
C  38.10800 5.74300 28.98000
C  38.32200 5.72500 27.54500
C  39.50200 6.63900 27.39900
C  36.96400 4.97900 29.91400
C  37.50700 5.05600 26.43500
O  37.73000 5.25900 25.22100
C  36.32900 4.17300 26.86500
N  42.23900 8.13500 26.83800
C  41.42000 7.58500 25.92800
C  42.01800 7.54500 24.54400
C  43.13400 8.62700 24.69100
C  43.25200 8.82600 26.16500
C  42.40700 6.12600 24.02100
C  42.86100 10.02900 24.01600
C  42.10100 11.14800 24.77000
N  43.21100 9.62900 29.16000
C  44.20200 9.98000 28.21100
C  45.17000 10.80100 28.95300
C  44.63500 10.90900 30.26500
C  43.58100 9.98700 30.36000
C  46.32700 11.54000 28.35200
C  44.85800 11.42500 31.60300
O  45.72400 12.12900 32.10500
C  43.83100 10.67800 32.55400
C  44.42700 9.86400 33.65300
O  44.95400 8.79600 33.47200
O  44.26800 10.51100 34.89100
C  44.75500 9.80400 36.11700
H  38.52000 6.44900 31.63100
H  39.71600 6.47600 25.39100
H  44.95900 10.07400 26.15200
H  42.04500 8.50800 34.03900
H  39.40100 7.93300 33.62700
H  41.30700 5.56300 33.00500
H  39.98500 5.66200 34.20500
H  41.53300 6.47700 34.44100
H  39.55600 10.11900 33.86600
H  41.15000 11.01600 33.66900
H  41.82900 9.80300 35.78700
H  40.12600 9.43000 35.82800
H  36.06900 5.60000 29.91700
H  37.19900 4.82300 30.96700
H  36.71100 4.01500 29.47400
H  36.75300 3.46900 27.58100
H  35.94800 3.73600 25.94200
H  35.62300 4.88300 27.29600
H  41.25700 7.90900 23.85300
H  44.00600 8.10600 24.29600
H  41.75700 5.42800 24.54800
H  43.42800 5.90400 24.33300
H  42.27900 6.08000 22.93900
H  42.37500 9.74800 23.08100
H  43.81100 10.39800 23.62700
H  41.72800 10.84400 25.74800
H  41.20600 11.30900 24.17000
H  42.64700 12.09000 24.82200
H  47.24400 11.04500 28.67000
H  46.12300 12.54100 28.73100
H  46.28400 11.55400 27.26300
H  43.42200 11.58600 32.99900
H  44.18000 10.10200 36.99400
H  45.82700 9.85200 36.30900
H  44.43200 8.76700 36.02300

