158

Mg -0.10500 7.18600 26.55700
C  0.30800 9.37600 29.20800
C  0.52900 4.56700 28.86800
C  -0.59500 5.02400 24.24800
C  -0.05100 9.77200 24.38300
N  0.21700 6.94500 28.74100
C  0.21700 8.04200 29.62500
C  0.01000 7.54200 31.06400
C  0.74300 6.10300 30.85900
C  0.62400 5.87400 29.40200
C  2.22200 6.01300 31.26100
C  -1.48400 7.48400 31.39500
C  -1.78000 7.64900 32.91400
H  -0.64700 7.38700 33.88200
N  -0.03700 5.05200 26.53400
C  0.16900 4.20900 27.57000
C  0.09700 2.91000 27.07500
C  -0.30700 2.97300 25.70800
C  -0.31400 4.37200 25.42600
C  0.41700 1.69800 27.84700
C  -0.56400 1.88900 24.70000
O  -0.82400 2.10700 23.54000
C  -0.34200 0.46100 25.14800
N  -0.33500 7.34700 24.56700
C  -0.54000 6.30300 23.79100
C  -0.85600 6.70700 22.31300
C  -0.73700 8.28000 22.44900
C  -0.38500 8.53000 23.88300
C  0.16100 6.19800 21.27400
C  -1.97600 9.10000 21.95500
C  -1.85700 10.06200 20.77700
N  0.21100 9.20000 26.68300
C  0.32400 10.15900 25.69000
C  0.59600 11.42400 26.28200
C  0.49200 11.19800 27.70400
C  0.31200 9.80800 27.88100
C  0.63800 12.76700 25.65900
C  0.54400 11.83000 29.01100
O  0.70900 13.00900 29.39800
C  0.34100 10.60400 29.98500
C  1.47000 10.59200 30.92100
O  2.55100 10.08500 30.69100
O  1.21800 11.22800 32.13300
C  2.37200 11.43700 33.01100
H  0.65400 3.73300 29.56200
H  -0.89700 4.33900 23.45300
H  -0.11100 10.65900 23.74900
H  0.54200 8.20700 31.74400
H  0.20100 5.35500 31.43800
H  2.24900 5.27600 32.06400
H  2.59000 6.98700 31.58200
H  2.72700 5.58900 30.39300
H  -1.99300 6.62100 30.96500
H  -2.00200 8.29500 30.88400
H  -2.68400 7.11600 33.20800
H  -2.12800 8.66300 33.11000
H  -0.44300 1.03100 27.78400
H  0.44800 1.86400 28.92400
H  1.34800 1.20600 27.56300
H  0.67100 0.27800 25.50600
H  -0.46500 -0.19000 24.28300
H  -1.15600 0.38100 25.86800
H  -1.91400 6.45400 22.24400
H  0.08600 8.59000 21.80400
H  0.38800 5.15000 21.47400
H  1.09000 6.76800 21.27300
H  -0.35900 6.26500 20.31800
H  -2.44000 9.63300 22.78500
H  -2.74800 8.37400 21.69900
H  -2.04900 11.10700 21.02200
H  -2.56300 9.86400 19.97100
H  -0.88900 9.94900 20.29000
H  0.09700 13.47600 26.28600
H  0.27700 12.83600 24.63200
H  1.67400 13.10600 25.63600
H  -0.54800 10.68400 30.61000
H  2.81800 12.38100 32.69800
H  3.02700 10.56500 33.01900
H  2.02600 11.64000 34.02400
Mg 16.75100 51.54200 26.40400
C  18.67500 49.99900 29.02000
C  14.36000 52.30400 28.60100
C  15.03000 52.45100 23.72700
C  19.38500 50.30900 24.13600
N  16.59600 51.16600 28.52600
C  17.48800 50.63300 29.41500
C  17.02500 50.84000 30.89600
C  15.51100 51.32300 30.68700
C  15.47200 51.64100 29.16000
C  14.41500 50.34800 31.17400
C  17.99500 51.88500 31.61600
C  18.45700 51.52700 32.97300
H  17.36000 50.76900 33.89800
N  14.98700 52.31600 26.17300
C  14.12600 52.64200 27.24000
C  12.99000 53.33000 26.69800
C  13.20000 53.43700 25.28700
C  14.49900 52.79100 24.98100
C  11.88500 53.78900 27.58300
C  12.45500 54.21400 24.26300
O  12.82800 54.39400 23.10000
C  11.10400 54.87800 24.67000
N  17.21900 51.32800 24.25300
C  16.25300 51.81200 23.39000
C  16.57200 51.26100 21.97600
C  18.10200 50.99600 22.04500
C  18.33300 50.93400 23.58200
C  15.62800 50.11300 21.58400
C  19.09900 51.99500 21.35500
C  18.76200 53.50100 21.54000
N  18.64700 50.48900 26.53100
C  19.60600 50.07900 25.57000
C  20.69200 49.34500 26.15800
C  20.35400 49.31900 27.51900
C  19.10600 49.94100 27.68200
C  22.01600 48.77100 25.46200
C  20.83200 48.83500 28.74300
O  21.86300 48.21800 28.90400
C  19.86700 49.36000 29.82400
C  19.38300 48.27100 30.51800
O  18.99100 47.27300 29.98900
O  19.45600 48.45500 31.88200
C  18.93400 47.31600 32.62000
H  13.61700 52.58500 29.35100
H  14.35100 52.69600 22.90700
H  20.11400 49.95400 23.40500
H  17.06400 49.92000 31.47800
H  15.28400 52.18000 31.32000
H  13.90900 50.59400 32.10800
H  14.86100 49.36500 31.32400
H  13.76000 50.28200 30.30500
H  17.48300 52.84200 31.71200
H  18.91900 52.06400 31.06600
H  18.78100 52.38800 33.55800
H  19.24200 50.79500 32.78400
H  11.18000 52.98900 27.81000
H  11.38500 54.69200 27.23200
H  12.28600 54.03500 28.56600
H  10.37200 54.17800 25.07300
H  10.77700 55.34100 23.73900
H  11.34200 55.66400 25.38800
H  16.50600 52.12700 21.31700
H  18.32600 50.08900 21.48300
H  15.17200 50.46100 20.65700
H  14.85000 49.92200 22.32300
H  16.23900 49.34800 21.10400
H  18.93900 51.76400 20.30200
H  20.10000 51.66100 21.62700
H  19.64400 54.14000 21.51300
H  18.50600 53.60600 22.59400
H  18.02400 53.90600 20.84700
H  22.21500 49.06200 24.43000
H  21.86000 47.70300 25.31200
H  22.91500 48.90900 26.06200
H  20.34000 50.01200 30.55800
H  17.94300 46.96600 32.33100
H  18.83100 47.64700 33.65400
H  19.70400 46.54500 32.58100

