158

Mg 26.13600 0.34200 29.69000
C  27.97300 0.17400 32.55500
C  23.10900 0.43900 31.62200
C  24.17500 0.64500 26.85700
C  28.82600 -0.28000 27.73100
N  25.58000 0.23500 31.78900
C  26.56600 0.43300 32.76100
C  25.92800 0.74300 34.07700
C  24.40800 0.38300 33.83800
C  24.36200 0.47000 32.30700
C  24.02900 -1.02000 34.39900
C  26.25000 2.12000 34.71000
C  26.89100 2.10100 36.13700
H  26.91300 3.29400 37.08500
N  24.01200 0.43600 29.36200
C  22.93600 0.42400 30.25000
C  21.70300 0.73000 29.50100
C  21.99300 0.84500 28.16300
C  23.50000 0.62200 28.11700
C  20.46300 0.85200 30.24900
C  21.04700 0.99900 26.92200
O  21.46100 0.95800 25.79300
C  19.51000 1.19200 27.16700
N  26.49800 0.13900 27.60600
C  25.57600 0.38900 26.61300
C  26.09600 0.16700 25.17600
C  27.55600 -0.32600 25.45700
C  27.66400 -0.13300 26.98500
C  25.20600 -0.86100 24.39700
C  28.64700 0.44100 24.65600
C  29.27300 -0.50500 23.56400
N  28.00800 -0.03600 30.01000
C  29.08300 -0.15900 29.15600
C  30.24300 -0.50900 29.89400
C  29.91000 -0.32000 31.26700
C  28.57300 -0.00500 31.22500
C  31.56400 -1.07000 29.45600
C  30.33000 -0.20400 32.69100
O  31.48700 -0.36200 33.20400
C  29.09400 0.03600 33.51900
C  28.88800 -0.93000 34.67900
O  28.59300 -2.13400 34.48500
O  29.25800 -0.43100 35.93600
C  29.08700 -1.45200 36.98700
H  22.34600 0.45700 32.40400
H  23.57500 0.75500 25.95200
H  29.74100 -0.54900 27.19800
H  26.28500 0.04300 34.83200
H  23.76000 1.19900 34.15700
H  23.67000 -0.95700 35.42600
H  24.88700 -1.68900 34.46200
H  23.21600 -1.44200 33.80800
H  25.24500 2.53900 34.67500
H  26.84900 2.70100 34.00900
H  27.96300 1.93100 36.04500
H  26.38600 1.27500 36.63900
H  20.56300 0.81100 31.33300
H  19.82500 -0.01200 30.06300
H  20.04000 1.81500 29.96300
H  19.00300 1.69600 26.34400
H  19.33900 1.94500 27.93600
H  18.98200 0.25900 27.36000
H  26.04800 1.17500 24.76500
H  27.60600 -1.40500 25.31500
H  24.57600 -1.53600 24.97600
H  25.70300 -1.41700 23.60200
H  24.47300 -0.18000 23.96500
H  29.47000 0.85000 25.24200
H  28.21200 1.27100 24.10000
H  29.49100 0.13100 22.70600
H  28.64600 -1.33300 23.23300
H  30.22700 -0.76700 24.02200
H  31.62700 -0.97400 28.37200
H  31.64900 -2.07700 29.86300
H  32.31700 -0.47200 29.97000
H  29.33100 1.00600 33.95700
H  29.67400 -2.35000 36.79100
H  28.05600 -1.72200 37.21700
H  29.44800 -1.19400 37.98300
Mg -10.37100 17.17900 41.02900
C  -6.95600 16.76400 41.08000
C  -9.76400 20.58600 40.23600
C  -13.69700 17.56400 40.27700
C  -10.72400 13.76900 41.24700
N  -8.55300 18.54900 40.62200
C  -7.27000 18.09300 40.79400
C  -6.25000 19.24200 40.40400
C  -7.22000 20.49500 40.61700
C  -8.60400 19.88800 40.50400
C  -7.13700 21.12600 42.07600
C  -5.81100 19.11700 38.84400
C  -4.32500 18.85500 38.46700
H  -4.03000 17.66200 37.66700
N  -11.51900 18.87400 40.40700
C  -11.10300 20.18700 40.15200
C  -12.21200 20.99400 39.77100
C  -13.36300 20.16700 39.71800
C  -12.86700 18.77300 40.15800
C  -12.13100 22.51300 39.72100
C  -14.74300 20.58300 39.16500
O  -15.03300 21.71600 38.78800
C  -15.90200 19.63300 39.10500
N  -11.97900 15.86000 40.71600
C  -13.23600 16.31300 40.59900
C  -14.23700 15.15100 40.66300
C  -13.29300 13.88900 40.59700
C  -11.88800 14.51900 40.82200
C  -15.24300 15.21600 41.89000
C  -13.39300 12.91900 39.35500
C  -14.07500 11.58800 39.52800
N  -9.16600 15.52900 41.28500
C  -9.44100 14.20600 41.40500
C  -8.19700 13.48300 41.69300
C  -7.18900 14.42100 41.53400
C  -7.83500 15.66100 41.27100
C  -8.05000 12.01200 41.86800
C  -5.75900 14.72400 41.58400
O  -4.81200 13.93700 41.85600
C  -5.54900 16.31000 41.36800
C  -5.08300 16.85600 42.63200
O  -3.89800 17.13000 42.87000
O  -6.15000 17.03500 43.49600
C  -5.71500 17.37800 44.87900
H  -9.51100 21.57700 39.85300
H  -14.71100 17.62600 39.87700
H  -10.94400 12.70700 41.37800
H  -5.44700 19.13300 41.13300
H  -7.09600 21.31900 39.91400
H  -8.09800 21.35200 42.53700
H  -6.64400 22.09300 41.97300
H  -6.52300 20.48400 42.70700
H  -6.03100 20.10800 38.44800
H  -6.41800 18.31000 38.43100
H  -3.88800 18.60500 39.43300
H  -3.89900 19.78100 38.07900
H  -11.96900 22.90600 38.71700
H  -11.22100 22.83700 40.22700
H  -13.02700 23.01700 40.08300
H  -16.80500 20.19700 38.87300
H  -16.06400 19.22600 40.10300
H  -15.66500 18.92800 38.30800
H  -14.82200 15.15000 39.74300
H  -13.57500 13.27600 41.45300
H  -16.08000 15.82400 41.54500
H  -14.79800 15.76300 42.72100
H  -15.54300 14.18600 42.08500
H  -12.38600 12.63900 39.04700
H  -13.90700 13.55900 38.63700
H  -14.99600 11.75700 38.96900
H  -14.26500 11.39500 40.58300
H  -13.56600 10.75900 39.03600
H  -7.25700 11.79200 42.58200
H  -7.75000 11.63300 40.89100
H  -9.02900 11.60400 42.12000
H  -4.87000 16.53100 40.54400
H  -6.50400 17.07900 45.56900
H  -5.64600 18.46600 44.89100
H  -4.89900 16.76200 45.25500

