158

Mg 47.14600 16.58000 28.47000
C  45.16300 16.32700 31.40700
C  49.37800 18.37400 30.12700
C  48.52000 17.10600 25.54400
C  44.40900 15.11300 26.77700
N  47.18600 17.24300 30.62100
C  46.38400 16.98200 31.63400
C  46.98500 17.50000 32.97500
C  48.18600 18.34800 32.42900
C  48.32100 17.91400 30.99000
C  47.76700 19.83800 32.50000
C  47.43700 16.37400 33.92400
C  46.85400 16.45800 35.33000
H  46.96000 17.84700 36.00200
N  48.77500 17.50200 27.95500
C  49.65400 18.12100 28.81400
C  50.83400 18.39800 28.09700
C  50.56300 18.20300 26.70400
C  49.21400 17.57700 26.67700
C  52.07900 18.68200 28.95600
C  51.34300 18.47600 25.45900
O  50.95600 18.17900 24.32500
C  52.69600 19.19300 25.59100
N  46.56700 16.12000 26.43900
C  47.26500 16.50600 25.41400
C  46.70300 16.07800 24.09600
C  45.46500 15.22400 24.52000
C  45.46900 15.53400 25.99600
C  46.39000 17.30200 23.08300
C  45.68900 13.71500 24.19400
C  45.08300 13.40500 22.80000
N  45.19300 15.95700 28.85200
C  44.21300 15.41000 28.09000
C  43.02700 15.07900 28.89600
C  43.42700 15.44200 30.20300
C  44.70200 15.97300 30.11100
C  41.72000 14.48200 28.37100
C  42.98100 15.45900 31.56300
O  41.89700 15.09800 32.04000
C  44.20200 15.91800 32.40400
C  43.71500 16.98400 33.37400
O  43.58200 18.19100 33.19100
O  43.32400 16.37000 34.55300
C  42.57400 17.25000 35.45900
H  50.10400 18.99700 30.65300
H  49.06500 17.03100 24.60100
H  43.47200 14.67900 26.42400
H  46.09100 17.95300 33.40300
H  49.16700 18.20500 32.88100
H  47.23000 20.08700 31.58500
H  48.71600 20.34600 32.67100
H  47.07300 19.97400 33.33000
H  48.50400 16.23900 34.10200
H  47.13800 15.42700 33.47500
H  47.29100 15.70400 35.98500
H  45.78900 16.24900 35.22800
H  52.96500 18.36600 28.40600
H  52.02400 18.01100 29.81300
H  52.16400 19.72200 29.27200
H  53.25200 19.29900 24.66000
H  53.26600 18.44500 26.14200
H  52.42100 20.16100 26.00900
H  47.32900 15.37000 23.55200
H  44.54000 15.63100 24.11400
H  47.09500 17.29000 22.25200
H  46.40900 18.23100 23.65200
H  45.39000 17.20000 22.66200
H  45.13800 13.13300 24.93300
H  46.74600 13.46700 24.28500
H  45.14300 14.25000 22.11400
H  44.03700 13.10100 22.82200
H  45.69700 12.56300 22.47900
H  41.42600 14.75900 27.35900
H  40.87500 14.75000 29.00500
H  41.91200 13.41200 28.45300
H  44.53800 14.97100 32.82800
H  41.53000 17.27600 35.14700
H  42.96400 18.23900 35.69900
H  42.52300 16.76000 36.43200
Mg 47.13100 25.35700 28.42100
C  48.01400 27.53000 31.07000
C  46.26900 23.02100 30.73100
C  46.57500 23.15500 25.88500
C  48.67900 27.55300 26.21900
N  46.95600 25.42900 30.64600
C  47.41200 26.41000 31.50700
C  47.21100 25.99100 32.96900
C  46.51400 24.53900 32.82600
C  46.53100 24.31700 31.33200
C  47.15900 23.33200 33.66900
C  46.16200 26.96700 33.60900
C  46.70000 27.65300 34.85000
H  45.74200 28.14900 35.92600
N  46.43400 23.36400 28.32000
C  46.09700 22.59300 29.39400
C  45.57900 21.36600 28.89400
C  45.71000 21.34000 27.52900
C  46.25700 22.64400 27.14100
C  45.06900 20.24400 29.78000
C  45.39600 20.19400 26.48700
O  45.48100 20.31300 25.26500
C  44.77700 18.92600 26.93100
N  47.59100 25.37400 26.42200
C  47.21900 24.41400 25.54600
C  47.50500 24.77800 24.10200
C  48.07700 26.13100 24.20300
C  48.14300 26.35600 25.74600
C  48.34200 23.78400 23.33500
C  47.18400 27.22900 23.45700
C  47.65800 27.72100 22.14300
N  48.10600 27.18800 28.56200
C  48.74400 27.91800 27.55500
C  49.25500 29.14100 28.15600
C  49.12500 28.91300 29.49800
C  48.31400 27.82900 29.71000
C  49.97700 30.27100 27.49700
C  49.38600 29.45300 30.81700
O  50.10400 30.41500 31.16100
C  48.68000 28.59000 31.90000
C  49.77000 28.02300 32.80100
O  50.47900 27.15600 32.38600
O  49.83400 28.63800 34.00700
C  51.07600 28.37400 34.79600
H  46.03500 22.39800 31.59600
H  46.43100 22.60700 24.95100
H  49.05400 28.29800 25.51400
H  48.13600 25.92800 33.54200
H  45.50100 24.49900 33.22700
H  46.43600 22.69100 34.17300
H  47.84900 23.70600 34.42500
H  47.74200 22.72700 32.97400
H  45.25200 26.51000 33.99700
H  45.98000 27.82800 32.96700
H  47.21100 28.55200 34.50400
H  47.38800 26.97400 35.35500
H  44.09000 19.89700 29.45100
H  45.08100 20.51100 30.83600
H  45.80500 19.44300 29.70800
H  45.59900 18.33800 27.34100
H  44.38100 18.46900 26.02500
H  43.89700 19.17100 27.52600
H  46.51200 24.84200 23.65700
H  49.09900 26.20400 23.83200
H  48.72700 23.11400 24.10400
H  49.16300 24.28900 22.82700
H  47.71700 23.17400 22.68200
H  47.02100 28.06200 24.14000
H  46.18300 26.86500 23.22700
H  48.57300 27.16800 21.93200
H  47.90300 28.77700 22.26000
H  46.92800 27.55600 21.35100
H  51.05800 30.17700 27.40000
H  49.69200 31.13900 28.09200
H  49.67000 30.36200 26.45500
H  48.01500 29.22100 32.49000
H  52.00700 28.71000 34.33900
H  51.09100 27.30000 34.97900
H  51.00700 28.87700 35.76100

