158

Mg 41.01300 9.22600 29.13000
C  42.95800 10.60100 31.69100
C  38.90200 7.91900 31.38300
C  39.42100 7.88000 26.61100
C  43.72300 10.02900 26.92800
N  40.95800 9.30700 31.32900
C  41.77600 10.01300 32.12400
C  41.33400 9.92900 33.58300
C  40.05500 9.01200 33.53300
C  39.96500 8.62300 31.99500
C  40.04800 7.73500 34.42100
C  41.32900 11.24100 34.39000
C  40.33700 11.34500 35.51400
H  41.03300 11.67100 36.85000
N  39.40300 8.05300 29.04500
C  38.57900 7.63600 30.03700
C  37.41800 7.02700 29.50800
C  37.49600 7.19300 28.11500
C  38.82100 7.68300 27.86500
C  36.35200 6.45000 30.39000
C  36.49300 6.99400 27.10700
O  36.77200 7.33800 25.99300
C  35.10500 6.51100 27.32100
N  41.65600 8.66200 27.09100
C  40.69400 8.26000 26.23200
C  41.21700 8.11500 24.80400
C  42.32900 9.22900 24.85300
C  42.60000 9.34200 26.34100
C  41.79400 6.70900 24.42100
C  41.93200 10.65600 24.28900
C  40.44200 11.07100 24.36000
N  42.95600 10.11200 29.22100
C  43.92200 10.35400 28.28400
C  45.05800 11.06500 28.87700
C  44.74500 11.14800 30.24300
C  43.45000 10.54700 30.37300
C  46.27200 11.45100 28.16400
C  45.10300 11.72400 31.47400
O  46.06000 12.42400 31.81000
C  43.96300 11.33000 32.55600
C  44.56500 10.36500 33.42300
O  45.07100 9.32700 33.02800
O  44.58800 10.85400 34.70000
C  45.34400 10.02100 35.65500
H  38.10700 7.85600 32.12900
H  38.88900 7.49400 25.73900
H  44.48300 10.37300 26.22300
H  42.17400 9.45700 34.09300
H  39.21600 9.66900 33.75900
H  39.00900 7.40900 34.46000
H  40.63700 7.90200 35.32300
H  40.59200 6.94200 33.90700
H  41.05100 11.89500 33.56300
H  42.29200 11.62200 34.72900
H  39.85800 10.43000 35.86100
H  39.64000 12.13800 35.24200
H  35.45400 6.31500 29.78700
H  36.13800 7.01300 31.29900
H  36.68600 5.45200 30.67400
H  34.59400 6.65400 26.36900
H  34.49300 7.11600 27.99000
H  34.96600 5.43800 27.45400
H  40.42100 8.21100 24.06500
H  43.13300 8.80400 24.25300
H  41.11000 6.14000 23.79100
H  41.64100 6.15600 25.34700
H  42.81100 6.59500 24.04500
H  42.31500 10.70900 23.27000
H  42.37800 11.53700 24.75000
H  40.28700 11.64000 25.27700
H  39.78900 10.19800 24.34600
H  40.13300 11.77800 23.59100
H  47.15700 11.23500 28.76300
H  46.14500 12.52900 28.05700
H  46.34900 10.98000 27.18400
H  43.66400 12.23300 33.08900
H  45.20400 10.53000 36.60900
H  46.37200 10.06100 35.29500
H  44.91600 9.01900 35.68700
Mg 47.18900 16.16200 27.95000
C  45.25800 15.82600 30.97900
C  49.32600 18.13900 29.85000
C  48.39500 17.41000 25.17800
C  44.41200 14.79600 26.28200
N  47.31900 16.87600 30.22400
C  46.47300 16.54900 31.21500
C  47.01700 17.02700 32.56800
C  48.30000 17.83300 32.16700
C  48.38200 17.52400 30.63800
C  48.18800 19.38000 32.44300
C  47.45000 15.90800 33.53800
C  46.75200 16.01000 34.93700
H  46.33800 17.46000 35.46200
N  48.75800 17.52400 27.50500
C  49.47100 18.21200 28.45400
C  50.56100 18.93800 27.78400
C  50.30700 18.77900 26.37300
C  49.11300 17.84000 26.30000
C  51.79500 19.56900 28.43800
C  50.97300 19.39900 25.13400
O  50.82200 18.99000 24.02700
C  51.89600 20.57600 25.28600
N  46.58600 16.02800 26.08400
C  47.28500 16.55500 25.08000
C  46.66600 16.15000 23.69100
C  45.68900 15.01100 24.10600
C  45.50500 15.29200 25.59800
C  46.09200 17.43500 22.95100
C  46.12200 13.53900 23.85200
C  47.45700 13.16200 24.39000
N  45.30100 15.38600 28.46800
C  44.24100 14.84000 27.67000
C  43.08900 14.51900 28.44900
C  43.46000 14.87400 29.73500
C  44.78000 15.34800 29.72300
C  41.90100 13.98600 27.90600
C  43.03700 14.80700 31.14400
O  41.96900 14.37300 31.55700
C  44.16700 15.48900 31.97000
C  43.57100 16.59800 32.69400
O  43.82800 17.76400 32.54200
O  42.76400 16.16800 33.71100
C  41.98300 17.14700 34.47000
H  49.97000 18.83400 30.39200
H  48.67600 17.81700 24.20400
H  43.61200 14.39000 25.66000
H  46.21900 17.65800 32.96000
H  49.26000 17.51900 32.57600
H  47.39600 19.51600 33.17900
H  47.77300 19.80300 31.52800
H  49.17000 19.81800 32.62500
H  48.50900 15.87700 33.79400
H  47.20100 14.93500 33.11400
H  47.34500 15.45200 35.66200
H  45.78600 15.50700 34.92200
H  51.69800 19.48400 29.52000
H  51.74600 20.63500 28.21500
H  52.75800 19.22700 28.06100
H  51.51100 21.23000 26.06800
H  51.87200 21.13900 24.35300
H  52.93900 20.28300 25.40800
H  47.44300 15.73700 23.04800
H  44.72200 15.13500 23.61800
H  46.91700 17.97300 22.48300
H  45.48300 17.98700 23.66600
H  45.35700 17.11800 22.21200
H  46.09200 13.29200 22.79100
H  45.34100 12.91100 24.28100
H  48.11300 12.81900 23.59000
H  47.36100 12.25900 24.99300
H  47.91900 13.95000 24.98500
H  41.48900 14.55000 27.07000
H  41.10600 14.06900 28.64600
H  42.07600 12.95400 27.60000
H  44.33200 14.60300 32.58300
H  41.43300 17.75300 33.75000
H  42.62900 17.67200 35.17300
H  41.32800 16.47400 35.02500

