158

Mg 8.79400 2.59500 27.69700
C  10.31500 1.09800 30.48100
C  6.81400 4.48300 29.74800
C  7.45000 3.87500 24.96400
C  10.63500 0.25100 25.63900
N  8.68900 2.74900 29.81900
C  9.49600 2.22000 30.79400
C  9.10900 2.70800 32.17800
C  7.94300 3.65200 31.90600
C  7.72000 3.59300 30.38300
C  6.68500 3.41300 32.81400
C  10.34800 3.27300 33.00300
C  10.19600 4.25200 34.17700
H  10.95400 3.99000 35.44000
N  7.20600 3.98300 27.42700
C  6.51300 4.64400 28.37900
C  5.59700 5.51100 27.72300
C  5.93200 5.48900 26.30600
C  6.93200 4.45600 26.11700
C  4.59200 6.40400 28.50700
C  5.44200 6.34700 25.20500
O  5.85700 6.36500 24.10200
C  4.30200 7.37800 25.57300
N  8.81900 1.88600 25.58900
C  8.21600 2.69200 24.65300
C  8.73900 2.29800 23.21600
C  9.58700 1.01700 23.40100
C  9.78200 1.10100 24.98000
C  7.64900 2.19500 22.17800
C  10.99200 1.08700 22.63400
C  11.23400 -0.20500 21.83400
N  10.26800 1.14500 27.90900
C  10.86000 0.24100 27.01300
C  11.77800 -0.67000 27.72200
C  11.57800 -0.35800 29.07800
C  10.72100 0.77900 29.12400
C  12.58300 -1.85000 27.14900
C  11.99600 -0.72700 30.42500
O  12.78200 -1.56500 30.81400
C  11.22300 0.24200 31.36000
C  10.60100 -0.59800 32.36500
O  9.39200 -0.86600 32.56000
O  11.53000 -0.92200 33.35100
C  11.00600 -1.20700 34.66900
H  6.23500 5.13800 30.40300
H  7.19400 4.44700 24.06900
H  11.21000 -0.38600 24.96400
H  8.75100 1.79700 32.65800
H  8.23000 4.64800 32.24500
H  5.81000 2.97700 32.33300
H  6.32800 4.34400 33.25500
H  6.91700 2.79300 33.68000
H  10.93000 3.72900 32.20200
H  10.88600 2.37200 33.29800
H  9.14100 4.41700 34.39500
H  10.52100 5.21000 33.77100
H  3.58800 6.48800 28.09200
H  5.16700 7.30300 28.72800
H  4.44100 5.87000 29.44600
H  4.65200 8.04000 26.36500
H  3.51400 6.68400 25.86400
H  3.90300 7.99900 24.77100
H  9.37900 3.12900 22.91900
H  9.01200 0.09400 23.32700
H  6.81400 2.83100 22.47200
H  7.33900 1.15200 22.23700
H  7.98900 2.50600 21.19000
H  11.77300 1.28300 23.36900
H  10.96400 1.91400 21.92500
H  11.63000 -0.01700 20.83600
H  10.35200 -0.81400 21.63400
H  12.04500 -0.70900 22.35800
H  13.65500 -1.67900 27.04900
H  12.13300 -2.14400 26.20000
H  12.52000 -2.72800 27.79100
H  12.01800 0.80200 31.85200
H  10.08800 -0.64600 34.84600
H  11.77100 -0.84600 35.35600
H  10.75900 -2.26100 34.79700
Mg 17.70300 -1.81600 27.56100
C  16.53200 0.27100 30.17500
C  19.53700 -3.57900 29.93200
C  19.09000 -3.40600 25.09200
C  15.78900 0.11100 25.37900
N  18.17000 -1.54300 29.66400
C  17.48600 -0.71700 30.55700
C  17.74600 -1.01100 31.97500
C  19.00400 -1.92800 31.84500
C  19.03200 -2.33800 30.37400
C  20.30200 -1.22900 32.31100
C  16.60300 -1.67900 32.84300
C  16.76200 -1.73100 34.39000
H  18.07800 -1.12400 34.99000
N  19.02000 -3.38300 27.50300
C  19.68800 -4.02000 28.62100
C  20.47200 -5.15000 28.09600
C  20.35700 -5.06700 26.61700
C  19.41900 -3.92300 26.31600
C  21.23300 -6.07300 28.99500
C  21.05700 -5.97600 25.59900
O  20.92100 -5.81900 24.38100
C  22.02700 -7.09000 26.11400
N  17.46500 -1.68200 25.54300
C  18.24700 -2.42600 24.68800
C  18.06200 -2.00900 23.17500
C  16.70900 -1.07800 23.31900
C  16.65900 -0.82900 24.81900
C  19.30700 -1.27700 22.56200
C  15.43300 -1.76700 22.79300
C  14.89300 -1.08800 21.53200
N  16.25900 -0.23000 27.70400
C  15.61700 0.43900 26.70700
C  14.98600 1.60700 27.29600
C  15.24700 1.59600 28.66700
C  16.03100 0.44000 28.87700
C  14.18900 2.62800 26.50600
C  15.16100 2.15800 30.00100
O  14.53900 3.22700 30.21900
C  15.74400 1.24600 31.07200
C  16.68200 2.10100 31.83000
O  17.84200 2.44100 31.56900
O  15.92700 2.44200 32.91000
C  16.62100 3.21300 33.94700
H  20.20600 -4.11100 30.61100
H  19.64400 -3.86200 24.26900
H  15.24500 0.61800 24.58000
H  18.01600 -0.04900 32.40900
H  18.83300 -2.84600 32.40700
H  20.69600 -1.78500 33.16200
H  20.23700 -0.19600 32.65300
H  21.05500 -1.24300 31.52300
H  16.48900 -2.71500 32.52500
H  15.68500 -1.10900 32.69800
H  16.61200 -2.78200 34.63800
H  15.95700 -1.07300 34.71800
H  22.21800 -5.64100 29.16700
H  21.27800 -7.13400 28.75000
H  20.72500 -6.00800 29.95800
H  22.40200 -7.78700 25.36400
H  21.29700 -7.60700 26.73600
H  22.85900 -6.76300 26.73800
H  17.83100 -2.88700 22.57100
H  17.00900 -0.08800 22.97400
H  19.19900 -0.20700 22.38400
H  19.43700 -1.69600 21.56400
H  20.27700 -1.48000 23.01700
H  14.71800 -1.78900 23.61600
H  15.61500 -2.80800 22.52900
H  15.12900 -1.68900 20.65400
H  15.39300 -0.14500 21.30700
H  13.83900 -0.82600 21.44200
H  14.91500 3.39600 26.24100
H  13.46600 3.19000 27.09800
H  13.82600 2.21700 25.56500
H  15.00100 0.72700 31.67700
H  16.49600 4.28900 33.82800
H  17.69600 3.03900 33.90300
H  16.09400 2.85400 34.83100

