158

Mg 47.83200 15.29900 27.61100
C  45.68500 15.20200 30.28600
C  49.81400 17.53600 29.21100
C  49.64100 15.37500 24.85500
C  45.24800 13.40900 25.86600
N  47.73000 16.31500 29.38300
C  46.86500 15.92100 30.47300
C  47.29300 16.57000 31.84300
C  48.46700 17.54300 31.31700
C  48.66300 17.21400 29.87500
C  48.17700 19.05700 31.61700
C  47.80000 15.41900 32.83400
C  47.50200 15.67100 34.34200
H  48.82900 16.07000 35.08000
N  49.50800 16.26800 27.12900
C  50.23400 17.08000 27.95700
C  51.49600 17.24300 27.31300
C  51.51900 16.55200 26.08600
C  50.20100 16.02800 25.97700
C  52.68800 18.09800 27.95100
C  52.54700 16.39100 25.06200
O  52.41400 15.76000 24.02900
C  53.91400 17.02900 25.30400
N  47.47900 14.58500 25.66700
C  48.39100 14.76100 24.69800
C  47.85000 14.41900 23.34800
C  46.71200 13.39300 23.74400
C  46.40400 13.76500 25.23100
C  47.34900 15.59400 22.56100
C  47.05000 11.89800 23.48100
C  47.35000 11.10100 24.70400
N  45.79700 14.43800 27.93000
C  44.92000 13.69800 27.18000
C  43.85200 13.28600 27.98100
C  44.06000 13.82100 29.30400
C  45.27300 14.53200 29.15000
C  42.67400 12.46700 27.50500
C  43.62300 13.99500 30.66700
O  42.63200 13.52300 31.18600
C  44.61100 14.92900 31.37800
C  43.80000 16.05900 31.94600
O  43.72500 17.20200 31.41900
O  43.21400 15.69000 33.17800
C  42.71600 16.83600 33.99700
H  50.54300 18.12500 29.77100
H  50.18900 15.38700 23.91100
H  44.58400 12.73200 25.32400
H  46.45200 17.07900 32.31500
H  49.34600 17.26100 31.89600
H  48.34700 19.73100 30.77800
H  48.80700 19.33600 32.46100
H  47.17100 19.30200 31.95800
H  48.88300 15.29800 32.84600
H  47.42200 14.44800 32.51400
H  47.14600 14.76500 34.83400
H  46.80800 16.50700 34.42500
H  53.63600 17.58700 27.78200
H  52.62600 18.28100 29.02400
H  52.75800 19.10800 27.54800
H  53.81600 18.08400 25.56300
H  54.62700 16.90800 24.48900
H  54.27500 16.41600 26.12900
H  48.54700 13.82000 22.76400
H  45.87200 13.66400 23.10500
H  46.29200 15.75100 22.77200
H  47.40600 15.51700 21.47600
H  47.86700 16.51100 22.84400
H  47.77800 11.77700 22.67900
H  46.17400 11.41400 23.04800
H  47.71000 10.10900 24.43200
H  46.48500 11.08000 25.36700
H  48.12600 11.67600 25.20800
H  42.12100 12.01700 28.33000
H  42.91200 11.73300 26.73600
H  42.11800 13.28100 27.04000
H  45.00300 14.32500 32.19700
H  41.62800 16.78000 34.02900
H  43.00700 17.83900 33.68500
H  43.09500 16.66500 35.00500
Mg -4.87900 24.81000 26.54900
C  -3.34800 26.46200 29.00100
C  -5.76400 22.32700 28.73700
C  -6.52900 23.18600 24.00800
C  -3.28900 26.83100 24.08000
N  -4.52200 24.39400 28.64000
C  -3.98200 25.31500 29.46400
C  -4.19700 24.82900 30.92200
C  -4.60300 23.38200 30.78800
C  -4.98500 23.35000 29.32400
C  -3.58400 22.36600 31.12100
C  -5.23000 25.76200 31.71300
C  -4.98800 25.86900 33.27900
H  -5.00100 24.54300 34.02000
N  -6.13500 23.11700 26.42300
C  -6.29600 22.19400 27.44500
C  -7.27900 21.24300 27.06900
C  -7.57400 21.46400 25.65500
C  -6.77000 22.64300 25.28300
C  -7.94400 20.15300 28.00800
C  -8.51200 20.73600 24.73600
O  -8.77100 21.23800 23.61000
C  -9.29700 19.50600 25.14400
N  -4.93100 24.99900 24.39200
C  -5.71800 24.21200 23.59500
C  -5.50400 24.47900 22.08400
C  -4.47300 25.66000 22.08400
C  -4.26400 25.85100 23.58500
C  -5.00200 23.17600 21.35000
C  -4.77300 26.79500 21.18300
C  -3.98800 26.72100 19.97700
N  -3.45500 26.23300 26.50500
C  -2.91100 26.96900 25.44100
C  -2.05500 27.96400 26.02900
C  -2.25600 27.87800 27.38400
C  -3.05600 26.74000 27.64600
C  -1.33100 29.05000 25.30800
C  -1.94700 28.44500 28.71900
O  -1.23700 29.42800 28.95400
C  -2.60400 27.55900 29.82500
C  -1.51400 27.10700 30.74500
O  -0.42000 26.72100 30.48100
O  -1.92700 27.34800 32.04400
C  -0.87000 27.08500 33.05900
H  -6.12300 21.58600 29.45400
H  -6.98100 22.64300 23.17500
H  -2.70400 27.39000 23.34600
H  -3.21200 24.89500 31.38400
H  -5.42800 23.13800 31.45800
H  -4.20200 21.57600 31.54600
H  -2.86600 22.69300 31.87300
H  -3.18200 21.86900 30.23900
H  -6.19800 25.28200 31.57100
H  -5.34600 26.78600 31.35700
H  -5.85200 26.41400 33.66100
H  -4.02300 26.35800 33.40500
H  -9.00900 20.35600 28.12400
H  -7.60900 20.07500 29.04300
H  -7.94800 19.15400 27.57100
H  -10.15500 19.19100 24.55000
H  -9.80100 19.79900 26.06600
H  -8.50500 18.79200 25.36900
H  -6.46300 24.79100 21.67000
H  -3.51400 25.16500 21.93100
H  -4.39400 22.55900 22.01200
H  -4.35100 23.30300 20.48500
H  -5.92500 22.64000 21.12700
H  -4.39700 27.62200 21.78600
H  -5.81800 26.91600 20.89700
H  -3.38600 25.81900 19.87100
H  -3.33300 27.58700 20.06900
H  -4.63300 26.93200 19.12400
H  -0.38700 28.68300 24.90600
H  -1.12400 29.84100 26.02900
H  -1.87300 29.50800 24.48000
H  -3.35700 28.20400 30.27700
H  -1.18000 27.44600 34.03900
H  0.09900 27.57500 32.96500
H  -0.86800 26.02200 33.30300

