158

Mg 16.45900 -2.03800 27.53600
C  15.42200 -0.04900 30.27700
C  18.77600 -3.46600 29.75700
C  17.56600 -3.90500 25.01700
C  14.63700 0.03400 25.39500
N  17.02500 -1.72800 29.81600
C  16.42600 -0.90200 30.67400
C  17.00100 -1.12000 32.05700
C  18.15500 -2.15800 31.89600
C  17.97100 -2.50200 30.39100
C  19.54600 -1.73900 32.32600
C  15.94200 -1.39300 33.11400
C  15.88000 -0.42000 34.32400
H  17.15300 0.26100 34.72100
N  17.83500 -3.56900 27.37000
C  18.71900 -3.93700 28.36700
C  19.53400 -5.09000 27.86100
C  19.18500 -5.23200 26.45900
C  18.12900 -4.23800 26.21300
C  20.59800 -5.75500 28.56900
C  19.64800 -6.21500 25.40400
O  19.22500 -6.20200 24.26100
C  20.62600 -7.25300 25.78300
N  16.01400 -1.95800 25.49200
C  16.67600 -2.85300 24.64500
C  16.33900 -2.48100 23.15700
C  15.27200 -1.33500 23.30400
C  15.35400 -1.02900 24.79700
C  17.61800 -2.17200 22.36300
C  13.78900 -1.56900 22.85800
C  13.07100 -2.67500 23.66800
N  15.26100 -0.40200 27.72700
C  14.52700 0.28100 26.76100
C  13.61800 1.22800 27.40700
C  14.00400 1.14800 28.79900
C  14.96500 0.12100 28.91900
C  12.64900 2.24900 26.70600
C  13.76900 1.72700 30.12000
O  13.01100 2.66200 30.41800
C  14.65700 1.00700 31.13900
C  15.49900 2.10600 31.67900
O  16.59200 2.42300 31.20200
O  14.93400 2.64800 32.76100
C  15.60100 3.71800 33.42500
H  19.38900 -3.96500 30.51100
H  17.98900 -4.32600 24.10200
H  14.03300 0.70700 24.78300
H  17.29500 -0.08000 32.20200
H  17.92600 -3.09700 32.40000
H  20.07500 -1.59700 31.38300
H  19.94400 -2.57200 32.90500
H  19.52200 -0.78200 32.84700
H  15.90800 -2.41400 33.49500
H  14.97500 -1.18900 32.65400
H  15.47700 -0.97800 35.16800
H  15.21600 0.39600 34.03600
H  20.99800 -5.24700 29.44700
H  21.42200 -6.01000 27.90200
H  20.30100 -6.73800 28.93500
H  20.39800 -7.83300 26.67800
H  21.63800 -6.85600 25.86500
H  20.62600 -7.90000 24.90600
H  15.96100 -3.41300 22.73700
H  15.61900 -0.47200 22.73600
H  18.50000 -2.34700 22.97900
H  17.43900 -1.16100 21.99600
H  17.72800 -2.87000 21.53300
H  13.63500 -1.52000 21.78000
H  13.29900 -0.65600 23.19800
H  12.21100 -2.23500 24.17300
H  13.77300 -3.04500 24.41400
H  12.73900 -3.48800 23.02100
H  11.70600 1.83800 27.06700
H  12.54300 2.02100 25.64500
H  12.73300 3.33500 26.74100
H  14.00900 0.67700 31.95100
H  15.35500 4.70600 33.03600
H  16.66600 3.49200 33.45600
H  15.16000 3.81300 34.41800
Mg 1.51800 42.28300 25.90300
C  3.87900 42.01100 28.54100
C  -0.96100 41.54300 28.20100
C  -0.50900 41.80900 23.38100
C  4.22400 42.89500 23.74000
N  1.53500 41.88400 28.03000
C  2.52700 41.88700 28.92700
C  2.04400 41.90100 30.33700
C  0.54600 41.57400 30.27400
C  0.36200 41.69500 28.73600
C  0.24500 40.16300 30.93900
C  2.27400 43.31400 30.96000
C  2.58000 43.41500 32.44000
H  2.10000 42.22000 33.38200
N  -0.48100 41.79900 25.80300
C  -1.27200 41.38000 26.85100
C  -2.58800 40.92700 26.33400
C  -2.59100 41.08000 24.97200
C  -1.18600 41.58300 24.67800
C  -3.65000 40.35000 27.34400
C  -3.67400 40.86200 23.90400
O  -3.50100 41.11100 22.71700
C  -5.04600 40.27900 24.45700
N  1.84500 42.22200 23.86200
C  0.81200 42.22800 23.01100
C  1.27700 42.35300 21.52100
C  2.73400 43.02700 21.74200
C  2.92800 42.74800 23.25300
C  1.44200 41.00000 20.78400
C  2.70900 44.56600 21.43700
C  3.35800 45.09500 20.07600
N  3.65500 42.48100 26.02800
C  4.64900 42.73700 25.11600
C  5.89100 42.77500 25.78000
C  5.62100 42.51600 27.12700
C  4.27500 42.27900 27.21200
C  7.23100 43.14200 25.23300
C  6.29500 42.33800 28.44300
O  7.43800 42.35700 28.81700
C  5.08700 42.19700 29.40800
C  5.36500 41.12200 30.48200
O  5.08400 39.96100 30.32400
O  6.04800 41.64000 31.55500
C  6.23800 40.78900 32.68400
H  -1.75100 41.35900 28.93200
H  -1.25100 41.62000 22.60200
H  4.94200 43.29600 23.02200
H  2.64000 41.22400 30.95100
H  -0.03800 42.33100 30.79800
H  -0.01400 39.45300 30.15300
H  -0.63300 40.28600 31.57200
H  1.01300 39.82100 31.63300
H  1.37800 43.90400 30.76800
H  3.06300 43.84000 30.42200
H  1.99900 44.20800 32.91000
H  3.66200 43.49200 32.53800
H  -4.73400 40.35600 27.22900
H  -3.60200 40.92900 28.26700
H  -3.41200 39.31300 27.58100
H  -4.77300 39.37700 25.00500
H  -5.64000 40.05200 23.57200
H  -5.51500 41.03600 25.08600
H  0.58400 43.05100 21.05100
H  3.44900 42.46600 21.13900
H  2.43100 40.81500 20.36300
H  0.84700 41.15100 19.88300
H  0.94100 40.14200 21.23000
H  3.16300 45.11800 22.26000
H  1.65100 44.82100 21.50300
H  2.73700 45.90500 19.69500
H  3.38300 44.30500 19.32500
H  4.31000 45.58900 20.26900
H  7.46600 44.18800 25.42900
H  7.16600 43.14200 24.14500
H  8.09500 42.59600 25.60900
H  5.06800 43.15900 29.92000
H  7.27000 40.44000 32.65100
H  5.60700 39.90100 32.71200
H  6.27400 41.40400 33.58300

