158

Mg 16.96200 51.52200 25.48200
C  18.77800 50.27100 28.33800
C  14.44600 52.44500 27.64600
C  15.67400 52.98000 22.97800
C  19.54700 50.22600 23.56800
N  16.64500 51.26500 27.68800
C  17.46000 50.75500 28.66000
C  16.91500 51.21100 30.02800
C  15.41200 51.41000 29.78000
C  15.51000 51.74300 28.25400
C  14.57300 50.10600 30.04900
C  17.67100 52.47000 30.56400
C  17.98800 52.48700 32.10500
H  17.02100 51.84700 33.17100
N  15.18600 52.65100 25.29500
C  14.29300 52.91500 26.28500
C  13.25000 53.76900 25.67900
C  13.58000 53.93300 24.27300
C  14.86200 53.24700 24.12700
C  12.00000 54.07900 26.36000
C  12.85200 54.73700 23.14800
O  13.23400 54.82300 21.99600
C  11.70300 55.54700 23.51700
N  17.49500 51.45200 23.59300
C  16.82400 52.25000 22.74000
C  17.44700 52.29800 21.31800
C  18.69800 51.37100 21.54900
C  18.58800 50.97500 23.00900
C  16.52400 51.89200 20.16200
C  20.03100 52.03100 21.19800
C  20.48200 51.58300 19.87600
N  18.69900 50.26900 25.80500
C  19.70700 49.90100 24.91800
C  20.80500 49.26600 25.56700
C  20.53800 49.35700 26.90900
C  19.22800 50.01100 27.01500
C  22.06600 48.78000 24.82100
C  21.04600 49.07000 28.28000
O  22.09500 48.57500 28.75500
C  19.82600 49.66900 29.29300
C  19.35800 48.61000 30.06400
O  19.05000 47.44100 29.72100
O  19.42700 48.92800 31.42600
C  18.95800 47.93200 32.39200
H  13.66600 52.88300 28.27200
H  15.28300 53.49500 22.09800
H  20.32700 49.85700 22.89900
H  17.07800 50.32700 30.64500
H  15.00700 52.25500 30.33800
H  13.61900 50.30500 30.53700
H  15.09200 49.43600 30.73500
H  14.28900 49.72000 29.07000
H  17.08200 53.36600 30.36900
H  18.60000 52.52300 29.99500
H  18.01800 53.53900 32.39000
H  18.92700 51.96100 32.27900
H  11.19200 53.73600 25.71300
H  11.94500 55.16800 26.38900
H  11.86000 53.58700 27.32200
H  10.87400 54.90200 23.81000
H  11.40300 56.15600 22.66300
H  11.94300 56.14300 24.39800
H  17.62800 53.35100 21.10200
H  18.55500 50.40800 21.06100
H  15.48900 52.20400 20.30200
H  16.54300 50.81200 20.01900
H  16.79400 52.40900 19.24100
H  20.84500 51.73400 21.86000
H  19.83200 53.10100 21.15300
H  21.17200 50.77800 20.12900
H  21.12400 52.26200 19.31600
H  19.75600 51.13400 19.19700
H  22.27400 49.47600 24.00800
H  21.80400 47.78900 24.45000
H  22.92600 48.52400 25.43900
H  20.29300 50.43500 29.91300
H  18.21100 48.33700 33.07500
H  19.82500 47.63200 32.98100
H  18.63300 46.96500 32.00800
Mg 9.78600 47.95700 24.49300
C  7.43200 48.23900 27.20800
C  12.22700 49.15600 26.54200
C  11.88400 47.50500 22.05000
C  7.01200 47.56500 22.29600
N  9.72800 48.65500 26.61900
C  8.78200 48.48900 27.60700
C  9.32600 48.98500 29.01000
C  10.77600 49.43800 28.63000
C  10.94700 49.02600 27.14800
C  11.07600 50.95700 28.82000
C  9.24500 48.01100 30.19500
C  8.51700 48.36000 31.49400
H  8.51200 47.28400 32.56300
N  11.84400 48.22200 24.38400
C  12.68700 48.72800 25.30600
C  14.03800 48.64800 24.74400
C  14.00300 48.03800 23.44200
C  12.54100 47.84500 23.22700
C  15.19500 49.03700 25.51400
C  15.01800 47.55800 22.51300
O  14.71100 46.86600 21.54400
C  16.47200 47.94400 22.73400
N  9.43100 47.67400 22.43900
C  10.53100 47.51700 21.64600
C  10.08600 47.08800 20.26400
C  8.46300 47.13300 20.28100
C  8.30000 47.54100 21.74700
C  10.70700 47.94800 19.05500
C  7.84400 45.83700 19.80900
C  8.18100 44.51400 20.61400
N  7.69400 47.84200 24.65500
C  6.71400 47.68800 23.69300
C  5.45800 47.68200 24.32400
C  5.64000 47.95700 25.67400
C  7.05200 48.05900 25.82800
C  4.13600 47.43300 23.64300
C  5.04700 48.08500 27.00500
O  3.86000 47.92000 27.27100
C  6.11700 48.32800 28.02600
C  5.97200 47.27500 29.12300
O  6.38000 46.12900 28.99500
O  5.07600 47.77700 30.02200
C  5.00800 46.84000 31.20900
H  12.93900 49.61600 27.23100
H  12.52300 47.19500 21.22100
H  6.24800 47.39800 21.53400
H  8.74400 49.85500 29.31400
H  11.49400 48.82500 29.17500
H  11.12200 51.48600 27.86800
H  12.06300 51.19500 29.21500
H  10.39600 51.45000 29.51500
H  10.26700 47.65600 30.32700
H  8.65500 47.14700 29.88700
H  7.48300 48.56100 31.21500
H  8.99700 49.20900 31.98000
H  15.09200 49.59700 26.44300
H  15.76000 49.78300 24.95500
H  15.87000 48.20900 25.73300
H  16.49400 49.03100 22.65200
H  17.07300 47.43500 21.98100
H  16.93100 47.58300 23.65500
H  10.52600 46.10600 20.09000
H  8.05000 47.93000 19.66200
H  11.26400 48.79800 19.44800
H  9.84900 48.20700 18.43500
H  11.50300 47.36600 18.59100
H  8.16800 45.89500 18.76900
H  6.77300 46.03400 19.84800
H  7.26100 44.09400 21.02200
H  8.75700 44.81900 21.48800
H  8.81600 43.78200 20.11600
H  3.76500 48.39200 23.28100
H  3.52000 47.08600 24.47300
H  4.14200 46.70200 22.83400
H  6.10300 49.33100 28.45400
H  5.64500 45.96300 31.09600
H  3.96600 46.56600 31.37400
H  5.41600 47.35100 32.08100

