158

Mg 36.71600 2.48400 30.04000
C  34.27400 3.37300 32.49300
C  39.12800 2.58800 32.49400
C  38.93700 1.95900 27.71600
C  34.20000 2.89000 27.57700
N  36.71200 2.94100 32.24300
C  35.54700 3.19300 33.03600
C  35.90900 3.13500 34.57400
C  37.47000 3.04400 34.46600
C  37.79200 2.78200 33.01500
C  38.13800 4.31800 34.99000
C  35.30000 1.79200 35.23700
C  34.40900 2.00400 36.40400
H  35.02000 2.88800 37.50500
N  38.79500 2.19300 30.09000
C  39.62200 2.37100 31.14200
C  41.03900 2.14700 30.73000
C  41.01800 2.01400 29.34100
C  39.55100 2.02100 28.98400
C  42.12400 2.03200 31.75500
C  42.07200 1.98700 28.35900
O  41.93600 1.75400 27.19100
C  43.51700 1.98500 28.86000
N  36.56900 2.33600 27.95100
C  37.61900 2.10300 27.24400
C  37.24600 1.74700 25.77200
C  35.72400 2.21900 25.72700
C  35.43200 2.44900 27.16100
C  38.16200 2.33700 24.64900
C  34.72600 1.31200 25.02400
C  33.69500 2.06400 24.14800
N  34.69700 3.04300 29.98200
C  33.83600 3.12100 28.92100
C  32.52600 3.44600 29.48200
C  32.72000 3.55600 30.82100
C  34.07000 3.31000 31.10000
C  31.25400 3.59600 28.80100
C  32.02700 3.83000 32.07800
O  30.90500 4.08500 32.21600
C  33.08000 3.70000 33.23600
C  33.04000 4.88200 34.08100
O  33.73700 5.91100 33.92800
O  32.24800 4.60700 35.20400
C  32.21800 5.69800 36.19300
H  39.86900 2.64200 33.29400
H  39.62100 1.75800 26.89000
H  33.38700 3.10000 26.87800
H  35.59300 4.09700 34.97700
H  37.85900 2.20500 35.04300
H  37.55000 5.23200 34.90400
H  38.96900 4.64700 34.36600
H  38.47300 4.18900 36.02000
H  36.15400 1.24400 35.63500
H  34.82300 1.21800 34.44200
H  34.21200 1.02700 36.84700
H  33.48800 2.50300 36.10100
H  42.43100 3.02500 32.08300
H  43.02100 1.53200 31.39000
H  41.87200 1.35300 32.56900
H  44.14700 2.06200 27.97400
H  43.56500 1.04000 29.40200
H  43.74800 2.92900 29.35300
H  37.17600 0.65900 25.78400
H  35.61900 3.24600 25.37800
H  38.92200 1.59800 24.39600
H  38.73900 3.15900 25.07200
H  37.56600 2.58900 23.77100
H  34.23700 0.61600 25.70600
H  35.31000 0.88500 24.20800
H  34.15600 2.87100 23.58000
H  32.96700 2.49900 24.83400
H  33.25100 1.29000 23.52200
H  30.83000 2.62900 28.52900
H  31.30600 4.12900 27.85200
H  30.58500 4.18500 29.42900
H  32.72000 2.82600 33.77900
H  31.77300 6.52100 35.63500
H  33.21700 5.95900 36.54400
H  31.60900 5.48900 37.07200
Mg 41.22600 40.92400 26.39600
C  40.78300 43.42800 28.85100
C  42.26400 38.74900 28.86500
C  41.69200 38.73900 24.11600
C  40.44300 43.32000 23.98400
N  41.41500 41.07700 28.63000
C  41.26700 42.20600 29.38200
C  41.33500 41.79800 30.83100
C  42.18900 40.50100 30.82300
C  42.01000 40.02300 29.36300
C  43.77700 40.67100 31.06600
C  39.94000 41.63500 31.61600
C  39.56300 42.70400 32.69800
H  39.05000 42.25400 34.05900
N  41.80300 39.00900 26.50700
C  42.18500 38.26300 27.52900
C  42.52000 36.91300 27.12600
C  42.34200 36.85000 25.71400
C  41.98100 38.19200 25.35400
C  42.99000 35.77300 28.05800
C  42.56500 35.67700 24.73100
O  42.48900 35.82900 23.48200
C  42.92900 34.35300 25.23900
N  41.19000 41.05800 24.34900
C  41.37100 39.95100 23.61900
C  41.34400 40.21400 22.14800
C  40.79600 41.67600 22.06600
C  40.81200 42.08900 23.57100
C  42.68800 40.02600 21.42700
C  39.32800 41.74300 21.53700
C  38.33700 40.84900 22.33000
N  40.63800 42.96500 26.34100
C  40.32300 43.84800 25.28300
C  39.83400 45.06300 25.80200
C  39.93700 44.94900 27.19300
C  40.53800 43.72800 27.48400
C  39.24300 46.17400 24.97300
C  39.71900 45.60700 28.44700
O  39.27600 46.70300 28.66800
C  40.31800 44.66800 29.58500
C  41.38800 45.43900 30.31300
O  42.60500 45.29200 30.10500
O  40.85800 46.25900 31.28000
C  41.72000 46.79400 32.33000
H  42.52200 38.06300 29.67500
H  41.75000 38.02500 23.29200
H  40.12600 43.95800 23.15700
H  41.82300 42.55600 31.44200
H  41.82700 39.77500 31.55100
H  44.02800 41.72900 31.13800
H  44.35600 40.39600 30.18500
H  43.91800 40.12300 31.99800
H  39.95300 40.73200 32.22600
H  39.11800 41.58600 30.90200
H  38.68000 43.22100 32.32300
H  40.40200 43.37700 32.87100
H  42.33600 34.90700 27.95800
H  43.17100 36.05100 29.09600
H  43.95200 35.47700 27.63900
H  43.94700 34.50600 25.59800
H  42.89400 33.52100 24.53600
H  42.21500 34.06100 26.00900
H  40.61100 39.44400 21.91000
H  41.44000 42.30600 21.45200
H  43.44000 40.26100 22.18000
H  42.82700 40.75200 20.62700
H  42.77700 39.05300 20.94300
H  39.00700 41.54000 20.51600
H  39.15800 42.81700 21.61300
H  38.92900 40.21500 22.99100
H  37.87600 40.10000 21.68500
H  37.57500 41.44200 22.83600
H  38.71200 45.77400 24.11000
H  40.07300 46.86500 24.82900
H  38.46800 46.62800 25.59200
H  39.53200 44.39600 30.28900
H  42.08100 45.91400 32.86300
H  41.11200 47.52200 32.86700
H  42.53500 47.31200 31.82300

