158

Mg 9.15500 4.29700 27.66800
C  10.20700 2.52000 30.30800
C  6.65000 5.73900 29.60200
C  7.74900 5.61500 24.76100
C  11.15500 2.30700 25.47000
N  8.46100 4.12600 29.64900
C  9.28800 3.52200 30.65900
C  8.74700 3.77500 32.10400
C  7.47900 4.70300 31.79800
C  7.45300 4.85500 30.25200
C  6.16900 4.00100 32.30800
C  9.83200 4.22200 33.06300
C  9.33800 4.95800 34.33400
H  10.29600 5.20000 35.48100
N  7.53600 5.60800 27.23700
C  6.55800 6.02800 28.16800
C  5.59900 6.84800 27.49200
C  5.99900 6.98300 26.08800
C  7.21500 6.08900 25.95100
C  4.53300 7.56400 28.29200
C  5.41400 7.84600 24.98900
O  5.85200 7.86800 23.84200
C  4.34900 8.79300 25.34000
N  9.54700 4.18900 25.44300
C  8.83500 4.83200 24.41500
C  9.24300 4.40300 23.02300
C  10.46100 3.46100 23.26300
C  10.36100 3.28000 24.80600
C  8.00900 3.87300 22.20600
C  11.77300 4.12800 22.91400
C  12.31100 5.37900 23.64500
N  10.29500 2.74400 27.77800
C  11.07400 2.06200 26.84500
C  11.68500 0.89900 27.50800
C  11.46100 1.11600 28.88800
C  10.57300 2.18300 28.99400
C  12.61600 -0.05400 26.84200
C  11.78400 0.67700 30.19700
O  12.63500 -0.17400 30.39500
C  11.06400 1.66300 31.24200
C  10.22400 0.80800 32.15300
O  9.13500 0.33200 31.79100
O  10.71700 0.73600 33.42700
C  9.75300 0.07800 34.38500
H  5.90800 6.13600 30.29800
H  7.15400 5.84200 23.87400
H  11.92400 1.67200 25.02500
H  8.44500 2.80500 32.49800
H  7.49300 5.69000 32.26100
H  5.71000 4.85100 32.81300
H  6.35200 3.24300 33.07000
H  5.56100 3.66600 31.46700
H  10.64900 4.74400 32.56400
H  10.29500 3.27400 33.33800
H  8.54100 4.41100 34.83800
H  9.03500 5.96800 34.06100
H  4.84300 8.54600 28.64800
H  4.32000 6.95800 29.17200
H  3.60400 7.72900 27.74500
H  3.38500 8.34800 25.58300
H  4.12400 9.46300 24.51000
H  4.61500 9.48300 26.14100
H  9.63200 5.20900 22.40100
H  10.36800 2.47500 22.80900
H  7.10300 4.01500 22.79600
H  8.08900 2.79600 22.06000
H  7.98700 4.37700 21.23900
H  11.73900 4.41100 21.86200
H  12.55400 3.36900 22.91400
H  13.10700 5.06600 24.32000
H  11.61200 5.89600 24.30200
H  12.95300 6.02400 23.04500
H  13.07700 -0.64800 27.63000
H  13.43000 0.41200 26.28700
H  11.93200 -0.50600 26.12300
H  11.80100 2.20900 31.83100
H  10.21800 -0.73600 34.94000
H  9.01700 -0.60300 33.95900
H  9.46800 0.84100 35.11000
Mg 30.61700 58.21700 38.97900
C  27.93200 56.23100 37.97100
C  32.69600 55.43700 38.43100
C  33.32600 60.22600 39.23300
C  28.43100 61.05600 38.79800
N  30.26200 56.07700 38.33900
C  29.11600 55.50800 37.83600
C  29.36600 54.06300 37.32900
C  30.81600 53.74600 37.84900
C  31.33600 55.20900 38.11300
C  30.98100 52.78300 39.08300
C  29.18300 53.86400 35.74600
C  29.15600 55.22100 34.92900
H  27.98200 55.48700 33.98200
N  32.74100 57.84600 38.98200
C  33.34100 56.62400 38.75200
C  34.80200 56.82900 38.75500
C  34.97000 58.22900 38.98100
C  33.68600 58.83800 39.01300
C  35.78400 55.69500 38.45500
C  36.31400 58.95700 39.05600
O  37.36400 58.27600 39.00500
C  36.52700 60.40100 39.46100
N  30.84200 60.23900 39.05300
C  32.03400 60.87100 39.32000
C  31.93000 62.40100 39.39600
C  30.40300 62.56600 39.14100
C  29.85500 61.19100 38.97700
C  32.43300 63.11800 40.71200
C  30.13100 63.50000 37.86600
C  30.51200 64.98400 38.06200
N  28.57000 58.61400 38.67000
C  27.85000 59.75100 38.58900
C  26.41600 59.38900 38.29000
C  26.50000 57.98400 38.11000
C  27.80000 57.60900 38.29200
C  25.26200 60.30300 38.18400
C  25.69100 56.90700 37.63900
O  24.48400 56.99400 37.36900
C  26.57500 55.64100 37.50900
C  26.01700 54.65500 38.59700
O  26.29900 54.64600 39.82400
O  25.38300 53.59900 37.97600
C  25.25400 52.43200 38.81500
H  33.38100 54.59600 38.30400
H  34.09900 60.98100 39.39400
H  27.64200 61.81000 38.81600
H  28.63700 53.33500 37.68500
H  31.40700 53.30200 37.04700
H  29.99000 52.44900 39.38900
H  31.29900 53.47600 39.86200
H  31.80600 52.11000 38.85100
H  28.16000 53.51200 35.62000
H  29.98200 53.25700 35.32000
H  30.04500 55.30000 34.30300
H  29.16800 56.13000 35.53000
H  35.40700 55.27900 37.52100
H  35.80200 54.95900 39.25800
H  36.75300 56.09600 38.15800
H  35.89300 60.69500 40.29800
H  36.38300 61.02600 38.58000
H  37.58500 60.50300 39.70100
H  32.56900 62.86300 38.64400
H  29.84300 63.06100 39.93300
H  31.65600 63.72400 41.17700
H  33.28300 63.72200 40.39300
H  32.72300 62.25800 41.31500
H  29.04400 63.50600 37.78800
H  30.61700 63.16200 36.95100
H  31.11000 64.98900 38.97300
H  29.61900 65.60600 38.12800
H  31.17300 65.60800 37.45900
H  24.28900 59.81400 38.13900
H  25.45300 60.96000 37.33600
H  25.20800 61.00800 39.01300
H  26.66800 55.23500 36.50200
H  26.27400 52.19300 39.11700
H  24.77200 51.64200 38.23900
H  24.63500 52.53800 39.70600

