158

Mg 1.81300 -1.30100 43.61500
C  5.28900 -0.88700 42.61000
C  1.18500 1.42800 41.45100
C  -1.34700 -2.07700 43.76600
C  2.84900 -4.49500 44.65000
N  3.14400 -0.05200 42.13800
C  4.46900 0.00500 41.95400
C  4.97600 1.16300 41.15200
C  3.67000 1.99200 40.93700
C  2.54900 1.09700 41.56300
C  3.58900 3.46000 41.48600
C  5.80700 0.85100 39.94000
C  7.23700 1.29300 39.93500
H  7.72900 2.10200 38.68400
N  0.16400 -0.32300 42.91900
C  0.13200 0.79800 42.04900
C  -1.24800 1.19500 41.89400
C  -2.04300 0.26600 42.62600
C  -1.13400 -0.77500 43.17500
C  -1.60300 2.46100 41.06200
C  -3.54300 0.24300 42.67100
O  -4.24200 1.09200 42.07300
C  -4.27300 -0.73100 43.54700
N  0.84500 -3.10100 44.06400
C  -0.47400 -3.11400 44.15600
C  -0.93800 -4.50800 44.70400
C  0.44400 -5.29800 44.95400
C  1.47700 -4.28800 44.47800
C  -1.95500 -4.49700 45.88900
C  0.48700 -6.68100 44.24100
C  -0.15000 -7.67500 45.19000
N  3.66200 -2.39900 43.86000
C  3.91800 -3.65900 44.35100
C  5.34200 -3.85000 44.64700
C  5.90700 -2.79000 43.87400
C  4.86400 -1.93700 43.48900
C  5.97900 -5.02900 45.25900
C  7.21400 -2.28000 43.44600
O  8.36900 -2.67900 43.61200
C  6.81900 -0.89400 42.73700
C  7.39400 0.15500 43.57000
O  6.86900 0.36700 44.61800
O  8.40800 0.83200 43.02000
C  8.94600 2.01200 43.69800
H  1.02600 2.21100 40.70600
H  -2.38800 -2.35100 43.94600
H  3.01900 -5.49500 45.05400
H  5.55800 1.73700 41.87300
H  3.44000 2.10600 39.87700
H  2.87700 3.39400 42.30900
H  3.34800 4.13300 40.66300
H  4.50700 3.81500 41.95300
H  5.33500 1.33200 39.08300
H  5.86900 -0.23600 39.87500
H  7.87800 0.41200 39.97200
H  7.49700 1.97100 40.74800
H  -1.52300 2.30400 39.98700
H  -0.93700 3.29300 41.28900
H  -2.62700 2.81500 41.18200
H  -4.69900 -1.61600 43.07400
H  -5.18000 -0.16200 43.75400
H  -3.88200 -1.03200 44.51900
H  -1.52600 -5.00300 43.93200
H  0.59100 -5.34100 46.03400
H  -1.48300 -4.67500 46.85500
H  -2.70500 -5.28300 45.80800
H  -2.46900 -3.53600 45.92100
H  1.48400 -7.11700 44.17800
H  0.02200 -6.49100 43.27400
H  -1.05900 -8.02300 44.70000
H  -0.47400 -7.20800 46.12000
H  0.48600 -8.54300 45.36800
H  6.19300 -5.86200 44.59000
H  5.28000 -5.40100 46.00800
H  6.91000 -4.68700 45.71100
H  7.34200 -0.84800 41.78200
H  9.63900 1.73500 44.49200
H  8.18600 2.75600 43.93400
H  9.53200 2.51400 42.92800
Mg 0.32700 43.33500 26.48900
C  2.62800 42.73100 29.24900
C  -2.17600 41.94100 28.47900
C  -1.65300 43.53400 23.93600
C  3.12800 43.74400 24.50400
N  0.23400 42.52400 28.52300
C  1.24100 42.54900 29.48000
C  0.62200 42.44500 30.90800
C  -0.79600 41.86100 30.53900
C  -0.92700 42.09400 29.04600
C  -1.18600 40.41900 30.95400
C  0.70200 43.78700 31.72000
C  1.17800 43.69300 33.15500
H  0.64100 42.53600 34.06400
N  -1.75900 42.94300 26.21800
C  -2.64800 42.30400 27.15700
C  -3.95900 42.25900 26.54500
C  -3.82400 42.79500 25.24100
C  -2.36900 43.08900 25.05100
C  -5.23000 41.77800 27.27200
C  -4.87600 42.90600 24.19800
O  -4.57700 43.15400 22.99900
C  -6.29500 42.79600 24.61300
N  0.72600 43.52500 24.45900
C  -0.33000 43.82300 23.66600
C  0.14500 44.29100 22.29300
C  1.65600 44.39300 22.41700
C  1.90000 43.87500 23.88800
C  -0.32500 43.38400 21.08100
C  2.15400 45.84800 22.22900
C  2.20900 46.83400 23.41800
N  2.40900 43.29900 26.73100
C  3.41900 43.45300 25.84100
C  4.72000 43.30000 26.52200
C  4.43700 43.08900 27.88200
C  3.03300 42.98800 27.92600
C  6.05900 43.17200 25.74100
C  5.07300 42.84100 29.16800
O  6.29200 42.92000 29.48200
C  3.87600 42.76800 30.16200
C  4.01100 41.51300 30.98400
O  4.42900 40.46200 30.57800
O  3.74900 41.77600 32.30600
C  3.96700 40.64700 33.18400
H  -3.01100 41.61600 29.10400
H  -2.29800 43.68400 23.06800
H  4.02600 43.97000 23.92500
H  1.15800 41.60400 31.34900
H  -1.57500 42.50400 30.94900
H  -2.10000 40.50200 31.54200
H  -0.53300 40.04000 31.73900
H  -1.20000 39.65700 30.17400
H  -0.25100 44.31600 31.74200
H  1.45500 44.39300 31.21500
H  0.93800 44.64600 33.62500
H  2.26400 43.61100 33.10700
H  -4.83100 41.22800 28.12400
H  -5.65700 40.90000 26.78700
H  -5.86100 42.60300 27.60400
H  -6.55100 41.76400 24.85400
H  -6.90500 43.19300 23.80200
H  -6.52700 43.48700 25.42300
H  -0.27800 45.26700 22.05600
H  2.16400 43.81600 21.64400
H  -0.85300 42.46500 21.33400
H  0.48800 43.08200 20.42100
H  -1.01500 44.01700 20.52400
H  1.59700 46.31100 21.41500
H  3.17100 45.69100 21.87000
H  3.19900 46.85200 23.87200
H  1.39700 46.57800 24.09900
H  2.04800 47.84500 23.04500
H  6.85500 42.70700 26.32200
H  6.40500 44.15800 25.43200
H  5.94600 42.50600 24.88600
H  3.80300 43.66400 30.77900
H  3.78000 40.92100 34.22300
H  4.97000 40.22100 33.15900
H  3.32400 39.79700 32.95500

