158

Mg 1.72700 -1.06900 43.98700
C  5.18900 -0.67600 43.47800
C  1.14100 1.70400 42.11800
C  -1.44100 -2.13200 43.78200
C  2.55000 -4.34900 45.39100
N  3.10000 0.30500 42.77700
C  4.42500 0.31100 42.77000
C  4.99200 1.58400 42.02400
C  3.65500 2.31000 41.63200
C  2.55500 1.44200 42.29500
C  3.53300 3.80900 42.14900
C  6.01000 1.22700 40.88300
C  5.86800 -0.03400 40.03000
H  5.69300 0.08700 38.50900
N  0.01200 -0.22100 43.23200
C  -0.01800 0.98300 42.59600
C  -1.32100 1.26700 42.19700
C  -2.11500 0.10400 42.47700
C  -1.22500 -0.84300 43.23300
C  -1.83400 2.48800 41.44100
C  -3.62500 -0.20000 42.17800
O  -4.24200 0.67200 41.60700
C  -4.36500 -1.42900 42.64800
N  0.70700 -3.08000 44.45900
C  -0.56700 -3.17300 44.38600
C  -1.11600 -4.58200 44.74200
C  0.11700 -5.11400 45.56700
C  1.20700 -4.16200 45.09700
C  -2.52700 -4.74400 45.31500
C  0.32300 -6.62300 45.28100
C  0.99000 -7.49400 46.43500
N  3.46400 -2.29300 44.39600
C  3.59200 -3.53700 44.95800
C  4.97000 -3.87900 45.06700
C  5.63000 -2.80000 44.54500
C  4.71600 -1.84500 44.09600
C  5.51600 -5.13300 45.68900
C  6.96100 -2.25700 44.25200
O  8.07900 -2.65800 44.57100
C  6.71800 -0.81300 43.63200
C  7.29400 0.20000 44.56900
O  6.99300 0.34500 45.72800
O  8.13300 1.10700 43.94300
C  8.63200 2.30900 44.68500
H  0.92300 2.62800 41.57800
H  -2.39500 -2.62500 43.58300
H  2.79400 -5.32200 45.82300
H  5.63300 2.25400 42.59600
H  3.60700 2.19800 40.54800
H  3.37100 4.00400 43.21000
H  2.68400 4.25600 41.63100
H  4.45700 4.24800 41.77400
H  6.94900 1.23900 41.43600
H  6.16400 2.08000 40.22200
H  4.92900 -0.49300 40.34000
H  6.61300 -0.74700 40.38200
H  -2.67200 2.97800 41.93600
H  -2.16100 2.37700 40.40700
H  -1.15800 3.34200 41.48100
H  -5.27200 -1.34200 42.04800
H  -4.52600 -1.53200 43.72100
H  -3.87700 -2.31800 42.25000
H  -1.24900 -5.06600 43.77400
H  -0.09900 -4.97100 46.62600
H  -3.25900 -5.13600 44.60900
H  -2.95500 -3.75400 45.47200
H  -2.51900 -5.26700 46.27100
H  0.99200 -6.74300 44.42900
H  -0.65400 -7.08000 45.12400
H  0.24000 -8.21800 46.75000
H  1.36600 -6.92300 47.28400
H  1.88400 -7.94300 46.00300
H  4.84900 -5.99300 45.62200
H  5.86800 -4.99600 46.71100
H  6.38900 -5.45900 45.12300
H  7.33900 -0.82000 42.73700
H  8.36000 2.33800 45.74000
H  8.32300 3.14800 44.06200
H  9.71900 2.29800 44.60100
Mg 24.91000 -5.83700 46.73800
C  27.08500 -3.61200 45.13400
C  22.37000 -4.51600 44.79700
C  23.05000 -8.48600 47.51200
C  27.65900 -7.27000 48.30800
N  24.74700 -4.22200 45.42200
C  25.74300 -3.49700 44.88900
C  25.23000 -2.42300 43.84000
C  23.63900 -2.50100 44.05900
C  23.57400 -3.80000 44.83000
C  23.02600 -1.35000 44.81300
C  25.74200 -2.59200 42.31800
C  26.41000 -1.40500 41.69800
H  25.99900 -0.92800 40.29800
N  22.87800 -6.39900 46.25400
C  22.05200 -5.69500 45.45100
C  20.78600 -6.39700 45.42300
C  20.90100 -7.64700 46.20800
C  22.31200 -7.56400 46.65400
C  19.59700 -5.97900 44.60000
C  19.80600 -8.64700 46.49300
O  18.67700 -8.48500 46.02600
C  20.06600 -9.84500 47.27300
N  25.30600 -7.72500 47.70100
C  24.32200 -8.58500 47.99700
C  24.88100 -9.74400 48.82300
C  26.27600 -9.31900 49.31100
C  26.46300 -8.05800 48.37400
C  23.85200 -10.11200 50.01600
C  27.36500 -10.38700 49.14000
C  27.87300 -10.66400 47.74000
N  27.04800 -5.51200 46.78900
C  28.02100 -6.18100 47.51900
C  29.33600 -5.54100 47.23000
C  29.01800 -4.48400 46.35000
C  27.63800 -4.60100 46.03900
C  30.63400 -6.06600 47.74400
C  29.52600 -3.42600 45.52500
O  30.68600 -3.04300 45.27000
C  28.29000 -2.75700 44.71700
C  28.24700 -1.29500 45.09600
O  27.88300 -0.84200 46.17900
O  28.71000 -0.58000 44.03700
C  28.93800 0.87700 44.25900
H  21.60300 -4.16400 44.10400
H  22.39400 -9.32100 47.76500
H  28.47000 -7.73400 48.87400
H  25.63700 -1.48400 44.21300
H  23.05200 -2.66300 43.15500
H  23.66200 -0.85000 45.54400
H  22.13900 -1.76200 45.29300
H  22.76400 -0.63600 44.03200
H  24.91500 -2.80200 41.64000
H  26.34200 -3.48600 42.14800
H  27.49100 -1.54400 41.66800
H  26.28000 -0.54800 42.35900
H  19.39300 -6.79000 43.90100
H  19.78400 -5.07600 44.01800
H  18.70000 -5.87800 45.21100
H  19.15200 -10.43700 47.32000
H  20.28500 -9.38400 48.23600
H  20.91100 -10.47200 46.98800
H  24.94300 -10.55700 48.10000
H  26.29200 -8.94700 50.33500
H  23.14600 -9.29600 50.16800
H  24.40100 -10.23600 50.94900
H  23.20900 -10.96400 49.79400
H  26.95400 -11.33300 49.49300
H  28.16500 -10.11800 49.82900
H  28.74300 -10.02000 47.60700
H  27.14400 -10.37100 46.98500
H  28.08500 -11.73000 47.66300
H  30.87300 -6.99700 47.22900
H  30.54700 -6.25400 48.81400
H  31.41500 -5.34400 47.50700
H  28.46800 -2.76800 43.64100
H  29.00300 1.04200 45.33500
H  28.02200 1.27700 43.82400
H  29.80900 1.26600 43.73200

