158

Mg 24.45500 -6.77500 47.95500
C  26.87700 -4.30300 47.12200
C  22.43800 -5.55800 45.33900
C  22.41400 -9.30500 48.60100
C  27.05400 -8.47300 49.79300
N  24.73600 -5.21700 46.28600
C  25.75700 -4.29600 46.26900
C  25.45600 -3.32700 45.16600
C  23.93200 -3.59200 44.73200
C  23.70900 -4.91700 45.48000
C  22.97100 -2.48900 45.06300
C  26.48200 -3.50400 44.00500
C  27.20600 -2.24600 43.50000
H  26.86400 -1.71600 42.11300
N  22.65900 -7.33300 47.22700
C  22.00100 -6.70900 46.12200
C  20.71500 -7.34500 46.08400
C  20.61500 -8.43800 46.97700
C  21.88500 -8.38200 47.70800
C  19.65700 -6.88200 45.07400
C  19.39800 -9.39400 47.13300
O  18.38500 -9.18200 46.45700
C  19.46800 -10.66300 47.99000
N  24.84200 -8.81600 48.77800
C  23.69900 -9.48600 49.15000
C  23.98100 -10.57200 50.21400
C  25.50300 -10.49100 50.38800
C  25.85500 -9.19600 49.62500
C  23.18000 -10.24100 51.49600
C  26.27300 -11.67700 49.88200
C  26.96800 -12.60900 50.88600
N  26.50400 -6.45900 48.49800
C  27.40600 -7.24300 49.28600
C  28.65100 -6.49700 49.40400
C  28.46800 -5.34600 48.66000
C  27.13600 -5.35300 48.10900
C  29.88700 -6.77400 50.26600
C  29.05800 -3.97600 48.28200
O  30.06800 -3.35500 48.63600
C  28.04000 -3.35800 47.24700
C  27.59600 -1.98700 47.75900
O  27.32100 -1.77200 48.94300
O  27.51800 -1.03000 46.76400
C  27.08600 0.24500 47.32000
H  21.72700 -5.24900 44.57000
H  21.69900 -10.03700 48.98200
H  27.88300 -8.85700 50.39300
H  25.59900 -2.32200 45.56400
H  23.81300 -3.68000 43.65200
H  23.38300 -1.59300 45.52800
H  22.15100 -2.90300 45.64800
H  22.60200 -2.07100 44.12600
H  25.95700 -3.92600 43.14900
H  27.22900 -4.28300 44.15800
H  28.28600 -2.39500 43.50100
H  27.01200 -1.35800 44.10200
H  19.82000 -5.82500 44.86500
H  18.69600 -7.03200 45.56600
H  19.67600 -7.41200 44.12200
H  20.42400 -11.11500 47.72500
H  18.59800 -11.28500 47.78100
H  19.55500 -10.38200 49.04000
H  23.71100 -11.53100 49.77200
H  25.63600 -10.24800 51.44300
H  22.52100 -9.38800 51.33600
H  23.75500 -10.23100 52.42300
H  22.48400 -11.07700 51.56000
H  27.01800 -11.23000 49.22400
H  25.69000 -12.42400 49.34300
H  26.24000 -13.38600 51.12100
H  27.16300 -12.05900 51.80700
H  27.85900 -13.15500 50.57800
H  30.78200 -6.68000 49.65100
H  29.99300 -7.79300 50.63900
H  30.04800 -6.08800 51.09800
H  28.40400 -3.28700 46.22200
H  26.56500 0.30800 48.27500
H  26.39900 0.62300 46.56300
H  27.90800 0.95400 47.41700
Mg 48.43400 14.81800 28.38000
C  46.29700 14.34300 31.05700
C  50.10000 17.24900 30.30000
C  50.59900 15.16600 25.92200
C  46.22800 13.22700 26.30900
N  48.30100 15.67300 30.50600
C  47.39000 15.20400 31.46200
C  47.66700 15.75800 32.81800
C  48.63900 16.97900 32.41000
C  49.01900 16.62900 30.95400
C  47.87500 18.27400 32.52900
C  48.17500 14.64500 33.87100
C  47.98100 15.13500 35.28400
H  49.19900 15.02900 36.22900
N  50.30300 15.81700 28.23400
C  50.76500 16.85100 29.08200
C  51.99500 17.32300 28.55400
C  52.13600 16.73500 27.26000
C  51.00600 15.83300 27.07600
C  52.89700 18.39800 29.27900
C  53.28000 16.86800 26.33300
O  53.41100 16.17900 25.33000
C  54.51400 17.68700 26.67700
N  48.48600 14.02100 26.41100
C  49.47200 14.39400 25.58300
C  49.20700 14.00900 24.08900
C  47.77600 13.37900 24.19600
C  47.46500 13.56600 25.72900
C  49.15500 15.31400 23.18600
C  47.57600 11.86800 23.81500
C  46.29400 11.51400 23.07600
N  46.63600 14.00500 28.53500
C  45.85000 13.33800 27.59600
C  44.58400 12.97900 28.16300
C  44.75300 13.31300 29.56300
C  45.96400 13.94800 29.69000
C  43.27000 12.47900 27.50300
C  44.14000 13.29100 30.85500
O  43.05200 12.88100 31.22200
C  45.09800 13.92900 31.80000
C  44.31000 15.10700 32.34500
O  44.28300 16.17700 31.76500
O  44.00300 14.89300 33.65800
C  43.64600 16.05600 34.44600
H  50.56400 18.09400 30.81300
H  51.21700 15.40100 25.05300
H  45.57500 12.82200 25.53300
H  46.74000 16.12000 33.26400
H  49.51800 16.88900 33.04800
H  47.12900 18.16100 33.31600
H  47.40400 18.41500 31.55600
H  48.56600 19.07200 32.80100
H  49.17200 14.29500 33.60300
H  47.63700 13.70900 33.72300
H  47.19300 14.47300 35.64000
H  47.65800 16.17600 35.24900
H  52.87700 19.30900 28.68100
H  53.90500 18.12100 29.58600
H  52.44100 18.75900 30.20100
H  54.33000 18.76100 26.71900
H  55.30500 17.56900 25.93700
H  55.02600 17.49700 27.62000
H  49.94900 13.35100 23.63700
H  47.08500 13.95000 23.57600
H  49.40400 16.16500 23.82100
H  48.15900 15.36200 22.74600
H  49.97200 15.27600 22.46600
H  47.74100 11.23900 24.68900
H  48.34800 11.54200 23.11800
H  46.46700 10.97800 22.14200
H  45.65500 12.35700 22.81600
H  45.71000 10.92900 23.78700
H  42.40900 13.00300 27.91600
H  43.25700 11.41900 27.75800
H  43.45400 12.67600 26.44700
H  45.40500 13.26900 32.61200
H  44.29400 16.37900 35.26100
H  42.67700 15.94600 34.93400
H  43.42100 16.93100 33.83800

