158

Mg 24.37400 -5.60100 46.14700
C  26.56800 -3.27900 44.68600
C  21.96000 -4.48000 44.23800
C  22.89600 -8.42000 47.03400
C  27.35400 -6.84200 47.88900
N  24.38700 -4.25500 44.27800
C  25.37600 -3.32900 43.95700
C  24.76900 -2.28700 42.97600
C  23.27800 -2.50500 43.05000
C  23.18600 -3.83100 43.91800
C  22.37000 -1.42100 43.55600
C  25.39600 -2.42100 41.54800
C  25.38700 -1.13400 40.62900
H  24.39800 -1.14600 39.48000
N  22.68200 -6.26100 45.82700
C  21.76300 -5.68400 45.01500
C  20.57600 -6.57800 45.02200
C  20.78200 -7.70800 45.82300
C  22.18700 -7.54800 46.26900
C  19.30700 -6.10800 44.24300
C  19.81000 -8.75200 46.07300
O  18.70600 -8.64400 45.54100
C  20.07800 -9.94900 46.81300
N  25.07000 -7.36700 47.28800
C  24.19100 -8.39300 47.53700
C  24.88300 -9.58300 48.21900
C  26.11600 -8.89300 48.81600
C  26.25400 -7.67700 47.83300
C  23.97200 -10.28800 49.29100
C  27.39200 -9.73000 48.83700
C  28.31500 -9.56900 50.10000
N  26.57900 -5.08100 46.39000
C  27.58900 -5.65200 47.13300
C  28.77500 -4.86900 47.08100
C  28.39600 -3.83200 46.14200
C  27.05500 -4.09200 45.70600
C  30.02100 -5.26000 47.75200
C  28.89100 -2.78700 45.36100
O  30.02600 -2.34400 45.26900
C  27.77300 -2.41900 44.36900
C  27.43200 -0.99800 44.35400
O  26.71100 -0.43900 45.14900
O  27.95400 -0.33300 43.30300
C  27.65100 1.09700 43.21200
H  21.09900 -4.07500 43.70300
H  22.39400 -9.34100 47.33800
H  28.16300 -7.32600 48.44100
H  25.09800 -1.32800 43.37600
H  22.90700 -2.73500 42.05100
H  23.06400 -0.88800 44.20600
H  21.53700 -1.76400 44.17000
H  22.05300 -0.77500 42.73700
H  24.78700 -3.15500 41.02000
H  26.38600 -2.86400 41.65500
H  26.38700 -0.95200 40.23500
H  25.14500 -0.22900 41.18500
H  19.12000 -6.71100 43.35400
H  19.46800 -5.12000 43.81200
H  18.35600 -5.96300 44.75700
H  19.17800 -10.42900 47.19800
H  20.54600 -9.64900 47.75100
H  20.60700 -10.76000 46.31200
H  25.17200 -10.29400 47.44500
H  25.95700 -8.50000 49.82000
H  23.85000 -11.35300 49.09300
H  22.99500 -9.81200 49.37500
H  24.50800 -10.28100 50.24000
H  27.92300 -9.39100 47.94700
H  27.12000 -10.78300 48.76400
H  27.72300 -9.41400 51.00300
H  29.02400 -8.75900 49.93100
H  28.81400 -10.52300 50.27300
H  30.15800 -4.78700 48.72500
H  30.83800 -4.93100 47.10900
H  30.07700 -6.32900 47.95500
H  28.24000 -2.65200 43.41100
H  26.82600 1.20700 42.50700
H  28.50400 1.60800 42.76400
H  27.51900 1.60300 44.16800
Mg 42.03300 40.57600 27.02900
C  41.15200 42.95800 29.55200
C  42.99600 38.43000 29.59400
C  43.23700 38.75500 24.82600
C  41.39100 43.23000 24.68500
N  42.06100 40.73400 29.28700
C  41.54100 41.70600 30.07100
C  41.50600 41.35300 31.53100
C  42.27700 39.96200 31.58800
C  42.52800 39.66400 30.03000
C  43.54600 39.85100 32.51800
C  40.11500 41.44300 32.16600
C  39.86000 40.58800 33.44100
H  39.09600 41.20600 34.60800
N  42.93700 38.82100 27.11600
C  43.18000 38.02300 28.25300
C  43.71100 36.73200 27.83500
C  43.78600 36.75000 26.45300
C  43.29000 38.16700 26.06100
C  44.10300 35.64800 28.81300
C  44.18100 35.65500 25.47900
O  44.18800 35.86200 24.26800
C  44.60700 34.32200 26.00900
N  42.21000 40.96000 25.00900
C  42.88500 40.02800 24.30700
C  43.08800 40.41500 22.78100
C  42.42700 41.85700 22.80000
C  41.97500 42.04500 24.22100
C  44.51300 40.33400 22.29000
C  41.23800 41.95100 21.80600
C  40.05500 41.01000 22.09800
N  41.40200 42.68800 27.05400
C  41.16100 43.57600 26.01400
C  40.54500 44.83500 26.48900
C  40.55200 44.59900 27.95500
C  41.06800 43.29100 28.19900
C  40.02400 45.94700 25.70500
C  40.18900 45.20600 29.18900
O  39.73600 46.27700 29.46500
C  40.49200 44.13000 30.28600
C  41.36000 44.82200 31.30800
O  42.55900 45.14800 31.28900
O  40.57800 45.14900 32.41000
C  41.06400 46.00400 33.49800
H  43.28100 37.70800 30.36200
H  43.74100 38.16900 24.05500
H  41.18100 43.99700 23.93600
H  42.08500 42.13000 32.02900
H  41.63000 39.11900 31.83000
H  43.36100 39.04600 33.22900
H  43.82600 40.80300 32.96800
H  44.38300 39.50700 31.91000
H  39.47100 41.07000 31.37000
H  39.94800 42.50000 32.37400
H  40.82400 40.29200 33.85500
H  39.40700 39.61900 33.23300
H  44.02700 35.71200 29.89800
H  45.12900 35.31900 28.64500
H  43.42100 34.82900 28.58600
H  44.05500 33.86200 26.82900
H  45.64000 34.55500 26.26800
H  44.82900 33.64600 25.18300
H  42.43700 39.76800 22.19300
H  43.13700 42.64700 22.55300
H  44.65300 40.12600 21.23000
H  44.92400 39.49100 22.84500
H  45.06400 41.20300 22.64900
H  41.62300 41.52400 20.88000
H  40.94800 43.00100 21.84200
H  40.03600 40.74400 23.15500
H  40.08400 40.22800 21.33900
H  39.22100 41.70600 22.01100
H  39.01500 46.09300 26.09100
H  39.87500 45.73300 24.64600
H  40.70300 46.79600 25.78200
H  39.53700 43.84300 30.72600
H  41.75500 46.76600 33.13600
H  41.51400 45.40000 34.28500
H  40.19100 46.48100 33.94400

