158

Mg -2.97700 17.63500 26.72900
C  -3.32500 15.31500 29.47900
C  -3.56900 20.14000 28.97700
C  -3.25100 19.75900 24.16800
C  -3.14600 14.88700 24.67500
N  -3.46900 17.69300 29.02000
C  -3.45700 16.62400 29.92100
C  -3.60800 17.12100 31.39500
C  -3.80200 18.66200 31.15200
C  -3.69900 18.87100 29.58900
C  -5.10000 19.18000 31.77700
C  -2.36400 16.79600 32.31500
C  -2.35200 17.64500 33.59100
H  -1.89500 16.95700 34.90300
N  -3.21000 19.66600 26.64100
C  -3.30300 20.52400 27.64500
C  -2.94800 21.84400 27.10600
C  -2.82400 21.78600 25.69000
C  -3.15300 20.41900 25.44200
C  -2.89100 23.07600 28.02200
C  -2.44200 22.88700 24.73600
O  -2.30700 22.65400 23.53800
C  -2.32200 24.30800 25.16000
N  -3.39100 17.34500 24.71400
C  -3.35600 18.36000 23.86700
C  -3.59800 17.90500 22.40000
C  -3.45900 16.29700 22.57900
C  -3.28100 16.14900 24.07800
C  -4.69100 18.58600 21.56100
C  -2.23600 15.75100 21.81900
C  -0.86600 16.31900 22.25600
N  -3.08100 15.54000 26.95900
C  -3.15400 14.57900 26.00500
C  -3.05400 13.25200 26.57400
C  -3.19200 13.52200 27.93700
C  -3.19800 14.92000 28.14000
C  -2.96100 11.97500 25.85400
C  -3.37600 12.83200 29.22500
O  -3.47200 11.68300 29.58100
C  -3.42300 14.01700 30.24600
C  -2.29900 13.77300 31.10600
O  -1.12900 14.02600 30.89800
O  -2.73100 13.08400 32.20800
C  -1.67900 12.77900 33.23100
H  -3.54400 20.96800 29.69000
H  -3.41400 20.41100 23.30700
H  -3.24100 13.98000 24.07300
H  -4.49400 16.63000 31.79800
H  -3.09600 19.36800 31.58900
H  -5.68900 19.64800 30.98800
H  -4.88200 19.92400 32.54300
H  -5.69300 18.42200 32.28800
H  -1.41700 16.76100 31.77900
H  -2.65400 15.83400 32.73700
H  -3.15700 18.36400 33.74600
H  -1.55300 18.34300 33.33800
H  -1.89900 23.52400 27.96300
H  -3.15600 22.90200 29.06500
H  -3.59000 23.88300 27.79900
H  -2.40500 24.92900 24.26800
H  -1.42100 24.31900 25.77400
H  -3.17500 24.57800 25.78200
H  -2.67600 18.24100 21.92600
H  -4.39900 15.83500 22.27800
H  -5.15800 17.98100 20.78400
H  -4.34900 19.54100 21.16100
H  -5.57600 18.79200 22.16300
H  -2.28700 15.86500 20.73700
H  -2.08000 14.69200 22.02600
H  -0.90900 17.13300 22.98000
H  -0.34000 16.61600 21.34900
H  -0.31500 15.52600 22.76300
H  -3.74200 12.02700 25.09500
H  -3.12400 11.17200 26.57200
H  -1.98900 11.91900 25.36400
H  -4.34800 13.95500 30.82000
H  -2.17100 11.90100 33.64900
H  -1.57600 13.65700 33.86800
H  -0.71600 12.46100 32.83100
Mg 55.10800 24.96600 45.07200
C  52.43900 27.13900 43.99300
C  53.40300 22.34400 43.85100
C  58.01900 23.32600 45.13700
C  56.66400 27.89000 46.44300
N  53.29100 24.84200 43.84800
C  52.37300 25.84300 43.51800
C  51.08600 25.29200 42.84600
C  51.33100 23.72200 43.26100
C  52.79100 23.62300 43.70200
C  50.31300 23.22300 44.30300
C  51.07300 25.57100 41.25200
C  49.73800 25.12200 40.64200
H  49.68400 24.23400 39.37300
N  55.64400 23.04000 44.59200
C  54.77800 22.10100 44.09900
C  55.54500 20.85600 43.92700
C  56.87600 21.14200 44.18300
C  56.92300 22.54200 44.61600
C  54.89700 19.58200 43.56300
C  58.04700 20.23700 44.14500
O  57.86700 19.07500 43.82100
C  59.45500 20.72800 44.42300
N  57.11000 25.59300 45.53500
C  58.06700 24.63900 45.66000
C  59.28600 25.25000 46.35600
C  58.83000 26.72000 46.81800
C  57.42000 26.70200 46.30300
C  60.03400 24.31100 47.38300
C  59.69000 27.91300 46.27000
C  61.14800 27.65900 45.93200
N  54.74800 27.12500 45.20900
C  55.39800 28.12100 45.87800
C  54.57900 29.30600 45.82600
C  53.42900 29.04600 45.06700
C  53.56400 27.69600 44.74600
C  54.96800 30.55300 46.51200
C  52.19200 29.51700 44.61200
O  51.78100 30.66900 44.73400
C  51.47000 28.32000 43.82200
C  51.34600 28.89500 42.43200
O  52.22700 29.44700 41.75000
O  50.08300 28.64400 41.93000
C  49.76000 29.05000 40.53600
H  52.81900 21.50400 43.46900
H  59.00100 22.86900 45.27500
H  57.28200 28.64300 46.93900
H  50.24800 25.71000 43.40400
H  51.19900 23.12000 42.36200
H  49.37900 23.78200 44.36800
H  50.85200 23.29700 45.24800
H  49.97300 22.19400 44.18400
H  51.81000 24.93100 40.76800
H  51.33200 26.59600 40.98500
H  49.24200 26.07200 40.44400
H  49.27500 24.59400 41.47600
H  55.19900 19.35500 42.54100
H  53.84800 19.74000 43.31100
H  55.09700 18.78500 44.28000
H  59.65900 21.63000 43.84600
H  60.12900 20.06700 43.87800
H  59.68600 20.80000 45.48500
H  59.92600 25.51300 45.51300
H  58.69000 26.68200 47.89800
H  59.58700 23.32200 47.48700
H  60.03600 24.74200 48.38400
H  61.07800 24.14500 47.11400
H  59.83400 28.67400 47.03700
H  59.18300 28.29600 45.38400
H  61.46800 26.65400 46.20900
H  61.79900 28.40900 46.37900
H  61.21200 27.80300 44.85400
H  55.38600 31.13300 45.68900
H  55.74000 30.50000 47.27900
H  54.14100 31.13300 46.92100
H  50.55100 28.15500 44.38300
H  49.03000 28.35400 40.12100
H  50.63200 28.95700 39.88900
H  49.41700 30.08300 40.47800

