158

Mg -2.28400 17.35500 25.83200
C  -3.03800 14.98200 28.36000
C  -2.68300 19.79600 28.11500
C  -2.17100 19.58600 23.32700
C  -2.48700 14.72400 23.42600
N  -2.76500 17.31200 28.02500
C  -2.89400 16.31100 28.91400
C  -2.84800 16.69400 30.29800
C  -2.81700 18.25200 30.30600
C  -2.76000 18.48200 28.73500
C  -3.99900 18.98200 31.03100
C  -1.84400 15.94600 31.16500
C  -1.37900 16.65000 32.36700
H  -0.88800 15.74900 33.47500
N  -2.30500 19.33900 25.75500
C  -2.49100 20.18700 26.78100
C  -2.72800 21.59300 26.33800
C  -2.39600 21.52300 24.97300
C  -2.30700 20.09500 24.59500
C  -2.93000 22.82200 27.22700
C  -2.46200 22.71900 23.99200
O  -2.37400 22.62000 22.78600
C  -2.47300 24.10500 24.47900
N  -2.32900 17.19000 23.61900
C  -2.21000 18.25500 22.83400
C  -1.97600 17.81200 21.34700
C  -1.96300 16.24600 21.38300
C  -2.25200 16.04000 22.86400
C  -3.11400 18.27800 20.45300
C  -0.69300 15.56000 20.93000
C  -0.83300 14.40400 19.86900
N  -2.69100 15.31200 25.80400
C  -2.74100 14.41000 24.79200
C  -3.00700 13.11600 25.30800
C  -3.09000 13.31100 26.65100
C  -2.92700 14.68300 26.94500
C  -3.08300 11.83200 24.56500
C  -3.26200 12.60900 27.94800
O  -3.43400 11.42900 28.15100
C  -3.16500 13.64200 29.07800
C  -1.96900 13.12500 29.79400
O  -0.75000 13.23100 29.51800
O  -2.45600 12.56800 31.01900
C  -1.48500 11.92500 31.82800
H  -2.69300 20.62000 28.83200
H  -2.15000 20.28500 22.48800
H  -2.46800 13.79000 22.86100
H  -3.84800 16.38800 30.60600
H  -1.86100 18.65400 30.64500
H  -3.58200 19.79900 31.62000
H  -4.44400 18.35000 31.79900
H  -4.87200 19.23400 30.42900
H  -0.94800 15.67400 30.60600
H  -2.21000 15.01300 31.59200
H  -2.18100 17.28600 32.74000
H  -0.52200 17.31900 32.27400
H  -1.99500 23.37900 27.15900
H  -3.07500 22.52100 28.26500
H  -3.79800 23.40500 26.92100
H  -2.12300 24.76400 23.68400
H  -1.67200 24.10600 25.21800
H  -3.44200 24.55400 24.69900
H  -0.97200 18.08100 21.01900
H  -2.84200 15.89600 20.84300
H  -2.61000 19.13900 20.01500
H  -3.83700 18.63100 21.18900
H  -3.58400 17.65300 19.69400
H  -0.16000 15.06700 21.74300
H  0.04500 16.27700 20.56800
H  -0.37400 13.47100 20.19600
H  -0.17800 14.63200 19.02800
H  -1.83400 14.28800 19.45100
H  -2.16500 11.71700 23.98800
H  -3.81600 11.97300 23.77100
H  -3.41300 10.96800 25.14200
H  -4.01000 13.75000 29.75800
H  -1.05600 11.12500 31.22400
H  -1.92700 11.58300 32.76300
H  -0.64800 12.59300 32.03100
Mg 16.81500 51.74300 26.41900
C  18.82700 50.52200 29.03900
C  14.62200 52.79900 28.98100
C  14.59800 52.53700 23.97800
C  18.96500 50.44100 24.06700
N  16.67900 51.58700 28.77800
C  17.56400 50.92100 29.54900
C  17.10400 50.99400 31.01600
C  15.70100 51.53400 30.93400
C  15.62500 51.95100 29.48000
C  14.57000 50.52200 31.30300
C  18.02400 51.71300 32.02200
C  18.12500 51.19200 33.47800
H  17.36200 51.91100 34.49100
N  14.90400 52.54300 26.47900
C  14.28600 53.11400 27.61900
C  13.19700 53.93000 27.16100
C  13.12400 53.85000 25.73800
C  14.25100 52.95100 25.32800
C  12.41100 54.76600 28.12700
C  12.12200 54.54900 24.87500
O  12.29000 54.63100 23.64800
C  10.94000 55.33400 25.41800
N  16.69500 51.31200 24.39500
C  15.64900 51.76700 23.58100
C  16.03700 51.65200 22.13500
C  17.60800 51.25000 22.16800
C  17.76900 50.99700 23.63100
C  15.19100 50.61700 21.29100
C  18.70700 52.28900 21.70000
C  19.70300 51.71400 20.67000
N  18.59600 50.67900 26.43200
C  19.38000 50.28900 25.40000
C  20.57800 49.72000 25.98900
C  20.42800 49.68700 27.38100
C  19.13700 50.35400 27.62300
C  21.71800 49.06700 25.26200
C  20.98200 49.42800 28.61400
O  22.03500 48.92000 28.89900
C  20.03400 49.90000 29.79700
C  19.77800 48.86900 30.81500
O  19.09600 47.86200 30.68400
O  20.40900 49.11400 31.99500
C  20.23800 48.15000 33.14300
H  13.97800 53.23800 29.74700
H  14.07500 53.09800 23.20100
H  19.72400 50.10300 23.35800
H  17.00500 49.92600 31.21100
H  15.59800 52.39500 31.59400
H  13.99600 50.10400 30.47500
H  14.02200 50.87600 32.17600
H  15.04200 49.64400 31.74300
H  17.63500 52.73100 32.01900
H  19.00800 51.90200 31.59300
H  19.17200 51.19500 33.78300
H  17.82500 50.14400 33.51100
H  12.02300 55.72600 27.78700
H  13.00400 54.98300 29.01600
H  11.57300 54.17400 28.49400
H  10.09200 55.49700 24.75300
H  11.32600 56.31300 25.70000
H  10.47800 54.76700 26.22600
H  15.95700 52.65500 21.71600
H  17.73300 50.32200 21.60900
H  14.13700 50.83900 21.46000
H  15.45800 49.63200 21.67300
H  15.36300 50.75100 20.22300
H  19.24500 52.71700 22.54600
H  18.16900 53.03100 21.11100
H  19.89100 52.43600 19.87500
H  19.51900 50.69500 20.33200
H  20.57400 51.55900 21.30800
H  22.02700 49.86300 24.58300
H  21.36900 48.23800 24.64600
H  22.34000 48.84100 26.12800
H  20.59500 50.74500 30.19500
H  20.64300 48.63900 34.02900
H  20.84900 47.26100 32.98300
H  19.17500 47.93200 33.24900

