158

Mg 47.58300 34.79800 28.30500
C  46.20500 33.11800 30.89500
C  47.91900 37.64200 30.28900
C  48.92600 36.62900 25.65800
C  46.84100 32.26500 26.15300
N  47.07600 35.32600 30.30200
C  46.60900 34.47400 31.22200
C  46.65400 35.10000 32.62100
C  46.77700 36.61300 32.33800
C  47.24900 36.53700 30.84700
C  45.43000 37.41700 32.52900
C  47.85200 34.52200 33.46500
C  47.50200 33.95000 34.81600
H  47.98300 34.75200 36.02300
N  48.34000 36.88000 28.00100
C  48.46000 37.77200 29.01200
C  49.15100 38.92800 28.46500
C  49.43800 38.72600 27.14100
C  48.87600 37.39200 26.82600
C  49.55800 40.11200 29.33700
C  50.29400 39.53000 26.20600
O  50.48800 39.20400 25.02200
C  50.97900 40.77600 26.64300
N  47.84700 34.51200 26.23600
C  48.42100 35.35600 25.38800
C  48.52900 34.78100 23.94900
C  48.11000 33.32400 24.18600
C  47.55600 33.36700 25.56100
C  47.78200 35.57200 22.78300
C  49.22200 32.20700 24.02900
C  48.76600 30.97100 23.27000
N  46.59200 33.11300 28.40000
C  46.45000 32.07300 27.47800
C  45.77800 30.93700 28.04000
C  45.60700 31.38100 29.39700
C  46.18900 32.59300 29.58300
C  45.29500 29.68100 27.37000
C  45.13900 30.92300 30.68600
O  44.60200 29.84400 30.99100
C  45.43400 32.09600 31.74600
C  46.09200 31.47400 32.90300
O  47.22800 31.15300 32.88100
O  45.26100 31.25200 34.00800
C  45.90200 30.53700 35.13100
H  48.01600 38.49200 30.96800
H  49.40900 37.08100 24.78900
H  46.74800 31.43000 25.45600
H  45.74400 34.88000 33.17900
H  47.54500 37.05700 32.97100
H  45.31000 37.98700 31.60800
H  45.52800 38.05300 33.40900
H  44.58400 36.74900 32.68900
H  48.50300 35.34300 33.76500
H  48.29800 33.72700 32.86800
H  48.14800 33.07800 34.91700
H  46.46200 33.63900 34.90600
H  50.63400 40.12600 29.50900
H  49.05900 39.98000 30.29700
H  49.21000 41.06200 28.93000
H  51.36100 41.31100 25.77400
H  51.84200 40.45300 27.22600
H  50.31200 41.45600 27.17200
H  49.59000 34.72800 23.70700
H  47.27200 32.95800 23.59200
H  47.44000 36.51300 23.21300
H  46.86700 35.03400 22.53600
H  48.44200 35.73600 21.93100
H  49.48600 31.85700 25.02800
H  50.20300 32.52400 23.67400
H  49.11700 30.12700 23.86500
H  49.26700 31.02200 22.30300
H  47.70700 31.00000 23.01200
H  45.98300 29.32900 26.60100
H  44.30000 29.92300 26.99600
H  45.28300 28.95300 28.18100
H  44.56400 32.53300 32.23600
H  45.54600 30.92200 36.08600
H  46.99100 30.50200 35.14500
H  45.60700 29.49300 35.23400
Mg 41.97700 41.07700 27.13600
C  41.19800 43.54200 29.51400
C  42.64500 38.88200 29.61200
C  42.93300 38.89600 24.74000
C  41.09300 43.37700 24.58200
N  42.15900 41.32500 29.30700
C  41.70300 42.36000 30.10700
C  41.50800 41.84700 31.56200
C  42.35800 40.51400 31.53700
C  42.35100 40.19300 30.03100
C  43.73000 40.79500 32.14700
C  40.03500 41.72600 32.00500
C  39.52500 42.80700 32.96200
H  39.38000 42.51300 34.44400
N  42.72400 39.11900 27.22800
C  42.88900 38.35500 28.32900
C  43.32100 37.08100 27.92300
C  43.47900 37.07800 26.51100
C  43.08000 38.36600 26.09000
C  43.78300 36.02300 28.87100
C  44.07900 36.04500 25.58800
O  44.50500 36.24500 24.44700
C  44.25100 34.68300 26.04800
N  41.97200 41.11600 24.96400
C  42.43600 40.08000 24.23400
C  42.29000 40.40100 22.72900
C  41.68500 41.79700 22.69900
C  41.58100 42.13700 24.17800
C  43.67600 40.17100 21.97800
C  40.36600 41.90900 21.89100
C  39.10700 41.34000 22.54900
N  41.33800 43.04200 27.02700
C  41.01600 43.81700 25.91500
C  40.70900 45.15500 26.35300
C  40.68700 45.06900 27.79200
C  41.18300 43.81600 28.17400
C  40.41800 46.47300 25.49100
C  40.55600 45.83300 29.05100
O  40.37400 46.99400 29.19900
C  40.71800 44.79600 30.19500
C  41.73600 45.37500 31.11200
O  42.96900 45.28900 30.90700
O  41.10900 46.03600 32.13300
C  42.02300 46.80500 32.96500
H  42.75600 38.21400 30.46900
H  43.17900 38.15700 23.97400
H  40.93800 44.08800 23.76800
H  41.94300 42.50800 32.31100
H  41.92300 39.64800 32.03600
H  44.54400 40.47700 31.49500
H  43.83000 40.12700 33.00200
H  43.90500 41.80800 32.50800
H  39.82600 40.74200 32.42400
H  39.45200 41.97700 31.11900
H  38.55800 43.11500 32.56300
H  40.09500 43.72800 32.84600
H  43.20200 35.12000 28.68600
H  43.65700 36.39900 29.88700
H  44.83000 35.72200 28.86000
H  44.43800 33.94900 25.26400
H  43.29600 34.37800 26.47600
H  45.00300 34.71000 26.83700
H  41.61200 39.64500 22.33400
H  42.34900 42.50100 22.19900
H  44.15700 39.25200 22.31400
H  44.35300 40.97700 22.25900
H  43.46300 39.89700 20.94400
H  40.48900 41.39900 20.93600
H  40.26200 42.98900 21.78600
H  39.33500 40.88300 23.51100
H  38.55700 40.68900 21.87000
H  38.43500 42.18000 22.72400
H  39.72700 47.07000 26.08600
H  39.88700 46.27200 24.56100
H  41.34600 46.96400 25.20000
H  39.75300 44.57100 30.65000
H  43.07300 46.51500 32.99900
H  41.60000 46.62500 33.95300
H  41.81400 47.85900 32.78200

