158

Mg 53.55700 24.22700 43.85900
C  50.58500 26.22000 43.51500
C  51.68300 21.56400 42.72300
C  56.34400 22.53800 43.35700
C  55.25700 27.08400 44.46300
N  51.38100 23.91200 43.18200
C  50.35200 24.86800 43.06300
C  49.18700 24.29700 42.20500
C  49.48700 22.78700 42.44800
C  50.95000 22.70500 42.72500
C  48.66300 22.05500 43.56600
C  49.11600 24.74000 40.66800
C  50.52100 24.96600 39.87100
H  50.39500 25.69600 38.59400
N  53.89000 22.27600 43.33100
C  53.01700 21.31400 43.01700
C  53.59500 20.05700 42.91100
C  55.02000 20.30400 42.97100
C  55.15400 21.73600 43.26900
C  52.82000 18.77500 42.76300
C  56.05500 19.24600 42.81900
O  55.83700 18.04900 42.67100
C  57.48800 19.61300 42.69900
N  55.63800 24.77800 43.58500
C  56.57100 23.91600 43.62800
C  57.93300 24.61700 43.79600
C  57.51400 26.11400 44.11300
C  56.03700 26.01200 44.06300
C  58.91000 24.02400 44.84300
C  58.02300 27.16500 43.11600
C  58.72400 28.42200 43.70000
N  53.02300 26.13900 44.24700
C  53.85900 27.20600 44.59200
C  53.11600 28.38100 44.86200
C  51.83800 28.03200 44.38900
C  51.84600 26.65500 44.05900
C  53.67400 29.50900 45.49700
C  50.53500 28.53000 44.14100
O  50.08000 29.66000 44.25900
C  49.62200 27.34000 43.68400
C  48.74900 27.76400 42.63000
O  49.09600 28.40600 41.64300
O  47.41800 27.32700 42.85100
C  46.32900 27.67600 41.88400
H  51.05900 20.69800 42.49200
H  57.26000 21.94400 43.34400
H  55.82400 27.92900 44.85900
H  48.15500 24.46400 42.51500
H  49.29800 22.32800 41.47700
H  48.05400 22.70500 44.19500
H  49.29800 21.59000 44.32000
H  48.03400 21.30200 43.09000
H  48.50100 25.63800 40.61300
H  48.42500 24.05500 40.17600
H  50.78500 23.94200 39.60500
H  51.40400 25.19500 40.46700
H  52.70200 18.67100 41.68500
H  51.81400 18.71700 43.17800
H  53.26300 17.89300 43.22600
H  58.04000 19.84700 43.60900
H  57.51200 20.46900 42.02400
H  57.98400 18.83300 42.12200
H  58.28900 24.53800 42.76900
H  57.85900 26.42400 45.09900
H  59.90100 24.11300 44.39900
H  58.66200 23.02000 45.18800
H  58.85000 24.67700 45.71400
H  57.23400 27.46700 42.42700
H  58.82500 26.63000 42.60600
H  58.26700 29.34900 43.35400
H  59.74200 28.30200 43.33000
H  58.76600 28.41400 44.79000
H  54.43800 30.01400 44.90600
H  54.02800 29.08800 46.43900
H  52.85400 30.21900 45.60000
H  49.05000 27.39600 44.61000
H  46.62100 27.29600 40.90500
H  46.24900 28.74400 41.68000
H  45.40800 27.26600 42.29800
Mg 41.24400 40.32200 26.93700
C  40.51700 42.48600 29.49500
C  42.32500 37.98400 29.37100
C  42.26200 38.22100 24.40300
C  40.92900 42.83300 24.65100
N  41.53400 40.31000 29.33300
C  40.97100 41.25900 30.10800
C  40.98600 40.77200 31.55700
C  41.73800 39.36600 31.55400
C  41.86200 39.20500 30.04100
C  43.00100 39.10400 32.54800
C  39.54300 40.92600 32.30800
C  39.41300 40.14300 33.61800
H  38.92100 40.84300 34.90700
N  42.16300 38.38500 26.89500
C  42.55500 37.57400 28.01300
C  43.00000 36.31200 27.51400
C  42.96100 36.36200 26.07800
C  42.34700 37.65700 25.72900
C  43.45100 35.17800 28.44700
C  43.42600 35.26100 25.01700
O  43.34700 35.48100 23.82600
C  43.91200 33.93500 25.50300
N  41.68800 40.53300 24.74900
C  41.91200 39.44800 23.94100
C  41.82600 39.84600 22.48300
C  41.19700 41.26400 22.66000
C  41.23600 41.59400 24.06500
C  43.20100 39.76000 21.81500
C  39.72200 41.34100 22.21700
C  38.70100 40.30700 22.63800
N  40.79100 42.12200 26.96400
C  40.74800 43.12400 25.98800
C  40.61300 44.36300 26.53800
C  40.33200 44.13700 27.93400
C  40.50500 42.79800 28.10500
C  40.77800 45.57000 25.73200
C  39.95000 44.82000 29.14500
O  39.76100 45.98500 29.30200
C  40.05000 43.77600 30.31200
C  41.06400 44.20700 31.41500
O  42.23100 44.29400 31.25400
O  40.42800 44.52000 32.58300
C  41.22300 45.16800 33.55600
H  42.38900 37.08200 29.98400
H  42.33200 37.44400 23.63900
H  40.72800 43.64000 23.94300
H  41.66500 41.40500 32.12700
H  41.06600 38.56200 31.85500
H  43.94700 39.37200 32.07600
H  43.14200 38.06400 32.84000
H  42.80500 39.66300 33.46300
H  38.84200 40.52700 31.57400
H  39.29800 41.98200 32.42400
H  40.44300 40.02000 33.95200
H  39.02800 39.13800 33.43900
H  42.72500 34.36400 28.43500
H  43.50900 35.37700 29.51700
H  44.43500 34.80000 28.17300
H  43.10500 33.53500 26.11600
H  44.78000 34.05000 26.15300
H  44.18800 33.31000 24.65300
H  41.19900 39.21400 21.85400
H  41.85600 41.93100 22.10400
H  43.11600 38.80700 21.29400
H  44.06900 39.67900 22.47000
H  43.15100 40.43100 20.95800
H  39.59100 41.35800 21.13500
H  39.54700 42.38500 22.47600
H  38.99600 39.52800 23.34100
H  38.46100 39.80000 21.70300
H  37.73200 40.73300 22.90100
H  40.37700 46.40300 26.30900
H  40.32500 45.54300 24.74100
H  41.84200 45.72500 25.55300
H  39.02800 43.55800 30.62400
H  41.63400 46.11300 33.20200
H  42.07500 44.58700 33.90900
H  40.68600 45.53300 34.43100

