158

Mg 45.54400 4.02800 46.76100
C  43.48200 6.76400 47.09100
C  42.58000 2.06500 46.20500
C  47.49900 1.44200 45.88000
C  48.32300 6.07300 46.82100
N  43.29700 4.44500 46.49100
C  42.69400 5.64700 46.77900
C  41.12700 5.52400 46.68200
C  40.85000 3.98100 46.50100
C  42.33100 3.43300 46.40900
C  39.94000 3.35700 47.64000
C  40.52300 6.29900 45.50600
C  41.28600 6.31200 44.17100
H  40.47800 5.85400 42.89300
N  45.08100 2.01000 46.22600
C  43.83200 1.38600 46.16000
C  44.06500 -0.00500 45.91000
C  45.51100 -0.29300 46.03400
C  46.13100 1.08500 46.05600
C  42.94800 -1.06700 45.90200
C  46.15700 -1.65100 46.02400
O  45.52400 -2.70000 46.06000
C  47.68200 -1.80300 45.92900
N  47.65900 3.82500 46.18700
C  48.17800 2.65000 45.96500
C  49.73300 2.78600 46.01000
C  49.89500 4.28100 46.37700
C  48.52700 4.78000 46.44100
C  50.55100 1.78900 46.90700
C  51.05700 5.07500 45.59000
C  52.32200 5.42600 46.23300
N  45.93500 6.05900 46.91300
C  47.10900 6.76700 46.98200
C  46.82100 8.18400 47.14500
C  45.38800 8.25700 47.23000
C  44.90700 6.91100 47.08800
C  47.74200 9.27200 47.29000
C  44.22000 9.10100 47.39300
O  44.14100 10.31000 47.54800
C  42.99500 8.17900 47.29200
C  42.01900 8.29400 48.42200
O  42.23100 7.91500 49.57300
O  40.88100 9.01600 48.09700
C  39.99000 9.40600 49.17100
H  41.69300 1.47600 45.95800
H  48.18100 0.66600 45.52500
H  49.14900 6.74000 47.07700
H  40.61800 5.89000 47.57400
H  40.27900 3.80600 45.58800
H  40.40400 2.79800 48.45300
H  39.12200 2.74000 47.26700
H  39.48500 4.22700 48.11300
H  40.56500 7.34300 45.81900
H  39.53700 5.83400 45.49800
H  42.09200 5.57700 44.17900
H  41.67300 7.33100 44.14800
H  42.66900 -1.34200 46.91900
H  43.07100 -1.89900 45.20900
H  42.00900 -0.64700 45.54100
H  48.07000 -1.09100 46.65800
H  48.00000 -1.61400 44.90300
H  48.00800 -2.77600 46.29600
H  50.07500 2.74800 44.97600
H  50.23600 4.32300 47.41100
H  51.13500 2.37700 47.61500
H  51.33400 1.22400 46.40200
H  49.91700 1.05600 47.40700
H  50.53200 5.97900 45.28000
H  51.29600 4.48600 44.70500
H  53.10700 5.40400 45.47800
H  52.47000 4.53700 46.84700
H  52.23800 6.31300 46.86100
H  48.05900 9.48300 46.26800
H  48.63300 9.07100 47.88500
H  47.16900 10.12200 47.66000
H  42.62100 8.59900 46.35800
H  40.44000 10.29300 49.61500
H  39.83900 8.75900 50.03500
H  39.02900 9.66500 48.72600
Mg 16.76700 51.59600 26.76200
C  18.65100 50.32300 29.33900
C  14.29500 52.45500 28.91700
C  14.98100 52.67400 24.11200
C  19.33300 50.57100 24.43400
N  16.43400 51.24500 28.80400
C  17.36500 50.72400 29.72400
C  16.86500 50.91600 31.16700
C  15.37200 51.33100 30.99200
C  15.34300 51.74600 29.49600
C  14.32100 50.17800 31.29200
C  17.66500 52.07700 31.79000
C  18.12600 51.80700 33.28000
H  17.24500 52.31300 34.37000
N  14.85100 52.52500 26.55200
C  14.01500 52.83200 27.55800
C  12.86600 53.54500 27.05100
C  13.12600 53.69300 25.64000
C  14.33600 52.90600 25.39400
C  11.70700 53.99100 27.91000
C  12.28300 54.36400 24.55500
O  12.56800 54.23900 23.35200
C  11.00800 55.14800 24.86600
N  17.21400 51.79000 24.53700
C  16.18500 52.10600 23.75900
C  16.62900 51.95400 22.27100
C  18.04900 51.44400 22.34600
C  18.22600 51.18400 23.80300
C  15.60700 51.01400 21.48900
C  19.11200 52.35800 21.68300
C  19.60800 51.94200 20.28100
N  18.60200 50.65500 26.79600
C  19.53900 50.30400 25.80800
C  20.65200 49.75300 26.39900
C  20.42600 49.75300 27.86200
C  19.13000 50.30700 27.98900
C  21.88000 49.27500 25.71000
C  20.81800 49.32000 29.16400
O  21.84900 48.83500 29.55600
C  19.68800 49.72800 30.21500
C  19.24400 48.55600 31.05500
O  18.51300 47.66700 30.66900
O  19.78500 48.63400 32.28100
C  19.43000 47.60300 33.27600
H  13.53300 52.59300 29.68800
H  14.46300 52.84900 23.16600
H  19.94300 50.06700 23.68200
H  16.93400 50.00200 31.75700
H  14.99900 52.19300 31.54400
H  13.32100 50.42500 30.93600
H  14.25100 50.07900 32.37600
H  14.66200 49.24100 30.85200
H  17.04200 52.97000 31.83800
H  18.59000 52.24500 31.23800
H  19.11600 52.25400 33.37200
H  18.33300 50.73900 33.34300
H  10.74300 53.59900 27.58700
H  11.69100 55.07700 28.00400
H  11.81400 53.68600 28.95100
H  11.30000 56.00700 25.47100
H  10.42600 54.46400 25.48400
H  10.55000 55.31100 23.89100
H  16.53500 52.93700 21.80900
H  18.14400 50.59500 21.66900
H  15.20300 51.62200 20.68000
H  14.81500 50.56400 22.08800
H  16.18300 50.34500 20.85100
H  19.96700 52.54800 22.33100
H  18.69700 53.36600 21.67200
H  19.47900 52.66600 19.47600
H  19.26200 50.96000 19.95600
H  20.65500 51.97000 20.58200
H  21.59000 48.36800 25.18000
H  22.53900 48.94700 26.51400
H  22.50300 49.91700 25.08800
H  20.02200 50.48200 30.92700
H  18.41300 47.21300 33.31600
H  19.60100 48.02700 34.26500
H  20.10800 46.76500 33.11200

