158

Mg 24.23700 -5.06600 45.66200
C  26.10400 -2.67900 44.27400
C  21.62100 -4.18900 43.34600
C  22.44300 -7.84100 46.39000
C  27.04200 -6.53300 47.21000
N  23.84300 -3.57400 43.95400
C  24.78500 -2.64300 43.62900
C  24.31600 -1.82300 42.40400
C  22.79700 -2.21500 42.27800
C  22.79300 -3.47000 43.17800
C  21.72900 -1.21600 42.64600
C  25.23200 -2.25600 41.19500
C  25.98700 -1.18600 40.30900
H  26.00400 -1.19100 38.79800
N  22.28800 -5.68900 45.12700
C  21.38300 -5.19900 44.24300
C  20.08900 -5.87700 44.24900
C  20.26600 -6.94700 45.14900
C  21.75000 -6.88100 45.55700
C  18.86700 -5.45500 43.51400
C  19.14700 -7.78900 45.69300
O  18.05200 -7.85700 45.06800
C  19.29200 -8.63200 46.97900
N  24.65700 -6.88900 46.73700
C  23.75100 -7.90500 46.82000
C  24.46500 -9.25300 47.25200
C  25.83600 -8.75600 47.82300
C  25.84900 -7.28100 47.24700
C  23.65700 -10.21000 48.16800
C  27.04300 -9.63200 47.24900
C  28.26100 -9.81100 48.17200
N  26.16800 -4.66700 45.95800
C  27.21300 -5.28700 46.53800
C  28.41400 -4.51800 46.33400
C  28.05300 -3.47100 45.47300
C  26.66700 -3.59200 45.28400
C  29.69100 -4.99700 46.79900
C  28.52600 -2.40100 44.66600
O  29.67000 -2.04300 44.42100
C  27.28700 -1.81000 43.88500
C  27.15400 -0.42300 44.21700
O  26.75000 -0.05400 45.29900
O  27.65900 0.41200 43.28300
C  27.76700 1.80000 43.66100
H  20.89300 -3.80700 42.62700
H  21.87100 -8.71300 46.71500
H  27.92500 -7.01800 47.63200
H  24.54600 -0.79900 42.69600
H  22.74100 -2.56200 41.24600
H  21.24800 -0.91800 41.71400
H  22.22000 -0.30700 42.99500
H  20.91600 -1.60000 43.26300
H  24.62300 -2.77600 40.45600
H  25.90500 -3.07100 41.46000
H  27.02200 -1.21000 40.64700
H  25.59700 -0.17900 40.45500
H  18.84200 -6.01800 42.58200
H  18.88300 -4.37900 43.33500
H  17.90800 -5.58000 44.01700
H  19.36300 -9.69700 46.75700
H  18.41200 -8.55900 47.61800
H  20.03400 -8.15100 47.61600
H  24.70100 -9.77400 46.32400
H  25.82600 -8.67400 48.91000
H  24.08600 -10.29500 49.16700
H  23.33200 -11.17100 47.76900
H  22.66500 -9.84800 48.43800
H  27.43100 -9.13300 46.36100
H  26.60200 -10.57800 46.93400
H  28.09500 -9.42900 49.17900
H  29.07500 -9.21800 47.75500
H  28.60000 -10.84700 48.17100
H  29.78200 -4.54600 47.78700
H  30.49000 -4.63600 46.15100
H  29.77100 -6.08100 46.71900
H  27.55700 -1.93900 42.83700
H  27.63600 2.53500 42.86700
H  28.75800 2.09400 44.00900
H  26.91200 2.05800 44.28700
Mg 42.83900 41.42100 26.47800
C  41.49500 43.64500 28.72000
C  43.60300 39.24000 29.02200
C  43.93800 39.29800 24.17100
C  41.80600 43.66500 23.94600
N  42.67600 41.48100 28.61600
C  42.07900 42.57000 29.35100
C  42.07600 42.18100 30.85000
C  42.82200 40.79200 30.94800
C  43.05100 40.45800 29.42600
C  44.18900 40.75600 31.74700
C  40.69300 42.12500 31.53600
C  40.44200 43.05500 32.74600
H  39.93400 42.43600 34.06900
N  43.65200 39.51100 26.58500
C  43.88500 38.77500 27.75200
C  44.42700 37.55300 27.36300
C  44.79100 37.54900 25.99600
C  44.09300 38.82700 25.51500
C  44.68100 36.52800 28.39400
C  45.53200 36.59500 25.01700
O  45.85000 36.83700 23.85900
C  45.84600 35.30600 25.58900
N  42.79700 41.49900 24.40700
C  43.33700 40.49300 23.66900
C  43.03800 40.62600 22.18200
C  42.42200 42.08200 22.01700
C  42.31900 42.46300 23.56600
C  44.22600 40.33700 21.26000
C  41.14400 42.38100 21.16300
C  41.22900 43.66400 20.24400
N  41.92500 43.30600 26.33700
C  41.63700 44.11000 25.28100
C  40.94400 45.31900 25.71800
C  40.88400 45.16000 27.08600
C  41.48000 43.89300 27.38700
C  40.42400 46.38200 24.86300
C  40.45400 45.82200 28.24500
O  39.83200 46.86500 28.38900
C  40.86600 44.87100 29.45100
C  41.65000 45.68900 30.39000
O  42.78700 46.08900 30.18200
O  40.94000 45.97200 31.51300
C  41.55800 46.52900 32.67100
H  44.04300 38.55600 29.75200
H  44.21900 38.50100 23.47900
H  41.58400 44.34600 23.12300
H  42.68700 42.88800 31.41200
H  42.13300 40.08500 31.41200
H  44.05500 39.92400 32.43900
H  44.27300 41.66600 32.34000
H  45.03600 40.70800 31.06300
H  40.47400 41.17600 32.02500
H  39.90800 42.26700 30.79300
H  39.65600 43.72000 32.38900
H  41.37700 43.53400 33.03700
H  44.77100 35.58700 27.85100
H  43.93400 36.42800 29.18200
H  45.66300 36.72100 28.82500
H  46.60700 35.53900 26.33400
H  46.35700 34.68200 24.85700
H  45.08100 34.62200 25.95700
H  42.24300 39.88600 22.09500
H  43.22400 42.73500 21.67300
H  44.99900 39.75000 21.75600
H  44.70400 41.26200 20.93700
H  43.91300 39.77100 20.38300
H  40.34300 42.49900 21.89300
H  40.80800 41.51700 20.59100
H  41.66900 43.44500 19.27100
H  41.97800 44.35300 20.63400
H  40.33800 44.29100 20.19900
H  40.81700 46.37600 23.84700
H  40.73500 47.28500 25.38800
H  39.34600 46.22200 24.87600
H  39.92800 44.66000 29.96500
H  42.47600 47.09700 32.52100
H  41.79800 45.76400 33.40900
H  40.91100 47.28600 33.11400

