158

Mg 54.95600 24.36300 44.17300
C  52.27000 26.27100 43.22300
C  53.37700 21.50100 43.27900
C  58.05700 22.68600 44.13900
C  56.90700 27.38000 44.50400
N  53.06200 24.00600 43.25400
C  52.03900 24.90800 43.01000
C  50.75800 24.18600 42.53200
C  51.11300 22.74000 43.08900
C  52.61700 22.71400 43.22800
C  50.34000 22.54700 44.44000
C  50.63200 24.12600 41.00600
C  49.24200 24.01500 40.44600
H  49.04100 23.73100 38.94300
N  55.58800 22.32600 43.79900
C  54.75500 21.30400 43.45700
C  55.44300 20.09900 43.51900
C  56.82100 20.40500 43.80300
C  56.86100 21.87800 43.96500
C  54.73700 18.86700 43.09000
C  57.86400 19.37500 43.90100
O  57.53800 18.23900 43.69500
C  59.27800 19.65200 44.35900
N  57.15900 24.92800 44.17900
C  58.16200 24.04600 44.23200
C  59.53300 24.71500 44.44900
C  59.21900 26.21000 44.57800
C  57.61600 26.17400 44.35000
C  60.38700 24.12800 45.55600
C  59.97800 27.05300 43.54100
C  60.69100 28.23800 44.10100
N  54.66200 26.45500 43.92000
C  55.48700 27.54100 44.23800
C  54.61500 28.68200 44.42000
C  53.31900 28.22400 43.98900
C  53.49000 26.86700 43.67000
C  54.98800 30.02900 44.90900
C  51.93700 28.63100 43.94400
O  51.36300 29.60600 44.30200
C  51.17200 27.39400 43.34400
C  50.69300 27.86700 42.03100
O  51.46000 28.27600 41.12100
O  49.32500 27.79000 41.84300
C  48.70200 28.24700 40.58200
H  52.85200 20.55200 43.40700
H  58.96600 22.08100 44.12600
H  57.50100 28.25000 44.79300
H  49.83900 24.62500 42.92000
H  50.77700 21.97800 42.38600
H  51.02200 22.24800 45.23500
H  49.63900 21.74100 44.22200
H  49.84200 23.44600 44.80200
H  51.16500 23.21700 40.72800
H  51.18900 24.93000 40.52400
H  48.73000 24.97600 40.48500
H  48.70200 23.30300 41.07100
H  54.34700 19.04700 42.08800
H  53.83500 18.82400 43.70100
H  55.25100 17.91700 43.23100
H  59.83400 20.23500 43.62500
H  59.74700 18.73600 44.72000
H  59.29600 20.18300 45.31100
H  60.09500 24.54800 43.53000
H  59.46300 26.61700 45.55900
H  60.60400 24.89400 46.30100
H  61.24600 23.57800 45.17300
H  59.67000 23.42500 45.98000
H  59.30400 27.42000 42.76800
H  60.78400 26.58300 42.97700
H  61.65800 28.34900 43.60900
H  60.86700 28.18600 45.17500
H  60.11400 29.15200 43.95700
H  55.57700 29.88100 45.81400
H  54.13400 30.69600 45.01900
H  55.58000 30.49700 44.12200
H  50.33900 27.12000 43.99100
H  48.76100 27.53100 39.76200
H  49.34900 29.08100 40.30900
H  47.66300 28.57500 40.58100
Mg 41.34700 40.56000 26.54700
C  40.98000 42.99600 29.02400
C  42.30800 38.30100 28.90500
C  42.28100 38.39000 24.14100
C  40.64900 43.00500 24.22600
N  41.65700 40.68600 28.66700
C  41.31000 41.72000 29.56000
C  41.40200 41.33300 31.06600
C  42.29400 39.99900 30.92500
C  42.10700 39.60300 29.39200
C  43.76700 40.22400 31.42900
C  40.03400 41.04300 31.62800
C  39.62600 41.84600 32.90300
H  39.06300 41.03700 34.06700
N  42.09000 38.50400 26.56700
C  42.36500 37.72900 27.62600
C  42.78400 36.38000 27.24000
C  42.87000 36.41100 25.85100
C  42.41600 37.81000 25.42700
C  43.17200 35.33800 28.24200
C  43.26700 35.31400 24.80900
O  43.38600 35.54800 23.62300
C  43.40100 33.91900 25.35200
N  41.63300 40.71900 24.43700
C  41.88800 39.66100 23.64900
C  41.68600 39.95500 22.17100
C  40.85300 41.35700 22.16800
C  41.08100 41.77100 23.67500
C  43.05900 40.00200 21.36200
C  39.36900 41.29300 21.74400
C  38.50200 40.07400 22.18000
N  40.88000 42.61300 26.56400
C  40.66100 43.49400 25.53600
C  40.36400 44.82900 25.99900
C  40.47100 44.70700 27.39000
C  40.80200 43.31100 27.65500
C  40.15700 46.04700 25.14700
C  40.29500 45.35000 28.65100
O  40.04200 46.47000 28.89300
C  40.64400 44.31800 29.74400
C  41.66500 44.92700 30.63200
O  42.82200 45.21800 30.34700
O  41.09700 45.17800 31.78500
C  41.88300 45.64900 32.87100
H  42.43000 37.56400 29.70100
H  42.55000 37.77400 23.28000
H  40.20500 43.67600 23.48700
H  41.86000 42.17400 31.58600
H  41.85600 39.15000 31.45100
H  44.52500 39.66700 30.87700
H  43.75100 39.85600 32.45500
H  44.11400 41.24600 31.58100
H  39.79700 39.99700 31.82300
H  39.30500 41.13800 30.82300
H  38.92600 42.62400 32.59800
H  40.38800 42.49900 33.32800
H  44.15900 34.97900 27.94800
H  42.53800 34.46300 28.09800
H  43.09800 35.65300 29.28300
H  42.39500 33.59700 25.62000
H  44.09000 34.00000 26.19300
H  43.70900 33.26600 24.53600
H  41.04900 39.19200 21.72600
H  41.26800 42.10700 21.49400
H  43.86700 39.95900 22.09200
H  43.13600 40.86400 20.69900
H  43.08100 39.12400 20.71600
H  39.27500 41.39600 20.66300
H  38.82000 42.11400 22.20400
H  37.62000 40.38500 22.73900
H  39.21300 39.46300 22.73600
H  38.12600 39.48700 21.34100
H  39.37900 45.74100 24.44700
H  41.03300 46.29900 24.54900
H  39.96300 47.00500 25.62900
H  39.73000 44.11200 30.30000
H  42.95500 45.47200 32.78100
H  41.50700 45.37700 33.85800
H  41.66600 46.71700 32.88200

