158

Mg 17.97100 50.72800 26.09400
C  19.75800 49.08400 28.61800
C  15.75300 51.65900 28.43300
C  16.00300 51.84300 23.56800
C  20.14900 49.50600 23.70200
N  17.73200 50.19900 28.29700
C  18.67300 49.74300 29.14600
C  18.26500 50.02500 30.58000
C  16.79100 50.50900 30.46800
C  16.76400 50.87700 28.99800
C  15.77400 49.52700 30.91800
C  19.15200 51.07100 31.25500
C  19.43500 50.92700 32.80600
H  18.44000 51.71700 33.59700
N  16.10500 51.73300 25.99000
C  15.38800 52.00200 27.14300
C  14.22500 52.70400 26.74500
C  14.26400 52.77100 25.33400
C  15.48200 52.08100 24.89200
C  13.18300 53.17600 27.74900
C  13.30800 53.49000 24.39500
O  13.53100 53.65700 23.19300
C  11.99800 54.14300 24.85900
N  18.12400 50.67800 23.91100
C  17.18800 51.26500 23.11600
C  17.47800 51.10600 21.60000
C  18.88600 50.37100 21.62000
C  19.08300 50.13400 23.17200
C  16.44400 50.47000 20.68200
C  19.98800 51.15800 20.81900
C  20.91800 50.30200 19.86200
N  19.68900 49.56700 26.06200
C  20.44400 49.16100 25.10000
C  21.61800 48.47700 25.63400
C  21.36600 48.35400 26.95300
C  20.16100 49.04000 27.21200
C  22.83200 48.03200 24.81800
C  21.81300 47.88700 28.28200
O  22.85000 47.30200 28.56900
C  20.89300 48.47900 29.40700
C  20.56600 47.44400 30.39600
O  19.93600 46.48500 30.09900
O  20.95000 47.76700 31.64600
C  20.46800 46.84100 32.67300
H  15.00600 52.06400 29.11900
H  15.42900 52.34600 22.78700
H  20.87200 49.28300 22.91400
H  18.28400 49.15200 31.23300
H  16.65400 51.34000 31.16000
H  14.85500 49.98000 31.29000
H  16.17100 48.98400 31.77700
H  15.66800 48.69300 30.22400
H  18.68800 52.04500 31.10000
H  20.11000 51.27500 30.77500
H  20.43800 51.33000 32.94500
H  19.47700 49.88100 33.10700
H  12.26000 52.59800 27.70100
H  12.81300 54.13800 27.39700
H  13.59000 53.43500 28.72700
H  12.28400 55.10100 25.29300
H  11.52300 53.54100 25.63400
H  11.22800 54.37300 24.12300
H  17.68400 52.14300 21.33500
H  18.93500 49.35500 21.22800
H  15.60200 50.04800 21.23100
H  16.84900 49.57400 20.21400
H  15.99200 51.18400 19.99300
H  20.65700 51.58600 21.56500
H  19.61100 52.02800 20.28000
H  21.97600 50.19100 20.09800
H  20.80300 50.67200 18.84300
H  20.54400 49.28300 19.75700
H  23.68400 48.68700 25.00300
H  22.66500 48.03100 23.74100
H  23.23300 47.11600 25.25300
H  21.50300 49.20200 29.94900
H  20.83100 45.83600 32.45500
H  19.40100 46.92100 32.87600
H  20.91700 47.13700 33.62100
Mg -5.97000 24.96000 26.32100
C  -4.29600 26.43200 28.96200
C  -7.72200 22.86600 28.59800
C  -7.47400 23.30400 23.77100
C  -4.16400 26.82800 24.06300
N  -6.04000 24.71400 28.54900
C  -5.25900 25.48100 29.40700
C  -5.58600 25.13000 30.87900
C  -6.59200 23.83000 30.73400
C  -6.83400 23.78900 29.16300
C  -5.94300 22.50300 31.22000
C  -6.27200 26.35000 31.63500
C  -5.90800 26.66300 33.10500
H  -5.40000 25.53600 33.89800
N  -7.44100 23.40500 26.27000
C  -8.07700 22.70200 27.20000
C  -9.14300 21.87900 26.72300
C  -9.05300 22.08200 25.27400
C  -7.90500 22.97800 25.07400
C  -9.94800 20.94100 27.57400
C  -9.93400 21.43300 24.25700
O  -9.83600 21.71400 23.06600
C  -11.05900 20.47300 24.55800
N  -5.77800 25.04800 24.21400
C  -6.51500 24.20900 23.43200
C  -6.00400 24.41700 21.96400
C  -5.12300 25.70900 21.99200
C  -4.98000 25.86300 23.47500
C  -5.10200 23.16100 21.54300
C  -5.95400 26.84400 21.34700
C  -5.31700 27.53500 20.10500
N  -4.43200 26.25500 26.43800
C  -3.82900 27.02400 25.42500
C  -2.90600 27.98000 26.05100
C  -3.02500 27.70000 27.43600
C  -4.04500 26.75200 27.56800
C  -2.05200 28.98900 25.34000
C  -2.60500 28.16000 28.72800
O  -1.86300 29.08800 29.01500
C  -3.30600 27.27100 29.79100
C  -2.25100 26.40600 30.36400
O  -1.37400 25.81000 29.74000
O  -2.38200 26.37400 31.75800
C  -1.36800 25.54400 32.45800
H  -8.25700 22.29700 29.36100
H  -7.92300 22.79700 22.91500
H  -3.63600 27.49200 23.37700
H  -4.65300 24.87300 31.38000
H  -7.49400 24.08500 31.29000
H  -5.05900 22.71100 31.82300
H  -5.65200 21.90500 30.35700
H  -6.63700 21.93700 31.84200
H  -7.35100 26.21400 31.56100
H  -6.17200 27.24300 31.01700
H  -6.77300 27.02100 33.66300
H  -5.09900 27.39200 33.06200
H  -9.72800 19.89200 27.37900
H  -11.00100 21.07800 27.33000
H  -9.79200 21.23700 28.61200
H  -11.50900 20.16900 23.61300
H  -11.77900 20.99400 25.18900
H  -10.72200 19.55800 25.04500
H  -6.84300 24.54300 21.28000
H  -4.11500 25.59400 21.59500
H  -4.06600 23.45500 21.37700
H  -5.46600 22.88100 20.55400
H  -5.12600 22.35500 22.27500
H  -6.08600 27.65900 22.05900
H  -6.92500 26.52300 20.97000
H  -6.07100 27.52800 19.31800
H  -4.44100 26.97800 19.77300
H  -4.91600 28.53700 20.25900
H  -2.44500 30.00500 25.37300
H  -1.97300 28.73000 24.28400
H  -1.00900 28.93000 25.65100
H  -3.58700 27.94500 30.60000
H  -1.78300 25.28000 33.43100
H  -0.53100 26.22700 32.60500
H  -1.01700 24.72200 31.83400

