158

Mg 48.12700 16.36300 29.00500
C  46.13900 16.11300 31.88700
C  50.51200 17.84200 30.80500
C  49.77700 16.81400 26.12000
C  45.43900 14.95800 27.19600
N  48.24300 16.97500 31.15700
C  47.38400 16.74200 32.15000
C  47.82300 17.24300 33.43900
C  49.20900 18.01300 33.09000
C  49.34800 17.58800 31.59700
C  49.29900 19.53500 33.23200
C  47.92200 16.26800 34.64800
C  47.31400 16.84700 35.98200
H  47.05400 18.27500 36.22900
N  49.97500 17.19000 28.52400
C  50.77300 17.83700 29.43500
C  52.00800 18.18800 28.74100
C  51.82300 17.99900 27.36100
C  50.52200 17.25700 27.27500
C  53.12300 18.84800 29.41800
C  52.72400 18.39800 26.15600
O  52.43800 17.92700 25.06200
C  54.02900 19.20800 26.29400
N  47.63900 16.00700 26.94500
C  48.48600 16.21700 25.93300
C  48.08900 15.59500 24.61100
C  46.73600 14.86200 25.02900
C  46.60800 15.21000 26.52800
C  47.76000 16.53100 23.45000
C  46.86600 13.28900 24.90400
C  45.83300 12.71700 23.89600
N  46.18100 15.63300 29.40700
C  45.21800 15.15600 28.54700
C  44.05000 14.82200 29.29800
C  44.36600 15.13400 30.59400
C  45.67900 15.63800 30.64300
C  42.81100 14.10300 28.76500
C  43.89800 15.08100 31.90800
O  42.92400 14.58300 32.42700
C  45.02900 15.77000 32.81000
C  44.39600 16.95800 33.50500
O  44.34700 18.10400 33.15500
O  43.79000 16.45900 34.65700
C  42.70100 17.31100 35.27900
H  51.17800 18.46400 31.40800
H  50.37900 16.82300 25.20900
H  44.67700 14.44000 26.61100
H  47.07700 17.99800 33.68700
H  49.99900 17.53400 33.66900
H  49.38200 19.89200 32.20500
H  50.22800 19.60700 33.79700
H  48.37200 19.90300 33.67200
H  48.94300 16.02300 34.94000
H  47.32000 15.39700 34.38700
H  48.07200 16.54000 36.70100
H  46.42100 16.27300 36.23000
H  54.03400 18.33300 29.11500
H  53.10500 18.89800 30.50700
H  53.16400 19.85800 29.01000
H  54.14600 19.75600 27.22900
H  54.20200 19.75200 25.36600
H  54.78500 18.42800 26.38900
H  48.88600 14.89200 24.36800
H  45.82000 15.22200 24.56100
H  48.36300 16.56700 22.54200
H  47.92600 17.55900 23.77100
H  46.74200 16.39400 23.08600
H  46.80400 12.83000 25.89100
H  47.78500 13.08600 24.35500
H  46.48300 12.38400 23.08700
H  45.07300 13.41200 23.54000
H  45.37400 11.88300 24.42500
H  42.58000 13.19900 29.33000
H  42.98300 13.73000 27.75600
H  41.98900 14.81600 28.82900
H  45.26900 15.19800 33.70700
H  42.03500 16.76400 35.94600
H  42.01100 17.65200 34.50700
H  43.21100 18.12300 35.79700
Mg 49.38600 35.27800 27.53900
C  46.98500 34.36000 30.04900
C  49.76000 38.24800 29.26600
C  51.51400 36.21700 25.12200
C  48.13500 32.78100 25.53600
N  48.37600 36.21500 29.39200
C  47.57300 35.60300 30.29800
C  47.30800 36.53800 31.48400
C  47.93300 37.91000 31.02200
C  48.67900 37.47600 29.76300
C  46.91000 39.06400 30.77000
C  47.92600 36.06300 32.81700
C  46.97000 35.86900 33.98600
H  46.43400 37.15000 34.67400
N  50.65500 36.93900 27.33800
C  50.69900 38.02400 28.19500
C  51.90300 38.79100 27.72700
C  52.31600 38.25500 26.47200
C  51.48800 37.07700 26.25500
C  52.44900 40.03600 28.48800
C  53.51500 38.68900 25.63100
O  53.92200 38.05200 24.64200
C  54.20000 39.99100 25.98300
N  49.83900 34.55000 25.67600
C  50.74000 35.12000 24.80600
C  50.81800 34.38700 23.39800
C  49.74800 33.19000 23.63200
C  49.17500 33.54800 25.01800
C  50.42900 35.36000 22.23400
C  50.32200 31.71800 23.57700
C  49.41500 30.70500 22.85800
N  47.97300 33.74100 27.74600
C  47.58100 32.74400 26.85300
C  46.60500 31.85800 27.45600
C  46.32800 32.47100 28.68700
C  47.16500 33.61800 28.84100
C  45.91600 30.62000 26.86300
C  45.46900 32.42600 29.86900
O  44.49200 31.71400 30.19800
C  45.92600 33.51600 30.77000
C  46.46900 32.92300 32.04900
O  47.65500 32.76200 32.26600
O  45.45100 32.65700 32.95000
C  45.91600 32.07600 34.19900
H  49.99400 39.19900 29.74800
H  52.27600 36.45200 24.37600
H  47.68300 32.01200 24.90600
H  46.23400 36.71600 31.54400
H  48.63900 38.22000 31.79200
H  47.25500 39.93400 31.32900
H  45.94400 38.70300 31.12100
H  46.77200 39.20700 29.69800
H  48.75900 36.65200 33.19900
H  48.36300 35.07900 32.65200
H  47.54000 35.25500 34.68200
H  46.00700 35.49300 33.64100
H  53.53400 40.01500 28.59000
H  51.88300 40.14100 29.41400
H  52.20500 40.93300 27.91900
H  54.82800 40.24300 25.12800
H  54.91000 39.84900 26.79700
H  53.46600 40.79600 26.01300
H  51.79500 33.95700 23.17900
H  48.90700 33.19000 22.93800
H  51.36000 35.74000 21.81300
H  49.80500 36.08700 22.75400
H  49.91600 34.91500 21.38200
H  50.42700 31.41600 24.61900
H  51.34800 31.70100 23.20900
H  49.28100 30.04800 23.71700
H  49.90200 30.19400 22.02700
H  48.51200 31.16400 22.45400
H  45.44700 30.11500 27.70800
H  46.69400 30.02800 26.38100
H  45.16600 30.99700 26.16800
H  45.09300 34.15700 31.05500
H  45.00000 31.86300 34.75000
H  46.48200 32.75700 34.83400
H  46.47600 31.14200 34.14700

