158

Mg 25.74900 1.04700 28.80000
C  27.64500 0.63900 31.57000
C  23.04300 1.22200 30.83100
C  23.83900 1.12400 26.05800
C  28.61200 0.02300 26.85200
N  25.40900 0.95000 30.97300
C  26.32000 0.82300 31.96600
C  25.69400 0.80500 33.36700
C  24.11800 1.00400 33.08200
C  24.15100 1.14200 31.54000
C  23.19700 -0.11800 33.66400
C  26.27600 1.96300 34.26600
C  25.56300 2.01000 35.61300
H  26.42700 1.77900 36.83100
N  23.74800 1.10100 28.50700
C  22.77300 1.27100 29.46300
C  21.48400 1.44300 28.81100
C  21.69200 1.41600 27.38900
C  23.17300 1.27500 27.27200
C  20.18400 1.44200 29.58100
C  20.68300 1.56200 26.24300
O  20.98200 1.42200 25.05100
C  19.22800 1.93600 26.54500
N  26.13500 0.45100 26.79700
C  25.23700 0.81100 25.88300
C  25.88000 0.94100 24.50600
C  27.30700 0.55700 24.73300
C  27.38600 0.42800 26.20900
C  25.14800 0.02300 23.36700
C  28.39300 1.57200 24.11000
C  29.14300 1.16000 22.77500
N  27.74100 0.51900 29.05900
C  28.73800 0.09200 28.21100
C  29.92100 -0.19400 29.00100
C  29.50200 0.04200 30.34500
C  28.19300 0.46000 30.31700
C  31.27500 -0.58700 28.49200
C  29.99700 0.01000 31.69800
O  31.09900 -0.30900 32.12000
C  28.78300 0.33800 32.63700
C  28.45100 -0.90900 33.41200
O  27.93500 -1.97700 33.01600
O  28.94600 -0.69700 34.73000
C  28.51500 -1.57000 35.79500
H  22.16800 1.40500 31.45700
H  23.29800 1.10500 25.10900
H  29.54600 -0.27100 26.36800
H  25.92000 -0.21100 33.69200
H  23.90600 1.94200 33.59600
H  22.94100 -0.84800 32.89600
H  22.31500 0.39500 34.05000
H  23.71100 -0.66500 34.45300
H  26.06700 2.85000 33.66800
H  27.35300 1.93100 34.43000
H  24.84000 1.19400 35.65100
H  24.98000 2.92700 35.69300
H  19.38400 1.10400 28.92300
H  19.90100 2.46600 29.82500
H  20.27500 0.93400 30.54200
H  18.78100 1.04300 26.98200
H  18.68900 2.18900 25.63200
H  19.21600 2.76800 27.25000
H  25.77400 2.00700 24.30600
H  27.53600 -0.40900 24.28500
H  24.38100 -0.56200 23.87400
H  25.84000 -0.56200 22.76000
H  24.66200 0.65700 22.62600
H  29.21800 1.62700 24.82100
H  27.91000 2.52900 23.91000
H  28.48300 0.34800 22.47000
H  30.16500 0.84100 22.98100
H  29.03500 1.92300 22.00400
H  32.02900 -0.30400 29.22500
H  31.49200 -0.08100 27.55200
H  31.33700 -1.66400 28.33500
H  28.93000 1.12600 33.37600
H  28.56700 -2.59700 35.43300
H  27.46400 -1.35100 35.98200
H  29.09400 -1.45500 36.71200
Mg 48.46500 46.29400 43.52900
C  45.33900 46.69300 42.37800
C  48.48600 43.20600 42.14900
C  51.82300 46.24300 44.22100
C  48.54700 49.62800 44.68700
N  47.09100 45.28200 42.23000
C  45.81400 45.49700 41.89000
C  45.14600 44.45500 40.97600
C  46.09900 43.28500 41.20600
C  47.30300 43.94200 41.96800
C  45.43600 42.04400 41.94000
C  44.99100 44.77200 39.41500
C  43.62200 44.47900 38.85200
H  43.65100 43.40700 37.82800
N  49.94600 44.89700 43.24900
C  49.76800 43.69600 42.63400
C  51.06900 43.03200 42.55000
C  52.03800 43.83100 43.18900
C  51.34600 45.03100 43.54500
C  51.22800 41.72200 41.81600
C  53.52700 43.46100 43.36300
O  54.08500 42.53400 42.83800
C  54.29400 44.23800 44.29500
N  49.97900 47.77300 44.39400
C  51.22100 47.42600 44.64300
C  52.07500 48.49400 45.24600
C  51.06600 49.72300 45.25300
C  49.79400 49.07400 44.73200
C  52.69800 48.14800 46.58300
C  51.43500 51.00300 44.35800
C  51.10500 52.35100 45.06900
N  47.26700 47.83600 43.65300
C  47.37400 49.04700 44.18100
C  46.08100 49.74700 44.15300
C  45.27000 48.86200 43.45200
C  46.00300 47.71800 43.20300
C  45.80600 51.14700 44.72100
C  43.91800 48.66100 43.00100
O  42.93400 49.39300 43.03000
C  43.95200 47.29500 42.26700
C  42.88700 46.43700 42.79900
O  42.89200 45.69600 43.79600
O  41.84300 46.52100 41.91700
C  40.81900 45.50600 42.27300
H  48.47100 42.17700 41.78500
H  52.87100 46.31600 44.51900
H  48.49200 50.66900 45.01200
H  44.18800 44.27900 41.46600
H  46.37100 42.82700 40.25500
H  44.43700 41.85500 41.54800
H  45.44600 42.15600 43.02400
H  46.05200 41.15100 41.82600
H  45.67600 44.22200 38.76900
H  45.16300 45.83900 39.27400
H  43.06000 45.31600 38.43700
H  43.03000 44.11500 39.69200
H  52.16800 41.78000 41.26700
H  50.45300 41.45000 41.10000
H  51.17600 40.89500 42.52500
H  53.60500 44.53300 45.08600
H  54.68100 45.06800 43.70500
H  55.11400 43.62900 44.67600
H  52.81800 48.60300 44.45600
H  50.79800 49.95500 46.28400
H  53.66700 47.66600 46.45100
H  52.03800 47.45800 47.10900
H  53.01700 49.05400 47.09700
H  50.96900 50.79700 43.39400
H  52.51600 50.93300 44.23600
H  50.74600 52.99300 44.26500
H  52.07600 52.68000 45.44100
H  50.30800 52.28400 45.81000
H  46.30400 51.19900 45.68900
H  44.73600 51.33700 44.80500
H  46.21200 51.95500 44.11200
H  43.71400 47.43100 41.21200
H  40.16900 45.82500 43.08800
H  41.24200 44.52400 42.48400
H  40.23600 45.52200 41.35200

