158

Mg -2.45900 17.31300 26.59500
C  -2.55200 15.36200 29.43800
C  -2.69500 20.09400 28.57500
C  -2.68800 19.17000 23.81800
C  -2.83700 14.32100 24.66100
N  -2.54500 17.68300 28.76100
C  -2.55400 16.73300 29.76000
C  -2.58600 17.31100 31.13500
C  -2.47400 18.82800 30.86100
C  -2.63000 18.85900 29.32700
C  -3.51600 19.65200 31.59400
C  -1.49000 16.81000 32.16400
C  -0.69300 17.63600 33.24900
H  -0.41700 17.00800 34.60500
N  -2.53700 19.32100 26.22700
C  -2.65000 20.33700 27.14200
C  -2.52700 21.61800 26.50000
C  -2.36700 21.35700 25.08900
C  -2.56000 19.87600 24.97700
C  -2.74800 22.92700 27.26300
C  -2.00900 22.27600 23.98100
O  -2.03700 21.87500 22.83000
C  -1.78300 23.78100 24.18900
N  -2.77200 16.82300 24.55600
C  -2.82300 17.77000 23.61200
C  -2.90100 17.16900 22.20800
C  -3.12000 15.67700 22.48700
C  -2.82200 15.56700 23.99400
C  -4.07200 17.84600 21.35300
C  -2.10900 14.77000 21.72000
C  -0.58800 14.90200 22.17000
N  -2.47300 15.20000 26.84500
C  -2.64600 14.09800 26.02200
C  -2.76200 12.87300 26.73800
C  -2.77700 13.37300 28.09200
C  -2.58000 14.80000 28.12500
C  -2.76800 11.53900 26.15100
C  -2.91900 12.95300 29.48600
O  -3.14300 11.83300 29.89500
C  -2.70100 14.11900 30.42900
C  -1.47100 13.77500 31.22100
O  -0.28300 13.91700 30.83300
O  -1.85200 13.33300 32.43800
C  -0.81600 12.98700 33.44200
H  -2.67900 20.95700 29.24400
H  -2.84200 19.79500 22.93500
H  -3.07300 13.37500 24.16900
H  -3.61300 17.11100 31.43900
H  -1.49200 19.26700 31.03900
H  -4.07800 20.25000 30.87600
H  -2.96600 20.36800 32.20500
H  -4.13800 18.99700 32.20500
H  -0.73600 16.32300 31.54600
H  -1.98900 16.09900 32.82200
H  -1.34300 18.50600 33.34700
H  0.28600 17.86000 32.82700
H  -1.74300 23.32700 27.40000
H  -3.23600 22.87700 28.23700
H  -3.30900 23.59200 26.60700
H  -1.08100 23.90200 25.01400
H  -2.69400 24.18300 24.63100
H  -1.55600 24.36500 23.29600
H  -1.90600 17.28100 21.77800
H  -4.13200 15.35700 22.23800
H  -4.51200 17.16100 20.62900
H  -3.62400 18.54700 20.64900
H  -4.80000 18.42200 21.92500
H  -2.29000 15.12300 20.70400
H  -2.51600 13.76200 21.80100
H  -0.33700 14.08900 22.85100
H  -0.40900 15.84500 22.68700
H  -0.08100 14.88400 21.20500
H  -1.94800 11.39400 25.44800
H  -3.76000 11.48000 25.70300
H  -2.72100 10.85000 26.99400
H  -3.56800 14.24300 31.07800
H  -0.99300 13.60100 34.32500
H  0.20900 13.10200 33.08900
H  -0.85400 11.99000 33.87900
Mg 24.32200 -5.39600 45.89900
C  26.37000 -3.00400 44.26700
C  21.77700 -4.48800 43.78200
C  22.59400 -7.87900 47.30900
C  27.21700 -6.31900 47.86800
N  24.10100 -3.98400 44.10600
C  25.08200 -3.09400 43.68600
C  24.54600 -2.24000 42.48400
C  22.99700 -2.57100 42.45500
C  22.95700 -3.78200 43.45200
C  21.96300 -1.43800 42.74000
C  25.29700 -2.57800 41.13900
C  25.50100 -1.39900 40.18300
H  24.90000 -1.51600 38.79600
N  22.41600 -5.98300 45.63700
C  21.55300 -5.54900 44.64100
C  20.38900 -6.30800 44.73700
C  20.52200 -7.23900 45.78600
C  21.87000 -7.02700 46.35000
C  19.21600 -5.97600 43.80900
C  19.42000 -8.11100 46.21600
O  18.36500 -8.16700 45.61800
C  19.50700 -9.00300 47.42700
N  24.90200 -6.97300 47.30500
C  23.94800 -7.81200 47.76000
C  24.46400 -8.81100 48.70800
C  25.93600 -8.35800 48.94100
C  26.04100 -7.06700 48.02600
C  23.58600 -9.05300 49.94300
C  27.08000 -9.40900 48.67600
C  27.15300 -9.82800 47.19300
N  26.35000 -4.82600 46.10700
C  27.34700 -5.24800 46.99500
C  28.47600 -4.36600 46.76400
C  28.15100 -3.48200 45.72000
C  26.86800 -3.81700 45.37800
C  29.71300 -4.33500 47.56900
C  28.55300 -2.37800 44.92100
O  29.59100 -1.75400 44.99700
C  27.46300 -2.09700 43.87400
C  27.07700 -0.66300 44.01500
O  26.39300 -0.19100 44.90100
O  27.51700 0.14400 42.98500
C  27.29900 1.52800 43.18100
H  20.98100 -4.13200 43.12400
H  22.08200 -8.78500 47.63800
H  28.13200 -6.63000 48.37700
H  24.68900 -1.18100 42.69800
H  22.78200 -2.98100 41.46900
H  21.17900 -1.70500 43.44900
H  21.50000 -1.17500 41.78900
H  22.53600 -0.56100 43.04000
H  24.80100 -3.35200 40.55300
H  26.31700 -2.91200 41.32900
H  26.56200 -1.29700 39.95600
H  25.26100 -0.42400 40.60800
H  18.62600 -6.87200 43.61800
H  19.66000 -5.70000 42.85200
H  18.64400 -5.17600 44.27800
H  18.64300 -9.65700 47.54300
H  19.58800 -8.30900 48.26400
H  20.36300 -9.66700 47.31300
H  24.45000 -9.74700 48.15000
H  26.01100 -7.93200 49.94100
H  23.30600 -10.10700 49.96900
H  22.69900 -8.42000 49.91300
H  24.16900 -8.78100 50.82300
H  27.05600 -10.24300 49.37800
H  28.05700 -8.99000 48.91600
H  27.00100 -10.90700 47.17200
H  28.22600 -9.85800 47.00600
H  26.66700 -9.24100 46.41400
H  30.60400 -4.33400 46.94100
H  29.78900 -5.18300 48.24800
H  29.68300 -3.43600 48.18500
H  27.81200 -2.09500 42.84200
H  28.12800 1.87500 43.79800
H  26.30100 1.76100 43.54900
H  27.31600 1.95500 42.17800

