158

Mg 1.88000 -1.68600 44.13400
C  5.45000 -0.96400 43.97700
C  1.40200 1.23700 42.37600
C  -1.25600 -2.68300 43.92200
C  2.85900 -4.95800 45.35800
N  3.29300 -0.11100 43.29500
C  4.66700 0.04500 43.38800
C  5.08800 1.24600 42.58600
C  3.81800 1.96400 42.23700
C  2.75800 0.95200 42.65300
C  3.67900 3.30900 43.04100
C  5.84000 0.86700 41.25500
C  7.25600 1.54000 41.14000
H  8.19200 0.89600 40.02700
N  0.25400 -0.82400 43.31700
C  0.24200 0.41400 42.62100
C  -1.15500 0.72100 42.33300
C  -1.89900 -0.45000 42.69900
C  -0.97100 -1.35300 43.39900
C  -1.59300 2.13100 41.89300
C  -3.36700 -0.64100 42.55800
O  -3.97200 0.34900 42.15800
C  -4.23500 -1.89700 42.69000
N  0.96800 -3.60500 44.48100
C  -0.38000 -3.65300 44.46400
C  -0.82800 -5.13900 44.79600
C  0.45700 -5.80600 45.22400
C  1.54900 -4.73300 44.99000
C  -2.07700 -5.20000 45.81300
C  0.91400 -7.11500 44.42400
C  1.28900 -8.25600 45.43100
N  3.74100 -2.81000 44.66300
C  3.97300 -4.10200 45.08100
C  5.43200 -4.27400 45.39000
C  5.99200 -3.01700 44.98000
C  4.96500 -2.18800 44.45100
C  6.09400 -5.52700 45.96200
C  7.30100 -2.24600 44.87000
O  8.45100 -2.63500 45.13700
C  6.94200 -0.89500 44.25300
C  7.16400 0.27400 45.19600
O  6.41900 0.72400 46.01400
O  8.37600 0.81500 44.89000
C  8.64300 2.18000 45.44100
H  1.30800 2.19800 41.86600
H  -2.32400 -2.89500 44.01100
H  3.16500 -5.92100 45.77100
H  5.82000 1.77100 43.20000
H  3.69000 2.17300 41.17500
H  4.63900 3.81900 43.11500
H  3.25600 3.11300 44.02600
H  3.00900 3.98500 42.51000
H  5.20000 1.04700 40.39100
H  5.97800 -0.21400 41.25800
H  7.69800 1.77000 42.11000
H  6.99300 2.52600 40.75800
H  -0.89300 2.79700 42.39700
H  -2.54300 2.31600 42.39400
H  -1.73100 2.24600 40.81800
H  -3.68700 -2.65400 42.12900
H  -5.27800 -1.79700 42.39100
H  -4.27500 -2.12500 43.75500
H  -1.08200 -5.47700 43.79200
H  0.47600 -5.95300 46.30300
H  -1.92200 -5.95500 46.58400
H  -2.99800 -5.47400 45.29900
H  -2.19200 -4.28200 46.38800
H  1.78200 -6.89800 43.80200
H  0.21600 -7.44500 43.65400
H  0.90000 -9.22100 45.10700
H  1.09700 -8.02900 46.48000
H  2.36900 -8.40600 45.40500
H  6.77000 -5.32600 46.79300
H  6.65100 -5.84800 45.08200
H  5.41200 -6.25000 46.40900
H  7.56300 -0.77100 43.36600
H  8.07400 3.03600 45.07900
H  9.68400 2.45600 45.27000
H  8.63900 2.20100 46.53100
Mg 49.35500 46.73100 42.35900
C  46.05000 47.15000 41.14800
C  49.39000 43.59800 40.92900
C  52.60100 46.66800 42.96800
C  49.06600 50.05000 43.61400
N  47.82500 45.41400 41.14300
C  46.56600 45.89800 40.71000
C  45.89600 44.85500 39.83200
C  46.94100 43.63200 39.85000
C  48.13600 44.19000 40.72900
C  46.41800 42.31100 40.37600
C  45.47200 45.41600 38.41800
C  44.10900 45.02500 37.92800
H  43.98100 44.83300 36.45400
N  50.75700 45.31000 42.14500
C  50.56900 44.10000 41.54100
C  51.72700 43.25800 41.74800
C  52.69200 44.08900 42.33900
C  52.04800 45.41900 42.52500
C  51.70000 41.77500 41.31000
C  54.12400 43.58600 42.75400
O  54.53700 42.46000 42.60600
C  55.02500 44.50800 43.59000
N  50.59500 48.16800 43.19700
C  51.90900 47.89700 43.27900
C  52.70100 49.17100 43.67400
C  51.52900 50.14300 44.15800
C  50.30700 49.42600 43.64500
C  53.77900 48.94300 44.76900
C  51.69900 51.56900 43.65600
C  51.79600 52.70200 44.64500
N  47.93800 48.24200 42.42600
C  47.89400 49.43400 43.03200
C  46.70400 50.17400 42.85900
C  45.88300 49.25500 42.16300
C  46.75400 48.14200 41.86800
C  46.33100 51.49900 43.32700
C  44.52500 49.07900 41.64000
O  43.49700 49.77500 41.60600
C  44.60200 47.64000 40.96400
C  43.58000 46.80200 41.64000
O  43.48300 46.72700 42.83400
O  42.64000 46.21000 40.77900
C  41.37900 45.84400 41.36000
H  49.46500 42.63400 40.42100
H  53.68800 46.59200 43.03900
H  49.02600 51.11200 43.86500
H  45.06600 44.54200 40.46500
H  47.29400 43.51600 38.82500
H  45.49200 42.49500 40.92100
H  47.11400 41.74000 40.99100
H  46.21500 41.64100 39.54100
H  46.14800 44.90300 37.73400
H  45.58100 46.49900 38.35300
H  43.41300 45.80900 38.22500
H  43.92000 44.16100 38.56600
H  51.60200 41.66800 40.23000
H  50.73400 41.29800 41.47600
H  52.44200 41.09300 41.72400
H  55.44000 45.26000 42.91900
H  55.88800 44.03200 44.05600
H  54.45400 45.03500 44.35400
H  53.17600 49.56700 42.77600
H  51.38400 50.12800 45.23900
H  53.65400 49.58100 45.64400
H  54.82800 49.00700 44.48000
H  53.63000 47.96000 45.21700
H  50.95200 51.74100 42.88100
H  52.59900 51.74600 43.06800
H  51.78800 52.26300 45.64200
H  51.03200 53.47300 44.53600
H  52.75200 53.21600 44.54400
H  45.25900 51.30500 43.36100
H  46.64700 52.14800 42.51100
H  46.86800 51.82600 44.21700
H  44.17900 47.69200 39.96000
H  40.76100 45.48200 40.53900
H  40.94600 46.65600 41.94400
H  41.50100 44.95300 41.97600

