158

Mg 35.34800 3.02300 30.31300
C  32.99400 3.95600 32.56600
C  37.72700 2.92400 32.82800
C  37.82600 2.46700 28.02200
C  33.09200 3.54400 27.77600
N  35.38900 3.39400 32.40500
C  34.16900 3.62500 33.20000
C  34.47400 3.70500 34.68800
C  36.08000 3.64700 34.72900
C  36.45800 3.35300 33.22600
C  36.77900 4.92300 35.28300
C  33.77300 2.47100 35.42700
C  33.31800 2.76700 36.82600
H  33.98800 3.89200 37.59600
N  37.53000 2.56400 30.45300
C  38.23500 2.54400 31.61400
C  39.62800 2.10300 31.31900
C  39.62200 1.92600 29.84600
C  38.34300 2.30100 29.35700
C  40.66900 1.90200 32.29300
C  40.67700 1.36100 29.01700
O  40.54300 1.22200 27.82300
C  41.96300 0.97300 29.68200
N  35.46900 2.82900 28.19900
C  36.58200 2.74300 27.46800
C  36.27200 2.77200 25.98100
C  34.78300 3.00900 25.96400
C  34.33300 3.11000 27.40700
C  37.19400 3.74900 25.18300
C  33.93600 1.96100 25.22500
C  33.41900 0.64400 25.90600
N  33.44100 3.62800 30.11800
C  32.58200 3.81200 29.03000
C  31.35100 4.25800 29.42700
C  31.37800 4.28400 30.79800
C  32.72300 3.99100 31.17500
C  30.14500 4.49300 28.51200
C  30.69600 4.55600 32.01800
O  29.52300 4.80100 32.14400
C  31.70800 4.42900 33.23500
C  31.90400 5.69500 33.94900
O  32.52300 6.62900 33.49300
O  31.35100 5.65900 35.17400
C  31.74700 6.80600 36.00100
H  38.37500 2.78800 33.69600
H  38.42600 2.16900 27.16000
H  32.28300 3.73600 27.06800
H  34.07600 4.60700 35.15200
H  36.38400 2.86400 35.42300
H  36.15100 5.81200 35.34500
H  37.66000 5.06300 34.65700
H  37.07900 4.84500 36.32800
H  34.51000 1.67700 35.54800
H  33.03400 2.11100 34.71100
H  33.65600 1.89400 37.38400
H  32.23000 2.71000 36.82800
H  41.63800 2.37700 32.13900
H  40.88800 0.83500 32.34300
H  40.36300 2.21000 33.29300
H  42.68100 0.72000 28.90100
H  41.97600 0.06400 30.28300
H  42.34600 1.93300 30.02600
H  36.40600 1.77200 25.56800
H  34.58400 3.92200 25.40200
H  37.95600 3.24200 24.59200
H  37.71300 4.36400 25.91800
H  36.66900 4.33600 24.42900
H  34.36200 1.56000 24.30500
H  33.08100 2.47200 24.78000
H  32.34500 0.67700 25.72700
H  33.62000 0.52900 26.97100
H  33.63200 -0.23500 25.29700
H  29.66800 3.53800 28.29300
H  30.52400 4.96300 27.60400
H  29.55600 5.20600 29.08800
H  31.30500 3.66000 33.89300
H  31.77500 6.52100 37.05200
H  30.98500 7.58600 35.97300
H  32.73500 7.16300 35.71200
Mg 49.71700 45.54900 41.07100
C  46.57600 47.23900 40.50300
C  48.36300 42.80900 39.78200
C  52.80400 44.34100 41.11700
C  51.02100 48.82000 41.87700
N  47.61500 45.09600 40.32100
C  46.47700 45.93900 40.12100
C  45.40300 45.20000 39.44700
C  45.95800 43.73100 39.36400
C  47.43300 43.86700 39.81200
C  45.16600 42.61800 40.04000
C  45.08700 45.75600 37.99700
C  43.86500 45.12700 37.32800
H  44.01400 44.11100 36.17700
N  50.51000 43.85700 40.44500
C  49.76600 42.80600 39.97900
C  50.66300 41.69200 39.71000
C  51.93900 42.13800 40.08600
C  51.78600 43.48700 40.56200
C  50.28800 40.38900 38.99500
C  53.25200 41.34400 39.91400
O  53.22800 40.17400 39.58500
C  54.58900 42.00100 40.03600
N  51.57500 46.40700 41.48700
C  52.70000 45.62800 41.57500
C  53.96900 46.51800 41.89300
C  53.39000 47.91100 41.85800
C  51.93100 47.69100 41.83000
C  54.80800 46.09800 43.26800
C  53.95200 48.86200 40.67800
C  54.76900 50.05000 41.23000
N  48.97600 47.54300 41.35500
C  49.60700 48.73200 41.68700
C  48.76500 49.81900 41.83400
C  47.46000 49.28200 41.42100
C  47.69000 47.92100 41.15600
C  49.12900 51.16800 42.32800
C  46.07300 49.54400 41.21000
O  45.39100 50.49800 41.51500
C  45.55100 48.35400 40.35300
C  44.27600 47.96400 40.96900
O  44.12600 47.14100 41.89200
O  43.26500 48.40200 40.13100
C  41.94900 48.28500 40.78800
H  47.96100 41.86600 39.40600
H  53.84500 44.01400 41.11300
H  51.52000 49.71000 42.26600
H  44.52000 45.18900 40.08500
H  45.98500 43.30500 38.36200
H  44.12600 42.93400 39.95900
H  45.39200 42.49000 41.09900
H  45.33600 41.62500 39.62300
H  45.89800 45.53500 37.30400
H  44.80800 46.81000 37.97400
H  43.24000 45.99400 37.11200
H  43.24600 44.67100 38.10100
H  49.23600 40.10800 39.05100
H  50.80700 39.53400 39.42800
H  50.57200 40.52500 37.95200
H  54.92400 42.19900 41.05500
H  54.61300 42.87400 39.38400
H  55.24600 41.27200 39.56200
H  54.66900 46.35500 41.07400
H  53.50800 48.33700 42.85400
H  54.53600 45.11900 43.66300
H  54.56100 46.72700 44.12200
H  55.88700 46.16500 43.12600
H  53.10100 49.29500 40.15200
H  54.57900 48.28700 39.99800
H  54.43200 51.05200 40.96500
H  55.78200 50.12500 40.83300
H  54.89200 50.06600 42.31300
H  50.09600 51.47200 41.92700
H  49.14100 51.26400 43.41400
H  48.48800 51.96100 41.94400
H  45.40600 48.87000 39.40400
H  41.47900 47.45200 40.26600
H  41.36000 49.19100 40.64700
H  41.99500 47.99200 41.83700

