158

Mg 2.18400 -2.43500 43.94800
C  5.47200 -1.18200 43.24500
C  1.04400 0.08900 41.92400
C  -0.71700 -4.06600 43.97400
C  3.76700 -5.24000 45.38700
N  3.20000 -0.68600 42.59500
C  4.49600 -0.42600 42.55800
C  4.80000 0.70300 41.51800
C  3.32900 1.28800 41.21300
C  2.48300 0.27400 41.98400
C  3.02400 2.81100 41.54700
C  5.45500 0.14700 40.29200
C  6.65300 0.98100 39.69300
H  6.30700 1.77900 38.37100
N  0.33000 -1.97100 43.16100
C  0.11000 -0.89400 42.36100
C  -1.34300 -1.00000 41.98600
C  -1.89800 -2.11200 42.73500
C  -0.75200 -2.76700 43.33100
C  -2.03200 -0.04200 41.02400
C  -3.34700 -2.38000 42.84900
O  -4.18800 -1.62500 42.45200
C  -3.86400 -3.54500 43.56200
N  1.61300 -4.29200 44.61200
C  0.31000 -4.74600 44.54700
C  0.19300 -6.13500 45.03300
C  1.66400 -6.60900 45.31500
C  2.45200 -5.29200 45.08400
C  -0.77500 -6.19900 46.29100
C  2.16500 -7.70700 44.39500
C  2.63400 -8.98600 45.07000
N  4.13800 -3.02800 44.38700
C  4.59200 -4.18200 45.02800
C  6.08900 -4.06000 45.15000
C  6.42900 -2.86200 44.50600
C  5.24000 -2.29400 44.02800
C  7.03000 -5.03100 45.90100
C  7.52600 -2.05800 44.19300
O  8.71900 -2.27600 44.38800
C  6.99300 -0.94300 43.25700
C  7.32000 0.35100 43.97200
O  6.91400 0.61100 45.07500
O  8.08900 1.14200 43.16600
C  8.64400 2.34200 43.78600
H  0.65200 0.88500 41.28700
H  -1.60100 -4.70600 43.94100
H  4.20500 -6.11100 45.87900
H  5.40200 1.44800 42.03800
H  3.04800 1.27700 40.16000
H  2.83900 3.40300 40.65000
H  3.95600 3.20400 41.95200
H  2.13600 2.88400 42.17600
H  4.76000 0.39000 39.48900
H  5.56500 -0.93700 40.25400
H  7.44900 0.28200 39.43400
H  7.11100 1.60300 40.46200
H  -2.14100 0.89100 41.57800
H  -2.96900 -0.48400 40.68600
H  -1.42300 0.05100 40.12500
H  -4.95300 -3.58800 43.54500
H  -3.55000 -3.48000 44.60300
H  -3.48000 -4.48100 43.15500
H  -0.28500 -6.78100 44.29600
H  1.88700 -6.85400 46.35400
H  -1.77000 -6.38300 45.88500
H  -0.81800 -5.21200 46.75200
H  -0.40500 -7.03300 46.88700
H  3.03800 -7.43900 43.80000
H  1.37700 -8.10400 43.75400
H  2.81500 -8.79800 46.12800
H  3.57600 -9.35900 44.66700
H  1.90000 -9.78800 44.98800
H  6.87900 -6.00200 45.42900
H  6.79600 -5.08400 46.96400
H  8.09300 -4.81800 45.78900
H  7.52100 -1.02100 42.30600
H  7.87800 3.11300 43.87400
H  9.48300 2.74300 43.21800
H  8.91600 2.03100 44.79400
Mg 28.17400 56.54800 40.24200
C  25.99800 53.85200 39.55300
C  30.71600 54.57600 39.11100
C  30.10700 59.41000 39.76500
C  25.41000 58.60100 40.63200
N  28.22900 54.47900 39.23800
C  27.29100 53.53800 39.16300
C  27.81200 52.22000 38.54000
C  29.38100 52.37900 38.81300
C  29.49700 53.90700 39.04500
C  29.99500 51.54600 40.03200
C  27.39100 52.10800 37.00900
C  27.08200 53.35500 36.15000
H  27.30500 53.33400 34.70100
N  30.14900 56.94600 39.69100
C  31.02900 55.93500 39.31700
C  32.36100 56.56600 39.08000
C  32.21100 57.99300 39.29400
C  30.80600 58.19700 39.58900
C  33.54700 55.77700 38.57200
C  33.27800 59.05500 39.05600
O  34.34400 58.75400 38.58400
C  33.14600 60.44800 39.39800
N  27.86900 58.62200 40.23100
C  28.80800 59.62700 39.99800
C  28.20700 60.99300 40.13800
C  26.71900 60.73000 40.13300
C  26.62300 59.19800 40.38100
C  28.78800 61.81800 41.30400
C  25.91800 61.02000 38.78400
C  24.88000 62.16500 38.64000
N  26.09400 56.28300 40.20500
C  25.14000 57.23600 40.52400
C  23.86400 56.45700 40.77400
C  24.13600 55.13900 40.33900
C  25.51800 55.12500 40.01800
C  22.52700 56.95400 41.27300
C  23.67600 53.80000 40.13600
O  22.54500 53.35000 40.26900
C  24.82900 52.98800 39.60800
C  24.97300 51.83700 40.51900
O  24.49700 50.71300 40.44200
O  25.88200 52.11000 41.51800
C  26.19800 51.01700 42.48100
H  31.57000 53.92100 38.92400
H  30.62800 60.35500 39.60200
H  24.53000 59.23700 40.75000
H  27.44200 51.36200 39.10200
H  29.97400 52.08700 37.94700
H  29.97100 50.47100 39.85800
H  29.62000 51.79600 41.02500
H  31.06900 51.71700 39.96500
H  26.52500 51.44800 36.94900
H  28.20600 51.53600 36.56600
H  27.56000 54.21800 36.61400
H  26.01600 53.55700 36.25200
H  34.18100 56.26100 37.82900
H  33.23100 54.85800 38.07700
H  34.19700 55.56600 39.42100
H  32.83200 60.48200 40.44200
H  32.46700 60.94000 38.70100
H  34.03600 61.07100 39.31100
H  28.40300 61.56800 39.23300
H  26.24100 61.34500 40.89600
H  28.95900 62.85800 41.02200
H  29.68400 61.27400 41.60300
H  28.06800 61.58500 42.08700
H  25.34700 60.12300 38.54500
H  26.59900 61.13800 37.94100
H  24.76800 62.72300 39.56900
H  23.90500 61.77300 38.34900
H  25.35400 62.87100 37.95800
H  21.79800 56.93300 40.46200
H  22.75800 57.97400 41.58000
H  22.27100 56.28400 42.09300
H  24.71900 52.47300 38.65400
H  25.38200 50.96400 43.20200
H  27.16900 51.34400 42.85300
H  26.36600 50.02900 42.05300

