158

Mg 47.03000 26.04700 28.93900
C  48.26800 27.95300 31.67000
C  45.93000 23.71900 31.38300
C  46.55700 23.83200 26.46600
C  48.49400 28.30400 26.68000
N  47.03100 25.93000 31.24500
C  47.54800 26.84400 32.07200
C  47.18500 26.48400 33.49400
C  46.75900 25.02300 33.45000
C  46.62900 24.78000 31.91600
C  47.74600 24.00100 34.07600
C  45.97300 27.39500 34.04700
C  45.92100 27.92300 35.48500
H  46.51100 27.09900 36.63000
N  46.30100 24.15900 28.92700
C  45.80500 23.45600 29.98000
C  45.18600 22.26000 29.48900
C  45.36700 22.22200 28.07100
C  46.13000 23.47000 27.74400
C  44.56400 21.19800 30.38000
C  44.83300 21.18700 27.06900
O  45.06800 21.28900 25.86900
C  44.13800 19.89100 27.53600
N  47.67800 26.06500 26.85000
C  47.15100 25.07500 26.06900
C  47.43700 25.43500 24.57000
C  47.89100 26.91500 24.61400
C  48.01900 27.13000 26.12300
C  48.45400 24.47400 23.80000
C  47.12700 27.94800 23.76300
C  47.33700 27.74000 22.28600
N  47.91400 27.93600 29.10900
C  48.50600 28.71300 28.10200
C  49.10600 29.89700 28.67400
C  48.89300 29.68600 30.10200
C  48.27700 28.43200 30.28400
C  49.89200 30.99100 28.00200
C  49.16200 30.23500 31.44000
O  49.68600 31.31300 31.74000
C  48.75000 29.13700 32.47000
C  49.86900 28.70900 33.31800
O  50.92500 28.30300 32.94400
O  49.54100 29.03700 34.62200
C  50.58200 28.76400 35.70300
H  45.68700 22.99500 32.16300
H  46.58500 23.09700 25.65800
H  48.88800 28.93500 25.88100
H  47.99000 26.76400 34.17300
H  45.75000 24.97100 33.86000
H  48.22700 24.50000 34.91700
H  48.42300 23.66600 33.29000
H  47.18500 23.11800 34.38200
H  45.04500 26.85300 33.86500
H  45.89400 28.26500 33.39500
H  44.88700 28.02100 35.81800
H  46.50400 28.83000 35.64500
H  44.43800 21.60300 31.38400
H  45.25200 20.36200 30.51200
H  43.65400 20.81800 29.91500
H  44.57700 19.51800 28.46200
H  44.39300 19.01900 26.93300
H  43.06100 20.05600 27.51500
H  46.39800 25.35600 24.25200
H  48.91600 27.00400 24.25400
H  49.16600 23.99900 24.47400
H  48.85800 25.03200 22.95500
H  47.74000 23.68500 23.56400
H  47.51300 28.94300 23.98400
H  46.09200 27.81200 24.07800
H  46.38200 27.45700 21.84300
H  47.94800 26.86000 22.08900
H  47.71200 28.56600 21.68000
H  49.94300 30.67500 26.96000
H  50.87600 31.01800 28.46900
H  49.41700 31.95300 28.19400
H  47.96900 29.52300 33.12400
H  50.00600 28.59200 36.61200
H  51.14200 29.69800 35.75100
H  51.06500 27.87600 35.29600
Mg 1.26700 42.09100 24.52800
C  3.03300 42.12100 27.62400
C  -1.40800 40.87200 26.33900
C  -0.11700 41.46200 21.71100
C  4.49600 42.23100 22.89200
N  0.80500 41.63600 26.75600
C  1.67000 41.92000 27.81700
C  0.94900 41.77600 29.19900
C  -0.49100 41.40500 28.71500
C  -0.38000 41.25500 27.18200
C  -1.11500 40.24400 29.53900
C  1.06500 43.02700 30.03600
C  1.47300 42.79000 31.45900
H  1.18900 41.36200 32.19200
N  -0.59500 41.52400 24.06400
C  -1.52200 40.91200 24.96600
C  -2.64600 40.41000 24.19400
C  -2.37700 40.68800 22.83500
C  -1.00700 41.26100 22.80400
C  -3.91900 39.81600 24.80200
C  -3.21400 40.41800 21.59100
O  -2.78400 40.59600 20.45400
C  -4.58100 39.75300 21.64600
N  2.11100 41.82200 22.59000
C  1.19600 41.78100 21.61200
C  1.83300 41.97100 20.24000
C  3.30800 42.29200 20.60000
C  3.30900 42.10500 22.07700
C  1.64400 40.75100 19.33900
C  3.83500 43.58200 20.16000
C  3.14900 44.82700 20.69300
N  3.35500 42.29000 25.10100
C  4.52000 42.39400 24.33200
C  5.67900 42.47700 25.26600
C  5.14600 42.35700 26.51800
C  3.75000 42.29000 26.38000
C  7.08300 42.79200 24.85800
C  5.41800 42.35300 27.97000
O  6.51500 42.31000 28.50000
C  4.06400 42.23100 28.71400
C  4.32200 40.98500 29.55800
O  4.65400 39.88200 29.15300
O  4.39900 41.26300 30.87300
C  4.96500 40.28200 31.85400
H  -2.24200 40.43600 26.89300
H  -0.59200 41.31400 20.73900
H  5.40500 42.18100 22.28800
H  1.53400 41.01000 29.71000
H  -0.98500 42.37300 28.79600
H  -1.94300 40.56500 30.17100
H  -0.47400 39.83900 30.32300
H  -1.34700 39.42500 28.85900
H  0.15200 43.61600 30.11800
H  1.75700 43.70200 29.53300
H  1.12700 43.62900 32.06300
H  2.55100 42.92100 31.55200
H  -4.16300 38.82100 24.42900
H  -4.74700 40.43800 24.46200
H  -3.93700 39.69800 25.88500
H  -4.64800 38.80500 22.18000
H  -4.87200 39.51400 20.62300
H  -5.36500 40.38200 22.06700
H  1.24900 42.80300 19.84700
H  4.03100 41.57400 20.21100
H  0.71700 40.74900 18.76400
H  1.83200 39.91100 20.00800
H  2.44600 41.06300 18.67100
H  3.70000 43.58800 19.07800
H  4.88700 43.65000 20.43800
H  3.96200 45.50800 20.94400
H  2.30500 44.78100 21.38200
H  2.74000 45.30400 19.80300
H  7.18100 43.64900 24.19100
H  7.52400 41.89100 24.43300
H  7.61800 42.93200 25.79800
H  3.83800 43.10300 29.32800
H  5.04700 40.86900 32.76900
H  6.02200 40.08500 31.67300
H  4.43100 39.34300 32.00300

