158

Mg 30.51400 58.49300 39.82200
C  27.78800 56.30200 39.10400
C  32.66600 55.72800 39.11800
C  32.95100 60.61800 39.90200
C  28.16700 61.17800 39.68400
N  30.26700 56.27900 39.19500
C  29.01500 55.66000 39.12600
C  29.27100 54.30400 38.49100
C  30.76500 54.00100 38.98900
C  31.30300 55.40300 39.07400
C  30.86200 53.12600 40.21100
C  29.18700 54.31800 36.93900
C  28.39900 53.18800 36.25600
H  27.90900 53.49300 34.79500
N  32.55500 58.16800 39.57000
C  33.27500 57.03800 39.15500
C  34.61000 57.30900 39.03800
C  34.80000 58.67300 39.35500
C  33.40500 59.27500 39.64300
C  35.74900 56.34200 38.73500
C  36.09900 59.49200 39.44700
O  37.15300 58.95700 39.11600
C  36.25900 60.89300 39.79800
N  30.48600 60.61400 39.77500
C  31.67100 61.18700 40.03300
C  31.60100 62.59200 40.15400
C  30.11800 62.87200 39.93900
C  29.54400 61.47500 39.73000
C  32.28400 63.27200 41.44300
C  29.78000 63.86000 38.72200
C  29.63400 63.27900 37.25700
N  28.38700 58.76700 39.57000
C  27.59900 59.93100 39.52800
C  26.24900 59.48200 39.37700
C  26.28000 58.13000 39.06400
C  27.59300 57.69300 39.28800
C  25.01300 60.34900 39.36400
C  25.41800 57.00700 38.63500
O  24.19800 56.85000 38.42100
C  26.43700 55.76800 38.60000
C  25.96700 54.55400 39.33600
O  26.10700 54.41500 40.54900
O  25.31700 53.62900 38.53800
C  24.67700 52.41700 39.17900
H  33.30500 54.85100 38.99000
H  33.77600 61.30000 40.11700
H  27.50300 62.02900 39.84700
H  28.66000 53.49700 38.89600
H  31.16600 53.44100 38.14500
H  31.53100 52.33200 39.87900
H  29.91000 52.83500 40.65300
H  31.32800 53.72200 40.99600
H  30.20500 54.16900 36.57900
H  28.86000 55.31500 36.64400
H  27.41800 53.06000 36.71200
H  29.08900 52.34500 36.22400
H  36.15100 56.34000 37.72200
H  35.32500 55.33800 38.77000
H  36.54700 56.38400 39.47500
H  35.89400 61.14800 40.79300
H  35.58100 61.40800 39.11700
H  37.19600 61.32900 39.45200
H  32.18000 62.96300 39.30800
H  29.72100 63.29800 40.86000
H  32.85800 62.70800 42.17900
H  31.49400 63.77300 42.00200
H  32.85100 64.16100 41.16900
H  30.43500 64.72200 38.59600
H  28.83600 64.29600 39.05000
H  28.58100 63.02300 37.13200
H  30.21100 62.35900 37.17300
H  29.84000 64.01900 36.48400
H  24.46700 60.35300 40.30700
H  24.30600 59.98400 38.61900
H  25.23000 61.38800 39.11800
H  26.54600 55.49800 37.55000
H  25.27700 52.04900 40.01100
H  24.58800 51.66500 38.39500
H  23.67900 52.62600 39.56500
Mg 9.44500 47.97500 26.60400
C  7.57000 47.71900 29.51700
C  12.11600 49.28500 28.45700
C  11.20100 48.14800 23.80500
C  6.52900 47.44000 24.69700
N  9.73200 48.48500 28.76800
C  8.91300 48.16300 29.77300
C  9.47600 48.64200 31.21500
C  10.85400 49.32200 30.76500
C  10.89200 49.06600 29.20100
C  10.93800 50.84200 30.90900
C  9.64700 47.47700 32.31100
C  9.12300 47.67100 33.77900
H  9.37100 46.47100 34.80100
N  11.37000 48.57800 26.15700
C  12.33800 49.03300 27.06400
C  13.55900 49.13000 26.34000
C  13.36400 48.75100 24.98700
C  11.94500 48.48800 24.94400
C  14.83400 49.63100 27.09000
C  14.39900 48.57700 23.87300
O  14.04900 48.16100 22.74900
C  15.82600 48.71100 24.19200
N  8.90200 48.00000 24.54000
C  9.84300 47.93200 23.61600
C  9.29500 47.48400 22.24500
C  7.72400 47.41700 22.43400
C  7.68500 47.63600 23.96000
C  9.65000 48.35500 21.04300
C  7.01400 46.14900 21.82800
C  6.81600 44.90300 22.75500
N  7.44100 47.59800 26.97100
C  6.35600 47.49200 26.10500
C  5.16800 47.15500 26.90300
C  5.65200 47.24800 28.26200
C  6.97400 47.57600 28.21900
C  3.81400 46.91900 26.38500
C  5.26100 47.07100 29.62200
O  4.17700 46.86600 30.15400
C  6.48300 47.29000 30.51700
C  6.73900 45.99400 31.21900
O  7.25200 44.99500 30.78300
O  6.36000 46.15700 32.51400
C  6.22900 44.87500 33.17700
H  13.04600 49.58600 28.94400
H  11.81800 47.89600 22.93900
H  5.70000 47.12700 24.05900
H  8.92000 49.46700 31.66000
H  11.73600 48.89600 31.24300
H  11.95000 51.20500 30.72600
H  10.56500 51.08500 31.90400
H  10.12300 51.29900 30.34800
H  10.72500 47.31600 32.33400
H  9.21200 46.59900 31.83300
H  8.03400 47.63800 33.83300
H  9.42100 48.64100 34.17600
H  15.37100 48.73700 27.40800
H  14.63500 50.32300 27.90800
H  15.66000 50.07800 26.53600
H  16.30400 48.50000 23.23500
H  16.21400 47.94100 24.85800
H  16.01200 49.71400 24.57600
H  9.70200 46.48600 22.07800
H  7.20700 48.22500 21.91600
H  9.97600 49.33300 21.39700
H  8.73300 48.45700 20.46300
H  10.51200 47.92600 20.53300
H  7.56800 45.89300 20.92500
H  6.03500 46.54800 21.56200
H  7.45100 44.89000 23.64100
H  6.98600 43.90400 22.35200
H  5.75200 44.88900 22.98800
H  3.25800 47.85400 26.45600
H  3.29000 46.23000 27.04800
H  3.95200 46.65900 25.33500
H  6.24200 48.08200 31.22500
H  6.82800 44.01600 32.87400
H  5.19700 44.52700 33.12800
H  6.54700 45.12400 34.18900

