158

Mg 43.97500 6.11300 47.97200
C  41.94300 8.74200 47.41800
C  41.37400 3.93200 47.45800
C  46.26100 3.42200 47.95500
C  46.67400 8.34400 47.95000
N  41.90500 6.26300 47.56900
C  41.30800 7.50200 47.30800
C  39.79200 7.25000 46.94600
C  39.65600 5.68800 47.25800
C  41.04200 5.21500 47.52600
C  38.68800 5.39500 48.42800
C  39.36200 7.74100 45.46900
C  40.45400 7.76500 44.33100
H  39.96300 8.21300 42.86600
N  43.83100 3.98400 47.72900
C  42.63900 3.30100 47.56000
C  42.91500 1.93000 47.27800
C  44.32300 1.68800 47.43000
C  44.87700 3.07000 47.71000
C  41.83600 0.88800 47.00600
C  44.93300 0.38200 47.23400
O  44.31600 -0.66000 46.85300
C  46.30400 0.16000 47.60200
N  46.20900 5.93900 47.80100
C  46.87900 4.73200 48.02900
C  48.35200 4.94900 48.31000
C  48.47900 6.53500 48.19900
C  47.01100 6.99900 47.94000
C  48.72100 4.39800 49.70200
C  49.46000 6.93100 47.02200
C  50.76400 7.62700 47.41700
N  44.32000 8.13500 47.69700
C  45.42600 8.89900 47.72500
C  45.20700 10.29600 47.48300
C  43.75400 10.29100 47.36400
C  43.32100 8.96400 47.56600
C  46.25500 11.37800 47.44500
C  42.57700 11.12900 47.15600
O  42.46500 12.30200 47.02400
C  41.32800 10.14000 47.21600
C  40.39200 10.35900 48.32200
O  40.53500 10.06200 49.47400
O  39.26200 11.02300 47.86700
C  38.11700 11.29200 48.78700
H  40.59900 3.21800 47.17000
H  47.05800 2.67900 48.03000
H  47.54400 8.95500 48.19800
H  39.17800 7.78500 47.67000
H  39.30200 5.18000 46.36100
H  38.10600 6.29500 48.62800
H  39.14600 4.99200 49.33100
H  37.86200 4.72700 48.18300
H  38.99800 8.76800 45.50700
H  38.54200 7.09600 45.15200
H  40.91800 6.79100 44.17400
H  41.31700 8.40000 44.53200
H  41.96200 0.52600 45.98600
H  40.82400 1.27700 47.11300
H  41.91600 0.05500 47.70400
H  46.96100 0.70800 46.92500
H  46.66900 -0.85300 47.43400
H  46.49400 0.58300 48.58800
H  48.93400 4.36400 47.59700
H  48.87200 7.00400 49.10100
H  48.01700 4.48400 50.52900
H  49.63500 4.84000 50.09900
H  49.00000 3.35700 49.53700
H  48.89100 7.63200 46.41200
H  49.42800 6.12600 46.28900
H  51.43800 7.35200 46.60500
H  51.02200 7.25200 48.40700
H  50.59700 8.70400 47.46000
H  46.69100 11.53900 48.43100
H  45.78700 12.26300 47.01500
H  46.99400 11.07700 46.70200
H  40.84400 10.20000 46.24100
H  37.34500 10.72900 48.26200
H  37.85000 12.34500 48.69000
H  38.22600 11.10300 49.85500
Mg 42.56700 41.19500 26.39500
C  41.48400 43.38400 28.95500
C  43.81900 39.02100 28.87300
C  43.92600 39.31400 23.91000
C  41.50700 43.57600 24.06500
N  42.86800 41.35400 28.67300
C  42.10200 42.19400 29.42900
C  42.07000 41.78900 30.91700
C  42.89000 40.39000 30.84200
C  43.29400 40.27100 29.39700
C  44.00500 40.25000 31.88200
C  40.67400 41.61600 31.55100
C  40.38400 42.19900 32.95000
H  39.83300 41.19800 34.02400
N  43.75400 39.52900 26.36300
C  44.11700 38.76500 27.45200
C  44.81900 37.60000 26.98500
C  44.89700 37.70800 25.54800
C  44.10400 38.94600 25.17200
C  45.48600 36.56200 27.90800
C  45.60900 36.67800 24.64700
O  45.59300 36.77900 23.43400
C  46.34100 35.51500 25.16800
N  42.85700 41.50900 24.36100
C  43.31100 40.49500 23.55000
C  43.13700 40.82900 22.08000
C  42.12300 42.01400 22.11600
C  42.09100 42.35700 23.62300
C  44.40300 41.16700 21.28900
C  40.75900 41.56500 21.46800
C  39.97500 40.38800 22.07200
N  41.69500 43.11700 26.39900
C  41.35800 43.96400 25.39800
C  40.98600 45.24200 25.96900
C  40.85600 45.01900 27.36500
C  41.40800 43.72700 27.57500
C  40.56400 46.43400 25.25300
C  40.48900 45.62700 28.63100
O  40.02400 46.74500 28.88900
C  40.84300 44.57600 29.68700
C  41.61500 45.25700 30.78400
O  42.65500 45.81600 30.72000
O  40.73100 45.37200 31.84700
C  41.28400 46.08500 33.06500
H  44.21000 38.34400 29.63500
H  44.14100 38.69600 23.03600
H  41.04600 44.21400 23.30800
H  42.64800 42.56600 31.41800
H  42.20200 39.59400 31.12600
H  44.99300 40.42800 31.45600
H  43.93100 39.28800 32.38800
H  43.83300 41.08800 32.55800
H  40.29300 40.59500 31.57100
H  39.95600 42.05000 30.85600
H  39.58900 42.91700 32.75000
H  41.28900 42.70800 33.28300
H  44.81400 35.70500 27.87200
H  45.48300 36.79400 28.97300
H  46.48200 36.51500 27.46700
H  47.25300 35.86300 25.65300
H  46.64300 34.84300 24.36500
H  45.75800 34.83500 25.78900
H  42.75100 39.99500 21.49400
H  42.46700 42.93600 21.64800
H  45.31200 40.94900 21.84900
H  44.43900 42.19400 20.92500
H  44.56100 40.41800 20.51400
H  40.92100 41.41400 20.40100
H  40.11700 42.43900 21.35800
H  39.53600 39.79900 21.26700
H  39.15500 40.85300 22.61900
H  40.63200 39.79700 22.71100
H  40.52200 47.31000 25.90000
H  39.69100 46.42900 24.60100
H  41.42600 46.59500 24.60600
H  39.83900 44.32700 30.03200
H  42.09500 46.78900 32.87700
H  41.57000 45.43700 33.89300
H  40.52300 46.82600 33.31000

