158

Mg -2.26600 34.11900 25.96700
C  -4.18100 32.91600 28.77100
C  -1.18000 36.62900 28.12500
C  -1.02300 35.55600 23.29600
C  -4.03700 31.79900 23.98100
N  -2.75600 34.70900 28.24900
C  -3.32000 33.92700 29.16400
C  -2.88500 34.35700 30.56900
C  -2.14400 35.72000 30.33700
C  -1.89100 35.63700 28.81900
C  -2.73900 37.02900 30.77500
C  -1.98000 33.27300 31.25300
C  -2.50700 32.75100 32.60800
H  -2.80200 33.77900 33.65200
N  -1.15400 35.87000 25.73000
C  -0.87400 36.75000 26.68800
C  -0.13600 37.83100 26.06200
C  -0.11600 37.55300 24.68000
C  -0.73200 36.28500 24.48100
C  0.45800 38.94300 26.90700
C  0.53300 38.30500 23.56500
O  0.69600 37.86900 22.44800
C  1.10900 39.67000 23.79400
N  -2.52100 33.73200 23.96800
C  -1.78600 34.42500 23.04400
C  -2.02900 33.87300 21.60500
C  -2.76000 32.52900 21.88100
C  -3.14100 32.68600 23.34700
C  -2.82700 34.80000 20.69500
C  -1.96200 31.22800 21.57500
C  -0.43400 31.05600 21.84900
N  -3.77300 32.66100 26.24900
C  -4.34600 31.79500 25.35500
C  -5.33900 31.01500 25.99900
C  -5.18100 31.35400 27.32700
C  -4.31700 32.41000 27.45600
C  -6.35700 30.11400 25.40400
C  -5.69900 31.04700 28.67600
O  -6.56000 30.18100 29.06200
C  -4.94900 31.95800 29.62900
C  -5.93000 32.63200 30.56000
O  -6.38100 33.72600 30.45400
O  -6.11800 31.87700 31.70800
C  -7.00300 32.47800 32.67100
H  -0.79700 37.27400 28.91900
H  -0.61700 36.03000 22.40000
H  -4.62000 31.08500 23.39500
H  -3.70400 34.62600 31.23600
H  -1.14800 35.70900 30.77800
H  -2.99200 37.84300 30.09500
H  -2.10700 37.22700 31.64100
H  -3.75600 36.86600 31.13200
H  -0.94500 33.61500 31.29200
H  -2.00900 32.34000 30.69000
H  -1.62900 32.22100 32.97700
H  -3.37000 32.09500 32.49300
H  0.09700 39.92000 26.58600
H  1.54300 38.99600 26.81700
H  0.24400 38.84200 27.97100
H  1.67300 39.51700 24.71300
H  0.25800 40.35100 23.78100
H  1.77400 39.85200 22.95000
H  -1.10100 33.54400 21.13700
H  -3.73900 32.44500 21.41000
H  -3.25100 35.66600 21.20400
H  -3.71700 34.41100 20.20000
H  -2.21100 35.28400 19.93700
H  -1.89200 31.18000 20.48800
H  -2.66000 30.45000 21.88300
H  -0.16900 30.20600 22.47700
H  -0.10500 31.94700 22.38300
H  0.14700 31.00600 20.92800
H  -7.04100 30.61200 24.71700
H  -6.97600 29.85000 26.26200
H  -5.94500 29.16900 25.04900
H  -4.30700 31.41700 30.32300
H  -8.00600 32.41200 32.24900
H  -6.70800 33.50800 32.87000
H  -6.94500 31.86100 33.56800
Mg -6.01800 25.39100 25.37700
C  -4.11100 26.43800 28.29200
C  -7.66200 23.22900 27.56900
C  -7.12100 23.88900 22.77900
C  -3.79100 27.37200 23.49500
N  -5.86400 24.92700 27.70500
C  -5.15100 25.55800 28.63500
C  -5.75600 25.33000 30.05300
C  -6.72200 24.10200 29.82700
C  -6.76400 24.09400 28.28000
C  -6.27300 22.76900 30.60100
C  -6.42600 26.56900 30.66900
C  -6.07200 26.67300 32.19100
H  -7.22400 26.19500 33.06400
N  -7.35500 23.93400 25.18500
C  -8.04200 23.24700 26.14300
C  -9.05900 22.38400 25.50400
C  -8.87000 22.49700 24.14600
C  -7.76200 23.45300 24.00100
C  -10.09800 21.64500 26.30700
C  -9.49300 21.74500 22.88900
O  -9.09200 21.70700 21.75700
C  -10.63100 20.89200 23.14700
N  -5.66200 25.73400 23.37400
C  -6.14700 24.85900 22.47900
C  -5.52800 25.04500 21.04500
C  -4.62600 26.35400 21.25400
C  -4.71500 26.58500 22.77300
C  -5.07000 23.83700 20.25200
C  -5.09000 27.68800 20.56300
C  -4.44200 28.14800 19.20200
N  -4.31600 26.61400 25.77800
C  -3.58100 27.36000 24.89800
C  -2.46800 28.03300 25.55200
C  -2.70100 27.78200 26.92000
C  -3.76900 26.81900 26.99100
C  -1.46300 28.83100 24.87600
C  -2.23600 28.11800 28.28600
O  -1.37000 28.89500 28.75000
C  -3.17600 27.24500 29.16500
C  -2.36900 26.49200 30.13900
O  -2.04400 25.32200 29.92700
O  -2.00400 27.19200 31.30000
C  -1.42200 26.34200 32.35800
H  -8.22000 22.71200 28.35300
H  -7.46500 23.43000 21.85100
H  -3.06700 27.93900 22.90600
H  -4.96200 24.99800 30.72200
H  -7.72400 24.31300 30.20000
H  -7.12500 22.30700 31.10000
H  -5.35600 22.78300 31.19000
H  -6.14000 22.03900 29.80300
H  -7.48700 26.42400 30.46600
H  -5.99900 27.46000 30.20900
H  -6.02500 27.74100 32.40400
H  -5.17000 26.15400 32.51500
H  -10.36000 20.65600 25.93100
H  -10.98800 22.27400 26.33400
H  -9.83100 21.48500 27.35100
H  -11.15600 20.77700 22.19900
H  -11.35400 21.41100 23.77600
H  -10.21900 19.94500 23.49500
H  -6.36500 25.29900 20.39500
H  -3.58100 26.22500 20.97100
H  -5.94300 23.18500 20.21500
H  -4.31700 23.34200 20.86500
H  -4.68800 24.15100 19.28100
H  -4.94700 28.41100 21.36600
H  -6.15100 27.53600 20.36500
H  -3.84400 29.05100 19.32300
H  -5.15300 28.31700 18.39400
H  -3.76500 27.40900 18.77100
H  -1.14400 28.30900 23.97400
H  -0.63100 28.73200 25.57300
H  -1.77600 29.87100 24.78100
H  -3.84200 27.84100 29.78900
H  -2.18300 26.23200 33.13100
H  -0.55300 26.82400 32.80600
H  -1.11400 25.33500 32.07600

