158

Mg 1.18200 8.27200 25.71100
C  1.90000 10.29400 28.46800
C  1.57200 5.53500 27.66700
C  0.96400 6.41300 22.88500
C  1.42800 11.20500 23.74600
N  2.01000 7.96500 27.77300
C  1.93100 8.92400 28.76200
C  1.95200 8.28600 30.17400
C  2.07700 6.76600 29.83100
C  1.91500 6.75600 28.35100
C  3.38800 6.02400 30.27900
C  0.67600 8.57000 31.02400
C  1.04100 9.16200 32.39700
H  2.25400 8.82900 33.21200
N  1.10800 6.29400 25.29500
C  1.29900 5.31400 26.24600
C  1.14500 4.03300 25.66800
C  0.79700 4.26000 24.26100
C  0.91700 5.75300 24.07800
C  1.28400 2.78200 26.50000
C  0.46500 3.30500 23.15800
O  0.42300 3.54800 21.93500
C  0.25000 1.87200 23.58900
N  1.12400 8.75200 23.59500
C  0.97800 7.73700 22.62500
C  0.92000 8.35500 21.25800
C  0.83700 9.91400 21.53100
C  1.17600 9.98500 23.05600
C  2.16900 7.89500 20.42300
C  -0.50700 10.55600 21.24300
C  -0.48100 12.00300 20.66700
N  1.53300 10.34400 26.02400
C  1.62100 11.40100 25.13900
C  1.91200 12.61700 25.78300
C  1.96800 12.23200 27.14300
C  1.77200 10.82300 27.23500
C  2.01200 13.92300 25.11900
C  2.07100 12.73600 28.46300
O  2.15100 13.93900 28.73700
C  1.95200 11.53300 29.39100
C  3.13600 11.72700 30.27000
O  4.16900 11.11300 30.10900
O  2.96100 12.64300 31.27400
C  4.22100 12.75900 32.07700
H  1.51000 4.69500 28.36100
H  0.97400 5.86200 21.94200
H  1.54400 12.06200 23.08000
H  2.84800 8.71400 30.62300
H  1.24500 6.21400 30.26800
H  3.88700 6.61400 31.04800
H  4.10600 6.06200 29.46000
H  3.10600 5.00700 30.55100
H  0.16800 7.64200 31.28500
H  -0.00500 9.13100 30.38500
H  0.19900 8.97200 33.06200
H  1.02900 10.21300 32.10900
H  2.24200 2.70200 27.01400
H  1.04100 1.81200 26.06600
H  0.55500 2.98000 27.28600
H  1.23200 1.42000 23.73200
H  -0.22100 1.32400 22.77300
H  -0.44800 1.90000 24.42600
H  0.01500 8.03200 20.74300
H  1.55400 10.36800 20.84700
H  2.89100 7.35000 21.03000
H  2.51900 8.75000 19.84300
H  1.76000 7.13000 19.76300
H  -0.99500 10.72400 22.20300
H  -1.19400 9.90600 20.70100
H  -1.07300 11.98500 19.75200
H  0.52600 12.25300 20.33200
H  -0.82900 12.78400 21.34300
H  2.34300 13.80400 24.08700
H  2.68000 14.57600 25.68000
H  1.02700 14.38600 25.06700
H  1.02200 11.72200 29.92700
H  4.01700 13.51600 32.83300
H  5.14400 13.02500 31.56200
H  4.38000 11.82400 32.61500
Mg 41.41300 7.67300 29.62400
C  42.85200 8.97300 32.52900
C  38.99700 6.19200 31.69000
C  40.09000 6.11200 26.90400
C  44.16500 8.68700 27.74300
N  40.93400 7.64800 31.93300
C  41.72000 8.27800 32.88500
C  41.13500 7.96500 34.30200
C  39.93600 6.98400 33.94800
C  39.97900 6.85100 32.44200
C  39.93900 5.65500 34.72400
C  40.66800 9.24300 35.14000
C  40.80800 9.26200 36.72600
H  40.92100 10.58400 37.29400
N  39.67800 6.54600 29.29800
C  38.83900 6.00500 30.27800
C  37.77600 5.32200 29.59200
C  37.99000 5.43800 28.24800
C  39.29000 6.06200 28.08600
C  36.64100 4.53900 30.37600
C  37.05000 5.09600 27.13200
O  37.42300 4.98200 25.96700
C  35.65400 4.69200 27.44500
N  42.03000 7.44000 27.58000
C  41.26900 6.81000 26.68300
C  41.88600 6.99600 25.26200
C  43.06300 7.97700 25.44500
C  43.06700 8.06700 26.96900
C  42.25200 5.61400 24.62600
C  42.94000 9.39900 24.84900
C  41.76700 10.33300 25.28100
N  43.10800 8.68700 29.97400
C  44.18100 8.98800 29.14300
C  45.12300 9.75000 29.92600
C  44.63800 9.81900 31.21700
C  43.42800 9.07400 31.22300
C  46.44600 10.33400 29.54100
C  44.76700 10.42200 32.50500
O  45.64400 11.15800 32.88600
C  43.61900 9.83300 33.44300
C  44.32100 9.19400 34.51400
O  44.79000 8.06700 34.45000
O  44.19300 9.96000 35.62000
C  44.84200 9.66700 36.87200
H  38.20500 5.71500 32.27200
H  39.62600 5.57300 26.07500
H  44.98400 9.07200 27.13200
H  41.91900 7.47300 34.87700
H  39.04900 7.47200 34.35200
H  40.79100 5.65200 35.40400
H  40.14700 4.90600 33.96000
H  38.97600 5.45800 35.19700
H  39.64600 9.40700 34.80100
H  41.26900 10.03800 34.69800
H  41.68700 8.74100 37.10500
H  39.89900 8.75900 37.05500
H  36.91400 4.38300 31.42000
H  36.27900 3.62700 29.90200
H  35.74600 5.14000 30.53800
H  35.09300 4.63700 26.51300
H  35.15000 5.29900 28.19800
H  35.79700 3.66200 27.77100
H  41.09500 7.47200 24.68200
H  44.02200 7.56600 25.12800
H  42.22900 4.87700 25.42900
H  43.27300 5.64400 24.24400
H  41.67300 5.35700 23.73900
H  42.96900 9.32900 23.76200
H  43.85800 9.93400 25.09400
H  42.15300 11.09900 25.95400
H  41.01500 9.68200 25.72900
H  41.31600 10.77200 24.39100
H  47.03100 9.42100 29.43700
H  46.86000 11.03200 30.27000
H  46.35400 10.77800 28.55000
H  43.02600 10.68400 33.77700
H  45.12200 8.62100 36.75000
H  44.13600 9.61600 37.70100
H  45.70200 10.26200 37.17800

