158

Mg 23.90000 -6.34600 46.54100
C  26.02300 -3.99300 45.13700
C  21.41900 -5.37000 44.42500
C  21.87400 -9.21400 47.18500
C  26.58200 -7.76600 48.12700
N  23.76700 -4.88600 44.94200
C  24.75600 -4.00800 44.56100
C  24.22500 -3.07400 43.55700
C  22.68000 -3.22700 43.67400
C  22.61700 -4.59000 44.36200
C  21.87400 -2.09400 44.40600
C  24.87900 -3.33400 42.17100
C  25.48400 -2.16000 41.42400
H  24.51000 -1.64200 40.34300
N  21.88800 -7.15500 45.98500
C  21.08200 -6.53600 45.07100
C  19.89700 -7.27600 44.77400
C  19.94300 -8.41100 45.66500
C  21.24500 -8.30300 46.31100
C  18.81900 -7.02000 43.64200
C  18.84600 -9.41200 45.77200
O  17.88400 -9.50600 45.01100
C  18.86500 -10.38500 46.95700
N  24.12800 -8.13800 47.63000
C  23.20400 -9.20100 47.79000
C  23.80100 -10.39100 48.57200
C  25.33800 -9.98200 48.72000
C  25.35700 -8.54500 48.13700
C  23.02400 -10.70500 49.89600
C  26.33800 -10.88500 48.10200
C  26.17600 -12.42700 48.38800
N  25.97900 -6.01500 46.67400
C  26.88400 -6.64600 47.43300
C  28.12000 -5.85100 47.33500
C  27.82600 -4.80300 46.51000
C  26.49500 -4.95300 46.07500
C  29.44100 -6.28300 48.05300
C  28.33200 -3.56900 45.98600
O  29.38300 -2.94300 46.28900
C  27.14400 -2.96600 45.00700
C  26.76500 -1.62100 45.43900
O  25.90600 -1.26500 46.23000
O  27.46100 -0.68800 44.71600
C  27.25800 0.72600 45.11000
H  20.55800 -4.88700 43.95800
H  21.40200 -10.19400 47.27400
H  27.42000 -8.22000 48.66100
H  24.50900 -2.08000 43.90300
H  22.24200 -3.17000 42.67700
H  22.49400 -1.67100 45.19600
H  20.92100 -2.43700 44.81000
H  21.68500 -1.29400 43.69100
H  24.27900 -3.86600 41.43300
H  25.62400 -4.11100 42.34200
H  26.43100 -2.35100 40.92000
H  25.62600 -1.32900 42.11500
H  19.27200 -6.42400 42.85100
H  18.02700 -6.39500 44.05500
H  18.35800 -7.89800 43.18900
H  17.82700 -10.59100 47.22100
H  19.30800 -9.87800 47.81400
H  19.40500 -11.26500 46.60700
H  23.73900 -11.30100 47.97500
H  25.53000 -9.89300 49.78900
H  21.98900 -10.78800 49.56400
H  23.30600 -9.97500 50.65400
H  23.22200 -11.66300 50.37600
H  27.33400 -10.60900 48.44700
H  26.36800 -10.66600 47.03400
H  26.17700 -13.02200 47.47500
H  25.23900 -12.66400 48.89200
H  26.97800 -12.82500 49.01100
H  29.25400 -6.03100 49.09700
H  30.34900 -5.78100 47.72000
H  29.55800 -7.36500 48.10600
H  27.63600 -2.90800 44.03600
H  27.52600 0.91900 46.14800
H  26.21800 1.04300 45.03300
H  27.78900 1.37500 44.41300
Mg 25.46600 1.08400 29.30600
C  27.48700 0.66700 32.08500
C  22.64200 1.14400 31.34800
C  23.55800 0.88700 26.44300
C  28.23700 0.49400 27.23600
N  25.16000 0.83400 31.44300
C  26.10800 0.80800 32.41700
C  25.50000 0.85800 33.82600
C  23.94600 1.05100 33.54500
C  23.86500 1.00000 32.03800
C  22.98100 -0.00100 34.21200
C  26.07600 2.10200 34.75500
C  25.92000 1.83300 36.26200
H  25.46200 2.99700 37.15500
N  23.35800 1.05500 28.99300
C  22.39000 1.23300 29.96400
C  21.13300 1.44800 29.27900
C  21.39900 1.24500 27.83600
C  22.83500 1.01700 27.71900
C  19.92800 1.78600 30.06900
C  20.36400 1.20500 26.69300
O  20.67300 0.89400 25.51900
C  18.92600 1.54500 27.09800
N  25.84200 0.66300 27.03100
C  24.86800 0.74500 26.14800
C  25.52600 0.60000 24.75300
C  27.05600 0.67200 24.94900
C  27.07400 0.63400 26.45400
C  25.00000 -0.65900 24.03300
C  27.76200 1.85700 24.28500
C  28.18000 1.61700 22.86500
N  27.40600 0.70400 29.55800
C  28.46100 0.52200 28.60400
C  29.75700 0.32100 29.32200
C  29.44600 0.41300 30.70400
C  28.05500 0.65000 30.77500
C  31.09500 0.00100 28.66000
C  29.94100 0.40400 32.08500
O  31.08600 0.38100 32.48700
C  28.66300 0.45100 33.02000
C  28.54400 -0.65200 33.92000
O  28.13900 -1.79900 33.64500
O  28.79700 -0.31800 35.18600
C  28.26800 -1.25900 36.22000
H  21.76200 1.38300 31.94800
H  22.98400 1.00700 25.52100
H  29.16000 0.29100 26.68800
H  25.73500 -0.11500 34.25900
H  23.66900 2.04800 33.88700
H  23.01000 -0.03400 35.30100
H  23.01000 -1.00600 33.78900
H  21.99500 0.40700 33.99100
H  25.51500 3.02700 34.62200
H  27.10500 2.28000 34.44200
H  26.91800 1.65500 36.66200
H  25.31400 0.95800 36.50100
H  20.22100 2.37300 30.93900
H  19.55400 0.87100 30.52800
H  19.22400 2.39800 29.50500
H  18.34500 1.29700 26.20900
H  18.81600 2.59000 27.39100
H  18.57900 0.87400 27.88300
H  25.25800 1.37700 24.03700
H  27.54200 -0.27300 24.70200
H  25.77400 -1.42600 23.99100
H  24.65800 -0.40900 23.02900
H  24.22700 -1.10700 24.65800
H  28.62300 2.11200 24.90200
H  27.27100 2.81600 24.44600
H  27.79700 2.40900 22.22200
H  27.73600 0.72300 22.42700
H  29.27000 1.64400 22.89200
H  31.67700 0.88600 28.40500
H  30.90600 -0.56200 27.74600
H  31.66600 -0.67000 29.30200
H  28.98800 1.28400 33.64300
H  29.05200 -1.28200 36.97600
H  28.04600 -2.25300 35.83200
H  27.38400 -0.79900 36.66300

