158

Mg 25.85500 -0.66800 29.15100
C  27.88700 -0.69100 32.00800
C  23.19700 -0.38400 31.36600
C  23.95300 -0.07000 26.59900
C  28.58600 -1.40500 27.27000
N  25.63500 -0.56600 31.45800
C  26.61900 -0.52500 32.36200
C  26.09500 -0.18500 33.72000
C  24.57700 -0.47400 33.55300
C  24.44700 -0.42300 32.03100
C  24.03800 -1.78400 34.19000
C  26.51600 1.25400 34.17000
C  26.95900 1.37000 35.68800
H  26.19600 2.45400 36.53800
N  23.84200 -0.40200 29.00100
C  22.94500 -0.26400 29.98200
C  21.65900 -0.07500 29.36700
C  21.83000 -0.06400 27.97000
C  23.28000 -0.19200 27.78300
C  20.41200 0.18900 30.21800
C  20.77000 -0.02600 26.75200
O  21.12700 0.03900 25.55100
C  19.25500 0.04700 27.09600
N  26.16300 -1.03300 27.17800
C  25.27700 -0.46800 26.33300
C  25.83200 -0.53400 24.82500
C  27.33600 -0.64300 25.12700
C  27.36200 -1.18000 26.59700
C  25.24200 -1.62700 23.94600
C  28.12900 0.78200 25.02900
C  29.51600 0.80400 24.33200
N  27.86800 -1.14000 29.51400
C  28.86400 -1.35900 28.66400
C  30.07800 -1.44600 29.30400
C  29.78900 -1.20200 30.66400
C  28.41300 -1.01500 30.73800
C  31.39800 -1.66300 28.59900
C  30.36600 -1.02900 31.89900
O  31.53100 -1.10200 32.23400
C  29.12700 -0.63700 32.87300
C  29.22900 -1.59400 34.03100
O  28.68500 -2.66700 34.05500
O  29.87900 -0.97200 35.01400
C  29.68700 -1.56600 36.31900
H  22.36800 -0.33700 32.07600
H  23.52000 0.16800 25.62500
H  29.49400 -1.53300 26.67700
H  26.48400 -0.85500 34.48700
H  24.04900 0.41200 33.90600
H  24.71600 -2.23800 34.91300
H  23.79300 -2.42400 33.34200
H  23.05300 -1.58400 34.61100
H  25.65300 1.88500 33.95300
H  27.31900 1.71400 33.59400
H  28.01200 1.64800 35.73600
H  26.76300 0.45900 36.25500
H  20.65900 0.47000 31.24100
H  19.90000 -0.77200 30.26200
H  19.73300 0.97800 29.89300
H  18.68500 0.29500 26.20100
H  19.26200 0.84200 27.84200
H  18.94100 -0.92400 27.47900
H  25.66100 0.43100 24.34800
H  27.92500 -1.34300 24.53500
H  24.20500 -1.77100 24.24900
H  25.70200 -2.60800 24.07100
H  25.08100 -1.20100 22.95600
H  28.35300 1.08500 26.05200
H  27.49900 1.61900 24.72700
H  29.73900 1.72900 23.80100
H  29.53700 0.02000 23.57400
H  30.30800 0.58700 25.04700
H  32.03700 -0.85500 28.95600
H  31.42300 -1.51500 27.51900
H  31.92300 -2.58900 28.83600
H  29.27600 0.35500 33.30000
H  29.47900 -2.63100 36.21700
H  28.72700 -1.12300 36.58300
H  30.54000 -1.49100 36.99400
Mg -9.65300 40.78300 41.46500
C  -8.62100 37.40400 40.96700
C  -6.80500 41.74900 39.83500
C  -10.73800 43.98300 41.62800
C  -12.55600 39.58600 42.74400
N  -7.95400 39.66700 40.49900
C  -7.76800 38.27300 40.40800
C  -6.42300 37.97700 39.72000
C  -5.70800 39.37800 39.72400
C  -6.88300 40.35400 40.01800
C  -4.54200 39.54300 40.65800
C  -6.74200 37.48800 38.26700
C  -5.92300 36.18500 37.84900
H  -4.95900 36.42000 36.75700
N  -8.96800 42.63200 40.67100
C  -7.64000 42.85100 40.21600
C  -7.34800 44.25000 40.10600
C  -8.58400 44.91700 40.57900
C  -9.51400 43.82500 40.96100
C  -5.98100 44.78800 39.70500
C  -8.68300 46.40200 40.57100
O  -7.77900 47.18200 40.24700
C  -9.94100 47.06200 41.12100
N  -11.50300 41.57600 41.92900
C  -11.67500 43.00200 42.03500
C  -13.09000 43.33000 42.53300
C  -13.71700 41.91900 42.65300
C  -12.52100 40.95300 42.48800
C  -13.12100 44.22900 43.75500
C  -14.95800 41.57500 41.70700
C  -16.19600 41.05400 42.37600
N  -10.41400 38.88200 41.91000
C  -11.62400 38.53400 42.45500
C  -11.68300 37.18900 42.76300
C  -10.49800 36.68300 42.20000
C  -9.80300 37.74200 41.65900
C  -12.82500 36.51500 43.43600
C  -9.69500 35.45400 42.06400
O  -9.82300 34.23900 42.45300
C  -8.50700 35.89800 41.09500
C  -7.20600 35.53400 41.76600
O  -6.92600 35.70300 42.92200
O  -6.45600 34.80400 40.83800
C  -5.26300 34.24100 41.47400
H  -5.83600 42.02500 39.41300
H  -11.03500 45.00600 41.87100
H  -13.56000 39.32000 43.08100
H  -5.73900 37.39400 40.33700
H  -5.37500 39.63400 38.71900
H  -3.68900 39.12300 40.12400
H  -4.72400 38.77200 41.40700
H  -4.39300 40.56000 41.02000
H  -6.59000 38.25300 37.50600
H  -7.75000 37.07500 38.25200
H  -6.63400 35.40300 37.58300
H  -5.33700 35.78600 38.67600
H  -5.54500 45.30200 40.56200
H  -6.14100 45.50000 38.89500
H  -5.38200 43.92900 39.40300
H  -9.99100 46.95500 42.20500
H  -10.90400 46.69900 40.76400
H  -9.83500 48.13600 40.96900
H  -13.50700 43.78000 41.63200
H  -14.01100 41.77700 43.69300
H  -13.60900 45.16400 43.47900
H  -12.12800 44.35500 44.18500
H  -13.74100 43.73100 44.50000
H  -14.73000 40.97600 40.82500
H  -15.31100 42.56400 41.41500
H  -15.85200 40.46400 43.22600
H  -16.81400 40.53500 41.64400
H  -16.85600 41.79100 42.83200
H  -12.47300 35.61200 43.93400
H  -13.54000 36.36400 42.62700
H  -13.28500 37.15500 44.18900
H  -8.61000 35.43700 40.11300
H  -4.70100 33.71800 40.70000
H  -5.41500 33.61000 42.35000
H  -4.62100 35.03000 41.86500

