158

Mg 6.32300 57.03800 41.26000
C  5.17400 53.84600 41.35700
C  9.50500 55.81000 40.35400
C  7.49400 60.25100 40.72700
C  3.12300 58.18800 42.10700
N  7.14700 55.11700 40.59300
C  6.40000 53.92200 40.74100
C  7.29900 52.72500 40.35500
C  8.72900 53.42200 40.33600
C  8.51000 54.87500 40.54700
C  9.80400 52.58500 41.18000
C  7.03600 52.23900 38.85600
C  7.55400 50.90400 38.39400
H  7.00200 50.34500 37.09200
N  8.25900 57.89200 40.51300
C  9.41100 57.22900 40.20600
C  10.42800 58.17600 39.81000
C  9.87300 59.47700 40.11800
C  8.46300 59.30900 40.41800
C  11.86600 57.77500 39.45100
C  10.68200 60.69500 40.08000
O  11.87300 60.59300 39.76700
C  10.18800 62.02600 40.33600
N  5.47400 58.85000 41.32400
C  6.19000 60.12100 41.19500
C  5.27400 61.34500 41.55500
C  3.91400 60.62800 41.86800
C  4.19500 59.08900 41.79700
C  5.85300 62.24700 42.59700
C  2.67000 61.07500 40.93100
C  1.37800 61.43700 41.66900
N  4.46600 56.22100 41.83200
C  3.23600 56.81600 42.03300
C  2.27900 55.74300 42.27100
C  2.97700 54.55200 42.13000
C  4.28100 54.90800 41.73000
C  0.77300 55.91600 42.57100
C  2.89200 53.13800 42.07400
O  1.86900 52.44300 42.19500
C  4.37600 52.63900 41.66700
C  4.09900 51.65900 40.55500
O  3.21300 51.64300 39.75900
O  5.03000 50.62100 40.69200
C  4.81900 49.39100 39.86700
H  10.53200 55.44200 40.41600
H  7.75100 61.31200 40.70700
H  2.22000 58.77400 42.29200
H  7.22300 51.80600 40.93800
H  9.12300 53.49500 39.32200
H  10.59700 52.24900 40.51200
H  9.32200 51.68500 41.56400
H  10.28000 53.09600 42.01700
H  7.35000 53.04300 38.19000
H  5.95000 52.25100 38.76500
H  7.51100 50.19700 39.22300
H  8.58900 50.97600 38.05900
H  11.88100 56.70300 39.25100
H  12.47900 57.99300 40.32600
H  12.15300 58.37000 38.58400
H  9.74200 62.12500 41.32600
H  9.46900 62.32800 39.57500
H  11.07600 62.65500 40.39900
H  5.26400 61.76600 40.55000
H  3.64600 60.90500 42.88800
H  6.84900 61.85300 42.79800
H  5.27900 62.27000 43.52300
H  5.99900 63.23900 42.17000
H  2.39100 60.49000 40.05500
H  2.95400 62.00500 40.43800
H  0.50500 61.07000 41.12900
H  1.40600 62.49100 41.94300
H  1.35800 60.87700 42.60400
H  0.83500 56.24400 43.60900
H  0.33200 54.91900 42.56800
H  0.19400 56.61200 41.96400
H  4.83100 52.07000 42.47800
H  4.02500 48.86900 40.40100
H  5.72100 48.78300 39.79800
H  4.60000 49.57400 38.81500
Mg -10.07100 40.65500 42.97700
C  -8.64100 37.59300 42.13200
C  -7.44000 42.21700 41.30900
C  -11.75500 43.55700 43.23400
C  -12.78600 38.95600 44.39900
N  -8.33700 39.99800 41.67300
C  -7.97200 38.64600 41.44800
C  -6.66400 38.58700 40.67300
C  -6.19700 40.09500 40.68500
C  -7.44300 40.81500 41.13800
C  -4.98200 40.40900 41.49600
C  -7.00400 38.10500 39.24100
C  -6.39800 36.79900 38.66600
H  -5.23300 37.10600 37.59100
N  -9.61300 42.59100 42.46400
C  -8.47900 43.04200 41.82900
C  -8.53500 44.44400 41.56100
C  -9.81900 44.87600 42.16200
C  -10.48800 43.66800 42.67200
C  -7.53200 45.26300 40.70200
C  -10.29000 46.33900 41.97000
O  -9.50500 47.20700 41.60700
C  -11.75000 46.68900 42.28400
N  -12.05300 41.20200 43.48500
C  -12.52400 42.43400 43.59500
C  -13.88300 42.50200 44.24600
C  -14.18300 41.02000 44.52700
C  -12.92000 40.32300 44.14900
C  -13.86800 43.29700 45.52700
C  -15.33400 40.40700 43.80400
C  -16.60800 40.18200 44.67300
N  -10.60100 38.66100 43.34200
C  -11.66300 38.16500 44.00400
C  -11.54500 36.72000 44.04500
C  -10.32400 36.43300 43.35800
C  -9.82400 37.66100 42.88300
C  -12.40700 35.73700 44.77500
C  -9.37400 35.44800 42.86400
O  -9.32200 34.22800 42.89500
C  -8.27000 36.16600 42.07800
C  -6.92600 35.89100 42.72200
O  -6.46100 36.44600 43.63900
O  -6.27700 34.92600 41.92700
C  -4.86500 34.82700 41.93400
H  -6.46900 42.63700 41.03800
H  -12.39500 44.43900 43.30600
H  -13.61000 38.45500 44.91200
H  -6.02200 37.87600 41.19300
H  -6.06100 40.44800 39.66300
H  -4.40400 41.17700 40.98300
H  -4.30000 39.55900 41.53000
H  -5.29600 40.73000 42.48900
H  -6.72200 38.86500 38.51100
H  -8.08300 37.96000 39.18600
H  -7.20300 36.23300 38.19700
H  -5.96200 36.20600 39.47000
H  -6.77400 44.68600 40.17200
H  -7.04000 45.96500 41.37500
H  -8.14100 45.61700 39.87000
H  -11.84800 46.86000 43.35600
H  -12.36500 45.85200 41.95500
H  -12.01400 47.45400 41.55400
H  -14.54100 43.08900 43.60500
H  -14.18800 40.82000 45.59900
H  -14.76800 42.94000 46.02800
H  -13.97700 44.38100 45.48000
H  -12.94300 43.18800 46.09300
H  -15.07400 39.45700 43.33600
H  -15.54600 40.94800 42.88300
H  -16.59000 40.91000 45.48500
H  -16.51900 39.16500 45.05500
H  -17.54300 40.28800 44.12300
H  -13.39200 35.66300 44.31400
H  -12.54200 35.97100 45.83100
H  -11.91500 34.76500 44.73600
H  -8.27200 35.75000 41.07100
H  -4.57100 34.14300 41.13800
H  -4.43900 34.30500 42.79000
H  -4.35900 35.78600 41.82500

