158

Mg 50.15800 46.45200 41.35100
C  47.33500 47.65000 40.01500
C  49.47700 43.27400 39.89100
C  53.41600 45.22800 42.04800
C  51.25200 49.66900 42.09100
N  48.70600 45.65400 40.17200
C  47.50700 46.24500 39.80400
C  46.50400 45.40500 39.11800
C  47.11200 43.98500 39.34600
C  48.51500 44.33300 39.81300
C  46.36200 42.96400 40.31600
C  46.17300 45.79400 37.66400
C  44.81700 45.20800 37.10300
H  44.90800 44.23700 35.92500
N  51.24500 44.55300 41.09100
C  50.81200 43.40400 40.41400
C  51.82300 42.36200 40.52900
C  52.93500 42.91800 41.25700
C  52.54800 44.30000 41.55400
C  51.62400 40.90700 40.10800
C  54.15500 42.16600 41.69900
O  54.31800 41.02900 41.29800
C  55.18000 42.67700 42.66100
N  52.19000 47.34700 41.82600
C  53.22700 46.65100 42.22400
C  54.25800 47.59900 42.73900
C  53.62600 48.98600 42.96100
C  52.26700 48.71200 42.16500
C  55.18400 47.13800 43.93000
C  54.39900 50.28200 42.56600
C  54.48900 51.39500 43.59300
N  49.41100 48.24400 41.24900
C  49.96300 49.51400 41.56000
C  48.98200 50.57200 41.33500
C  47.91400 49.81200 40.74800
C  48.27400 48.42600 40.62900
C  48.95500 52.05200 41.44600
C  46.53500 49.94200 40.40500
O  45.79200 50.91500 40.63100
C  46.19000 48.59300 39.76500
C  44.86700 48.14700 40.26300
O  44.64700 47.57100 41.31600
O  43.83400 48.36900 39.33100
C  42.55600 47.76600 39.64600
H  49.25300 42.26300 39.54400
H  54.44800 44.92800 42.24200
H  51.42600 50.71100 42.36700
H  45.59800 45.31400 39.71700
H  47.30000 43.53200 38.37300
H  46.93400 42.51900 41.13000
H  46.03900 42.13400 39.68700
H  45.46400 43.45200 40.69200
H  46.92000 45.36100 36.99900
H  46.24100 46.85500 37.42500
H  44.18100 46.02400 36.75900
H  44.40200 44.71500 37.98200
H  51.54300 40.31800 41.02200
H  52.46200 40.57400 39.49600
H  50.65700 40.64200 39.67900
H  54.73200 43.05200 43.58100
H  55.82500 43.41000 42.17600
H  55.82600 41.83800 42.91800
H  55.03400 47.83700 42.01200
H  53.38000 49.07400 44.01900
H  56.26600 47.21100 43.81800
H  54.99000 46.08400 44.12600
H  55.01400 47.62800 44.88900
H  53.87500 50.60000 41.66500
H  55.38500 49.95900 42.23200
H  54.09000 52.30700 43.14900
H  55.55400 51.41200 43.82400
H  53.80700 51.23000 44.42700
H  48.64300 52.56600 40.53700
H  50.01200 52.23700 41.64100
H  48.33500 52.41000 42.26800
H  46.09900 48.84300 38.70800
H  42.60300 46.73300 39.99100
H  41.88200 47.74000 38.79000
H  41.99500 48.35400 40.37300
Mg 4.94100 53.76500 40.75700
C  4.67500 50.30200 40.68400
C  7.87800 53.39700 39.06200
C  4.85200 57.09600 40.34800
C  1.75100 53.87600 42.19800
N  6.00700 52.02300 39.76400
C  5.76000 50.75100 39.95900
C  6.80800 49.87500 39.23200
C  8.00800 50.89000 39.19600
C  7.24400 52.19800 39.30000
C  8.93200 50.67100 40.41200
C  6.43200 49.22300 37.79400
C  5.20200 49.77300 37.05500
H  5.39800 50.36800 35.62800
N  6.20800 55.04000 39.80500
C  7.41000 54.74800 39.28200
C  8.13300 55.94000 38.87100
C  7.29000 57.03700 39.22800
C  6.05700 56.41100 39.82600
C  9.51500 55.84400 38.23900
C  7.67300 58.41900 39.05000
O  8.81000 58.67600 38.62000
C  6.78200 59.60600 39.31400
N  3.37100 55.31700 40.96000
C  3.68400 56.60700 40.89200
C  2.55000 57.50100 41.47200
C  1.52200 56.46500 42.01800
C  2.25100 55.15200 41.72400
C  3.02300 58.43700 42.59100
C  0.07600 56.58600 41.48100
C  -0.99000 56.90900 42.53600
N  3.56200 52.42700 41.48200
C  2.25500 52.59300 42.00100
C  1.66200 51.33500 42.31200
C  2.65700 50.40200 41.85300
C  3.69700 51.12500 41.26100
C  0.36400 51.05500 43.03000
C  2.86100 48.93900 41.73100
O  2.24600 47.92700 42.05300
C  4.19000 48.84600 40.97300
C  3.96400 48.00700 39.81000
O  3.16900 48.29500 38.94400
O  4.62900 46.73800 39.85700
C  4.24600 45.59900 38.99400
H  8.94300 53.35400 38.82400
H  4.82900 58.18800 40.35200
H  0.75100 53.93300 42.63300
H  7.13600 49.00400 39.79800
H  8.56200 50.65800 38.28700
H  8.65200 51.34000 41.22500
H  9.87200 50.82100 39.88000
H  8.94500 49.63300 40.74400
H  6.36400 48.14200 37.91800
H  7.32700 49.38000 37.19200
H  4.77300 50.58000 37.64900
H  4.50000 48.95400 36.90300
H  9.84900 56.73700 37.71000
H  9.42900 55.15500 37.39900
H  10.24000 55.65000 39.03000
H  7.12000 60.58700 38.97900
H  6.64100 59.63800 40.39500
H  5.84400 59.26500 38.87500
H  2.18800 58.14000 40.66700
H  1.41500 56.56200 43.09800
H  2.20600 58.59200 43.29600
H  3.34600 59.40700 42.21400
H  3.79700 57.95800 43.19200
H  -0.29100 55.75400 40.87900
H  0.04400 57.39900 40.75600
H  -0.76600 56.89100 43.60200
H  -1.79300 56.20900 42.30400
H  -1.39400 57.90600 42.35800
H  -0.18400 51.97800 43.22000
H  0.58800 50.45500 43.91200
H  -0.18300 50.38000 42.37200
H  4.92900 48.35000 41.60200
H  4.54500 44.70100 39.53600
H  4.93500 45.68900 38.15500
H  3.16500 45.49100 38.90600

