158

Mg 44.57400 5.23000 48.46600
C  42.86900 8.14500 47.44100
C  41.69600 3.48800 47.79500
C  46.34300 2.35400 48.75000
C  47.47100 7.10300 48.91100
N  42.55500 5.74700 47.74600
C  42.10800 6.98600 47.37500
C  40.66200 6.98400 46.94300
C  40.23100 5.50100 47.22100
C  41.51600 4.85800 47.64100
C  39.04100 5.37200 48.22700
C  40.48900 7.34600 45.40000
C  39.34300 8.29700 45.18700
H  38.26200 7.99900 44.03800
N  44.11600 3.14700 48.25500
C  42.83900 2.67600 48.05800
C  42.91300 1.27800 48.04800
C  44.24000 0.84600 48.18700
C  44.98000 2.12500 48.34000
C  41.76700 0.43500 47.80800
C  44.70600 -0.57300 48.26400
O  43.91800 -1.48500 48.19200
C  46.10100 -0.82500 48.34900
N  46.62400 4.78200 48.71700
C  47.12500 3.52200 48.90700
C  48.70900 3.44400 49.12200
C  49.02200 4.97500 49.04300
C  47.59400 5.70300 48.93100
C  49.08300 2.80500 50.49400
C  50.05200 5.38200 47.88800
C  51.37500 6.04300 48.26000
N  45.10300 7.24700 48.33900
C  46.28500 7.87500 48.52400
C  46.13500 9.28200 48.34700
C  44.81600 9.36100 47.96800
C  44.21200 8.16000 47.93300
C  47.26100 10.25500 48.55500
C  43.81000 10.25500 47.40500
O  43.97200 11.43400 47.17400
C  42.52100 9.55800 47.09200
C  41.46700 10.15600 47.94700
O  41.16700 9.66900 49.05400
O  40.75900 11.11800 47.23300
C  39.43300 11.42700 47.79900
H  40.77900 3.00300 47.45600
H  47.08100 1.54900 48.78100
H  48.34600 7.75700 48.90200
H  40.02500 7.63500 47.54000
H  39.93200 4.99800 46.30100
H  39.35000 4.82500 49.11800
H  38.36800 4.79600 47.59200
H  38.64100 6.33200 48.55300
H  40.40200 6.41000 44.84800
H  41.40100 7.86400 45.10200
H  39.77400 9.29100 45.06400
H  38.80100 8.19800 46.12800
H  42.15400 -0.42000 47.25300
H  40.95100 0.92100 47.27300
H  41.40900 0.14700 48.79600
H  46.27100 -1.88700 48.52400
H  46.47400 -0.32100 49.24100
H  46.47200 -0.41300 47.41100
H  49.08400 2.87400 48.27200
H  49.52500 5.23900 49.97300
H  49.23600 1.74000 50.32100
H  48.33300 3.00800 51.25900
H  49.99600 3.22600 50.91600
H  49.57000 6.10600 47.23000
H  50.14700 4.43800 47.35200
H  52.23100 5.48600 47.88100
H  51.43600 6.14400 49.34400
H  51.38300 7.02200 47.78100
H  47.85300 9.93200 49.41100
H  46.83200 11.23900 48.74000
H  47.91500 10.27000 47.68300
H  42.34200 9.72700 46.03000
H  38.89400 10.48500 47.89300
H  38.79200 11.97000 47.10500
H  39.53300 11.93400 48.75900
Mg 30.32100 58.21000 40.02100
C  27.54900 56.08900 39.28800
C  32.37300 55.62900 38.93500
C  32.68900 60.33500 40.15800
C  27.87000 60.74600 40.50000
N  30.02300 56.18400 39.03100
C  28.79400 55.52400 38.87200
C  29.05500 54.07500 38.47700
C  30.57100 53.88200 38.56600
C  31.01300 55.32000 38.89400
C  31.08000 52.83500 39.68000
C  28.44300 53.53100 37.08400
C  28.05200 54.55700 36.02200
H  28.30700 54.21100 34.56300
N  32.37700 57.96300 39.82200
C  33.03300 56.84500 39.37000
C  34.46600 57.07000 39.30000
C  34.67000 58.51600 39.55700
C  33.27100 59.00600 39.86100
C  35.43400 56.00200 38.66900
C  35.97700 59.27300 39.54900
O  37.02500 58.63300 39.35200
C  36.09700 60.68800 39.87300
N  30.27100 60.31000 40.18700
C  31.46100 60.96500 40.32500
C  31.30100 62.44500 40.69000
C  29.74400 62.52700 41.12900
C  29.25400 61.11600 40.55500
C  32.24300 63.00400 41.76300
C  29.10700 63.79400 40.59000
C  28.50300 64.70300 41.73700
N  28.12500 58.42100 40.03200
C  27.31800 59.46200 40.21500
C  25.88200 59.06100 40.15800
C  25.94200 57.74000 39.73500
C  27.31400 57.39800 39.66400
C  24.68500 60.00900 40.30300
C  25.17700 56.53200 39.45300
O  23.92900 56.38900 39.46700
C  26.17400 55.43800 39.08200
C  25.95900 54.33200 40.05000
O  26.17600 54.45700 41.25400
O  25.53400 53.19900 39.36400
C  25.09000 52.13900 40.26500
H  33.03900 54.80200 38.68100
H  33.45900 61.10300 40.25400
H  27.12700 61.52200 40.69400
H  28.47000 53.50700 39.20100
H  30.97300 53.59000 37.59500
H  30.23300 52.38800 40.20000
H  31.68900 53.22700 40.49400
H  31.74300 52.06500 39.28600
H  27.44800 53.14800 37.30900
H  28.94400 52.63900 36.70700
H  28.58400 55.48600 36.22500
H  26.99700 54.82900 36.00100
H  35.36400 56.25600 37.61100
H  34.96800 55.03000 38.83000
H  36.45400 56.07700 39.04800
H  37.07600 61.15400 39.75600
H  35.85700 60.72800 40.93600
H  35.39300 61.34600 39.36300
H  31.46000 63.09500 39.82900
H  29.67900 62.40200 42.21000
H  32.56100 62.18700 42.41000
H  31.80700 63.81400 42.34700
H  33.01900 63.41600 41.11800
H  28.27700 63.46900 39.96300
H  29.81400 64.42600 40.05200
H  28.98300 65.66600 41.56000
H  28.85900 64.34400 42.70200
H  27.42700 64.87500 41.68400
H  24.59600 60.45800 39.31300
H  24.99000 60.75500 41.03700
H  23.82300 59.40200 40.58000
H  26.12100 55.12100 38.04000
H  24.28400 52.40900 40.94700
H  25.91400 51.60600 40.74000
H  24.66400 51.45800 39.52900

