158

Mg 17.33900 -1.40900 27.53400
C  16.42100 0.50400 30.39300
C  19.66600 -3.11400 29.48000
C  18.67200 -2.86300 24.71700
C  15.70100 0.93100 25.61500
N  17.90500 -1.34200 29.69200
C  17.25200 -0.58500 30.69300
C  17.92500 -0.82400 32.08500
C  19.08200 -1.94600 31.69700
C  18.88500 -2.16000 30.18300
C  20.49800 -1.57600 32.24600
C  16.83500 -1.40900 33.07900
C  16.73500 -0.86500 34.53200
H  18.07300 -0.22800 34.98900
N  18.81200 -2.89200 27.13500
C  19.66800 -3.50100 28.06100
C  20.41000 -4.47700 27.44800
C  20.03000 -4.52200 26.05700
C  19.06400 -3.40300 25.89600
C  21.39800 -5.40900 28.23200
C  20.62100 -5.38900 24.99400
O  20.23600 -5.36400 23.81700
C  21.70400 -6.37400 25.34000
N  16.93500 -1.30300 25.52500
C  17.71800 -1.88300 24.52600
C  17.44100 -1.33400 23.07900
C  16.38800 -0.24800 23.37700
C  16.41200 -0.14500 24.91600
C  18.68200 -0.92300 22.24300
C  15.01800 -0.44800 22.81200
C  14.90400 -0.10500 21.34300
N  16.18400 0.30800 27.82600
C  15.59700 1.18300 26.94800
C  14.95800 2.25600 27.64700
C  15.15400 1.94600 28.99800
C  15.95100 0.80200 29.05100
C  14.21000 3.47600 27.14900
C  14.80700 2.39200 30.36700
O  14.06300 3.31500 30.73800
C  15.64300 1.43500 31.32900
C  16.51700 2.34600 32.09600
O  17.71500 2.58700 31.85900
O  15.68900 2.84200 33.07000
C  16.40600 3.75800 33.96100
H  20.31200 -3.71400 30.12500
H  19.19800 -3.28300 23.85700
H  15.18300 1.70900 25.05000
H  18.33300 0.12700 32.42800
H  18.83000 -2.92700 32.09900
H  20.92600 -2.29500 32.94500
H  20.50800 -0.59100 32.71200
H  21.12800 -1.51900 31.35800
H  17.06900 -2.46300 33.22800
H  15.85500 -1.12500 32.69400
H  16.37600 -1.68300 35.15600
H  16.01500 -0.04900 34.59200
H  21.50100 -5.33100 29.31400
H  22.37900 -5.45800 27.75900
H  20.88300 -6.36600 28.14100
H  21.26400 -7.13400 25.98600
H  22.35700 -5.64800 25.82500
H  22.17300 -6.89900 24.50800
H  17.00300 -2.10200 22.44100
H  16.81100 0.70900 23.07300
H  18.62000 -1.06100 21.16400
H  19.60000 -1.28200 22.70800
H  18.79100 0.15900 22.33100
H  14.25300 0.04200 23.41500
H  14.68400 -1.47800 22.93900
H  15.18600 -0.96400 20.73500
H  15.37300 0.84300 21.07600
H  13.83900 0.12300 21.29800
H  13.86200 3.34600 26.12400
H  14.87500 4.34000 27.11900
H  13.34900 3.58200 27.80900
H  14.96800 0.84100 31.94600
H  16.68300 4.67800 33.44600
H  17.37500 3.34000 34.23100
H  15.78900 3.83600 34.85700
Mg 26.70700 49.96300 25.73800
C  24.86100 51.58800 28.40000
C  29.03600 49.26600 28.17100
C  28.71000 49.01300 23.31000
C  24.72000 51.79500 23.52800
N  26.70400 50.17800 28.09100
C  25.90400 50.87100 28.93300
C  26.35100 50.71700 30.39600
C  27.79300 50.13200 30.24100
C  27.84700 49.83800 28.73200
C  28.90500 51.09300 30.68000
C  25.36200 49.86500 31.23600
C  24.96200 50.42000 32.60900
H  25.92500 50.49100 33.84300
N  28.49100 49.10800 25.69900
C  29.31700 48.88700 26.84500
C  30.45500 48.07000 26.42200
C  30.27600 47.90000 24.98200
C  29.16100 48.70600 24.58200
C  31.59200 47.56100 27.23800
C  30.86900 46.79300 24.02400
O  30.56100 46.66700 22.83400
C  31.80000 45.75800 24.52900
N  26.57100 50.11100 23.74000
C  27.53300 49.70700 22.92400
C  27.32200 50.01400 21.48200
C  25.89400 50.74600 21.45800
C  25.71600 50.94400 23.00900
C  28.37900 50.93800 20.79400
C  24.76900 49.92100 20.87400
C  24.70500 48.49300 21.41000
N  25.05300 51.33300 25.86800
C  24.37900 51.97500 24.90000
C  23.42100 52.89400 25.39300
C  23.49400 52.75000 26.77500
C  24.56700 51.79500 27.05200
C  22.61400 53.89700 24.65100
C  22.97100 53.10700 28.10200
O  22.03800 53.79400 28.40200
C  23.90700 52.45700 29.19500
C  24.28100 53.55300 30.09500
O  25.22500 54.37300 29.91000
O  23.30500 53.58600 31.11200
C  23.58300 54.70500 32.02300
H  29.72500 49.04300 28.98900
H  29.43100 48.72500 22.54300
H  24.09600 52.35100 22.82400
H  26.44400 51.69300 30.87300
H  27.95900 49.21500 30.80600
H  29.03600 51.75600 29.82400
H  29.80700 50.53000 30.91900
H  28.61200 51.67700 31.55200
H  25.79600 48.87000 31.32800
H  24.47300 49.62700 30.65200
H  24.06900 49.87000 32.90600
H  24.55000 51.41600 32.44400
H  31.46200 47.99000 28.23200
H  32.57100 47.83300 26.84400
H  31.66000 46.47400 27.28700
H  31.21000 45.31600 25.33200
H  32.76200 46.14800 24.86300
H  32.03400 45.15600 23.65100
H  27.34400 49.07900 20.92200
H  25.91100 51.65100 20.85000
H  29.40300 50.96900 21.16800
H  28.13600 52.00000 20.76400
H  28.46600 50.52500 19.78900
H  24.93700 49.88000 19.79700
H  23.83400 50.43800 21.09100
H  25.01900 48.63100 22.44400
H  25.29700 47.81600 20.79500
H  23.66000 48.21000 21.28400
H  23.26200 54.44200 23.96500
H  22.13900 54.68900 25.22900
H  21.87000 53.36000 24.06300
H  23.32700 51.77000 29.81100
H  22.78500 54.79400 32.75900
H  23.68400 55.66500 31.51600
H  24.47900 54.48900 32.60600

