158

Mg 1.39900 -2.31700 44.67900
C  4.69800 -1.18400 44.18800
C  0.36500 0.62100 42.88400
C  -1.79400 -3.43600 44.64800
C  2.65500 -5.37200 45.40800
N  2.38500 -0.48500 43.74800
C  3.75500 -0.21700 43.76100
C  4.04900 1.07000 43.05900
C  2.60200 1.82200 43.01700
C  1.72500 0.54800 43.18300
C  2.37900 2.86300 44.10800
C  4.64200 0.83600 41.56100
C  5.97400 1.48700 41.11800
H  6.75000 0.75000 40.01500
N  -0.48600 -1.47300 43.84800
C  -0.62500 -0.27000 43.25200
C  -2.06100 -0.13900 43.04900
C  -2.78400 -1.30300 43.52400
C  -1.67200 -2.14600 44.01800
C  -2.64500 1.11700 42.44100
C  -4.27800 -1.59200 43.50500
O  -5.07400 -0.66100 43.34300
C  -4.82600 -2.98600 43.70500
N  0.56700 -4.12800 44.92300
C  -0.79100 -4.34900 45.06800
C  -1.15000 -5.70500 45.66500
C  0.33400 -6.38200 45.77200
C  1.27400 -5.19200 45.43900
C  -1.97700 -5.72400 46.96700
C  0.52500 -7.68000 44.77500
C  1.29800 -8.84300 45.45200
N  3.32400 -3.19900 44.94200
C  3.71300 -4.48000 45.26000
C  5.10600 -4.59800 45.35100
C  5.54300 -3.26400 45.01300
C  4.42300 -2.49900 44.67500
C  5.89500 -5.87800 45.73900
C  6.78200 -2.53100 44.83400
O  7.95500 -2.79800 44.86600
C  6.20900 -1.08000 44.28600
C  6.64000 -0.07100 45.25200
O  6.57100 -0.21100 46.45400
O  7.06000 1.06800 44.68300
C  7.42600 2.16200 45.49400
H  -0.03900 1.59200 42.59000
H  -2.80800 -3.76200 44.88600
H  2.98000 -6.36800 45.71300
H  4.72600 1.60100 43.72700
H  2.37100 2.40400 42.12500
H  2.48600 3.85800 43.67700
H  3.11900 2.71400 44.89500
H  1.44600 2.67500 44.64100
H  3.90500 0.92800 40.76300
H  4.90500 -0.22000 41.61000
H  6.62300 1.70800 41.96500
H  5.53300 2.40400 40.72900
H  -3.64600 0.96400 42.03900
H  -2.07600 1.41100 41.55900
H  -2.59200 1.96900 43.11900
H  -4.24200 -3.70400 43.12900
H  -5.81100 -2.86500 43.25500
H  -4.96400 -3.24200 44.75600
H  -1.76600 -6.17000 44.89700
H  0.60000 -6.68200 46.78500
H  -1.44200 -6.33100 47.69700
H  -2.95000 -6.18000 46.78300
H  -2.16500 -4.74800 47.41500
H  0.96000 -7.38600 43.82000
H  -0.46600 -8.12400 44.67800
H  1.88100 -8.61700 46.34500
H  2.03200 -9.22600 44.74400
H  0.60700 -9.67200 45.60300
H  6.05400 -6.40300 44.79700
H  5.20300 -6.45700 46.34900
H  6.83700 -5.57200 46.19400
H  6.63800 -0.81800 43.31800
H  7.79900 2.94300 44.83200
H  8.02600 1.97100 46.38400
H  6.46400 2.39500 45.95200
Mg -6.23100 25.40800 25.98300
C  -4.50800 26.68400 28.76900
C  -8.04200 23.52600 28.03200
C  -7.48900 24.03400 23.24100
C  -3.74500 26.94500 23.91200
N  -6.42000 25.34000 28.15300
C  -5.61700 25.85900 29.13000
C  -6.05200 25.37300 30.55000
C  -6.92100 24.13300 30.19200
C  -7.12300 24.34500 28.68200
C  -6.15800 22.73200 30.43000
C  -6.84800 26.52300 31.33600
C  -7.14200 26.24500 32.88700
H  -6.30100 25.13200 33.55000
N  -7.71700 24.08900 25.69100
C  -8.40800 23.43200 26.67400
C  -9.37900 22.56000 26.05400
C  -9.15700 22.66400 24.69500
C  -8.10900 23.65800 24.47800
C  -10.38900 21.67300 26.92100
C  -9.95500 21.97500 23.60500
O  -9.60700 22.04000 22.41200
C  -11.02000 20.95800 23.87300
N  -5.68300 25.53700 23.85800
C  -6.32200 24.68200 22.96500
C  -5.74000 24.84800 21.53500
C  -4.67300 25.95500 21.66700
C  -4.70300 26.21500 23.21500
C  -5.30600 23.49600 20.89400
C  -5.08100 27.28100 20.95000
C  -4.37300 27.54000 19.57300
N  -4.56800 26.61600 26.23400
C  -3.67100 27.10200 25.32100
C  -2.53700 27.77700 26.00900
C  -2.85000 27.66000 27.31600
C  -4.03900 26.91500 27.44400
C  -1.38100 28.49100 25.37100
C  -2.38700 28.01200 28.64500
O  -1.34400 28.54500 28.97300
C  -3.48600 27.47100 29.70100
C  -2.87700 26.59100 30.71400
O  -2.30900 25.56400 30.40900
O  -3.05200 27.05000 32.01600
C  -2.54100 26.19000 33.10400
H  -8.68100 22.88000 28.63700
H  -7.88800 23.65100 22.29900
H  -2.89000 27.40200 23.40800
H  -5.12700 25.07300 31.04200
H  -7.79800 24.15300 30.83900
H  -5.91900 22.12000 29.56000
H  -6.81600 22.10600 31.03200
H  -5.23300 22.90000 30.98200
H  -7.77900 26.60400 30.77600
H  -6.34100 27.48700 31.30800
H  -8.20300 26.06500 33.05600
H  -6.69100 27.10300 33.38600
H  -9.97800 20.66400 26.92200
H  -11.33700 21.50200 26.41100
H  -10.53500 22.08300 27.92000
H  -11.30900 20.51600 22.92000
H  -11.90800 21.45000 24.26900
H  -10.71700 20.24800 24.64300
H  -6.63700 25.21700 21.03800
H  -3.72300 25.54300 21.32700
H  -5.20900 22.79700 21.72500
H  -4.31200 23.56900 20.45200
H  -6.05600 23.14000 20.18800
H  -4.71100 28.15300 21.49000
H  -6.16800 27.32100 20.88000
H  -4.95100 27.53200 18.65000
H  -3.64500 26.74200 19.42500
H  -3.78000 28.45400 19.60600
H  -1.69300 28.86200 24.39500
H  -0.49600 27.88000 25.19400
H  -1.05300 29.35500 25.94900
H  -3.85700 28.35700 30.21700
H  -1.49900 26.50900 33.12200
H  -2.77900 25.16900 32.80600
H  -3.02500 26.40500 34.05600

