158

Mg 8.95800 3.43400 27.59500
C  10.25900 1.74000 30.57400
C  7.61800 5.76100 29.64400
C  7.70300 4.77800 24.88400
C  10.39500 0.82200 25.76300
N  8.87600 3.62400 29.92900
C  9.44200 2.85600 30.91000
C  9.16700 3.43600 32.27400
C  8.18100 4.67200 31.96700
C  8.22600 4.67700 30.42700
C  6.74000 4.75400 32.60000
C  10.52500 3.82400 32.94200
C  10.39700 4.84500 34.18700
H  11.19500 4.60000 35.42500
N  7.93800 5.18400 27.27800
C  7.47700 6.03400 28.26500
C  6.82900 7.13000 27.65400
C  6.83600 6.83400 26.23500
C  7.53000 5.58500 26.04000
C  6.22800 8.25000 28.36900
C  6.22400 7.66700 25.11500
O  6.29100 7.38900 23.91900
C  5.43300 8.88400 25.47500
N  9.10600 2.86600 25.65000
C  8.42100 3.57100 24.69900
C  8.52800 2.84100 23.32200
C  9.60300 1.76400 23.57000
C  9.79300 1.81300 25.08700
C  7.24000 2.39700 22.65700
C  10.87700 1.98400 22.71200
C  11.34400 0.81700 21.81000
N  10.22200 1.71800 28.00400
C  10.63800 0.71700 27.11000
C  11.24400 -0.35200 27.87300
C  11.24600 0.08100 29.21900
C  10.50300 1.28900 29.23200
C  11.74900 -1.57200 27.41700
C  11.60800 -0.28700 30.54600
O  12.27900 -1.27400 30.95600
C  11.06400 0.81900 31.49800
C  10.25000 0.28000 32.56500
O  9.08800 -0.02400 32.44800
O  10.90900 0.24600 33.67400
C  10.11900 -0.36200 34.78500
H  7.23300 6.52000 30.32900
H  7.30200 5.19200 23.95600
H  10.83500 0.01200 25.17600
H  8.63900 2.74400 32.93100
H  8.78400 5.55800 32.16200
H  6.76900 3.88100 33.25100
H  5.94900 4.83600 31.85400
H  6.61400 5.66000 33.19200
H  11.17000 4.28300 32.19300
H  11.12300 3.00200 33.33400
H  9.33300 4.85100 34.42200
H  10.60700 5.86900 33.87700
H  6.64900 9.13500 27.89300
H  6.39500 8.31900 29.44400
H  5.16600 8.18500 28.13200
H  6.09500 9.59400 25.97100
H  4.55000 8.43600 25.93000
H  5.06100 9.31100 24.54300
H  8.96900 3.59500 22.67000
H  9.21100 0.76000 23.41000
H  7.00100 3.02400 21.79800
H  6.51000 2.56000 23.45000
H  7.25900 1.33600 22.40400
H  11.79600 2.25700 23.23100
H  10.75300 2.78400 21.98200
H  10.63900 -0.01300 21.83500
H  12.25900 0.48600 22.30300
H  11.45100 1.32300 20.85100
H  11.16300 -1.70800 26.50800
H  11.45600 -2.35300 28.11800
H  12.82400 -1.48400 27.25800
H  11.94000 1.32700 31.90000
H  9.49000 0.36900 35.29300
H  10.91500 -0.73500 35.43000
H  9.53000 -1.21600 34.45100
Mg 16.96500 -2.59700 27.99600
C  16.08600 -0.66300 30.84400
C  18.22800 -4.96900 29.98600
C  17.89700 -4.33800 25.13900
C  15.47800 -0.18000 26.04600
N  17.17500 -2.74300 30.15200
C  16.74800 -1.86400 31.10900
C  17.02500 -2.45400 32.56200
C  17.88300 -3.78800 32.23500
C  17.85100 -3.83100 30.67400
C  19.30800 -3.75800 32.93600
C  15.74500 -2.72400 33.40600
C  15.84900 -2.22700 34.87900
H  17.20600 -1.65600 35.43700
N  17.70100 -4.51300 27.68200
C  18.05300 -5.37700 28.64400
C  18.39200 -6.60600 28.00400
C  18.45800 -6.37600 26.56700
C  18.08700 -5.00900 26.44300
C  18.71800 -7.86600 28.84800
C  18.85700 -7.33800 25.41900
O  18.84300 -7.07500 24.23900
C  19.41900 -8.68300 25.86100
N  16.87000 -2.25000 25.88400
C  17.35500 -3.04200 24.93800
C  17.05000 -2.51600 23.58900
C  16.10400 -1.27200 23.86400
C  16.12400 -1.24800 25.32600
C  18.32400 -2.26800 22.62000
C  14.66700 -1.20000 23.24600
C  13.58200 -2.02100 23.89700
N  16.20100 -0.63300 28.28700
C  15.50300 0.10200 27.44400
C  14.90800 1.17200 28.23100
C  15.12200 0.90700 29.52800
C  15.93600 -0.20800 29.55400
C  14.00300 2.32800 27.73000
C  14.77800 1.43000 30.80800
O  14.17200 2.41900 31.17500
C  15.41000 0.37700 31.73000
C  16.39800 0.97000 32.71000
O  17.61200 0.94700 32.59600
O  15.73100 1.65400 33.62800
C  16.50900 2.54500 34.54800
H  18.60500 -5.66100 30.74200
H  18.29300 -4.85800 24.26400
H  14.99900 0.50400 25.34200
H  17.63600 -1.65600 32.98200
H  17.39500 -4.70700 32.56000
H  19.96000 -4.19000 32.17700
H  19.22900 -4.33800 33.85600
H  19.66600 -2.79200 33.29300
H  15.45300 -3.77400 33.38900
H  14.88400 -2.22900 32.95700
H  15.50000 -2.99600 35.56900
H  15.10300 -1.48500 35.16600
H  17.96900 -8.61100 28.58000
H  18.72300 -7.71900 29.92800
H  19.74200 -8.14700 28.60200
H  20.18700 -8.76800 26.63000
H  19.92400 -9.12900 25.00300
H  18.59500 -9.28700 26.24000
H  16.48700 -3.33000 23.13200
H  16.71900 -0.47000 23.45700
H  18.27000 -1.26400 22.19900
H  18.36800 -3.01800 21.83000
H  19.24900 -2.37300 23.18700
H  14.80600 -1.45100 22.19400
H  14.37900 -0.15000 23.29600
H  13.91100 -2.69100 24.69200
H  13.14800 -2.68100 23.14700
H  12.79500 -1.32500 24.18900
H  13.02400 2.19000 28.19000
H  13.93700 2.33500 26.64200
H  14.27600 3.31400 28.10400
H  14.60400 -0.07900 32.30600
H  15.93400 3.47000 34.57200
H  17.48900 2.82100 34.15900
H  16.60900 2.24000 35.59000

