158

Mg 55.29000 23.59400 44.66600
C  53.14400 26.19200 43.71700
C  52.93300 21.23200 43.67400
C  57.65600 21.23200 44.73400
C  57.75900 26.14300 45.32500
N  53.32900 23.76500 43.73200
C  52.61700 24.94100 43.45400
C  51.25200 24.57800 42.82100
C  51.11600 23.02800 43.19900
C  52.55300 22.60600 43.59700
C  50.03800 22.72700 44.32600
C  51.04900 24.82400 41.29100
C  49.73300 25.37500 40.90200
H  49.00900 24.61600 39.86000
N  55.25300 21.47600 44.31500
C  54.21200 20.70400 43.96200
C  54.59700 19.28200 43.95600
C  55.98100 19.23900 44.31200
C  56.34200 20.67900 44.51900
C  53.69000 18.15300 43.57400
C  56.71900 18.01200 44.53300
O  56.19700 16.96000 44.35400
C  58.20300 17.98600 45.00100
N  57.42500 23.68900 44.93400
C  58.13800 22.58400 44.86200
C  59.64600 22.87200 45.10800
C  59.63100 24.40700 45.51900
C  58.18300 24.78900 45.15300
C  60.46200 21.95800 46.15900
C  60.84800 25.25500 44.95700
C  61.70700 26.00800 46.00000
N  55.38400 25.71200 44.73800
C  56.42100 26.60600 45.05100
C  55.88000 27.95400 45.08100
C  54.63100 27.83700 44.48800
C  54.40800 26.47700 44.28600
C  56.57300 29.21800 45.58900
C  53.44100 28.56100 44.18600
O  53.28300 29.75600 44.40000
C  52.47700 27.58200 43.48900
C  52.34400 27.94500 42.05000
O  53.06300 27.70700 41.14400
O  51.19700 28.68600 41.90500
C  50.89200 29.04700 40.53600
H  52.13100 20.53200 43.43200
H  58.34500 20.40600 44.55100
H  58.51600 26.86900 45.63000
H  50.49500 25.14800 43.36000
H  50.82200 22.39400 42.36200
H  49.16300 22.27000 43.86400
H  49.57700 23.62700 44.73200
H  50.55200 22.08900 45.04500
H  50.99300 23.82400 40.86100
H  51.94100 25.29100 40.87500
H  49.89200 26.43800 40.71900
H  49.07400 25.53600 41.75400
H  54.24600 17.40800 43.00500
H  52.98700 18.49400 42.81400
H  53.30900 17.72700 44.50200
H  58.85300 18.42500 44.24300
H  58.57700 17.01400 45.32000
H  58.26800 18.64100 45.87000
H  60.09500 22.61600 44.14800
H  59.58100 24.51500 46.60200
H  59.85900 21.19200 46.64600
H  60.91400 22.61400 46.90300
H  61.22700 21.58600 45.47700
H  60.58100 25.91500 44.13200
H  61.44100 24.56200 44.36000
H  62.70500 25.57000 45.98300
H  61.22900 25.92900 46.97700
H  61.74200 27.06300 45.72800
H  56.77500 29.83500 44.71300
H  57.51000 29.01900 46.11100
H  55.78000 29.72200 46.14200
H  51.48000 27.56400 43.92800
H  50.22200 29.90300 40.60800
H  50.50900 28.23500 39.91700
H  51.78500 29.44200 40.05100
Mg -2.09600 34.74000 27.01600
C  -3.91900 32.60200 29.21300
C  -1.40800 36.81200 29.57100
C  -0.52800 36.76600 24.86700
C  -3.03800 32.67100 24.41300
N  -2.80900 34.81100 29.15900
C  -3.28600 33.73600 29.87300
C  -3.02000 33.93400 31.34400
C  -2.54600 35.44400 31.44800
C  -2.26700 35.76600 29.99400
C  -3.35600 36.47200 32.29900
C  -2.00900 32.90200 31.93600
C  -2.12600 32.61100 33.48100
H  -3.03400 33.52500 34.34700
N  -1.11200 36.59800 27.17300
C  -0.86200 37.30900 28.36400
C  -0.11500 38.47600 28.05500
C  0.07600 38.48200 26.65100
C  -0.60100 37.28000 26.16100
C  0.30800 39.52300 29.11000
C  0.80600 39.46100 25.76400
O  0.76400 39.44600 24.53600
C  1.62400 40.54600 26.41900
N  -1.71500 34.63500 25.03800
C  -0.91700 35.57400 24.37600
C  -0.65200 35.19300 22.88000
C  -1.47700 33.85800 22.78100
C  -2.08800 33.67200 24.18000
C  -0.90500 36.26100 21.75500
C  -0.56700 32.61400 22.33400
C  0.62100 32.17600 23.29900
N  -3.30500 33.12600 26.80600
C  -3.59300 32.40700 25.67600
C  -4.63000 31.38700 25.89300
C  -4.72900 31.37700 27.30800
C  -3.95600 32.47700 27.79600
C  -5.23600 30.48800 24.87300
C  -5.30100 30.71000 28.50800
O  -6.18700 29.87700 28.56600
C  -4.72000 31.43000 29.80400
C  -5.85000 31.93800 30.68100
O  -6.69000 32.74500 30.28000
O  -5.85000 31.26400 31.84800
C  -6.93700 31.60800 32.80700
H  -1.01200 37.38200 30.41400
H  0.16500 37.28100 24.19900
H  -3.33900 32.13100 23.51300
H  -4.00000 33.86800 31.81700
H  -1.60100 35.49300 31.99000
H  -4.24700 36.14300 32.83300
H  -3.70100 37.28500 31.66000
H  -2.65700 36.90200 33.01700
H  -0.96800 33.20300 31.81900
H  -2.09100 32.02500 31.29500
H  -1.18500 32.60200 34.03200
H  -2.57500 31.61900 33.52400
H  1.39500 39.51700 29.19500
H  -0.00400 39.18400 30.09700
H  -0.06600 40.53800 28.98200
H  0.95500 41.30100 26.83200
H  2.27100 41.11400 25.75000
H  2.26300 40.13500 27.20000
H  0.41500 34.97500 22.93200
H  -2.27000 34.00500 22.04800
H  -1.18700 37.22700 22.17500
H  -1.64100 35.98200 21.00200
H  -0.01400 36.38200 21.13800
H  -0.01600 32.94600 21.45400
H  -1.21700 31.79400 22.02700
H  1.62400 32.17100 22.87200
H  0.40300 31.16000 23.62900
H  0.64700 32.76000 24.21900
H  -4.63500 30.15300 24.02800
H  -6.08000 30.95000 24.35900
H  -5.55500 29.62500 25.45700
H  -3.98600 30.85700 30.37100
H  -7.77900 32.15900 32.38900
H  -6.50900 32.27300 33.55800
H  -7.22300 30.68500 33.31200

