158

Mg 47.17000 15.98100 28.32000
C  45.40100 15.69000 31.25200
C  49.44200 18.02900 29.97900
C  48.77800 16.63700 25.35800
C  44.80800 14.21100 26.55500
N  47.23800 16.96100 30.37000
C  46.46900 16.57300 31.37700
C  47.10600 17.03500 32.74300
C  48.27100 18.00300 32.33000
C  48.34200 17.63500 30.78700
C  48.09000 19.54100 32.52300
C  47.61800 15.84700 33.52000
C  48.03100 16.06200 34.99800
H  47.59200 17.31700 35.72100
N  48.90800 17.14900 27.83600
C  49.78100 17.76900 28.70400
C  50.90100 18.28500 27.97800
C  50.81600 17.78700 26.58900
C  49.45800 17.18800 26.51900
C  51.99600 19.06100 28.62300
C  51.70700 18.01100 25.37100
O  51.47300 17.40800 24.34100
C  52.98800 18.86800 25.46600
N  46.70100 15.68400 26.15700
C  47.58400 15.95600 25.18600
C  47.04700 15.46100 23.78300
C  45.80100 14.59900 24.16600
C  45.74800 14.85200 25.66200
C  46.78500 16.65300 22.78500
C  45.74000 13.10600 23.73800
C  44.74300 12.71600 22.63900
N  45.39700 15.22200 28.74800
C  44.58100 14.47900 27.95800
C  43.46300 14.07700 28.76500
C  43.69000 14.48500 30.09000
C  44.93100 15.16200 30.03100
C  42.24600 13.32700 28.22500
C  43.27300 14.43100 31.45000
O  42.30500 13.92300 31.91700
C  44.38000 15.16600 32.27600
C  43.67800 16.12700 33.19400
O  43.56500 17.30800 32.95800
O  43.16800 15.48000 34.29700
C  42.73700 16.43600 35.27600
H  50.26900 18.44100 30.56100
H  49.22200 16.79100 24.37200
H  44.08700 13.56000 26.05700
H  46.36400 17.65600 33.24600
H  49.20300 17.65700 32.77600
H  48.84300 20.08100 33.09700
H  47.18600 19.63200 33.12400
H  47.94800 20.04300 31.56500
H  48.50700 15.52600 32.97700
H  46.93900 14.99600 33.47300
H  49.11400 16.03500 34.87300
H  47.78600 15.20300 35.62200
H  52.04000 20.04100 28.14800
H  52.92200 18.56200 28.33800
H  51.93900 19.15000 29.70800
H  53.26600 19.09000 24.43500
H  53.84700 18.27800 25.78700
H  52.71700 19.78800 25.98300
H  47.85400 14.85900 23.36500
H  44.86900 15.02900 23.79800
H  47.18600 16.47800 21.78600
H  47.27800 17.54500 23.17100
H  45.73400 16.89000 22.62100
H  45.40000 12.42400 24.51800
H  46.75000 12.82100 23.44300
H  45.02000 11.81200 22.09500
H  44.79000 13.47800 21.86100
H  43.70300 12.53800 22.91300
H  42.59300 12.31000 28.04100
H  41.96200 13.81200 27.29100
H  41.36400 13.40400 28.86100
H  44.78700 14.36600 32.89500
H  43.59500 17.09100 35.42400
H  42.55700 15.98600 36.25200
H  41.86600 17.03700 35.01500
Mg 9.68900 48.32600 25.85900
C  7.15100 48.39400 28.35000
C  11.81600 49.71700 28.29200
C  11.98200 48.61500 23.50300
C  7.21900 47.69300 23.52600
N  9.42400 48.94300 28.11000
C  8.38400 48.67700 28.91000
C  8.70900 49.01300 30.38300
C  10.21400 49.50300 30.26900
C  10.52600 49.43600 28.81600
C  10.59500 50.76100 31.03000
C  8.52900 47.77300 31.29500
C  9.55700 47.41100 32.48400
H  8.88600 46.78300 33.70900
N  11.70100 49.05100 25.83600
C  12.31500 49.57700 26.93700
C  13.65200 49.89400 26.50500
C  13.78600 49.44800 25.10600
C  12.45500 49.06600 24.72700
C  14.73100 50.45100 27.47300
C  14.97000 49.52600 24.25200
O  14.99600 49.20300 23.09300
C  16.29800 49.88500 24.85200
N  9.59700 48.21400 23.79100
C  10.69900 48.28800 23.04800
C  10.37100 47.89200 21.62400
C  8.83400 47.58800 21.64800
C  8.51800 47.87800 23.06900
C  10.97900 48.95300 20.62700
C  8.53000 46.14300 21.26900
C  8.98000 45.03700 22.20300
N  7.53900 48.20600 25.87200
C  6.72400 47.92000 24.84000
C  5.40200 47.62900 25.34100
C  5.47100 47.84100 26.73000
C  6.82900 48.22700 26.97400
C  4.25100 47.05700 24.49100
C  4.78300 47.90700 27.99000
O  3.58300 47.68900 28.16800
C  5.79900 48.23800 29.05600
C  5.68100 47.05000 30.05400
O  6.21800 45.93900 29.92300
O  4.91600 47.54200 31.12300
C  4.70400 46.71300 32.26600
H  12.55400 49.98200 29.05100
H  12.67600 48.72100 22.66600
H  6.49700 47.38800 22.76500
H  8.02300 49.74500 30.81000
H  10.83700 48.73400 30.72400
H  10.82900 51.52300 30.28700
H  11.47400 50.68400 31.67100
H  9.74500 51.08500 31.63000
H  8.35600 46.90200 30.66300
H  7.56800 47.92100 31.78800
H  10.13300 48.32400 32.63600
H  10.22200 46.60900 32.16500
H  14.42100 50.71600 28.48300
H  15.22800 51.32100 27.04300
H  15.45900 49.65000 27.60200
H  16.45300 50.95700 24.97200
H  17.05600 49.56100 24.13900
H  16.47300 49.26100 25.72900
H  11.01000 47.03800 21.40000
H  8.22000 48.30600 21.10400
H  10.29400 49.33500 19.87100
H  11.84000 48.51600 20.12000
H  11.29100 49.84800 21.16500
H  9.11200 46.06500 20.35100
H  7.47200 45.98600 21.05900
H  9.34900 45.49200 23.12300
H  9.77900 44.46000 21.73800
H  8.19500 44.35100 22.52200
H  3.43000 46.73500 25.13200
H  4.56600 46.17300 23.93600
H  3.82700 47.88000 23.91600
H  5.54500 49.20100 29.50000
H  5.09800 45.69900 32.19400
H  3.65600 46.58700 32.53500
H  5.23400 47.23400 33.06300

