158

Mg 25.31600 1.78000 30.04100
C  27.59200 1.63700 32.94400
C  22.71200 2.18700 32.36500
C  23.33200 1.36300 27.60300
C  28.13600 1.18000 28.07400
N  25.26100 2.00300 32.31900
C  26.25500 1.91900 33.20300
C  25.73800 2.35900 34.65700
C  24.16000 2.39800 34.57600
C  24.02000 2.22000 32.98600
C  23.41400 1.27100 35.40800
C  26.48400 3.71000 35.06000
C  27.02000 3.71300 36.50500
H  26.40700 4.65400 37.55500
N  23.26200 1.94300 29.98000
C  22.33500 2.10500 31.02800
C  21.05700 2.10100 30.54200
C  21.15400 1.80500 29.11900
C  22.59100 1.66200 28.80400
C  19.85900 2.37000 31.38700
C  20.07700 1.58500 28.09800
O  20.24500 1.28300 26.96500
C  18.69300 1.72100 28.46100
N  25.71600 1.50600 28.11800
C  24.66800 1.35800 27.26300
C  25.12400 1.41500 25.67900
C  26.70000 1.59700 25.90500
C  26.89000 1.49600 27.44500
C  24.71400 0.14100 24.90700
C  27.22500 2.98000 25.43700
C  26.66800 3.51800 24.12800
N  27.40600 1.41800 30.37800
C  28.41300 1.14400 29.47600
C  29.63000 0.87600 30.15500
C  29.38000 1.09100 31.50400
C  28.02000 1.41600 31.60000
C  30.92900 0.64500 29.43000
C  29.96600 1.18500 32.82700
O  31.12300 0.99800 33.21800
C  28.82600 1.64200 33.80400
C  28.73200 0.63900 34.88000
O  28.20200 -0.48000 34.92700
O  29.30500 1.18500 36.03700
C  29.15300 0.35700 37.18000
H  22.03300 2.39900 33.19400
H  22.64100 1.33800 26.75800
H  28.93600 1.08700 27.33700
H  25.99000 1.60100 35.39800
H  23.62200 3.30800 34.83800
H  24.14100 0.90100 36.13200
H  23.15700 0.46700 34.71800
H  22.49800 1.60000 35.89800
H  25.74800 4.51100 34.98100
H  27.25400 3.95200 34.32800
H  28.09500 3.88200 36.56500
H  26.81300 2.76600 37.00400
H  19.90600 2.47700 32.47100
H  19.18100 1.52100 31.30100
H  19.30200 3.24800 31.06100
H  18.54700 2.71400 28.88800
H  18.51800 0.92100 29.18000
H  18.11600 1.65100 27.53900
H  24.61500 2.22300 25.15400
H  27.28700 0.83200 25.39700
H  24.13600 0.28900 23.99500
H  23.97200 -0.32500 25.55500
H  25.50200 -0.60200 24.78300
H  28.29400 2.94300 25.23000
H  26.91800 3.63600 26.25100
H  27.36800 4.21900 23.67300
H  25.82500 4.14900 24.40800
H  26.42000 2.75300 23.39200
H  31.52900 0.00600 30.07800
H  31.47100 1.54200 29.13100
H  30.66100 0.04300 28.56200
H  28.90200 2.64300 34.22900
H  30.06800 0.60000 37.72000
H  29.18900 -0.69500 36.89500
H  28.25800 0.61100 37.74800
Mg -12.14800 37.71600 42.35600
C  -10.05500 35.01400 41.50000
C  -9.93200 39.79900 40.63300
C  -14.58700 39.91800 42.31300
C  -14.49800 35.18100 43.45300
N  -10.29800 37.40400 40.94600
C  -9.61200 36.19800 40.89000
C  -8.33100 36.40400 40.08100
C  -8.13900 37.95900 40.07100
C  -9.51500 38.44300 40.59500
C  -7.05400 38.39300 41.01000
C  -8.40400 35.72900 38.69400
C  -7.16700 34.89000 38.40400
H  -6.11800 35.41300 37.50900
N  -12.18300 39.64000 41.71000
C  -11.11600 40.38300 41.11800
C  -11.61900 41.78800 41.07800
C  -12.94400 41.82000 41.56700
C  -13.34100 40.45300 41.84500
C  -10.73300 42.85200 40.60200
C  -13.84600 43.05000 41.65200
O  -13.43800 44.12800 41.19800
C  -15.18600 43.12900 42.29000
N  -14.32100 37.56900 42.40400
C  -15.01000 38.68500 42.61500
C  -16.43900 38.39800 43.11900
C  -16.39900 36.90100 43.45200
C  -15.02400 36.46600 43.06300
C  -16.94100 39.38000 44.25500
C  -17.50000 35.96700 42.78500
C  -18.26000 34.98300 43.78900
N  -12.25200 35.57400 42.61600
C  -13.16200 34.72700 43.17200
C  -12.60400 33.42700 43.35100
C  -11.36200 33.42100 42.69400
C  -11.24400 34.79200 42.18700
C  -13.27600 32.33300 44.13000
C  -10.25000 32.64500 42.21400
O  -9.96300 31.44300 42.31400
C  -9.33900 33.64500 41.44600
C  -7.95300 33.60700 41.93500
O  -7.15200 32.72200 41.60000
O  -7.65300 34.60800 42.76800
C  -6.28600 34.60800 43.40300
H  -9.17200 40.49600 40.27400
H  -15.33800 40.68600 42.50400
H  -15.15300 34.55900 44.06700
H  -7.56400 35.91500 40.68200
H  -7.97600 38.31700 39.05400
H  -7.48800 38.93000 41.85400
H  -6.34500 38.99800 40.44500
H  -6.51900 37.62200 41.56400
H  -8.49400 36.47200 37.90200
H  -9.24900 35.07900 38.46600
H  -7.55800 33.96400 37.98300
H  -6.70600 34.50700 39.31500
H  -9.66600 42.63100 40.62900
H  -10.81100 43.69700 41.28600
H  -10.98600 43.17900 39.59300
H  -16.04800 42.91400 41.65700
H  -15.28700 44.15100 42.65500
H  -15.31000 42.46500 43.14600
H  -17.14400 38.54700 42.30100
H  -16.51200 36.93900 44.53600
H  -16.46800 40.35200 44.11300
H  -16.70200 38.96200 45.23200
H  -17.98500 39.66900 44.13200
H  -16.98600 35.31200 42.08200
H  -18.21400 36.55300 42.20700
H  -18.37100 34.01000 43.31000
H  -19.16400 35.54100 44.03200
H  -17.62400 34.96800 44.67400
H  -12.68800 31.45100 44.38400
H  -14.13000 31.98400 43.54800
H  -13.62900 32.76900 45.06500
H  -9.37000 33.26700 40.42400
H  -5.62200 35.31400 42.90400
H  -5.76100 33.65300 43.39000
H  -6.50200 35.02400 44.38700

