158

Mg 9.16500 3.47100 27.53800
C  10.45600 2.21700 30.52200
C  7.46200 5.85500 29.42900
C  8.11100 4.96400 24.69900
C  10.84100 1.11400 25.77600
N  8.93600 3.93200 29.77600
C  9.61400 3.29700 30.79200
C  9.28400 3.84800 32.19800
C  8.28800 4.98900 31.81400
C  8.18700 4.96300 30.22400
C  6.87400 4.89400 32.36400
C  10.67400 4.18000 32.99700
C  10.89400 3.50900 34.39400
H  11.36300 4.35000 35.58600
N  7.95500 5.16200 27.08000
C  7.32100 5.94300 28.01700
C  6.47300 6.87300 27.34800
C  6.67500 6.68400 25.97900
C  7.58900 5.60400 25.90100
C  5.68400 7.81100 28.12700
C  6.05700 7.47100 24.82300
O  6.37600 7.19700 23.65900
C  5.15300 8.72200 25.08000
N  9.55200 3.14800 25.54300
C  8.91700 3.82800 24.59000
C  9.18400 3.16700 23.20800
C  10.28300 2.12000 23.56100
C  10.14400 2.08000 25.02200
C  7.91200 2.48200 22.53600
C  11.73600 2.61900 23.17700
C  12.64900 1.71400 22.35000
N  10.34100 1.87300 27.97900
C  10.98300 0.99500 27.11500
C  11.81100 0.11000 27.90800
C  11.58200 0.55400 29.22400
C  10.67300 1.63200 29.25000
C  12.57200 -1.11800 27.43600
C  11.97600 0.28000 30.53800
O  12.74900 -0.57600 31.00900
C  11.22200 1.29300 31.46800
C  10.40900 0.53500 32.48300
O  9.32700 0.11800 32.26400
O  11.01500 0.44800 33.69900
C  10.12600 -0.24600 34.69400
H  6.99600 6.57300 30.10700
H  7.68000 5.35700 23.77500
H  11.18400 0.20700 25.27400
H  8.71400 3.09900 32.74600
H  8.87500 5.89100 31.98400
H  6.52200 5.92300 32.42700
H  6.85300 4.34400 33.30500
H  6.10300 4.35300 31.81500
H  10.70100 5.26900 33.01200
H  11.50700 3.85700 32.37300
H  11.64900 2.73800 34.23700
H  9.97700 3.05600 34.77000
H  4.62300 7.69200 27.90800
H  5.88500 8.84500 27.84500
H  5.93500 7.87300 29.18600
H  5.71900 9.46900 25.63800
H  4.15500 8.48800 25.45000
H  4.99500 9.24100 24.13400
H  9.58900 3.95600 22.57400
H  10.10500 1.16400 23.06900
H  8.05600 1.44000 22.25000
H  7.69300 3.13900 21.69400
H  6.99800 2.42100 23.12600
H  12.35600 2.78200 24.05900
H  11.67900 3.55900 22.62800
H  12.87300 2.26900 21.44000
H  12.13500 0.80200 22.04500
H  13.54200 1.47300 22.92600
H  12.32000 -1.22100 26.38100
H  12.09100 -1.96100 27.93300
H  13.65200 -1.00800 27.53200
H  12.03700 1.81300 31.97100
H  9.60600 -1.08400 34.23000
H  9.34400 0.35500 35.15800
H  10.73500 -0.66200 35.49700
Mg 1.01900 43.03600 26.42600
C  3.41800 43.08600 28.90800
C  -1.31700 41.95400 28.73000
C  -0.98800 42.39000 23.93700
C  3.72100 43.46100 24.11000
N  1.03600 42.62500 28.52400
C  2.10500 42.87900 29.42500
C  1.63400 42.88700 30.88600
C  0.15200 42.26700 30.77200
C  -0.05700 42.32100 29.24400
C  -0.16400 40.88800 31.42900
C  1.65900 44.35700 31.50800
C  1.70400 44.41600 33.03900
H  1.33800 43.10600 33.76700
N  -0.89800 42.34800 26.38400
C  -1.67800 41.97600 27.39400
C  -3.00500 41.74900 26.87900
C  -2.94200 41.77900 25.41600
C  -1.55600 42.16900 25.20000
C  -4.16800 41.52300 27.88600
C  -4.01200 41.47500 24.44700
O  -3.80800 41.42500 23.22800
C  -5.39400 41.25500 24.88400
N  1.36900 43.00100 24.30600
C  0.30400 42.68500 23.54800
C  0.72200 42.84900 21.98400
C  2.13200 43.45900 22.02200
C  2.49000 43.29600 23.52600
C  0.60000 41.55900 21.15300
C  2.29700 44.88200 21.53800
C  1.56800 45.97000 22.39300
N  3.12100 43.20100 26.40700
C  4.03000 43.45000 25.45600
C  5.34900 43.57900 26.06500
C  5.13900 43.33700 27.45000
C  3.72800 43.25700 27.59600
C  6.63500 43.84200 25.40200
C  5.77500 43.21000 28.66300
O  6.95600 43.19700 29.05300
C  4.65800 43.11400 29.74500
C  4.94800 41.88000 30.60100
O  5.11700 40.70000 30.24000
O  4.96200 42.28400 31.91400
C  5.10400 41.27600 32.97100
H  -1.96700 41.62100 29.54200
H  -1.64300 42.21900 23.08100
H  4.51300 43.87800 23.48400
H  2.19800 42.17000 31.48100
H  -0.55700 42.98100 31.19000
H  0.66000 40.39700 31.94700
H  -0.45100 40.17200 30.66000
H  -0.99400 40.98500 32.13000
H  0.73000 44.80400 31.15400
H  2.47300 44.92700 31.06000
H  0.96800 45.08300 33.48800
H  2.71300 44.76800 33.25700
H  -4.82800 42.37800 27.73900
H  -3.83500 41.70500 28.90800
H  -4.78900 40.63100 27.80700
H  -6.08100 41.05100 24.06200
H  -5.72500 42.06000 25.54000
H  -5.23400 40.36700 25.49600
H  0.06000 43.58700 21.53000
H  2.75600 42.78400 21.43700
H  1.50200 40.95000 21.20800
H  0.25600 41.78100 20.14300
H  -0.29100 41.08500 21.56600
H  1.83300 44.94900 20.55400
H  3.37800 45.02400 21.54300
H  0.70200 45.62700 22.96000
H  1.20400 46.73500 21.70700
H  2.30400 46.41800 23.06100
H  7.41300 44.30400 26.01100
H  6.34700 44.67100 24.75600
H  7.11200 43.03400 24.84800
H  4.59500 43.97600 30.40900
H  4.75900 40.29800 32.63500
H  4.50800 41.71300 33.77200
H  6.11600 41.20400 33.36900

