158

Mg 1.87500 -2.18100 44.36300
C  5.26900 -0.96800 44.04100
C  0.98100 0.42400 42.46400
C  -1.03100 -3.65100 44.20300
C  3.25800 -5.15700 45.81200
N  3.01900 -0.55900 43.14100
C  4.38600 -0.28400 43.22700
C  4.65400 0.99200 42.48700
C  3.22500 1.63200 42.41400
C  2.35000 0.45000 42.80300
C  3.08300 2.94300 43.35100
C  5.45200 0.75600 41.17700
C  6.86000 1.37800 41.26800
H  7.93100 1.22300 40.20100
N  0.17600 -1.68400 43.42400
C  -0.07100 -0.50200 42.71400
C  -1.48900 -0.26100 42.48000
C  -2.08400 -1.50100 43.02600
C  -0.96500 -2.33600 43.57500
C  -2.06000 0.91200 41.75200
C  -3.55500 -1.79000 42.87500
O  -4.29600 -0.95600 42.36900
C  -4.16900 -3.05800 43.44800
N  1.21100 -4.13200 44.97700
C  -0.04500 -4.46700 44.69300
C  -0.41700 -5.89200 45.24000
C  0.99500 -6.36300 45.78600
C  1.90600 -5.19300 45.44700
C  -1.46300 -5.99300 46.37500
C  1.50700 -7.75800 45.30800
C  2.10600 -8.68500 46.42400
N  3.79500 -2.92000 44.92300
C  4.18400 -4.09600 45.55700
C  5.60300 -4.03300 45.91600
C  5.97200 -2.75200 45.43100
C  4.89100 -2.19800 44.72200
C  6.37100 -5.03900 46.65000
C  7.18000 -1.87200 45.26000
O  8.31700 -2.00200 45.62100
C  6.71300 -0.68600 44.33400
C  6.96600 0.49800 45.18100
O  6.31800 0.71500 46.18500
O  8.02200 1.31200 44.72600
C  8.13600 2.60200 45.49100
H  0.63500 1.36400 42.03000
H  -2.02900 -4.08200 44.31300
H  3.56400 -6.07500 46.31700
H  5.22800 1.58000 43.20400
H  3.11800 2.05500 41.41500
H  2.24400 3.04500 44.04000
H  3.00600 3.68500 42.55700
H  3.99900 3.16900 43.89800
H  4.96600 1.27400 40.35000
H  5.57500 -0.30500 40.95700
H  7.26900 1.21500 42.26500
H  6.58700 2.43300 41.25700
H  -3.00600 1.20900 42.20600
H  -2.19500 0.76400 40.68000
H  -1.49600 1.83400 41.89100
H  -4.04900 -3.98200 42.88300
H  -5.22700 -2.81600 43.35400
H  -3.87600 -3.04700 44.49800
H  -0.69100 -6.43800 44.33800
H  0.91000 -6.30700 46.87100
H  -1.51500 -4.98400 46.78300
H  -1.14900 -6.66500 47.17400
H  -2.40300 -6.27300 45.89800
H  2.33200 -7.52100 44.63700
H  0.82900 -8.36800 44.71100
H  1.72200 -9.68500 46.22200
H  1.84300 -8.31100 47.41300
H  3.18700 -8.58600 46.32400
H  6.08700 -5.05700 47.70200
H  7.43800 -4.86100 46.51600
H  6.23000 -5.99500 46.14500
H  7.39300 -0.73000 43.48300
H  7.27200 3.21500 45.23600
H  8.93100 3.21000 45.05900
H  8.17200 2.43500 46.56700
Mg 23.73700 -5.73000 45.89600
C  26.11800 -3.54700 44.20800
C  21.39100 -4.58000 43.75500
C  22.08600 -8.42100 46.68300
C  26.65700 -6.85800 47.70200
N  23.83700 -4.15700 44.21900
C  24.83900 -3.41700 43.68700
C  24.36600 -2.55600 42.50900
C  22.83600 -2.81700 42.51500
C  22.64100 -3.89900 43.60200
C  21.96100 -1.55400 42.87100
C  25.13400 -2.96800 41.20500
C  25.82400 -1.88600 40.35700
H  25.33700 -1.65800 38.93800
N  21.81500 -6.38000 45.41600
C  21.01700 -5.82500 44.46400
C  19.73600 -6.53200 44.55600
C  19.88300 -7.57400 45.55400
C  21.29700 -7.52200 45.96700
C  18.63900 -6.17700 43.71900
C  18.79600 -8.54800 45.74300
O  17.67300 -8.41400 45.29300
C  19.04700 -9.75700 46.66500
N  24.45400 -7.55800 46.75300
C  23.46400 -8.40600 47.13800
C  24.02500 -9.55300 47.96400
C  25.46400 -9.04000 48.31000
C  25.55100 -7.72000 47.55100
C  23.24700 -9.88600 49.28600
C  26.61900 -9.96900 47.92500
C  27.21600 -10.81600 49.08300
N  25.92600 -5.18800 46.05800
C  26.84200 -5.59700 46.95600
C  28.03300 -4.81100 46.93000
C  27.79400 -4.05700 45.74800
C  26.45300 -4.28500 45.35200
C  29.32500 -4.96700 47.75200
C  28.45400 -3.13700 44.86700
O  29.53500 -2.61800 44.86700
C  27.32200 -2.73000 43.87500
C  27.17500 -1.26400 44.03900
O  26.76800 -0.67000 44.97300
O  27.66200 -0.73900 42.90200
C  27.36900 0.67400 42.67500
H  20.56700 -4.16400 43.17100
H  21.39600 -9.22100 46.95700
H  27.42100 -7.08000 48.44900
H  24.60500 -1.53300 42.79800
H  22.48700 -3.32100 41.61400
H  22.27100 -1.31900 43.88900
H  20.89000 -1.75600 42.83900
H  22.26100 -0.77500 42.17100
H  24.39000 -3.36800 40.51700
H  25.87600 -3.71300 41.49300
H  26.89000 -2.09600 40.26900
H  25.68800 -0.92200 40.84800
H  17.81700 -6.06700 44.42500
H  18.32600 -6.94500 43.01100
H  18.69600 -5.17400 43.29600
H  18.14600 -10.36200 46.77400
H  19.26300 -9.29500 47.62800
H  19.81100 -10.39500 46.22200
H  23.84700 -10.44900 47.36800
H  25.56300 -8.89000 49.38500
H  22.44200 -9.17700 49.47600
H  23.80900 -9.98000 50.21500
H  22.67100 -10.78500 49.06600
H  27.42800 -9.40100 47.46500
H  26.14200 -10.60500 47.17900
H  26.78500 -10.56700 50.05200
H  28.29400 -10.67900 48.99900
H  27.10300 -11.90000 49.04200
H  29.97900 -5.58400 47.13500
H  29.05900 -5.41100 48.71100
H  29.67600 -3.95100 47.92800
H  27.58800 -2.96000 42.84300
H  26.38000 0.90800 43.07000
H  27.26300 0.77400 41.59500
H  28.16700 1.34000 43.00400

