158

Mg 36.54700 48.79400 25.25700
C  36.49400 46.83900 28.18800
C  34.59400 51.04500 26.76800
C  36.17600 50.33900 22.23600
C  38.15200 46.12200 23.62900
N  35.58800 48.90700 27.22800
C  35.83300 48.07300 28.30800
C  35.48900 48.73300 29.66300
C  34.72200 50.02200 29.21000
C  34.97500 49.99400 27.63600
C  33.17100 50.02400 29.53500
C  36.70400 48.83000 30.64500
C  36.69600 48.07400 31.99800
H  35.36000 47.95400 32.66900
N  35.48200 50.46400 24.55200
C  34.73800 51.26200 25.36900
C  34.20700 52.38200 24.59700
C  34.67600 52.32000 23.26000
C  35.50700 51.00600 23.27000
C  33.38800 53.44600 25.30200
C  34.46600 53.18100 22.10400
O  35.21900 52.96500 21.13100
C  33.53200 54.37700 22.11100
N  37.08500 48.30200 23.24500
C  36.84400 49.12800 22.17400
C  37.50200 48.59600 20.88300
C  38.22100 47.32300 21.41900
C  37.89600 47.32900 22.86000
C  36.56500 48.37400 19.58700
C  39.79000 47.27700 21.30300
C  40.35300 46.90000 19.93100
N  37.29500 46.92800 25.77700
C  37.87700 45.95100 25.00500
C  38.15300 44.73600 25.85400
C  37.61600 45.07000 27.12900
C  37.14200 46.39400 26.99900
C  38.68700 43.39800 25.36800
C  37.42700 44.56200 28.45700
O  37.76000 43.51400 28.98900
C  36.73500 45.72500 29.27100
C  35.42600 45.17600 29.77400
O  34.44100 45.26800 29.09800
O  35.53900 44.49700 30.93500
C  34.28200 43.83700 31.37900
H  34.02200 51.76500 27.35800
H  36.12800 50.93100 21.31900
H  38.55200 45.17000 23.27300
H  34.82000 48.06600 30.20700
H  35.23200 50.89700 29.61200
H  32.84700 49.16900 30.12800
H  32.45700 50.07600 28.71300
H  33.04300 50.93800 30.11500
H  37.01500 49.84700 30.88300
H  37.44800 48.38300 29.98600
H  37.21100 48.75500 32.67500
H  37.29100 47.16500 31.90100
H  32.32700 53.23300 25.43500
H  33.49700 54.35900 24.71700
H  33.84300 53.70000 26.25900
H  32.52000 53.97900 22.17700
H  33.44700 54.76500 21.09600
H  33.75200 55.26300 22.70700
H  38.38100 49.15700 20.56500
H  37.79400 46.45900 20.91100
H  35.57100 48.79100 19.74800
H  36.43300 47.30800 19.40700
H  36.93000 48.94500 18.73300
H  40.15700 46.63700 22.10500
H  40.26400 48.22300 21.56300
H  41.02900 47.70000 19.62900
H  39.64100 46.72300 19.12500
H  40.90600 45.97300 20.08700
H  39.41700 43.56600 24.57700
H  37.91800 42.65700 25.14900
H  39.31400 42.95700 26.14300
H  37.40900 46.08500 30.05000
H  33.94400 43.09900 30.65100
H  33.47500 44.56400 31.47100
H  34.39400 43.45500 32.39400
Mg 0.45400 42.07700 26.13600
C  1.57500 42.50900 29.40300
C  -2.56900 40.90800 27.29300
C  -0.28100 41.40300 22.91100
C  3.61600 43.09500 25.02900
N  -0.36900 41.72700 28.06400
C  0.22800 42.19200 29.26900
C  -0.77700 42.03200 30.46400
C  -2.02200 41.32200 29.76700
C  -1.65300 41.25600 28.27700
C  -2.47900 40.04300 30.41100
C  -1.08300 43.16100 31.55300
C  -0.35900 43.13500 32.93300
H  -1.17400 43.12500 34.17100
N  -1.21500 41.47500 25.26700
C  -2.37000 40.95400 25.86300
C  -3.40300 40.65700 24.86200
C  -2.73300 40.74000 23.65200
C  -1.35900 41.25300 23.88100
C  -4.74700 40.05600 25.10900
C  -3.37200 40.63600 22.26300
O  -2.68200 40.87300 21.25900
C  -4.84400 40.33300 22.00100
N  1.47900 42.26900 24.22500
C  0.99300 41.90000 23.08300
C  1.97800 42.06500 21.91900
C  3.11600 42.87800 22.56600
C  2.74800 42.75900 24.08500
C  2.39000 40.84000 21.19800
C  3.10100 44.38000 22.13900
C  3.62000 44.61200 20.67700
N  2.30600 42.54200 26.99600
C  3.51900 42.98000 26.43300
C  4.50700 43.26500 27.44500
C  3.78300 43.02700 28.64400
C  2.46100 42.65700 28.31700
C  5.90800 43.67600 27.27900
C  3.84100 43.09600 30.09300
O  4.69800 43.35000 30.95800
C  2.38500 42.64100 30.61500
C  2.68300 41.37700 31.40500
O  2.93700 40.29300 30.88100
O  2.64200 41.69400 32.73500
C  2.77300 40.69700 33.75000
H  -3.52600 40.62600 27.73800
H  -0.44000 41.12200 21.86800
H  4.63800 43.35900 24.75100
H  -0.24900 41.28600 31.05800
H  -2.84100 42.02300 29.93000
H  -2.36500 39.31400 29.60900
H  -3.44600 40.18000 30.89600
H  -1.76200 39.69500 31.15400
H  -2.15200 43.20200 31.76000
H  -0.65800 44.06500 31.11600
H  0.32600 43.97300 33.05900
H  0.24500 42.22800 32.94200
H  -5.65300 40.59600 24.83400
H  -4.79800 40.05800 26.19800
H  -4.86200 39.03200 24.75400
H  -5.33600 41.24800 22.32800
H  -5.26600 39.46400 22.50600
H  -4.98000 40.20000 20.92800
H  1.44900 42.70400 21.21100
H  4.15900 42.56600 22.51500
H  1.59300 40.10000 21.12400
H  3.39600 40.48200 21.41700
H  2.42000 41.22700 20.18000
H  3.62700 45.09900 22.76800
H  2.09800 44.78600 22.26800
H  4.27300 43.78400 20.40200
H  4.21500 45.52300 20.75200
H  2.89900 44.74800 19.87100
H  6.55300 42.83500 27.53300
H  6.23000 44.49500 27.92300
H  6.06200 44.05000 26.26700
H  2.03800 43.38100 31.33600
H  3.45000 39.90300 33.43300
H  1.76800 40.48800 34.11600
H  3.12300 41.24500 34.62500

