158

Mg 17.45300 -2.91200 28.11000
C  16.47700 -0.83000 30.73800
C  19.56500 -4.56300 30.12800
C  18.87600 -4.23400 25.33500
C  15.60500 -0.74600 25.88600
N  17.98400 -2.62000 30.19000
C  17.38200 -1.79100 31.13400
C  17.95700 -2.00700 32.49900
C  19.06500 -3.06600 32.17400
C  18.90300 -3.44300 30.72800
C  20.55700 -2.60400 32.47800
C  16.86700 -2.46600 33.59000
C  17.03500 -2.08300 35.03400
H  18.46000 -1.67800 35.51800
N  18.93100 -4.35300 27.82800
C  19.65900 -4.96600 28.73800
C  20.40800 -6.06600 28.17300
C  20.23900 -5.96400 26.71200
C  19.31700 -4.78900 26.55300
C  21.24500 -7.11400 28.96100
C  20.83200 -6.69200 25.54500
O  20.65600 -6.40200 24.34900
C  21.57100 -7.91500 25.88000
N  17.18600 -2.60200 26.01000
C  17.90100 -3.27200 25.12500
C  17.51800 -2.87600 23.64400
C  16.31900 -1.92200 23.86600
C  16.29500 -1.80900 25.34800
C  18.63300 -2.31600 22.74400
C  14.86900 -2.24100 23.30900
C  13.97800 -1.04100 22.72100
N  16.18200 -1.23700 28.26900
C  15.57300 -0.46700 27.29800
C  14.89900 0.72200 27.91700
C  15.24900 0.64700 29.26800
C  15.98900 -0.56900 29.45200
C  14.34600 1.93400 27.18300
C  15.14600 1.27000 30.60400
O  14.40700 2.18200 30.92000
C  15.80600 0.31100 31.59900
C  16.63500 1.17000 32.47200
O  17.68500 1.67300 32.23100
O  15.98100 1.31600 33.70100
C  16.52800 2.36500 34.58300
H  20.25800 -5.15500 30.73000
H  19.27500 -4.60000 24.38700
H  15.00100 -0.15000 25.19900
H  18.41700 -1.07500 32.82600
H  18.98100 -3.92400 32.84200
H  20.96600 -3.18700 33.30300
H  20.59400 -1.58100 32.85200
H  21.16000 -2.72100 31.57700
H  16.84200 -3.54900 33.47200
H  15.86000 -2.18100 33.28600
H  16.80700 -2.95300 35.65000
H  16.35500 -1.26900 35.28500
H  21.39200 -6.71800 29.96600
H  22.15000 -7.40600 28.42700
H  20.59600 -7.98800 29.01100
H  22.63400 -7.78100 26.08000
H  21.46800 -8.56500 25.01100
H  21.05300 -8.46900 26.66200
H  16.98200 -3.72600 23.22200
H  16.61800 -0.90400 23.61800
H  18.30900 -1.44200 22.17900
H  18.87000 -3.02000 21.94600
H  19.56700 -2.08000 23.25400
H  14.31200 -2.66800 24.14300
H  15.05600 -3.00300 22.55200
H  13.09400 -0.76200 23.29300
H  13.84000 -1.30200 21.67100
H  14.51300 -0.09200 22.73800
H  13.94200 1.61200 26.22300
H  15.16700 2.64900 27.14500
H  13.47600 2.28100 27.74100
H  15.00600 -0.15400 32.17500
H  16.23500 2.15700 35.61300
H  16.15700 3.35200 34.30800
H  17.61400 2.31000 34.65300
Mg 25.42000 52.03200 26.64400
C  23.31800 53.14200 29.34700
C  27.94800 51.58600 28.80400
C  27.48600 51.81900 23.84000
C  22.86400 53.17400 24.42200
N  25.60900 52.29400 28.78600
C  24.63000 52.70100 29.73200
C  25.11700 52.53900 31.20400
C  26.64800 52.15900 30.96400
C  26.75800 52.01500 29.39400
C  27.72000 53.11000 31.61500
C  24.28500 51.46900 32.05100
C  24.00800 51.75300 33.53800
H  25.01200 52.25900 34.45900
N  27.35400 51.73700 26.35400
C  28.28100 51.47900 27.40000
C  29.59100 51.26400 26.75400
C  29.54300 51.40000 25.35000
C  28.07500 51.62500 25.12900
C  30.78900 51.13700 27.71000
C  30.65900 51.34300 24.28300
O  30.51300 51.45800 23.06800
C  32.06400 51.03000 24.87200
N  25.17000 52.24500 24.49300
C  26.18000 52.11400 23.54000
C  25.72800 52.46700 22.13600
C  24.20300 52.58200 22.24300
C  24.05300 52.64600 23.83300
C  26.49500 53.59100 21.48000
C  23.36500 51.50800 21.62400
C  23.17800 51.69200 20.07700
N  23.45900 52.93600 26.76500
C  22.54100 53.28900 25.80900
C  21.32500 53.67900 26.46200
C  21.65000 53.66400 27.80600
C  22.89300 53.18900 28.00100
C  20.00600 54.23600 25.83300
C  21.01200 53.86300 29.07200
O  19.85800 54.20100 29.39100
C  22.10600 53.44500 30.14200
C  22.39200 54.68100 30.96500
O  22.63200 55.78600 30.54000
O  22.39700 54.39300 32.26800
C  22.49500 55.56200 33.14800
H  28.59200 51.29500 29.63700
H  28.15600 51.68800 22.98800
H  22.12100 53.53300 23.70600
H  25.10200 53.49000 31.73500
H  26.87500 51.21400 31.45800
H  28.36600 52.57900 32.31400
H  27.21200 53.92800 32.12700
H  28.40900 53.43800 30.83700
H  24.80600 50.51200 32.03600
H  23.30700 51.29200 31.60500
H  23.72700 50.81100 34.00800
H  23.12300 52.37800 33.65900
H  30.54900 50.99100 28.76300
H  31.33600 52.08000 27.69700
H  31.38300 50.25100 27.48800
H  32.80300 50.96100 24.07300
H  32.11000 50.08500 25.41300
H  32.34700 51.82900 25.55700
H  25.92100 51.55600 21.56900
H  23.98800 53.56000 21.81300
H  27.53900 53.41400 21.73700
H  26.18200 54.62100 21.64900
H  26.40400 53.61100 20.39400
H  22.34700 51.42800 22.00600
H  23.88600 50.59900 21.92500
H  23.66100 50.81500 19.64400
H  23.75500 52.56400 19.77100
H  22.12300 51.73800 19.80900
H  20.01300 54.01700 24.76500
H  20.01300 55.32300 25.91500
H  19.11400 53.88700 26.35400
H  21.76000 52.58400 30.71400
H  21.67000 56.24200 32.93600
H  23.52500 55.91800 33.16700
H  22.34000 55.22800 34.17400

