158

Mg 1.65900 -2.48000 44.65600
C  4.87400 -1.35000 43.95200
C  0.36100 -0.03600 42.50200
C  -1.34200 -4.10200 44.83900
C  3.15700 -5.42300 46.11000
N  2.48500 -0.83900 43.40800
C  3.87200 -0.56300 43.27100
C  4.15000 0.45900 42.19200
C  2.75800 1.03600 41.98800
C  1.79900 0.07600 42.69900
C  2.69400 2.49800 42.32900
C  4.73000 -0.23800 40.95700
C  6.00900 0.38400 40.44200
H  5.82200 1.22100 39.12700
N  -0.23600 -2.10900 43.80000
C  -0.57600 -1.03200 43.00100
C  -1.99900 -1.04600 42.74100
C  -2.57100 -2.20200 43.40600
C  -1.32800 -2.89100 44.01000
C  -2.76500 0.05300 42.02700
C  -4.08100 -2.57900 43.59300
O  -4.95400 -1.82000 43.21800
C  -4.49400 -3.86000 44.31000
N  1.03100 -4.39300 45.51700
C  -0.28500 -4.75000 45.44000
C  -0.51100 -6.15500 45.98900
C  0.86000 -6.59500 46.50200
C  1.73600 -5.38500 46.02100
C  -1.65900 -6.21200 47.07100
C  1.37900 -8.00100 46.04000
C  1.96100 -8.92300 47.08300
N  3.62500 -3.24500 45.10900
C  4.07000 -4.39400 45.73400
C  5.49600 -4.39300 45.78200
C  5.89500 -3.10900 45.19500
C  4.69000 -2.50600 44.71300
C  6.29800 -5.46900 46.33800
C  6.93100 -2.13600 44.86000
O  8.09400 -2.14000 45.15700
C  6.38500 -1.13700 43.88800
C  6.75200 0.22700 44.15800
O  7.57000 0.88500 43.57200
O  6.06800 0.74500 45.21500
C  6.55300 2.10700 45.56100
H  0.05900 0.61500 41.67900
H  -2.27000 -4.51200 45.24200
H  3.69300 -6.09600 46.78200
H  4.82700 1.21000 42.59700
H  2.49600 0.90400 40.93800
H  2.26100 2.71000 43.30700
H  1.97300 3.02300 41.70300
H  3.68600 2.94600 42.29000
H  4.04000 -0.21500 40.11400
H  5.00000 -1.27100 41.17700
H  6.76700 -0.39600 40.36400
H  6.46000 1.11100 41.11800
H  -2.22600 0.97900 42.22400
H  -3.79400 0.10100 42.38400
H  -2.79300 -0.21300 40.97000
H  -3.79000 -4.64100 44.02300
H  -5.56000 -3.96000 44.10400
H  -4.57800 -3.72700 45.38900
H  -0.86000 -6.85900 45.23300
H  0.87200 -6.53900 47.59000
H  -1.25400 -6.61200 48.00100
H  -2.37700 -6.95200 46.71700
H  -2.10800 -5.24000 47.27400
H  1.98800 -7.88000 45.14400
H  0.60700 -8.51300 45.46500
H  2.95700 -9.27400 46.81500
H  1.24800 -9.74600 47.14100
H  2.14700 -8.44700 48.04600
H  6.00300 -6.28800 45.68300
H  5.93800 -5.58300 47.36100
H  7.36100 -5.23100 46.35600
H  6.73900 -1.48200 42.91600
H  6.33000 2.09200 46.62800
H  5.89700 2.84800 45.10500
H  7.59200 2.39400 45.40000
Mg 29.71200 58.66300 40.59600
C  26.96900 56.62200 39.72900
C  31.79200 56.16700 39.30200
C  32.26500 60.83800 40.55200
C  27.45200 61.39400 41.01000
N  29.38200 56.49200 39.87900
C  28.19300 55.94700 39.53600
C  28.40300 54.65400 38.61800
C  29.93700 54.40500 38.72000
C  30.45300 55.72700 39.43200
C  30.36200 53.09900 39.42200
C  28.00300 54.82300 37.15100
C  27.16600 53.80200 36.37400
H  27.18100 53.74200 34.79400
N  31.79200 58.45900 40.11400
C  32.44000 57.37900 39.58500
C  33.90500 57.70300 39.45200
C  34.04300 58.99200 39.99200
C  32.66500 59.47900 40.28600
C  35.00000 56.73300 39.12600
C  35.37200 59.76300 40.12100
O  36.42700 59.23000 39.87900
C  35.43700 61.24400 40.51500
N  29.86100 60.80800 40.70700
C  31.05400 61.42200 40.71700
C  30.91000 62.95600 40.96600
C  29.35400 63.15200 41.18000
C  28.81800 61.67200 41.00200
C  31.72200 63.59700 42.07400
C  28.83200 64.29600 40.21800
C  27.56700 64.99900 40.81900
N  27.63800 58.90900 40.65300
C  26.89900 60.08200 40.72600
C  25.47700 59.74300 40.72300
C  25.47700 58.43600 40.19500
C  26.79300 57.96700 40.27600
C  24.34700 60.71300 41.02300
C  24.63900 57.37600 39.58300
O  23.44500 57.40600 39.29800
C  25.54000 56.13100 39.29300
C  25.01500 54.92700 39.99900
O  25.30100 54.61500 41.18300
O  24.16300 54.27200 39.07500
C  23.68600 52.90200 39.49900
H  32.42700 55.52900 38.68400
H  32.99200 61.64600 40.45000
H  26.80500 62.25500 41.18800
H  27.89300 53.89600 39.21200
H  30.48900 54.40300 37.78000
H  31.06200 53.43100 40.18800
H  30.90500 52.32800 38.87500
H  29.58200 52.65400 40.04000
H  28.89900 55.13700 36.61700
H  27.37900 55.71400 37.21600
H  26.13300 53.89500 36.71000
H  27.52400 52.82400 36.69700
H  35.32200 56.34700 40.09400
H  35.87100 57.19900 38.66700
H  34.71400 55.97300 38.39900
H  35.08300 61.37700 41.53700
H  34.87200 61.70300 39.70400
H  36.49600 61.50100 40.48600
H  31.12800 63.45700 40.02300
H  29.14900 63.46600 42.20400
H  32.53100 64.21800 41.69100
H  32.16100 62.79200 42.66300
H  31.19100 64.26200 42.75600
H  28.56400 63.84200 39.26400
H  29.58600 65.06000 40.03300
H  27.75400 66.05300 40.61400
H  27.44400 64.85400 41.89300
H  26.69900 64.57400 40.31600
H  24.21900 61.34100 40.14100
H  24.54200 61.32400 41.90500
H  23.38900 60.26800 41.29300
H  25.53800 55.92400 38.22300
H  22.60400 52.76500 39.49000
H  24.20700 52.60100 40.40700
H  24.02500 52.42200 38.58100

