158

Mg 46.86400 24.59900 28.45100
C  47.87100 26.76700 31.10100
C  46.00300 22.25600 30.78700
C  46.13000 22.57800 25.87600
C  48.22200 26.85600 26.18000
N  46.92400 24.53500 30.77600
C  47.21500 25.57200 31.57900
C  46.75800 25.27800 32.99900
C  46.25400 23.76300 32.93200
C  46.44900 23.41700 31.41900
C  46.91800 22.77200 33.89000
C  45.81600 26.34600 33.65500
C  45.97300 26.89100 35.13100
H  46.27600 25.89900 36.27000
N  46.09000 22.72700 28.32200
C  45.86900 21.90100 29.42000
C  45.48100 20.59800 28.90600
C  45.32600 20.73200 27.45500
C  45.87900 22.08200 27.13200
C  45.27200 19.41500 29.79300
C  44.89800 19.61600 26.49900
O  44.98100 19.71800 25.28500
C  44.24300 18.46500 27.04700
N  47.14900 24.77100 26.29000
C  46.78300 23.73200 25.43200
C  47.18900 24.02500 23.97800
C  47.56000 25.56800 24.10100
C  47.72800 25.76400 25.60000
C  48.39700 23.22700 23.51300
C  46.43400 26.43400 23.54600
C  45.04200 26.17500 24.05600
N  47.86400 26.42300 28.49400
C  48.37400 27.21500 27.49900
C  48.97100 28.39500 28.06300
C  48.78300 28.31600 29.46400
C  48.14600 27.04500 29.68700
C  49.52800 29.50900 27.21400
C  48.86800 29.01600 30.69200
O  49.36000 30.07000 30.96100
C  48.23700 28.03600 31.78700
C  49.37800 27.84400 32.76400
O  50.37300 27.20500 32.68700
O  49.11400 28.58400 33.85300
C  49.77600 28.41900 35.14600
H  45.64400 21.48300 31.46800
H  45.87600 21.93300 25.03300
H  48.73100 27.43800 25.40900
H  47.70900 25.34200 33.52800
H  45.19300 23.87600 33.15500
H  46.06000 22.51000 34.50900
H  47.81000 23.01300 34.46700
H  47.09700 21.82700 33.37600
H  44.79900 25.99200 33.48100
H  45.92600 27.19000 32.97400
H  44.98700 27.32700 35.28500
H  46.71900 27.67100 34.97700
H  45.81700 18.62900 29.27000
H  44.24200 19.16800 30.05200
H  45.88800 19.47200 30.69000
H  43.65400 18.75900 27.91600
H  45.01100 17.73700 27.30700
H  43.59700 17.92700 26.35300
H  46.27300 23.91700 23.39800
H  48.49200 25.80500 23.58700
H  48.12200 22.17500 23.58600
H  49.20600 23.56900 24.15800
H  48.56100 23.41800 22.45200
H  46.43000 26.43700 22.45600
H  46.64200 27.44300 23.90200
H  45.02500 25.33400 24.74900
H  44.29600 25.95300 23.29400
H  44.50900 27.00000 24.53100
H  49.81100 29.25800 26.19200
H  50.47700 29.77400 27.68000
H  48.97100 30.44600 27.19100
H  47.52100 28.67200 32.30900
H  50.80900 28.10100 35.00800
H  49.29800 27.60600 35.69400
H  49.71500 29.36400 35.68600
Mg 16.89000 52.18200 26.48800
C  18.77600 50.65600 29.17100
C  14.55400 52.97000 28.88500
C  15.14600 53.51900 24.14600
C  19.07500 50.63900 24.26000
N  16.72500 51.88200 28.82200
C  17.66200 51.29300 29.71200
C  17.23400 51.51100 31.17500
C  15.77700 52.08100 30.98000
C  15.65400 52.33400 29.49700
C  14.61600 51.17900 31.58600
C  18.17300 52.52400 31.86700
C  17.84700 52.96600 33.39400
H  16.69200 52.22300 34.11400
N  15.08200 53.10700 26.52500
C  14.26700 53.35700 27.56700
C  13.08900 54.17500 27.15700
C  13.27100 54.29300 25.72200
C  14.55600 53.64400 25.41500
C  12.00700 54.82200 28.10800
C  12.39000 55.09700 24.74100
O  12.66600 55.22100 23.57400
C  11.08000 55.80600 25.16400
N  17.01200 52.04100 24.48100
C  16.21000 52.80400 23.68800
C  16.51900 52.57100 22.17600
C  17.84900 51.82900 22.20600
C  18.04800 51.47100 23.75400
C  15.44700 51.77100 21.39500
C  19.02900 52.64000 21.63100
C  19.55500 53.81700 22.45900
N  18.57000 50.90400 26.65400
C  19.34900 50.30500 25.65200
C  20.39400 49.49100 26.22300
C  20.19300 49.62900 27.58200
C  19.06900 50.44700 27.82200
C  21.39900 48.66200 25.54200
C  20.71400 49.28400 28.84900
O  21.71300 48.68500 29.09900
C  19.81200 49.90900 29.92000
C  19.24600 48.84700 30.87500
O  18.64900 47.79100 30.60800
O  19.77000 49.12300 32.12300
C  19.33700 48.24900 33.25700
H  13.74800 53.23800 29.57100
H  14.68500 54.00500 23.28300
H  19.81700 50.34900 23.51400
H  17.19200 50.49600 31.57200
H  15.70300 53.06300 31.44700
H  15.01100 50.29300 32.08300
H  14.04200 50.80100 30.74000
H  13.98500 51.71800 32.29200
H  18.00200 53.44500 31.30900
H  19.16300 52.08900 31.73100
H  17.60800 54.02300 33.27300
H  18.77100 52.77800 33.93900
H  11.94200 55.89100 27.90400
H  12.17200 54.68100 29.17600
H  11.09700 54.26800 27.88000
H  10.62300 55.22200 25.96200
H  10.49500 55.80500 24.24400
H  11.14100 56.86300 25.42100
H  16.59800 53.57100 21.75000
H  17.76600 50.85400 21.72700
H  14.50000 52.30700 21.46500
H  15.29900 50.79400 21.85500
H  15.76700 51.45200 20.40300
H  18.88600 52.90500 20.58300
H  19.86500 51.94200 21.64800
H  19.68900 54.65900 21.77900
H  20.28300 53.55600 23.22800
H  18.72200 54.11700 23.09400
H  21.57500 49.07300 24.54800
H  20.94400 47.67500 25.46100
H  22.32500 48.51600 26.09800
H  20.40000 50.64800 30.46400
H  20.27900 48.00300 33.74600
H  18.89800 47.31400 32.91100
H  18.64100 48.67100 33.98300

