158

Mg 9.26300 2.63000 27.72100
C  10.74100 1.00500 30.56600
C  7.23500 4.32000 29.93200
C  7.38500 3.66600 25.19700
C  11.01300 0.42800 25.72800
N  9.01300 2.61400 29.91100
C  9.77700 1.96500 30.90000
C  9.42100 2.45900 32.36300
C  8.15900 3.34100 32.10900
C  8.12400 3.40800 30.57700
C  6.84500 2.78000 32.68600
C  10.63400 3.24700 33.04400
C  10.41800 4.17000 34.31000
H  11.05400 3.61400 35.57800
N  7.61100 3.95100 27.60500
C  6.91300 4.56600 28.61900
C  5.83300 5.35300 28.08300
C  5.88500 5.24700 26.59300
C  6.96300 4.21400 26.40600
C  4.81500 6.12800 28.83800
C  5.06300 5.85700 25.44200
O  5.23200 5.54400 24.22900
C  4.05200 6.97100 25.74700
N  9.29700 2.16700 25.69300
C  8.44900 2.76000 24.84400
C  8.70300 2.26000 23.39100
C  9.89900 1.33400 23.56000
C  10.13900 1.32400 25.08900
C  7.43200 1.56400 22.75500
C  11.14300 1.75000 22.76400
C  11.79200 0.58600 22.09800
N  10.55400 0.95900 27.99400
C  11.22100 0.22300 27.08300
C  12.11700 -0.70200 27.73300
C  11.96300 -0.46800 29.08900
C  11.04500 0.65100 29.21800
C  13.02800 -1.71900 27.10800
C  12.41600 -0.80400 30.41400
O  13.29000 -1.56500 30.76900
C  11.60200 0.14400 31.47100
C  10.78900 -0.67200 32.37500
O  10.24200 -1.70600 32.03800
O  10.73200 -0.20200 33.66000
C  10.22300 -1.17100 34.62900
H  6.58900 4.83300 30.64700
H  6.81300 3.87800 24.29200
H  11.54600 -0.25700 25.06500
H  9.12700 1.60100 32.96700
H  8.38300 4.34400 32.47200
H  6.27600 3.55500 33.19900
H  7.05100 1.83600 33.19100
H  6.15600 2.57500 31.86600
H  11.15300 3.89500 32.33800
H  11.32200 2.44000 33.29400
H  9.36600 4.42000 34.44800
H  10.84600 5.16100 34.16200
H  4.99000 7.20300 28.79900
H  4.82800 5.81200 29.88200
H  3.92200 5.82100 28.29300
H  3.62400 7.30300 24.80100
H  4.46400 7.79200 26.33400
H  3.25200 6.44800 26.27200
H  8.86500 3.05800 22.66700
H  9.59800 0.34600 23.21200
H  6.74600 2.37300 22.50300
H  6.93100 0.98300 23.52900
H  7.59800 0.80000 21.99500
H  11.88600 2.12800 23.46600
H  10.96200 2.67700 22.21800
H  11.56700 0.75900 21.04600
H  11.50200 -0.39400 22.47600
H  12.84800 0.57900 22.37000
H  13.65500 -1.39200 26.27800
H  12.54900 -2.63100 26.75300
H  13.77000 -2.02600 27.84500
H  12.25600 0.76500 32.08300
H  10.53000 -2.20400 34.46000
H  9.14900 -1.08800 34.79000
H  10.68100 -0.94300 35.59100
Mg 24.56500 -7.97800 47.28600
C  27.09800 -5.47900 46.48500
C  22.56200 -6.41500 45.00200
C  22.40200 -10.32400 47.80000
C  26.94500 -9.42600 49.37700
N  24.72300 -6.06100 45.92300
C  25.87700 -5.28000 45.73900
C  25.60400 -4.22600 44.67100
C  24.05100 -4.42100 44.41900
C  23.77200 -5.70900 45.13900
C  23.15200 -3.20600 44.90300
C  26.53300 -4.46100 43.38800
C  27.21400 -3.17900 42.92600
H  26.90700 -2.83000 41.45800
N  22.78500 -8.36400 46.47900
C  22.12900 -7.59900 45.51600
C  20.80000 -8.16400 45.29500
C  20.67400 -9.29800 46.20800
C  21.96200 -9.37400 46.91400
C  19.66400 -7.48700 44.39700
C  19.40600 -10.06400 46.39100
O  18.37800 -9.85900 45.71600
C  19.22700 -11.02000 47.57500
N  24.70300 -9.69200 48.42900
C  23.61000 -10.44600 48.60800
C  23.77100 -11.56400 49.64300
C  25.25700 -11.30400 50.12200
C  25.70600 -10.10900 49.28900
C  22.75300 -11.61500 50.83700
C  26.23200 -12.56200 49.96500
C  27.41900 -12.65800 51.01600
N  26.55400 -7.51000 47.89200
C  27.35600 -8.25300 48.72600
C  28.70900 -7.66200 48.79700
C  28.58800 -6.56400 47.88100
C  27.26400 -6.50700 47.41300
C  29.88100 -8.20500 49.63200
C  29.37800 -5.49700 47.28200
O  30.55800 -5.13500 47.32600
C  28.43200 -4.71800 46.35300
C  28.30100 -3.30400 46.80800
O  28.12900 -2.79500 47.93600
O  28.52800 -2.57100 45.61100
C  28.20400 -1.12200 45.70800
H  21.92300 -5.88500 44.29200
H  21.70600 -11.14700 47.97900
H  27.67000 -9.95200 50.00100
H  25.67300 -3.23200 45.11200
H  23.84100 -4.52500 43.35500
H  23.68500 -2.28600 45.14100
H  22.61000 -3.54400 45.78700
H  22.43200 -2.88600 44.14900
H  26.00600 -4.96800 42.58000
H  27.30200 -5.17800 43.67500
H  28.29400 -3.32000 42.97300
H  27.01400 -2.29400 43.53100
H  18.98700 -8.18100 43.89900
H  20.15300 -6.85600 43.65500
H  19.16300 -6.79700 45.07500
H  19.32800 -10.58800 48.57100
H  19.90400 -11.85200 47.38100
H  18.19800 -11.37600 47.55100
H  23.72100 -12.46600 49.03300
H  25.33400 -10.93100 51.14300
H  21.98800 -10.90700 50.51600
H  23.22400 -11.16700 51.71100
H  22.50500 -12.66100 51.01600
H  26.78500 -12.45600 49.03200
H  25.63200 -13.46100 50.10700
H  27.37100 -13.60600 51.55100
H  27.45600 -11.80700 51.69700
H  28.35900 -12.75000 50.47000
H  30.48900 -7.39200 50.03000
H  30.53800 -8.81500 49.01200
H  29.56800 -8.80500 50.48600
H  28.79300 -4.67600 45.32500
H  28.90200 -0.70000 46.43100
H  27.19800 -0.85100 46.02800
H  28.48600 -0.58400 44.80300

