158

Mg 9.05700 3.15700 27.57700
C  10.33200 1.62000 30.42000
C  7.26000 5.33600 29.52100
C  7.79800 4.45900 24.76600
C  10.63600 0.61000 25.69100
N  8.64000 3.22400 29.78400
C  9.42200 2.67300 30.74400
C  9.07400 3.33100 32.10500
C  7.89400 4.35600 31.77300
C  7.93900 4.31900 30.31100
C  6.48800 3.94500 32.34800
C  10.25300 3.95100 32.81400
C  9.91900 4.51600 34.18800
H  10.46300 3.72800 35.39900
N  7.74500 4.67400 27.23800
C  7.15200 5.45000 28.15700
C  6.36300 6.49000 27.45700
C  6.52600 6.25100 26.03300
C  7.38100 5.10100 25.96500
C  5.55200 7.45100 28.23800
C  6.01100 7.03000 24.87700
O  6.40700 6.85200 23.75800
C  5.08500 8.13900 25.11500
N  9.18300 2.61600 25.53800
C  8.59700 3.40100 24.57300
C  8.89300 2.84400 23.21100
C  9.82500 1.60400 23.47500
C  9.90800 1.60300 24.97800
C  7.75800 2.46600 22.28900
C  11.20000 1.73500 22.72900
C  11.33000 0.97400 21.43800
N  10.28300 1.41500 27.91700
C  10.80300 0.51100 27.03600
C  11.57600 -0.42900 27.79000
C  11.50000 -0.03800 29.13800
C  10.66100 1.10100 29.12800
C  12.27700 -1.73600 27.32600
C  11.98500 -0.24300 30.48100
O  12.80400 -0.98200 30.96600
C  11.12600 0.74400 31.36900
C  10.28200 0.00300 32.34800
O  9.19300 -0.51100 32.12900
O  10.97600 -0.00100 33.52000
C  10.19100 -0.63700 34.65300
H  6.72300 6.07600 30.11800
H  7.48500 4.96900 23.85300
H  11.02100 -0.22500 25.10100
H  8.66900 2.56800 32.76900
H  8.18700 5.32100 32.18600
H  6.32700 4.45500 33.29800
H  6.57300 2.87900 32.55400
H  5.67400 4.05600 31.63200
H  10.65900 4.73300 32.17100
H  11.00300 3.16100 32.77500
H  8.88100 4.79800 34.35900
H  10.54700 5.40600 34.20300
H  5.59800 8.44700 27.79900
H  5.84200 7.57500 29.28100
H  4.48600 7.22700 28.23800
H  4.74500 8.58900 24.18300
H  5.49800 8.87300 25.80700
H  4.16700 7.70200 25.50900
H  9.35500 3.57200 22.54500
H  9.27400 0.70100 23.21300
H  6.93000 2.39700 22.99500
H  7.88000 1.52900 21.74600
H  7.53700 3.30000 21.62300
H  11.97400 1.38600 23.41200
H  11.39300 2.79500 22.56100
H  11.99500 1.64400 20.89200
H  10.38400 0.92100 20.90000
H  11.77500 0.00300 21.65400
H  13.03000 -2.05100 28.04800
H  12.80500 -1.52700 26.39500
H  11.54100 -2.52900 27.19800
H  11.84800 1.30600 31.96000
H  10.06000 -1.69500 34.42700
H  9.20600 -0.23200 34.88400
H  10.66900 -0.50600 35.62400
Mg 40.85000 8.35900 29.47800
C  42.59800 9.90900 32.13800
C  38.48000 7.22700 31.83300
C  39.43600 6.50500 27.08300
C  43.56100 9.07000 27.36500
N  40.59300 8.56300 31.75300
C  41.35800 9.36700 32.58900
C  40.78900 9.48300 33.95700
C  39.51100 8.46500 33.81600
C  39.48100 8.11600 32.35600
C  39.48200 7.30700 34.82900
C  40.44300 10.92800 34.48500
C  41.06000 11.22900 35.83300
H  40.17200 11.95200 36.80300
N  39.14200 7.11800 29.43200
C  38.29600 6.73900 30.50500
C  37.19500 6.06200 29.95500
C  37.36200 5.92300 28.56800
C  38.64600 6.49600 28.29200
C  36.09200 5.45300 30.76600
C  36.45200 5.23900 27.43100
O  36.77100 5.16900 26.19100
C  35.14500 4.77800 27.84200
N  41.36600 7.83700 27.46600
C  40.65500 7.07500 26.71300
C  41.27000 6.92900 25.31200
C  42.59800 7.68900 25.40600
C  42.49600 8.26000 26.82800
C  41.37800 5.47100 24.78800
C  42.84400 8.71700 24.28300
C  41.93200 9.95200 24.31100
N  42.64800 9.30800 29.62300
C  43.69900 9.49200 28.73300
C  44.73600 10.24800 29.32500
C  44.34600 10.43700 30.64600
C  43.06400 9.81800 30.80100
C  45.99300 10.73100 28.68100
C  44.83300 11.00400 31.90100
O  45.91800 11.47300 32.27300
C  43.59200 10.77500 32.89500
C  44.18000 10.12300 34.09800
O  44.55300 9.00500 34.23100
O  44.33900 11.13300 35.03100
C  44.98300 10.91100 36.28200
H  37.72800 7.19200 32.62400
H  38.96000 5.88500 26.32100
H  44.28800 9.40600 26.62200
H  41.60900 9.07700 34.55100
H  38.59100 9.03600 33.94300
H  39.44900 6.29200 34.43200
H  38.58500 7.30300 35.44700
H  40.33400 7.37400 35.50500
H  39.35500 10.93800 34.55000
H  40.68900 11.72000 33.77800
H  41.85700 11.87300 35.46100
H  41.55500 10.40300 36.34400
H  36.17200 4.36600 30.77200
H  35.05100 5.55800 30.46000
H  36.11500 5.72900 31.82000
H  34.71200 4.19600 27.02800
H  34.58700 5.61100 28.27000
H  35.28200 3.94100 28.52600
H  40.76800 7.54900 24.57000
H  43.34700 6.89700 25.43800
H  40.83000 5.41800 23.84800
H  40.95300 4.71300 25.44600
H  42.41200 5.27100 24.50700
H  42.85900 8.24800 23.29900
H  43.84700 9.13200 24.38100
H  41.15600 9.95400 25.07700
H  41.42700 10.11600 23.35900
H  42.56900 10.79200 24.58900
H  46.24200 9.89700 28.02400
H  46.74300 10.86900 29.46000
H  45.85000 11.71300 28.23000
H  43.17400 11.76400 33.08600
H  44.28400 10.44900 36.97900
H  45.36700 11.81400 36.75600
H  45.72200 10.19800 35.91600

