158

Mg 40.45000 9.42800 29.18200
C  42.25500 10.59200 31.81400
C  38.19600 7.91100 31.40800
C  38.76500 8.18300 26.56600
C  43.04100 10.51400 26.99500
N  40.26000 9.26100 31.30600
C  41.04300 9.88700 32.20100
C  40.50200 9.82100 33.69000
C  39.35700 8.75200 33.46400
C  39.26900 8.58300 31.94200
C  39.40700 7.44400 34.22900
C  40.14400 11.21200 34.24000
C  40.06800 11.32600 35.76100
H  40.91700 12.38400 36.42900
N  38.70500 8.15100 29.00700
C  37.93200 7.66900 30.03800
C  36.79100 6.96200 29.45600
C  36.83300 7.28600 28.05000
C  38.16300 7.90400 27.84200
C  35.79400 6.20600 30.27500
C  35.84400 7.07100 26.89700
O  36.03100 7.54700 25.79000
C  34.57100 6.33500 27.22200
N  40.88700 9.20900 27.08900
C  39.98300 8.70700 26.22500
C  40.44800 8.88600 24.83300
C  41.81800 9.58100 24.92400
C  41.96600 9.81100 26.44200
C  40.55100 7.52600 24.09400
C  41.90200 10.83900 24.07800
C  40.94200 12.01300 24.52700
N  42.31700 10.37900 29.31800
C  43.21700 10.77500 28.35900
C  44.34300 11.46100 29.00900
C  44.01000 11.39200 30.40400
C  42.75800 10.78800 30.50300
C  45.66300 12.06800 28.51100
C  44.43300 11.68100 31.77700
O  45.41300 12.20200 32.22600
C  43.30300 11.23800 32.78200
C  43.78000 10.31300 33.80000
O  44.37400 9.23900 33.59500
O  43.54700 10.71800 35.09500
C  44.03600 9.85800 36.23800
H  37.47900 7.57200 32.15900
H  38.20600 8.02100 25.64200
H  43.83900 10.76200 26.29200
H  41.17800 9.36600 34.41400
H  38.41100 9.21300 33.74900
H  38.54800 7.42700 34.89900
H  40.35400 7.31300 34.75200
H  39.43300 6.57300 33.57500
H  39.17400 11.38000 33.77400
H  40.83800 11.93500 33.81100
H  40.17400 10.30300 36.12100
H  39.02900 11.60600 35.93500
H  34.82400 6.70000 30.22500
H  36.07800 6.06100 31.31700
H  35.84600 5.32200 29.63900
H  34.11500 7.01400 27.94300
H  34.74300 5.30800 27.54300
H  33.99000 6.48100 26.31100
H  39.73200 9.52700 24.31900
H  42.56900 8.86500 24.58800
H  41.58900 7.47200 23.76500
H  39.85100 7.38700 23.27000
H  40.27800 6.70600 24.75900
H  41.53800 10.52700 23.09900
H  42.92600 11.20500 24.15800
H  40.55900 11.94000 25.54500
H  40.09600 12.09200 23.84400
H  41.49400 12.95100 24.48000
H  46.13900 12.49500 29.39300
H  45.52100 12.76000 27.68100
H  46.31800 11.31900 28.06500
H  43.01400 12.13700 33.32700
H  45.05500 9.53200 36.03100
H  43.32900 9.06000 36.46200
H  44.06000 10.44900 37.15300
Mg 46.92900 16.58300 28.10600
C  44.82600 16.17300 30.96800
C  49.05500 18.43500 30.20600
C  48.66200 17.39600 25.39500
C  44.45300 14.92900 26.25900
N  47.00700 17.01300 30.43600
C  46.05000 16.79300 31.31900
C  46.34000 17.33600 32.66100
C  47.60500 18.30500 32.36900
C  47.94000 17.87300 30.92200
C  47.57100 19.91500 32.57500
C  46.68400 16.24200 33.75400
C  46.40000 16.58600 35.30700
H  46.11900 18.02800 35.70300
N  48.62900 17.65800 27.83000
C  49.37800 18.37600 28.79500
C  50.60800 18.89300 28.23400
C  50.45400 18.67300 26.82500
C  49.21000 17.85000 26.65800
C  51.80200 19.42300 28.95400
C  51.38000 19.13000 25.68300
O  51.16000 18.84000 24.50200
C  52.63200 20.07100 25.92700
N  46.60600 16.15500 26.12700
C  47.48900 16.61300 25.14900
C  47.09900 16.19700 23.78400
C  46.01200 15.14300 24.10900
C  45.61000 15.42200 25.58400
C  46.56100 17.38200 23.02600
C  46.53200 13.73100 23.92800
C  45.56500 12.76000 23.24600
N  45.03600 15.68600 28.44700
C  44.15200 15.09300 27.63500
C  42.97000 14.63000 28.31200
C  43.19100 15.02800 29.62600
C  44.48200 15.65200 29.70500
C  41.73000 14.07900 27.58200
C  42.56700 15.13000 30.98400
O  41.49500 14.79000 31.42200
C  43.68700 15.82000 31.89900
C  43.02300 16.96300 32.52900
O  42.94400 18.12800 32.05600
O  42.50400 16.49300 33.70300
C  41.69400 17.44000 34.47700
H  49.70700 19.10000 30.77600
H  49.21800 17.61500 24.48100
H  43.76000 14.31600 25.67800
H  45.51600 17.97300 32.98100
H  48.34400 17.85100 33.02900
H  46.68700 20.40600 32.98100
H  47.50600 20.39700 31.60000
H  48.40000 20.21200 33.21800
H  47.69800 15.84700 33.69500
H  46.11300 15.36900 33.43600
H  47.20300 16.39700 36.02000
H  45.62600 15.92900 35.70200
H  52.57200 19.88400 28.33500
H  52.18300 18.58800 29.54200
H  51.42800 20.21700 29.60100
H  52.33000 20.98100 26.44600
H  52.92300 20.41200 24.93400
H  53.44400 19.47200 26.33900
H  47.98900 15.77600 23.31800
H  45.12700 15.36300 23.51200
H  47.42500 17.58300 22.39200
H  46.27100 18.25700 23.60800
H  45.73200 17.06000 22.39500
H  46.68900 13.27300 24.90500
H  47.48700 13.72000 23.40100
H  45.47100 11.87200 23.87100
H  45.94000 12.48200 22.26200
H  44.60900 13.27200 23.13500
H  41.25100 13.28300 28.15400
H  42.02000 13.59700 26.64900
H  41.02300 14.87100 27.33300
H  44.12500 15.09000 32.58000
H  42.35500 18.05100 35.09000
H  40.98800 16.96900 35.16100
H  41.07900 18.09700 33.86200

