158

Mg 48.10100 15.51600 29.07100
C  45.90600 15.37100 31.72700
C  50.19700 17.34600 31.20600
C  50.26100 15.92100 26.62000
C  45.69400 14.19700 27.01800
N  48.06500 16.27700 31.20000
C  47.12100 15.93700 32.09900
C  47.52600 16.36900 33.52300
C  48.71800 17.32700 33.30600
C  49.01700 16.93300 31.80600
C  48.46800 18.89100 33.43000
C  47.80000 15.12400 34.38000
C  47.53500 15.16600 35.89100
H  47.19900 16.52800 36.57700
N  50.09300 16.29700 28.96500
C  50.78700 16.99200 29.94800
C  52.10000 17.09800 29.51600
C  52.18400 16.52700 28.26000
C  50.80300 16.30800 27.82800
C  53.19400 17.61200 30.38000
C  53.36700 16.33100 27.25100
O  53.20500 15.77600 26.15100
C  54.80700 16.72900 27.59400
N  47.98900 15.16300 27.11700
C  49.00900 15.51200 26.22900
C  48.47200 15.23400 24.82300
C  47.11200 14.50700 24.96200
C  46.90600 14.65400 26.48800
C  48.61800 16.51700 23.93800
C  47.15200 12.99600 24.55600
C  46.05900 12.46100 23.67300
N  46.10800 14.89200 29.22000
C  45.22300 14.25300 28.37700
C  43.92600 14.01400 28.96800
C  44.16100 14.42400 30.31700
C  45.48400 14.93600 30.41100
C  42.76400 13.25200 28.42200
C  43.56700 14.36200 31.69600
O  42.54100 13.90000 32.06600
C  44.66700 15.15100 32.56800
C  44.03100 16.37200 33.14500
O  43.97100 17.46300 32.57100
O  43.48500 16.16100 34.40300
C  42.82700 17.29600 34.97900
H  50.87100 18.00800 31.75400
H  50.88800 16.06500 25.73800
H  44.89800 13.83000 26.36600
H  46.67800 16.92100 33.92700
H  49.48300 16.90800 33.95900
H  47.39300 19.01300 33.56500
H  48.69600 19.33100 32.45900
H  49.11000 19.23600 34.24000
H  48.81900 14.78100 34.19800
H  47.16900 14.34900 33.94700
H  48.36400 14.70900 36.43200
H  46.71100 14.48300 36.09600
H  53.83100 16.77800 30.67500
H  52.76900 17.97400 31.31600
H  53.69900 18.46400 29.92500
H  54.65700 17.74900 27.94900
H  55.41800 16.63200 26.69700
H  55.32100 16.14800 28.36000
H  49.11200 14.53000 24.29100
H  46.37100 15.01000 24.34100
H  48.49700 17.44700 24.49400
H  47.83900 16.65400 23.18800
H  49.58800 16.61100 23.45100
H  47.06700 12.49100 25.51800
H  48.13700 12.78600 24.13900
H  46.41000 12.11500 22.70000
H  45.36100 13.27500 23.47400
H  45.37000 11.78800 24.18300
H  43.15700 12.66000 27.59600
H  42.01900 13.94400 28.03100
H  42.20300 12.75000 29.21000
H  44.97800 14.50400 33.38900
H  43.47900 18.11900 35.27100
H  42.44400 16.90200 35.92100
H  41.96800 17.56500 34.36400
Mg 6.33000 54.13900 41.31600
C  5.93800 50.55200 41.00300
C  9.39700 54.03100 39.97300
C  6.28400 57.47800 41.27400
C  2.94000 54.13100 42.44700
N  7.41200 52.44100 40.55100
C  7.14400 51.07600 40.48400
C  8.38700 50.30500 39.93100
C  9.54000 51.40000 39.90400
C  8.74500 52.72000 40.17400
C  10.71200 51.25200 40.92600
C  8.21600 49.58800 38.54400
C  7.50000 50.34100 37.37600
H  6.81800 49.53300 36.19100
N  7.71400 55.62600 40.72600
C  8.94500 55.38300 40.18500
C  9.59700 56.58600 39.98900
C  8.70200 57.60400 40.31700
C  7.48900 56.91100 40.80500
C  11.00700 56.60100 39.44200
C  8.93500 59.12500 40.17600
O  9.98700 59.60800 39.70500
C  7.86800 60.22300 40.37500
N  4.71500 55.59200 41.66300
C  5.04200 56.90400 41.69500
C  3.81200 57.78600 41.94100
C  2.67900 56.64800 42.12500
C  3.49000 55.39600 42.09900
C  3.97500 58.77500 43.16400
C  1.59500 56.79900 41.00300
C  0.38000 57.59500 41.43500
N  4.71300 52.66800 41.60000
C  3.50600 52.82300 42.19500
C  2.95300 51.50900 42.59900
C  3.85600 50.54900 42.01200
C  4.90200 51.37400 41.43300
C  1.68900 51.26800 43.40400
C  4.17100 49.14500 41.89800
O  3.52000 48.22600 42.42100
C  5.55400 49.09700 41.21100
C  5.43300 48.17100 40.00600
O  4.88800 48.47500 38.89900
O  5.90200 46.89800 40.26700
C  5.50400 45.97000 39.21100
H  10.42600 54.01700 39.60900
H  6.29200 58.55300 41.46500
H  1.89700 54.06500 42.76300
H  8.66000 49.56800 40.68700
H  9.98500 51.40900 38.90900
H  11.70500 51.26600 40.47600
H  10.60400 50.24500 41.32800
H  10.63000 52.11200 41.59100
H  7.88000 48.56900 38.73700
H  9.20400 49.40000 38.12500
H  8.19800 51.04600 36.92500
H  6.73500 50.94000 37.87000
H  11.67300 56.08800 40.13600
H  11.28500 57.65000 39.34000
H  11.12500 56.20500 38.43400
H  8.21400 61.17000 39.96300
H  7.54000 60.27700 41.41300
H  7.03300 59.98400 39.71500
H  3.52700 58.36300 41.06100
H  2.24200 56.88000 43.09600
H  3.73900 59.82900 43.01200
H  5.03900 58.81400 43.39700
H  3.50800 58.56900 44.12700
H  1.28400 55.80900 40.66800
H  2.01600 57.33800 40.15400
H  0.15300 58.31400 40.64800
H  0.58800 58.18800 42.32500
H  -0.50000 56.97400 41.60400
H  1.71900 51.87100 44.31100
H  1.77700 50.26500 43.82300
H  0.78000 51.41200 42.82100
H  6.34100 48.60600 41.78400
H  4.41900 45.98900 39.10900
H  5.68400 44.93400 39.49900
H  5.97500 46.08000 38.23400

