158

Mg 25.43400 1.22600 30.09900
C  27.73200 1.04400 32.76800
C  22.96100 1.45600 32.33800
C  23.47900 1.32400 27.47300
C  28.24100 0.59300 27.87800
N  25.41000 1.16100 32.32300
C  26.43300 1.23900 33.20600
C  25.88300 1.49500 34.64600
C  24.35200 1.29800 34.50500
C  24.20100 1.29300 32.96500
C  23.67200 0.06000 35.17800
C  26.29800 2.86200 35.09900
C  27.10500 2.95100 36.40800
H  26.45000 3.74800 37.55400
N  23.44900 1.44100 29.91900
C  22.53900 1.45400 30.92800
C  21.20300 1.60700 30.38100
C  21.35400 1.60800 28.98200
C  22.84000 1.48000 28.71300
C  19.94300 1.77800 31.20700
C  20.27600 1.65200 27.85700
O  20.52600 1.74800 26.68900
C  18.80100 1.59500 28.20200
N  25.83100 0.79400 27.93800
C  24.77900 1.02600 27.06300
C  25.25300 1.14600 25.61900
C  26.81500 1.04300 25.80200
C  26.97400 0.81200 27.30900
C  24.61200 0.09900 24.59900
C  27.63300 2.26900 25.28300
C  29.07000 2.09500 24.61600
N  27.48400 0.87700 30.21200
C  28.48400 0.51900 29.23400
C  29.71200 0.34500 29.87700
C  29.41700 0.58100 31.24000
C  28.07600 0.87700 31.39700
C  31.12900 0.16200 29.28600
C  30.04500 0.66500 32.60800
O  31.16700 0.46200 32.92200
C  29.02000 1.13000 33.60900
C  28.93200 0.12100 34.68800
O  28.33900 -0.95000 34.64300
O  29.55100 0.54800 35.84200
C  29.34800 -0.18400 37.09900
H  22.06400 1.53600 32.95500
H  22.91700 1.45300 26.54500
H  29.11800 0.58000 27.22800
H  26.33400 0.72700 35.27500
H  23.82800 2.24400 34.64000
H  22.86700 0.45600 35.79700
H  24.38500 -0.52800 35.75500
H  23.11000 -0.63000 34.54700
H  25.38500 3.44800 35.20800
H  26.92500 3.24400 34.29400
H  27.93500 3.59300 36.11300
H  27.54300 2.00000 36.71000
H  19.32500 2.61400 30.88000
H  20.16700 1.84000 32.27100
H  19.42700 0.82000 31.25700
H  18.34000 2.51600 28.55800
H  18.61700 0.77600 28.89700
H  18.22700 1.23000 27.35000
H  25.00800 2.12900 25.21800
H  27.26700 0.20600 25.26900
H  23.98200 -0.61800 25.12500
H  25.40000 -0.50300 24.14700
H  23.98100 0.57600 23.84900
H  27.78700 2.98800 26.08800
H  26.99500 2.78700 24.56600
H  29.47800 1.10200 24.80000
H  29.75300 2.77700 25.12200
H  28.94300 2.32000 23.55700
H  31.33600 0.95900 28.57300
H  31.17100 -0.71100 28.63500
H  31.76000 0.14400 30.17400
H  29.13800 2.14100 33.99900
H  30.34900 -0.20200 37.52900
H  28.98000 -1.20000 36.95300
H  28.77600 0.37100 37.84200
Mg 49.49500 46.65700 43.85800
C  46.34700 46.93100 42.50300
C  49.96200 43.67500 42.29400
C  52.95100 46.93000 44.46800
C  49.32700 50.02200 44.82100
N  48.22400 45.44400 42.45200
C  46.96400 45.68200 42.07000
C  46.41700 44.59500 41.11300
C  47.59600 43.48800 41.18000
C  48.68400 44.20800 42.03000
C  47.18000 42.10700 41.74100
C  46.02500 45.21400 39.70200
C  44.68200 44.83500 39.14000
H  44.58100 43.78300 38.06300
N  51.15800 45.46300 43.49500
C  51.14500 44.24200 42.93000
C  52.45900 43.62100 42.90100
C  53.29500 44.49800 43.65000
C  52.49500 45.71100 43.91100
C  52.73400 42.24200 42.42300
C  54.71500 44.20000 43.99800
O  55.23100 43.14100 43.68700
C  55.49300 45.10600 44.85900
N  50.97200 48.33500 44.51700
C  52.30200 48.15500 44.70000
C  52.93500 49.45600 45.34700
C  51.75400 50.42100 45.43100
C  50.61700 49.54100 45.01300
C  53.87600 49.21700 46.56700
C  51.75000 51.89700 44.70900
C  51.79100 53.11400 45.70500
N  48.07800 48.11900 43.91700
C  48.14700 49.43900 44.31300
C  46.84900 50.05200 44.12000
C  46.07500 49.06700 43.49900
C  46.90600 47.96300 43.31800
C  46.43700 51.40100 44.45100
C  44.86400 48.79100 42.79700
O  43.85000 49.37200 42.61500
C  44.97000 47.35300 42.22400
C  44.03700 46.52800 43.01600
O  43.94800 46.57600 44.23500
O  43.23300 45.91000 42.12500
C  42.01100 45.29100 42.65300
H  50.00600 42.76200 41.69700
H  54.04100 46.97500 44.52200
H  49.18300 51.07400 45.08000
H  45.53600 44.10700 41.53100
H  48.05200 43.29000 40.21000
H  47.84900 41.95200 42.58700
H  47.37200 41.24100 41.10800
H  46.14500 41.99100 42.06200
H  46.81500 44.82200 39.06200
H  45.95100 46.30000 39.65300
H  44.09000 45.68000 38.78800
H  44.03800 44.54100 39.96900
H  53.22100 42.38400 41.45800
H  51.81800 41.65200 42.42100
H  53.34300 41.77800 43.19800
H  56.32400 44.47000 45.16500
H  54.83600 45.45800 45.65400
H  55.88100 45.99400 44.36200
H  53.52600 50.01300 44.62000
H  51.68400 50.58900 46.50600
H  54.01900 48.15700 46.77300
H  53.47800 49.73800 47.43800
H  54.86100 49.56500 46.25600
H  50.85000 51.95900 44.09600
H  52.58600 51.94700 44.01100
H  52.38300 53.86800 45.18700
H  52.17600 52.92800 46.70800
H  50.74200 53.38200 45.82700
H  46.71900 51.54400 45.49400
H  45.40200 51.53200 44.13400
H  46.99600 52.11800 43.85100
H  44.80000 47.34300 41.14700
H  42.28700 44.23900 42.73600
H  41.18800 45.46000 41.95900
H  41.71900 45.75100 43.59700

