158

Mg -10.18200 39.05600 41.23400
C  -9.00000 35.81300 40.70500
C  -7.13300 40.13700 39.96900
C  -11.32700 42.20100 41.01600
C  -13.39300 37.81600 41.96400
N  -8.35500 38.02500 40.27000
C  -8.08900 36.71100 40.22600
C  -6.75700 36.55100 39.43000
C  -6.03500 37.89700 39.62000
C  -7.26500 38.74400 39.98000
C  -4.95300 37.92000 40.69100
C  -7.08300 36.12300 37.96200
C  -6.11700 35.12600 37.31300
H  -5.70400 35.71300 35.94500
N  -9.37300 40.94800 40.62300
C  -8.09100 41.18800 40.17600
C  -7.85800 42.55700 39.99200
C  -9.06700 43.14400 40.33000
C  -9.98900 42.10600 40.62800
C  -6.64200 43.17800 39.43200
C  -9.35300 44.68500 40.31800
O  -8.44600 45.50700 39.98600
C  -10.74100 45.29300 40.55400
N  -12.18100 39.93900 41.24400
C  -12.34500 41.28600 41.30800
C  -13.78200 41.63300 41.86500
C  -14.42400 40.16400 42.03200
C  -13.26500 39.19400 41.70700
C  -13.92200 42.52200 43.01100
C  -15.73500 39.84300 41.13400
C  -16.87900 39.24300 41.87200
N  -11.02000 37.24800 41.34300
C  -12.32700 36.88500 41.81800
C  -12.42300 35.44800 41.89200
C  -11.14100 34.96400 41.46400
C  -10.31700 36.12300 41.13300
C  -13.54800 34.55800 42.35300
C  -10.30500 33.82000 41.27900
O  -10.52000 32.64300 41.46400
C  -8.91900 34.30400 40.76300
C  -7.75100 33.80200 41.54600
O  -6.94600 32.98100 41.14500
O  -7.84500 34.16400 42.86900
C  -6.93400 33.64600 43.85500
H  -6.15700 40.43700 39.58200
H  -11.73300 43.19100 41.23300
H  -14.40800 37.52200 42.23500
H  -6.25200 35.71400 39.91300
H  -5.65700 38.17300 38.63600
H  -4.63500 36.92600 41.00700
H  -5.31200 38.45900 41.56800
H  -4.17600 38.47100 40.16100
H  -7.24000 37.02600 37.37200
H  -8.04400 35.61400 38.03100
H  -6.70600 34.22100 37.17000
H  -5.24100 34.87200 37.91000
H  -6.74800 43.26900 38.35100
H  -5.75700 42.54200 39.46700
H  -6.40800 44.14300 39.88100
H  -11.38500 44.98600 39.73000
H  -10.61100 46.37500 40.53500
H  -11.16700 44.95500 41.49900
H  -14.37400 42.16600 41.12200
H  -14.68900 40.09500 43.08700
H  -14.91000 42.51000 43.47200
H  -13.83800 43.58400 42.77700
H  -13.07600 42.26400 43.64800
H  -15.56800 39.17000 40.29300
H  -16.18000 40.74800 40.72000
H  -17.70800 39.93400 42.02900
H  -16.52800 38.97400 42.86800
H  -17.34400 38.39300 41.37300
H  -13.26000 33.62900 42.84400
H  -13.93600 34.13100 41.42800
H  -14.21500 35.11200 43.01300
H  -8.78300 33.90100 39.76000
H  -6.23400 32.87600 43.53200
H  -7.45800 33.25200 44.72600
H  -6.40000 34.51800 44.23300
Mg -12.57100 16.87700 42.58500
C  -9.59300 15.30600 41.77100
C  -11.38400 19.69100 40.84000
C  -15.84500 18.22000 42.18500
C  -14.05000 13.73900 43.39200
N  -10.70300 17.40400 41.43800
C  -9.57400 16.62500 41.37600
C  -8.31300 17.41400 40.83200
C  -8.88300 18.84200 40.68800
C  -10.42200 18.68900 41.07400
C  -8.13700 19.85200 41.55900
C  -7.68600 16.75400 39.56700
C  -6.23300 16.18100 39.80500
H  -5.94900 14.84900 39.01600
N  -13.45300 18.75300 41.84800
C  -12.72800 19.74700 41.25000
C  -13.66700 20.85900 40.97600
C  -14.97900 20.42900 41.26800
C  -14.86100 19.07200 41.72100
C  -13.19700 22.09100 40.26700
C  -16.23500 21.28500 41.01400
O  -16.14900 22.42500 40.49600
C  -17.56700 20.81000 41.36900
N  -14.66200 16.07800 42.89000
C  -15.71800 16.85500 42.67300
C  -17.01900 15.98100 42.83100
C  -16.52700 14.65400 43.45700
C  -14.99600 14.79100 43.25500
C  -18.22300 16.62000 43.65200
C  -17.16800 13.45000 42.76000
C  -17.98400 12.55300 43.61000
N  -11.95100 14.96300 42.70700
C  -12.63500 13.83300 43.15400
C  -11.74700 12.73700 43.08400
C  -10.50200 13.28600 42.69800
C  -10.71400 14.64500 42.37700
C  -11.97400 11.25300 43.37700
C  -9.08600 12.97200 42.55500
O  -8.51000 11.92100 42.74000
C  -8.41600 14.27900 41.91400
C  -7.34700 14.54700 42.94700
O  -7.44200 15.36000 43.83100
O  -6.18200 13.85500 42.73400
C  -5.17200 14.08000 43.73500
H  -10.94200 20.57200 40.36900
H  -16.89700 18.50400 42.10800
H  -14.43800 12.79800 43.78800
H  -7.65800 17.40300 41.70300
H  -8.81500 19.17000 39.65100
H  -8.70900 20.08800 42.45600
H  -8.13400 20.75400 40.94800
H  -7.14700 19.46900 41.80900
H  -7.58000 17.42700 38.71600
H  -8.30800 15.88800 39.34200
H  -5.98000 16.05600 40.85800
H  -5.54700 16.92900 39.40600
H  -13.73900 22.26800 39.33800
H  -12.11100 22.17900 40.21900
H  -13.56400 22.87700 40.92600
H  -17.81900 19.86200 40.89300
H  -18.21800 21.57800 40.95300
H  -17.53300 20.71500 42.45500
H  -17.37400 15.84900 41.80900
H  -16.64800 14.70500 44.53900
H  -18.02100 17.65000 43.94600
H  -18.43100 16.02500 44.54200
H  -19.16100 16.63700 43.09700
H  -16.37200 12.82900 42.34800
H  -17.83300 13.76300 41.95600
H  -19.04300 12.65400 43.37100
H  -17.94100 12.67600 44.69200
H  -17.82100 11.50800 43.34400
H  -11.03500 10.83600 43.74200
H  -12.38300 10.70500 42.52800
H  -12.76300 11.14800 44.12200
H  -7.93000 14.18000 40.94400
H  -5.60800 14.08900 44.73500
H  -4.50800 14.93300 43.59700
H  -4.37300 13.35300 43.59000

