158

Mg 48.10500 15.66200 27.87900
C  46.21100 15.55400 30.86800
C  50.47400 17.55000 29.31100
C  49.65700 16.05600 24.69700
C  45.34800 14.52200 26.18900
N  48.32300 16.51900 29.84900
C  47.48700 16.26400 30.95200
C  48.15500 16.75700 32.25900
C  49.32600 17.61900 31.65300
C  49.42500 17.19400 30.18300
C  49.19200 19.16800 31.80300
C  48.56500 15.56800 33.27500
C  48.47700 15.94400 34.76100
H  48.44100 17.44100 35.20800
N  49.90200 16.51300 27.16600
C  50.80000 17.12800 27.98300
C  52.05900 17.25800 27.25800
C  51.81100 16.93000 25.86400
C  50.37400 16.50800 25.84400
C  53.18500 17.89300 27.99200
C  52.76600 16.99900 24.73700
O  52.47600 16.71700 23.60500
C  54.24000 17.40400 24.95400
N  47.66300 15.25600 25.73600
C  48.41200 15.55300 24.63900
C  47.63600 15.37100 23.29600
C  46.28500 14.73600 23.85000
C  46.44400 14.79500 25.35100
C  47.44300 16.74700 22.56100
C  45.98400 13.34800 23.31200
C  44.71600 13.26600 22.42300
N  46.22500 14.98200 28.42000
C  45.23300 14.54600 27.63500
C  44.05300 14.16000 28.40400
C  44.39600 14.56500 29.75400
C  45.69200 15.07900 29.62300
C  42.84500 13.54900 27.85500
C  43.98800 14.66400 31.12800
O  42.90400 14.37100 31.56600
C  45.24200 15.22400 31.91000
C  44.86000 16.45300 32.59700
O  44.75100 17.57200 32.06800
O  44.84600 16.26300 33.94900
C  44.40600 17.50700 34.61200
H  51.20200 18.16000 29.84900
H  50.03900 16.21100 23.68600
H  44.47400 14.09100 25.69700
H  47.37500 17.40100 32.66600
H  50.23300 17.22700 32.11300
H  49.08300 19.56600 30.79400
H  50.06200 19.60100 32.29600
H  48.29800 19.41700 32.37400
H  49.55500 15.20800 32.99400
H  47.93200 14.69100 33.13700
H  49.29000 15.49900 35.33600
H  47.61800 15.40300 35.15900
H  53.49500 18.88000 27.64700
H  54.05100 17.24300 27.86700
H  53.03500 17.96700 29.06900
H  54.79200 16.78100 25.65800
H  54.33300 18.44400 25.26800
H  54.72300 17.36500 23.97800
H  48.13300 14.68200 22.61300
H  45.42600 15.35900 23.60000
H  47.85800 17.49600 23.23600
H  46.36600 16.87600 22.45100
H  48.00100 16.74700 21.62500
H  45.80100 12.60400 24.08700
H  46.83100 13.06600 22.68700
H  43.83600 13.06400 23.03400
H  44.88200 12.43700 21.73500
H  44.50900 14.21100 21.92100
H  42.12100 13.48600 28.66700
H  43.03500 12.49100 27.67800
H  42.43700 14.07400 26.99100
H  45.55500 14.55500 32.71100
H  44.21700 17.21800 35.64500
H  43.51000 17.88700 34.12000
H  45.15100 18.29900 34.68900
Mg 48.36800 45.25800 42.42000
C  45.10800 45.82600 40.95300
C  48.33500 42.26300 40.97200
C  51.67800 45.34700 42.44300
C  48.15700 48.61700 43.51400
N  46.92700 44.26600 40.97700
C  45.58800 44.57900 40.58600
C  44.88000 43.43900 39.84500
C  45.81700 42.23700 40.23300
C  47.16200 42.92600 40.78300
C  45.24200 41.27900 41.34900
C  44.70900 43.82500 38.36800
C  43.52700 43.20800 37.68800
H  43.75900 42.70200 36.24800
N  49.81700 43.90400 42.00200
C  49.55300 42.66100 41.34200
C  50.86000 41.94000 41.19300
C  51.84900 42.90400 41.69500
C  51.13800 44.12400 42.01700
C  51.09100 40.66600 40.66400
C  53.30600 42.60100 41.92600
O  53.75200 41.51200 41.58400
C  54.28700 43.48600 42.58900
N  49.66600 46.75800 42.88300
C  50.99300 46.51000 42.92000
C  51.78300 47.77500 43.40400
C  50.67900 48.70000 43.80200
C  49.39500 47.96200 43.48100
C  52.93100 47.60100 44.43300
C  50.73200 50.03500 43.15900
C  50.41300 51.23200 44.14100
N  46.93900 46.90900 42.31500
C  46.98100 48.16800 42.87900
C  45.74500 48.88900 42.63800
C  44.98700 47.92400 41.91600
C  45.79000 46.79500 41.71300
C  45.45300 50.32500 43.00500
C  43.65100 47.69100 41.30000
O  42.67700 48.48000 41.23400
C  43.72600 46.34500 40.62800
C  42.62500 45.62400 41.36600
O  41.72200 45.00300 40.89100
O  42.88300 45.79000 42.75000
C  42.01000 44.94500 43.54700
H  48.25700 41.22500 40.64200
H  52.76900 45.34500 42.39600
H  48.16600 49.62700 43.93100
H  43.91600 43.27200 40.32700
H  45.93100 41.58100 39.37000
H  44.62900 41.89500 42.00600
H  45.98800 40.68000 41.87100
H  44.55500 40.53200 40.95000
H  45.58500 43.39400 37.88300
H  44.79400 44.88200 38.11700
H  42.74900 43.97000 37.63900
H  43.06600 42.39500 38.24800
H  50.10400 40.23900 40.48400
H  51.65300 40.14900 41.44200
H  51.58800 40.76800 39.70000
H  53.84900 43.87200 43.50900
H  54.55600 44.27000 41.88000
H  55.15200 42.86900 42.83200
H  52.22200 48.09300 42.45800
H  50.68500 48.87400 44.87800
H  52.98200 46.56200 44.75700
H  53.01500 48.22400 45.32300
H  53.89500 47.71400 43.93800
H  49.99500 50.11100 42.35900
H  51.74300 50.15100 42.77000
H  49.63700 51.08600 44.89200
H  50.12500 52.07400 43.51200
H  51.30000 51.34800 44.76500
H  45.92700 51.09200 42.39200
H  45.82300 50.44500 44.02300
H  44.38300 50.52900 43.01800
H  43.42700 46.39900 39.58100
H  41.61300 44.07800 43.01700
H  41.20800 45.56900 43.94100
H  42.59000 44.66100 44.42500

