158

Mg 17.50700 -2.20800 27.67800
C  16.29700 -0.15700 30.28300
C  19.25800 -4.05200 30.00800
C  18.76100 -4.06900 25.14900
C  15.86700 -0.11700 25.39700
N  17.79300 -2.01900 29.88900
C  17.13500 -1.17600 30.74100
C  17.73200 -1.36400 32.13000
C  18.58500 -2.63500 32.02900
C  18.55400 -2.97100 30.56600
C  19.99300 -2.35900 32.57400
C  16.53300 -1.47600 33.24200
C  16.62700 -0.41400 34.35800
H  17.99800 0.21200 34.71800
N  18.77800 -3.84900 27.59100
C  19.35500 -4.51600 28.67000
C  20.06500 -5.61600 28.15700
C  20.07900 -5.61400 26.77200
C  19.14900 -4.50800 26.45800
C  20.84200 -6.53300 28.99900
C  20.85900 -6.47200 25.82800
O  20.77700 -6.32100 24.59900
C  21.93200 -7.40500 26.20300
N  17.26900 -2.18300 25.56700
C  17.92900 -2.98800 24.71200
C  17.83600 -2.53600 23.28300
C  16.79400 -1.37800 23.31400
C  16.65000 -1.18400 24.84200
C  19.20400 -2.04700 22.67200
C  15.42800 -1.65300 22.53600
C  15.11200 -0.52700 21.46900
N  16.31200 -0.41400 27.71000
C  15.68400 0.28600 26.72600
C  14.91000 1.38400 27.24900
C  15.08500 1.30300 28.68500
C  15.96000 0.17300 28.86300
C  13.95400 2.28400 26.42300
C  14.73300 1.81700 29.99400
O  13.98600 2.77400 30.31700
C  15.56100 0.97800 31.01800
C  16.57300 1.91500 31.62100
O  17.70500 1.97200 31.22600
O  16.03600 2.78900 32.46400
C  16.87100 3.96300 32.87000
H  19.80000 -4.56900 30.80300
H  19.10000 -4.60700 24.26100
H  15.25900 0.45000 24.68900
H  18.31000 -0.44600 32.24500
H  18.19200 -3.45300 32.63300
H  20.81100 -2.83600 32.03400
H  20.05200 -2.84300 33.54900
H  20.18500 -1.28600 32.59700
H  16.40100 -2.49600 33.60200
H  15.61400 -1.32400 32.67700
H  16.26700 -0.89000 35.27000
H  15.90500 0.30700 33.97400
H  20.73100 -6.34900 30.06800
H  21.88300 -6.23100 28.89100
H  20.62500 -7.58000 28.78700
H  22.08400 -8.14200 25.41400
H  21.65300 -8.06000 27.02800
H  22.83000 -6.86300 26.49700
H  17.48600 -3.36500 22.66800
H  17.32400 -0.52700 22.88700
H  19.71300 -2.82100 22.09700
H  19.83000 -1.90300 23.55200
H  19.05000 -1.18500 22.02200
H  14.67100 -1.40500 23.28000
H  15.35100 -2.61600 22.03200
H  14.47000 0.28000 21.82000
H  14.81400 -1.15900 20.63200
H  16.06800 -0.08600 21.18700
H  14.03800 2.12400 25.34800
H  14.11100 3.31000 26.75400
H  12.97400 1.94800 26.76200
H  14.86000 0.58600 31.75400
H  17.15800 4.58400 32.02200
H  17.72000 3.59600 33.44600
H  16.15500 4.61000 33.37700
Mg 44.17300 4.47900 48.17800
C  42.02500 7.14500 47.71600
C  41.65800 2.36200 47.62400
C  46.50400 2.08800 47.73600
C  46.87300 6.91800 48.00800
N  42.09500 4.77200 47.76700
C  41.44000 5.90800 47.67000
C  40.02600 5.65100 47.29400
C  39.87300 4.16500 47.59100
C  41.31400 3.69100 47.70300
C  39.23400 3.86100 49.01500
C  39.65300 6.00300 45.78400
C  38.30900 6.69500 45.53000
H  37.71200 6.71100 44.11200
N  44.08300 2.48100 47.75600
C  42.93500 1.73900 47.45400
C  43.29300 0.35200 47.22500
C  44.72900 0.28500 47.29700
C  45.19300 1.65500 47.57900
C  42.32800 -0.69500 46.96100
C  45.44800 -0.98200 47.11700
O  44.83000 -1.96200 46.61900
C  46.89000 -1.14300 47.19800
N  46.33500 4.48600 47.87800
C  47.03900 3.33600 47.79000
C  48.57200 3.50000 47.86100
C  48.72500 5.07400 47.96000
C  47.20000 5.55500 47.96500
C  49.41400 2.66700 48.79700
C  49.48900 5.82300 46.83400
C  50.81900 6.50900 47.16800
N  44.45600 6.61900 48.10800
C  45.56300 7.47200 47.97900
C  45.14600 8.86300 47.83100
C  43.74700 8.73400 47.80900
C  43.37700 7.42800 47.91400
C  45.97000 10.08900 47.67100
C  42.57800 9.52300 47.54000
O  42.34800 10.77200 47.35700
C  41.40900 8.48200 47.64600
C  40.50600 8.76300 48.79400
O  40.84800 8.92500 49.93100
O  39.20400 8.68700 48.38100
C  38.13900 8.77500 49.42200
H  40.83500 1.65100 47.72600
H  47.23900 1.28500 47.82700
H  47.83100 7.43400 48.10600
H  39.33100 6.28200 47.84900
H  39.34900 3.57800 46.83700
H  38.87200 4.77000 49.49400
H  40.09600 3.49400 49.57200
H  38.49000 3.06400 48.98500
H  39.73900 5.09900 45.18100
H  40.37100 6.70400 45.35900
H  38.30000 7.73800 45.84800
H  37.56000 6.18700 46.13600
H  42.45200 -1.26000 46.03700
H  41.28000 -0.39900 47.00700
H  42.44000 -1.45000 47.73900
H  47.12300 -0.80100 48.20700
H  47.35800 -0.54500 46.41600
H  47.14100 -2.19800 47.08400
H  48.92700 3.22300 46.86800
H  49.03500 5.25900 48.98900
H  50.10300 3.30500 49.35100
H  50.04100 2.08400 48.12300
H  48.87100 1.97200 49.43800
H  48.82800 6.64600 46.56100
H  49.58300 5.16300 45.97200
H  50.78400 6.73100 48.23500
H  51.03200 7.43000 46.62500
H  51.60100 5.77800 46.96500
H  46.25500 10.25000 48.71100
H  45.40000 10.94700 47.31300
H  46.76400 9.80000 46.98300
H  40.77000 8.64100 46.77700
H  38.18700 9.75100 49.90700
H  38.19900 8.01200 50.19800
H  37.16500 8.65200 48.95000

