158

Mg 1.94400 41.64700 24.97600
C  2.57900 41.98300 28.44700
C  -1.14000 40.65500 25.83900
C  1.43700 40.90700 21.79800
C  5.31100 42.40700 24.39600
N  0.79200 41.47900 26.95100
C  1.28400 41.68500 28.23000
C  0.18700 41.58000 29.28300
C  -1.02600 40.92500 28.44000
C  -0.43200 40.97500 26.98000
C  -1.51800 39.47800 28.92600
C  -0.10800 42.98600 29.82600
C  -0.13600 43.04900 31.39500
H  -0.87500 41.91300 32.17200
N  0.31800 41.03400 23.93400
C  -0.84800 40.69300 24.44600
C  -1.75800 40.29100 23.36500
C  -1.04900 40.25500 22.15800
C  0.27700 40.69600 22.54600
C  -3.24400 40.09000 23.57700
C  -1.50600 39.89700 20.78000
O  -0.69400 39.84200 19.84100
C  -2.98000 39.68500 20.43700
N  3.18600 41.68100 23.35600
C  2.72600 41.34300 22.13300
C  3.86600 41.57800 21.04900
C  5.02300 42.21500 21.85500
C  4.47100 42.14500 23.25400
C  4.37200 40.30500 20.21400
C  5.36200 43.69200 21.45500
C  5.86000 43.81300 20.02000
N  3.66000 42.14800 26.10600
C  4.94100 42.46900 25.72700
C  5.74300 42.78300 26.93100
C  4.86400 42.53200 27.97200
C  3.63200 42.24400 27.49800
C  7.19300 43.15600 26.93700
C  4.77900 42.55700 29.44600
O  5.59200 42.59500 30.36800
C  3.30700 42.08100 29.79200
C  3.28600 40.78400 30.49400
O  3.90700 39.75900 30.15300
O  2.45600 40.85500 31.54000
C  2.26400 39.56300 32.27600
H  -2.14300 40.27900 26.05400
H  1.45700 40.70700 20.72400
H  6.35400 42.65200 24.18100
H  0.40200 40.78900 30.00100
H  -1.89600 41.57500 28.53300
H  -2.45400 39.67400 29.45000
H  -0.76700 39.01500 29.56700
H  -1.71500 38.88900 28.03000
H  -1.04100 43.43100 29.48000
H  0.78600 43.51900 29.50200
H  -0.63600 43.98000 31.65900
H  0.86900 43.11000 31.81200
H  -3.84500 40.82400 23.03900
H  -3.49000 40.00700 24.63500
H  -3.59100 39.14300 23.16400
H  -3.25100 38.68900 20.78400
H  -3.01300 39.66200 19.34800
H  -3.64100 40.46900 20.80600
H  3.56900 42.28300 20.27300
H  5.89400 41.57200 21.73400
H  4.16100 39.39600 20.77700
H  5.43700 40.39400 19.99600
H  3.99800 40.14800 19.20200
H  6.09600 44.13700 22.12700
H  4.48600 44.29900 21.68300
H  5.04100 44.37100 19.56500
H  5.99600 42.86900 19.49300
H  6.67700 44.51100 19.83700
H  7.74800 42.37900 27.46200
H  7.38100 44.02100 27.57200
H  7.58700 43.16800 25.92000
H  2.85600 42.83300 30.44100
H  2.94400 39.38600 33.10900
H  2.42300 38.67200 31.67000
H  1.29000 39.53900 32.76500
Mg -5.66100 24.83900 26.19900
C  -4.42800 26.30300 29.09200
C  -7.94200 23.07900 28.13000
C  -6.38100 23.12900 23.45100
C  -3.21600 26.57300 24.44100
N  -6.11600 24.74100 28.41700
C  -5.46300 25.37900 29.38700
C  -5.97100 25.07800 30.72700
C  -6.94000 23.91700 30.46800
C  -6.97000 23.83300 28.92000
C  -6.71700 22.56300 31.16100
C  -6.68400 26.25100 31.41500
C  -6.35000 26.50700 32.95000
H  -5.86700 25.31500 33.80100
N  -6.94800 23.32200 25.87900
C  -7.89600 22.83400 26.73300
C  -8.85900 22.06200 25.90000
C  -8.36200 21.96500 24.57100
C  -7.19100 22.76500 24.60500
C  -10.06300 21.28900 26.51500
C  -8.76700 21.02700 23.42100
O  -7.97300 20.82200 22.56200
C  -10.09800 20.24600 23.39900
N  -4.77300 24.68000 24.29600
C  -5.19500 23.89000 23.34800
C  -4.40000 24.11900 22.01000
C  -3.65100 25.42800 22.26300
C  -3.98300 25.63600 23.72100
C  -3.70500 22.83900 21.59500
C  -3.80700 26.58200 21.22000
C  -2.64600 26.91000 20.34800
N  -4.07600 26.17900 26.60300
C  -3.27100 26.90300 25.81100
C  -2.35900 27.73600 26.55500
C  -2.80600 27.53700 27.83900
C  -3.92500 26.69500 27.79700
C  -1.30900 28.60300 25.95900
C  -2.46100 27.86500 29.26600
O  -1.62300 28.57000 29.79400
C  -3.53400 27.08400 30.08600
C  -2.67400 26.26700 31.13000
O  -2.14600 25.15700 30.90500
O  -2.49500 27.03800 32.29100
C  -1.58500 26.49800 33.27600
H  -8.69500 22.68800 28.81700
H  -6.77100 22.84300 22.47200
H  -2.34200 26.94800 23.90600
H  -5.15200 24.57800 31.24300
H  -7.93300 24.24900 30.77100
H  -7.47700 22.47700 31.93700
H  -5.73100 22.58000 31.62700
H  -6.72400 21.75500 30.43000
H  -7.77200 26.25300 31.36100
H  -6.43900 27.23100 31.00400
H  -7.16700 26.92800 33.53600
H  -5.55700 27.25500 32.93000
H  -11.04300 21.68900 26.25400
H  -10.18100 21.39400 27.59300
H  -9.95300 20.22800 26.29000
H  -10.82900 20.94800 23.80200
H  -9.97100 19.37200 24.03800
H  -10.25700 19.87900 22.38500
H  -5.24400 24.28600 21.34100
H  -2.57600 25.24700 22.23700
H  -2.61600 22.83100 21.63900
H  -3.81000 22.67400 20.52300
H  -4.12600 21.93500 22.03700
H  -3.95500 27.45100 21.86100
H  -4.72600 26.51100 20.63700
H  -2.20300 26.02600 19.89000
H  -1.84300 27.32000 20.96000
H  -3.00200 27.62600 19.60600
H  -0.42800 28.05500 25.62500
H  -0.86800 29.23400 26.73100
H  -1.61800 29.21200 25.11000
H  -4.19300 27.75100 30.64200
H  -0.67500 27.08200 33.14400
H  -1.33000 25.45200 33.10400
H  -1.88500 26.67700 34.30800

