158

Mg 55.79400 25.11200 45.23300
C  52.78400 26.52200 44.12900
C  54.58800 22.08300 44.12300
C  58.99900 23.96600 45.19700
C  56.89000 28.28000 46.08200
N  53.98600 24.45500 44.02400
C  52.85000 25.15100 43.93600
C  51.68000 24.26000 43.51000
C  52.18600 22.92300 44.00700
C  53.63300 23.08100 44.10200
C  51.49700 22.28900 45.31500
C  51.47500 24.26000 41.94000
C  50.07600 24.60100 41.57000
H  49.43000 24.00500 40.27400
N  56.66100 23.19600 44.87900
C  56.00400 22.12900 44.40300
C  56.98700 21.06400 44.30700
C  58.30900 21.59100 44.67500
C  58.02800 23.02600 44.91800
C  56.57100 19.58200 43.91400
C  59.58700 20.76100 44.72700
O  59.63000 19.53300 44.47700
C  60.86800 21.33000 45.17500
N  57.73800 26.03400 45.55300
C  58.87300 25.30600 45.55900
C  60.03000 26.19400 46.03400
C  59.40500 27.59700 46.03000
C  57.89600 27.30700 46.02200
C  60.71500 25.82900 47.40700
C  59.82100 28.57700 44.79000
C  60.44000 29.93800 45.22100
N  55.04800 27.00000 45.22300
C  55.55800 28.14300 45.68900
C  54.53000 29.21900 45.55300
C  53.36000 28.60200 44.96700
C  53.81200 27.33600 44.71100
C  54.54600 30.53900 46.30900
C  51.92800 28.76700 44.58500
O  51.10700 29.71100 44.68100
C  51.54200 27.44200 43.86400
C  51.14100 27.94600 42.52500
O  51.93300 28.17900 41.65700
O  49.71900 28.03100 42.55500
C  49.06800 28.48000 41.34400
H  54.10200 21.11600 43.97300
H  60.06200 23.72300 45.26100
H  57.21900 29.30400 46.27200
H  50.73900 24.49300 44.00700
H  51.91100 22.24400 43.20000
H  52.26200 22.10600 46.07000
H  51.14000 21.31400 44.98500
H  50.74100 22.91100 45.79400
H  51.83400 23.34300 41.47200
H  52.13100 25.06600 41.61200
H  50.00500 25.66000 41.32100
H  49.37300 24.31200 42.35100
H  57.01900 18.72700 44.42000
H  57.00500 19.30200 42.95400
H  55.48400 19.52200 43.85800
H  61.24200 21.96500 44.37200
H  61.57500 20.50300 45.25100
H  60.77100 21.83700 46.13500
H  60.71300 26.14700 45.18500
H  59.61600 28.04400 47.00200
H  60.14900 25.05200 47.92100
H  60.65900 26.64200 48.13000
H  61.73300 25.43900 47.36800
H  58.91100 28.75500 44.21800
H  60.48600 28.08900 44.07700
H  61.39700 30.03400 44.70900
H  60.57200 29.88100 46.30200
H  59.81500 30.74100 44.82900
H  53.62200 30.91200 46.75100
H  54.99700 31.23400 45.60100
H  55.32500 30.49500 47.07000
H  50.71100 27.05800 44.45500
H  48.89700 29.55200 41.44100
H  48.14000 27.96100 41.10700
H  49.71800 28.40200 40.47200
Mg 26.52200 49.55000 26.44900
C  24.43800 50.61200 28.85200
C  28.81000 48.57500 28.74200
C  28.45500 48.40500 23.91900
C  24.36800 50.99400 24.01800
N  26.66000 49.72300 28.65600
C  25.61700 50.04500 29.44100
C  25.92200 49.92200 30.93200
C  27.42300 49.41900 30.84700
C  27.66600 49.16500 29.32100
C  28.50800 50.32800 31.53300
C  24.97600 48.93000 31.73000
C  24.54700 49.32600 33.12100
H  25.64900 49.93100 34.09100
N  28.40900 48.59700 26.33100
C  29.19200 48.30100 27.40600
C  30.38600 47.65000 26.91500
C  30.29400 47.60500 25.49300
C  29.05200 48.16900 25.18300
C  31.52600 47.31100 27.78300
C  31.13100 46.92100 24.42800
O  30.88300 46.92000 23.22400
C  32.34600 46.24900 24.83900
N  26.36400 49.65300 24.28800
C  27.34500 49.06200 23.48000
C  27.02100 49.26400 21.95000
C  25.67900 50.14000 21.96400
C  25.38000 50.18100 23.45300
C  28.05000 49.97700 21.10800
C  24.53200 49.63700 21.09100
C  23.89800 48.31400 21.53300
N  24.79000 50.68300 26.41600
C  23.97300 51.14400 25.38800
C  22.75300 51.74300 25.94000
C  22.89800 51.49700 27.35300
C  24.10100 50.89200 27.55800
C  21.70500 52.43000 25.24400
C  22.26500 51.71500 28.59500
O  21.17100 52.17100 28.82800
C  23.23300 51.18700 29.62900
C  23.43700 52.38100 30.51900
O  24.10500 53.37500 30.24300
O  22.76400 52.10900 31.70600
C  23.16300 52.95000 32.83300
H  29.49700 48.21400 29.51000
H  29.00500 48.16000 23.00900
H  23.66100 51.35400 23.26800
H  25.83800 50.92500 31.35000
H  27.47200 48.51500 31.45400
H  28.29000 51.35400 31.23400
H  29.47100 50.07400 31.09200
H  28.53100 50.01500 32.57700
H  25.41500 47.93300 31.77200
H  24.11600 48.90400 31.06100
H  24.18400 48.41000 33.58700
H  23.74800 50.06700 33.09100
H  31.59800 46.25500 28.04300
H  31.41100 47.71800 28.78800
H  32.44700 47.72900 27.37700
H  32.11200 45.49400 25.58900
H  33.11900 46.96900 25.10700
H  32.71800 45.66000 24.00000
H  26.80800 48.26700 21.56500
H  25.75800 51.21800 21.81900
H  28.79800 50.52200 21.68400
H  27.56700 50.52600 20.30000
H  28.61100 49.27200 20.49400
H  24.85300 49.51700 20.05700
H  23.78800 50.39800 20.85800
H  22.89300 48.43500 21.93900
H  24.51300 47.85600 22.30800
H  23.80400 47.59800 20.71700
H  21.51900 51.75600 24.40800
H  22.03000 53.38600 24.83200
H  20.85900 52.61600 25.90500
H  22.86600 50.38300 30.26600
H  24.10800 52.60900 33.25600
H  22.33200 52.90900 33.53700
H  23.34700 53.99400 32.57600

