158

Mg 6.22700 53.65500 41.05200
C  5.48600 50.13600 40.83300
C  9.31200 52.86100 39.77100
C  6.67000 56.91300 40.60700
C  2.84200 54.26600 41.71100
N  7.22000 51.67600 40.18100
C  6.78600 50.39900 40.25900
C  7.94800 49.50500 39.90400
C  9.25400 50.37700 39.90800
C  8.56500 51.72700 39.77800
C  10.21600 50.20700 41.14200
C  7.69500 48.75900 38.47200
C  6.68000 49.25400 37.46600
H  7.08300 49.76900 36.07800
N  7.86000 54.75900 40.46900
C  9.05800 54.20500 40.07300
C  9.90000 55.35600 39.88900
C  9.20100 56.61000 40.14300
C  7.84200 56.18700 40.38300
C  11.40600 55.13400 39.56600
C  9.89600 57.95400 40.25100
O  11.13100 58.09900 40.09900
C  9.11900 59.16900 40.55500
N  4.95700 55.37600 41.06700
C  5.40000 56.57100 41.03600
C  4.39300 57.70500 41.37800
C  3.14300 56.78600 41.60500
C  3.69300 55.35100 41.52600
C  4.96700 58.69100 42.51200
C  1.85400 57.18300 40.77000
C  1.67000 56.50400 39.37200
N  4.51900 52.48900 41.32400
C  3.22200 52.88900 41.59300
C  2.44800 51.67700 41.91400
C  3.33800 50.60400 41.66000
C  4.52400 51.13300 41.20000
C  0.97800 51.58200 42.41300
C  3.44300 49.13000 41.76800
O  2.66300 48.32500 42.24100
C  4.82400 48.74600 41.14700
C  4.59300 47.97000 39.92200
O  3.93700 48.28700 38.95100
O  5.28100 46.83400 40.09100
C  5.06900 45.72200 39.17600
H  10.29000 52.71500 39.30600
H  6.75300 57.97200 40.35400
H  1.79800 54.43900 41.98300
H  8.10200 48.68400 40.60400
H  9.78600 50.27300 38.96200
H  10.26300 50.97300 41.91600
H  11.22800 50.07200 40.76200
H  9.99000 49.31600 41.72800
H  7.41100 47.73100 38.69700
H  8.65300 48.77900 37.95200
H  6.14000 50.03800 37.99700
H  6.02400 48.41300 37.24100
H  11.76400 55.48300 38.59800
H  11.75400 54.11900 39.76100
H  12.00200 55.71900 40.26600
H  9.84300 59.98300 40.60400
H  8.57300 59.12700 41.49700
H  8.52600 59.35200 39.65900
H  4.19700 58.35700 40.52700
H  2.89700 56.80000 42.66600
H  4.21500 58.80300 43.29300
H  5.12400 59.66900 42.05500
H  5.87700 58.30200 42.96800
H  1.73800 58.25800 40.63200
H  1.10200 57.01100 41.54000
H  2.55700 55.97600 39.02100
H  1.37900 57.17900 38.56700
H  0.80500 55.84600 39.44200
H  0.79200 52.40600 43.10100
H  0.74900 50.61400 42.86000
H  0.37500 51.81100 41.53500
H  5.34200 48.12200 41.87600
H  5.58100 46.02100 38.26100
H  4.00200 45.54000 39.04400
H  5.66700 44.89500 39.55700
Mg -10.40400 39.57500 39.70800
C  -9.82500 36.20000 39.05500
C  -6.99900 40.21000 38.82100
C  -11.15900 42.70500 39.12700
C  -13.76600 38.75200 40.36100
N  -8.69700 38.34600 38.72600
C  -8.71900 36.94400 38.66300
C  -7.33100 36.45700 38.24700
C  -6.45600 37.70600 38.59600
C  -7.41700 38.84300 38.67400
C  -5.76300 37.56600 39.95900
C  -7.29300 35.99300 36.76500
C  -7.70100 36.97300 35.59800
H  -8.91000 36.69400 34.83300
N  -9.30800 41.24800 39.17000
C  -7.91800 41.32900 38.87800
C  -7.54000 42.68600 38.65700
C  -8.68300 43.44100 38.78000
C  -9.78300 42.45900 39.04100
C  -6.22900 43.13100 38.28700
C  -8.67400 44.94900 38.60900
O  -7.71800 45.60200 38.14400
C  -9.76300 45.70800 39.07200
N  -12.22700 40.59700 39.72000
C  -12.26300 41.91700 39.50300
C  -13.71200 42.34800 39.50300
C  -14.47300 41.10700 40.01300
C  -13.45700 40.05500 40.07000
C  -14.05500 43.65400 40.26700
C  -15.69500 40.77800 39.08200
C  -16.98700 41.47200 39.47500
N  -11.59400 37.83800 39.76800
C  -12.94500 37.64600 40.08600
C  -13.19900 36.22300 40.09000
C  -11.97400 35.61200 39.72300
C  -11.07500 36.66700 39.58000
C  -14.57800 35.54500 40.40900
C  -11.38800 34.36400 39.44300
O  -11.87100 33.24600 39.35500
C  -9.97400 34.71800 38.94000
C  -8.97900 33.94200 39.78800
O  -8.95600 33.93900 40.99800
O  -8.12500 33.27500 38.97700
C  -7.21000 32.32000 39.73200
H  -5.93800 40.43000 38.68400
H  -11.54600 43.70100 38.90000
H  -14.79900 38.48900 40.59900
H  -7.01700 35.62700 38.88000
H  -5.70800 38.03400 37.87500
H  -6.06400 36.66000 40.48500
H  -5.96900 38.45000 40.56200
H  -4.70100 37.52300 39.71700
H  -7.95300 35.12600 36.73800
H  -6.23300 35.77300 36.63600
H  -6.85200 37.15800 34.94000
H  -7.88200 37.95100 36.04400
H  -6.01100 44.09800 38.74100
H  -6.12200 43.17700 37.20300
H  -5.44700 42.44200 38.60500
H  -10.21000 45.18500 39.91800
H  -10.51800 45.86800 38.30200
H  -9.40200 46.65100 39.48100
H  -14.01600 42.57200 38.48100
H  -14.85200 41.34200 41.00700
H  -13.10100 44.10400 40.54000
H  -14.63900 43.39800 41.15200
H  -14.62900 44.24900 39.55600
H  -15.88800 39.71400 38.94100
H  -15.37600 41.08700 38.08700
H  -17.54500 40.72200 40.03500
H  -17.62000 41.77700 38.64100
H  -16.85700 42.40400 40.02600
H  -15.10200 36.19900 41.10500
H  -14.49700 34.58500 40.92000
H  -15.16400 35.41900 39.49800
H  -9.92400 34.40200 37.89900
H  -7.48500 31.31100 39.42500
H  -7.18100 32.40500 40.81800
H  -6.15000 32.45300 39.51600

