158

Mg -3.06400 17.16400 25.88600
C  -3.28000 14.78500 28.51600
C  -3.74300 19.56800 28.01800
C  -3.04600 19.20200 23.20100
C  -2.73000 14.33300 23.71300
N  -3.54700 17.08900 28.01900
C  -3.45500 16.10700 28.98600
C  -3.67200 16.68300 30.38300
C  -3.75900 18.26200 30.18200
C  -3.75600 18.33600 28.63500
C  -4.83900 18.95900 31.02700
C  -2.73000 16.10500 31.37100
C  -2.17200 16.92300 32.55800
H  -1.81800 16.16900 33.89400
N  -3.48000 19.15400 25.57000
C  -3.67300 19.96400 26.66300
C  -3.64100 21.34700 26.17000
C  -3.19200 21.31600 24.82400
C  -3.25200 19.83100 24.44200
C  -3.94900 22.53900 27.14500
C  -2.83300 22.49900 23.94300
O  -2.36000 22.35700 22.81500
C  -2.87300 23.95800 24.42000
N  -2.80700 16.83900 23.73200
C  -2.99900 17.88200 22.83400
C  -2.71200 17.33300 21.40900
C  -2.84900 15.80300 21.60400
C  -2.68700 15.63700 23.13200
C  -3.46700 17.96800 20.29600
C  -1.87500 14.97900 20.68700
C  -2.66600 14.05100 19.71500
N  -3.02600 15.03500 26.04900
C  -2.85500 14.05400 25.10200
C  -2.84600 12.70200 25.72100
C  -3.03400 12.98200 27.02300
C  -3.13000 14.36900 27.17700
C  -2.64400 11.43500 25.13100
C  -3.19200 12.36200 28.33200
O  -3.17900 11.18400 28.61900
C  -3.40700 13.50900 29.31900
C  -2.42100 13.34000 30.43700
O  -1.24000 13.57900 30.38100
O  -3.06900 12.67400 31.44700
C  -2.27500 12.18600 32.57800
H  -3.82900 20.42900 28.68400
H  -2.95400 19.84200 22.32100
H  -2.60000 13.47100 23.05500
H  -4.66600 16.27500 30.56900
H  -2.81900 18.60700 30.61200
H  -4.67000 19.98200 31.36100
H  -4.97900 18.44800 31.98000
H  -5.73000 18.75900 30.43200
H  -1.83200 15.92400 30.77900
H  -3.05700 15.15700 31.79800
H  -2.83600 17.75100 32.80400
H  -1.22100 17.37600 32.27600
H  -3.00700 22.94800 27.50900
H  -4.60300 22.36600 28.00000
H  -4.44600 23.25400 26.48900
H  -3.88000 24.35200 24.28500
H  -2.20000 24.50200 23.75800
H  -2.50300 24.13400 25.43000
H  -1.70000 17.66200 21.17500
H  -3.89200 15.55200 21.41100
H  -2.79900 18.37500 19.53600
H  -4.03700 18.84600 20.60100
H  -4.11800 17.22200 19.84000
H  -1.37400 14.26800 21.34400
H  -1.16400 15.65200 20.20800
H  -2.55000 12.98500 19.91100
H  -2.20900 14.41600 18.79500
H  -3.70700 14.36900 19.67900
H  -1.94900 11.44400 24.29100
H  -3.58200 11.06900 24.71400
H  -2.30600 10.64200 25.79900
H  -4.44900 13.33300 29.58500
H  -1.53700 12.86900 32.99800
H  -1.80000 11.31600 32.12500
H  -2.93200 11.98700 33.42500
Mg 30.30600 57.79500 40.62100
C  27.60400 55.69600 39.60200
C  32.51400 55.49400 39.72200
C  32.66900 60.17500 40.92400
C  27.88500 60.19000 41.21300
N  30.04100 55.94800 39.61900
C  28.89100 55.21900 39.30700
C  29.28900 53.91800 38.66800
C  30.83800 53.70300 38.99700
C  31.14000 55.11000 39.55100
C  31.15500 52.51800 39.99700
C  29.05800 53.95000 37.16700
C  28.14300 52.85200 36.54200
H  27.22000 53.32800 35.38100
N  32.37900 57.83500 40.34800
C  33.07400 56.75200 40.05100
C  34.51000 57.04300 40.09000
C  34.64300 58.38400 40.37100
C  33.19700 58.85800 40.55000
C  35.58300 55.95800 39.83700
C  35.91100 59.12500 40.70500
O  37.00000 58.53800 40.71100
C  36.00800 60.57300 41.02700
N  30.31300 59.94500 40.90900
C  31.40400 60.63300 41.16300
C  31.06300 62.06800 41.52300
C  29.52700 61.98400 41.85500
C  29.19500 60.58600 41.35200
C  32.02300 62.68600 42.63200
C  28.71200 63.22700 41.29900
C  27.72600 63.91500 42.24300
N  28.16400 57.93900 40.52600
C  27.37600 59.01200 40.77100
C  25.97500 58.67100 40.63300
C  26.02100 57.37100 40.09000
C  27.40700 56.97000 40.11600
C  24.77000 59.50200 40.69400
C  25.20300 56.26400 39.59000
O  23.99500 56.15100 39.39900
C  26.24000 55.05600 39.26400
C  25.67600 53.95400 39.95600
O  26.05900 53.55200 41.07100
O  24.85200 53.24600 39.09900
C  24.65300 51.87900 39.59700
H  33.20500 54.64900 39.67500
H  33.48500 60.86900 41.13500
H  27.24300 61.03700 41.46400
H  28.64200 53.15100 39.09300
H  31.48500 53.63600 38.12300
H  32.23500 52.46700 39.85400
H  30.76000 51.55300 39.67900
H  30.87500 52.60600 41.04600
H  30.01300 53.96800 36.64200
H  28.55800 54.88600 36.92000
H  27.50600 52.35300 37.27400
H  28.80900 52.22000 35.95500
H  35.42900 55.24000 40.64300
H  36.64500 56.20500 39.80600
H  35.42800 55.37300 38.93100
H  35.34000 60.66600 41.88300
H  35.74200 61.15000 40.14100
H  36.95300 60.97600 41.39300
H  31.17000 62.67600 40.62400
H  29.49500 61.95900 42.94400
H  32.55300 61.88300 43.14500
H  31.50900 63.28600 43.38200
H  32.76100 63.29600 42.11100
H  28.35700 62.86800 40.33300
H  29.48100 63.95100 41.02900
H  27.95800 63.71500 43.28900
H  26.73400 63.52800 42.00700
H  27.71900 65.00400 42.19500
H  23.89300 58.89800 40.92900
H  24.61900 59.95200 39.71300
H  24.85300 60.30200 41.43000
H  26.11100 54.88000 38.19600
H  23.66700 51.73300 40.03800
H  25.43300 51.44700 40.22500
H  24.66200 51.29900 38.67400

