158

Mg 25.21300 0.97300 29.91700
C  27.04700 1.07800 32.81200
C  22.31900 1.34000 31.80200
C  23.36700 0.60000 27.16700
C  28.15400 0.48600 28.15000
N  24.69900 1.12300 32.05700
C  25.65500 1.31700 33.00700
C  24.93600 1.74700 34.32600
C  23.44000 1.80400 34.08400
C  23.43900 1.41800 32.57900
C  22.63500 0.67100 34.88300
C  25.48900 3.20700 34.72400
C  26.21900 3.30000 36.08400
H  25.64900 4.21100 37.20200
N  23.13000 0.90700 29.48200
C  22.16500 1.16700 30.38900
C  20.88600 1.19000 29.74600
C  21.17900 0.89200 28.33000
C  22.57400 0.73900 28.31200
C  19.53400 1.42200 30.46600
C  20.17400 0.74400 27.23900
O  20.39900 0.52500 26.05700
C  18.62700 0.80200 27.62200
N  25.67700 0.48500 27.99000
C  24.73700 0.60500 26.96400
C  25.46500 0.59900 25.60800
C  26.92100 0.78100 26.00200
C  26.94200 0.53800 27.48900
C  25.21800 -0.60300 24.71700
C  27.43800 2.20800 25.63700
C  26.64500 3.46100 26.21400
N  27.22400 0.78800 30.32400
C  28.28500 0.55300 29.54000
C  29.45400 0.35400 30.36000
C  29.05100 0.66100 31.66200
C  27.67800 0.85600 31.59900
C  30.86200 0.11700 29.86000
C  29.50000 0.96200 33.02700
O  30.61500 0.95300 33.54100
C  28.23100 1.30200 33.83600
C  28.18300 0.38200 34.98800
O  27.75000 -0.76200 35.03800
O  28.65700 1.06700 36.08400
C  28.53800 0.21000 37.29000
H  21.46600 1.72000 32.36800
H  22.79800 0.49700 26.24100
H  29.02300 0.52700 27.49000
H  25.20700 1.01100 35.08300
H  22.91100 2.74400 34.24000
H  21.92400 1.18600 35.53000
H  23.30400 0.11300 35.53800
H  22.08500 0.03500 34.19000
H  24.56900 3.78300 34.82000
H  26.10400 3.55200 33.89200
H  27.18900 3.70100 35.78900
H  26.47000 2.28900 36.40500
H  19.12100 2.38000 30.14900
H  19.60600 1.63600 31.53200
H  18.86800 0.58400 30.26100
H  18.27200 1.55900 28.32100
H  18.38600 -0.23100 27.87100
H  17.98900 1.07400 26.78100
H  25.12000 1.47300 25.05400
H  27.54500 0.05400 25.48400
H  26.15700 -0.91100 24.25600
H  24.60300 -0.32800 23.86000
H  24.89200 -1.50200 25.24100
H  27.33000 2.23300 24.55300
H  28.51000 2.19200 25.83300
H  25.81400 3.25400 26.88800
H  26.16100 3.99100 25.39200
H  27.26100 4.11400 26.83200
H  31.07200 0.12200 28.79000
H  31.03500 -0.85800 30.31600
H  31.53900 0.75100 30.43300
H  28.31600 2.31500 34.22900
H  28.66100 0.89800 38.12700
H  29.30700 -0.56300 37.28200
H  27.53400 -0.20500 37.38200
Mg -0.67200 33.91000 27.22500
C  -2.56900 32.17600 29.68700
C  0.78400 35.69300 29.67700
C  0.78500 35.64100 24.76300
C  -2.69400 32.19800 24.77000
N  -1.03600 34.03900 29.36400
C  -1.68800 33.17200 30.18500
C  -1.44500 33.37700 31.64300
C  -0.39600 34.57800 31.64500
C  -0.21600 34.82600 30.10000
C  -0.81500 35.90600 32.34500
C  -0.92800 32.14300 32.39000
C  -1.97400 31.53000 33.42100
H  -1.28200 31.13900 34.73600
N  0.55500 35.46600 27.15900
C  1.07700 36.10600 28.28700
C  1.98400 37.20000 27.93500
C  1.86900 37.23800 26.50400
C  1.06300 36.02600 26.11100
C  2.72800 38.00800 29.02900
C  2.45900 38.23800 25.55100
O  2.35500 38.27900 24.29300
C  3.30400 39.27800 26.17300
N  -0.91300 33.87100 25.02500
C  -0.07300 34.64500 24.26900
C  -0.15300 34.23600 22.77900
C  -1.45700 33.27400 22.75200
C  -1.74700 33.06900 24.28500
C  -0.18900 35.45500 21.75800
C  -1.17300 31.90600 21.97900
C  -0.14600 30.92200 22.53500
N  -2.26900 32.48200 27.18100
C  -2.98900 31.85300 26.11700
C  -3.84600 30.90400 26.69000
C  -3.79600 31.06100 28.10000
C  -2.75900 31.96800 28.32900
C  -4.75800 30.03200 25.95400
C  -4.33700 30.54000 29.33300
O  -5.28200 29.77000 29.45600
C  -3.57600 31.26800 30.43400
C  -4.50000 31.99500 31.36600
O  -5.12500 33.02000 31.10600
O  -4.87900 31.09300 32.29200
C  -5.77900 31.60000 33.32100
H  1.35200 36.08400 30.52400
H  1.28800 36.26600 24.02200
H  -3.13500 31.65800 23.93000
H  -2.39700 33.68300 32.07600
H  0.53000 34.27600 32.13600
H  -1.77200 35.80800 32.85800
H  -0.89200 36.71500 31.61800
H  0.04600 36.13700 32.97200
H  0.02200 32.41100 32.85200
H  -0.75000 31.33900 31.67600
H  -2.46600 30.63400 33.04200
H  -2.78400 32.22700 33.63500
H  2.99200 37.37300 29.87400
H  2.11400 38.85900 29.32500
H  3.67700 38.39200 28.65500
H  2.83900 39.86900 26.96200
H  3.61000 39.93000 25.35400
H  4.19700 38.80600 26.58400
H  0.62000 33.58200 22.37600
H  -2.32400 33.80100 22.35200
H  0.78800 35.47400 21.27500
H  -0.52800 36.37400 22.23500
H  -0.97000 35.21700 21.03500
H  -0.68900 32.22300 21.05500
H  -2.09700 31.34900 21.82300
H  0.11800 31.23200 23.54600
H  0.78400 31.01200 21.97300
H  -0.68400 29.97400 22.50200
H  -4.67600 29.01600 26.33900
H  -4.61500 30.07300 24.87400
H  -5.77100 30.38600 26.14500
H  -3.06500 30.44600 30.93600
H  -6.67100 31.81200 32.73100
H  -5.24700 32.45600 33.73600
H  -5.96900 30.88800 34.12400

