158

Mg -0.83300 17.74300 27.19500
C  -1.37400 15.62400 29.65100
C  -1.74100 20.38200 29.24900
C  -0.77700 20.13600 24.51600
C  -0.72200 15.26600 24.86700
N  -1.36100 17.99500 29.22300
C  -1.44800 16.95900 30.08100
C  -1.67100 17.35800 31.57600
C  -1.95100 18.86900 31.39100
C  -1.66300 19.13200 29.87000
C  -3.40800 19.25800 31.86700
C  -0.42000 17.22300 32.53900
C  -0.88400 17.00100 33.98600
H  0.14800 17.21200 35.14100
N  -1.12700 19.91500 26.98400
C  -1.42600 20.78500 27.97100
C  -1.49200 22.17300 27.48000
C  -1.19400 22.14600 26.09800
C  -0.98700 20.68600 25.78700
C  -1.82100 23.39800 28.30400
C  -1.08700 23.29300 25.05700
O  -0.87100 23.13100 23.88300
C  -1.08100 24.75400 25.57400
N  -0.74000 17.80500 25.02300
C  -0.64900 18.82100 24.14100
C  -0.43400 18.30600 22.70500
C  -0.11000 16.75000 22.94300
C  -0.57000 16.56200 24.35900
C  -1.59900 18.47900 21.71700
C  1.32200 16.26700 22.80800
C  2.38800 16.76500 23.90000
N  -0.92200 15.83400 27.17600
C  -0.89200 14.85200 26.20500
C  -1.10500 13.52500 26.81200
C  -1.27000 13.82400 28.14700
C  -1.12100 15.22700 28.31900
C  -1.22100 12.12700 26.10400
C  -1.45400 13.16400 29.41000
O  -1.49000 12.00100 29.74500
C  -1.57200 14.33900 30.40800
C  -0.35600 14.23500 31.33600
O  0.79200 14.30300 31.00300
O  -0.77600 13.88400 32.59500
C  0.25400 13.70400 33.63200
H  -1.95800 21.19400 29.94500
H  -0.60900 20.77600 23.64800
H  -0.60300 14.52600 24.07300
H  -2.54400 16.78100 31.88100
H  -1.23200 19.36900 32.03900
H  -3.94000 19.84300 31.11700
H  -3.18700 19.70900 32.83400
H  -4.04300 18.38400 32.01600
H  0.32400 18.01700 32.59600
H  0.20900 16.36500 32.30300
H  -1.18900 15.95600 34.04100
H  -1.74600 17.60300 34.27500
H  -2.17800 23.11700 29.29400
H  -2.60200 23.99300 27.82900
H  -0.93100 24.00700 28.46200
H  -1.93600 25.11700 26.14500
H  -0.93000 25.32200 24.65600
H  -0.19200 24.80800 26.20300
H  0.43300 18.83100 22.30500
H  -0.70800 16.06800 22.33900
H  -2.48200 18.70900 22.31300
H  -1.89700 17.58200 21.17300
H  -1.37500 19.31000 21.04800
H  1.59600 16.73100 21.86000
H  1.22000 15.19100 22.66700
H  2.77100 15.89800 24.43900
H  1.97000 17.45600 24.63200
H  3.14000 17.26500 23.28900
H  -0.78800 11.91600 25.12600
H  -2.29200 11.94300 26.01300
H  -0.84000 11.38800 26.80900
H  -2.44300 14.38700 31.06300
H  0.82500 12.79700 33.43000
H  -0.28300 13.62800 34.57700
H  0.88900 14.59000 33.65500
Mg 26.33800 1.15100 29.57900
C  28.16100 1.05700 32.55500
C  23.43700 1.61900 31.52800
C  24.38100 1.14600 26.70900
C  28.93400 -0.08200 27.75800
N  25.85900 1.20400 31.81400
C  26.81400 1.25100 32.82700
C  26.13400 1.43000 34.19900
C  24.61100 1.55400 33.89000
C  24.58100 1.41700 32.28600
C  23.69600 0.60600 34.55200
C  26.66600 2.52200 35.09500
C  25.96400 2.78600 36.43300
H  26.78600 2.84200 37.71300
N  24.17300 1.35100 29.16500
C  23.19500 1.55100 30.09100
C  21.94200 1.73200 29.48600
C  22.16800 1.54700 28.10700
C  23.65200 1.31300 27.88900
C  20.65200 2.03100 30.18400
C  21.19000 1.55800 26.97900
O  21.49400 1.30800 25.81900
C  19.82200 2.05900 27.21900
N  26.56500 0.48400 27.57300
C  25.63200 0.64500 26.51500
C  26.22500 0.27300 25.13100
C  27.74700 -0.06800 25.44300
C  27.75500 0.10800 27.02700
C  25.31700 -0.65000 24.19600
C  28.77700 0.73100 24.60100
C  29.16700 2.12900 25.05000
N  28.18600 0.62200 29.96400
C  29.19600 0.17400 29.12600
C  30.37400 -0.00700 29.89800
C  30.07000 0.47300 31.20800
C  28.69300 0.72400 31.25300
C  31.73600 -0.46700 29.36700
C  30.59000 0.70800 32.53200
O  31.73200 0.55300 32.92600
C  29.32800 1.17100 33.47000
C  29.51000 0.28500 34.74400
O  29.24300 -0.88700 34.86700
O  29.86300 1.09000 35.84900
C  30.01400 0.49000 37.15700
H  22.63100 2.03600 32.13600
H  23.78000 1.30100 25.81100
H  29.81100 -0.44900 27.22100
H  26.35200 0.50200 34.72800
H  24.32700 2.53800 34.26200
H  23.45600 -0.19500 33.85300
H  22.80100 1.05900 34.97700
H  24.28700 0.13300 35.33700
H  26.55300 3.43100 34.50400
H  27.75100 2.47400 35.18500
H  25.41000 1.85800 36.57400
H  25.36800 3.69900 36.45100
H  20.09500 1.09700 30.26600
H  20.17200 2.95800 29.87100
H  20.82200 2.15800 31.25300
H  19.46900 1.35200 27.97000
H  19.09400 2.11400 26.41000
H  19.95600 3.05700 27.63500
H  26.23800 1.26200 24.67400
H  27.85900 -1.14000 25.28100
H  24.73400 -0.07400 23.47700
H  24.63400 -1.23500 24.81200
H  25.86300 -1.32600 23.53700
H  28.29500 0.76700 23.62400
H  29.67300 0.11200 24.56300
H  30.22700 2.16000 25.30300
H  28.50100 2.46500 25.84400
H  28.86900 2.78600 24.23300
H  31.81500 -0.51300 28.28100
H  32.01000 -1.46100 29.72100
H  32.40400 0.37000 29.57400
H  29.60500 2.16500 33.82000
H  30.96400 0.79500 37.59500
H  29.90200 -0.59200 37.08300
H  29.16300 0.94700 37.66300

