158

Mg 47.24500 33.64300 26.58300
C  45.63900 32.76100 29.45500
C  47.64200 37.01200 27.99000
C  48.50900 34.86100 23.61300
C  46.54900 30.71900 25.10000
N  46.87800 34.76900 28.55300
C  46.17100 34.11500 29.53800
C  46.14700 34.98600 30.74600
C  46.60000 36.34700 30.20800
C  47.10400 36.07800 28.82500
C  45.46000 37.38400 30.41600
C  47.01300 34.33700 31.96200
C  46.32300 34.57900 33.36000
H  45.10600 35.56800 33.45000
N  47.95900 35.63000 25.90300
C  48.07900 36.82900 26.60400
C  48.74200 37.81600 25.79500
C  49.15700 37.22400 24.57900
C  48.54200 35.87500 24.68100
C  49.03800 39.26300 26.31900
C  49.90400 37.73900 23.34200
O  50.32300 37.00200 22.41200
C  50.22100 39.14400 23.19200
N  47.54200 32.92800 24.58500
C  48.08600 33.57400 23.57900
C  48.20700 32.68800 22.32900
C  47.51900 31.40400 22.77600
C  47.19200 31.65100 24.29000
C  47.66400 33.30200 21.04700
C  48.32100 30.08300 22.62000
C  49.69300 29.96300 23.37000
N  46.42600 31.90600 27.19700
C  46.07900 30.83500 26.43200
C  45.19400 30.00300 27.22900
C  44.93700 30.69000 28.40600
C  45.74600 31.81100 28.38000
C  44.53800 28.81200 26.72300
C  44.17700 30.71900 29.63100
O  43.38500 29.94800 30.07000
C  44.67500 32.02200 30.38000
C  45.01800 31.49800 31.80300
O  46.15200 31.11200 32.18000
O  43.97100 31.68100 32.68700
C  44.19600 31.04800 33.99600
H  47.68900 38.01700 28.41400
H  49.04200 35.08600 22.68700
H  46.33200 29.70600 24.75400
H  45.10700 34.95400 31.07100
H  47.48700 36.72600 30.71600
H  45.66700 38.15400 31.15900
H  44.49900 36.97900 30.73400
H  45.22100 37.96800 29.52800
H  47.91900 34.93200 32.08100
H  47.39300 33.32500 31.81800
H  47.11900 35.02300 33.95600
H  46.11500 33.56100 33.69000
H  48.71400 40.08300 25.67800
H  50.12200 39.36400 26.37700
H  48.59500 39.50600 27.28500
H  49.26700 39.66600 23.11200
H  50.89800 39.28300 22.35000
H  50.83000 39.46300 24.03700
H  49.24400 32.39200 22.17300
H  46.58000 31.20600 22.26000
H  46.85600 32.69200 20.64400
H  48.50300 33.42600 20.36200
H  47.25900 34.30600 21.17100
H  48.58500 30.10900 21.56300
H  47.64500 29.24500 22.78900
H  50.01500 28.94100 23.57300
H  49.60700 30.38300 24.37100
H  50.59200 30.38100 22.91600
H  44.13900 29.02900 25.73300
H  43.84000 28.44500 27.47600
H  45.26400 28.01700 26.54900
H  43.84600 32.70800 30.55600
H  44.96400 31.61000 34.52800
H  44.53800 30.01300 33.98900
H  43.32900 31.01500 34.65600
Mg 5.96400 54.82500 42.01200
C  5.80300 51.26800 41.57500
C  9.01400 54.76900 40.47700
C  5.76000 58.12800 41.82300
C  2.74900 54.63700 43.42700
N  7.08300 53.19900 40.91200
C  6.92900 51.78000 40.96600
C  8.12500 51.04900 40.33500
C  9.17800 52.23900 40.18700
C  8.43100 53.48500 40.61600
C  10.49700 51.97700 40.93100
C  7.84700 50.30000 39.04200
C  6.91000 50.96900 38.06400
H  7.02100 50.51600 36.58500
N  7.18900 56.31000 41.22800
C  8.45000 56.06100 40.67500
C  8.98800 57.38700 40.30100
C  8.04800 58.40300 40.64700
C  6.92800 57.60200 41.23300
C  10.28800 57.52900 39.62600
C  8.30800 59.88200 40.50200
O  9.43200 60.29100 40.19400
C  7.25900 60.96300 40.81500
N  4.44200 56.12100 42.50500
C  4.68200 57.49900 42.49800
C  3.64900 58.33300 43.28600
C  2.69300 57.17900 43.76900
C  3.32200 55.86700 43.15300
C  4.20200 59.27300 44.38700
C  1.12700 57.31100 43.57600
C  0.34300 56.76900 42.33800
N  4.54800 53.28000 42.49800
C  3.30000 53.38200 43.10500
C  2.91400 52.10400 43.46700
C  3.74600 51.15300 42.80600
C  4.74700 51.97900 42.22000
C  1.77800 51.74800 44.35900
C  4.17200 49.76400 42.65500
O  3.74000 48.68900 43.01800
C  5.41600 49.80300 41.78300
C  5.20800 49.05900 40.46200
O  4.30100 49.40400 39.68200
O  5.98800 47.91400 40.29300
C  5.83600 47.10900 39.07200
H  10.07500 54.63600 40.25500
H  5.69700 59.21800 41.83900
H  1.88600 54.71900 44.09100
H  8.45400 50.34000 41.09500
H  9.32700 52.35700 39.11300
H  11.36200 51.96000 40.26800
H  10.56500 50.99100 41.39000
H  10.65400 52.66700 41.76000
H  7.54500 49.29100 39.32200
H  8.79800 50.08700 38.55400
H  6.99800 52.05600 38.08500
H  5.95400 50.63300 38.46400
H  10.21600 57.87600 38.59500
H  10.80900 56.57300 39.58700
H  10.90600 58.19400 40.23000
H  6.46200 60.74200 40.10400
H  7.66800 61.96400 40.67300
H  7.05500 60.88200 41.88300
H  3.15500 59.05300 42.63400
H  2.89200 57.04100 44.83200
H  5.28600 59.16800 44.40700
H  3.81000 58.90100 45.33300
H  3.92300 60.30400 44.16700
H  0.98100 58.38700 43.47400
H  0.64600 56.98800 44.50000
H  -0.43400 56.10200 42.71000
H  1.02400 56.28000 41.64100
H  -0.17100 57.54500 41.77100
H  1.86400 52.39200 45.23400
H  1.86900 50.72900 44.73700
H  0.87500 51.89700 43.76700
H  6.20900 49.31500 42.35000
H  6.65600 46.39300 39.13000
H  5.83700 47.76400 38.20100
H  4.88000 46.58500 39.05200

