158

Mg 8.85700 3.77400 27.57700
C  10.23200 2.26100 30.47100
C  6.90900 5.78600 29.82100
C  7.61300 5.36000 24.92400
C  10.72600 1.67600 25.57300
N  8.67000 3.96300 29.88400
C  9.38300 3.28900 30.88200
C  8.94100 3.69600 32.28300
C  8.03400 4.90100 32.00100
C  7.81100 4.85500 30.47800
C  6.65400 5.05500 32.75800
C  10.10000 4.02300 33.21300
C  9.93200 4.98600 34.40700
H  10.73200 4.66600 35.67200
N  7.36200 5.28500 27.36400
C  6.73000 6.02100 28.40300
C  5.94900 7.12600 27.75200
C  6.20800 7.03000 26.32500
C  7.09900 5.86000 26.15400
C  5.00600 8.06400 28.50000
C  5.81300 7.92400 25.15600
O  6.01600 7.73400 23.96400
C  4.94800 9.18300 25.47000
N  9.17100 3.58100 25.55300
C  8.56200 4.38500 24.61000
C  8.88300 3.92700 23.17100
C  9.97700 2.76400 23.37200
C  10.00700 2.66400 24.93500
C  7.59800 3.59300 22.35700
C  11.33400 3.08100 22.69500
C  11.88300 2.03400 21.72100
N  10.17200 2.22800 27.89700
C  10.87600 1.49300 27.03200
C  11.65900 0.45700 27.75600
C  11.45400 0.83000 29.08100
C  10.53400 1.90000 29.14100
C  12.43400 -0.67100 27.14500
C  11.78500 0.36700 30.42300
O  12.58400 -0.51800 30.87800
C  11.04800 1.31500 31.38500
C  10.21100 0.49100 32.33200
O  9.06900 0.06700 32.08000
O  10.73800 0.43500 33.59200
C  9.86600 -0.07200 34.58400
H  6.34900 6.44000 30.49200
H  7.35000 5.85700 23.98700
H  11.49400 1.03500 25.13500
H  8.41200 2.78700 32.56800
H  8.54800 5.85500 32.11700
H  6.42900 6.10800 32.92700
H  6.52700 4.45900 33.66200
H  5.83000 4.67800 32.15200
H  11.01700 4.29200 32.68900
H  10.30400 3.06100 33.68300
H  8.88800 4.84200 34.68600
H  10.17700 5.97100 34.01000
H  5.49200 9.02200 28.68600
H  4.90700 7.60500 29.48300
H  4.14200 8.09500 27.83600
H  3.99000 8.82500 25.84900
H  4.77700 9.65500 24.50300
H  5.35300 9.83400 26.24400
H  9.37600 4.67000 22.54400
H  9.53700 1.87400 22.92100
H  7.84500 2.75100 21.70900
H  7.18600 4.50500 21.92600
H  6.87900 3.19200 23.07100
H  12.06000 3.37300 23.45400
H  11.24600 4.00500 22.12200
H  11.04300 1.36900 21.52000
H  12.73300 1.47200 22.10900
H  12.16500 2.52800 20.79100
H  13.29000 -0.26800 26.60400
H  11.75600 -1.09700 26.40500
H  12.88100 -1.42900 27.78900
H  11.87200 1.78300 31.92400
H  9.30100 -0.93500 34.23200
H  9.20600 0.78200 34.73800
H  10.29400 -0.42800 35.52200
Mg 35.78300 2.32400 31.01800
C  33.00400 3.32300 33.00800
C  37.70900 2.66700 33.83100
C  38.34700 1.72800 29.07000
C  33.58600 2.33700 28.17800
N  35.34100 2.87100 33.13900
C  34.18000 3.11600 33.78100
C  34.24500 3.30500 35.34200
C  35.77700 3.39300 35.48800
C  36.32900 2.99900 34.02100
C  36.28200 4.80900 35.80300
C  33.66900 2.13600 36.15200
C  33.02000 2.59300 37.48300
H  33.58200 3.74200 38.29400
N  37.76500 2.15900 31.37700
C  38.37000 2.29700 32.58500
C  39.79000 2.04900 32.41600
C  39.98200 1.70900 31.05500
C  38.69200 1.91100 30.41900
C  40.80200 2.22700 33.57400
C  41.24700 1.28300 30.33700
O  41.35900 1.13100 29.08900
C  42.52000 1.00800 31.18600
N  35.91400 2.20300 28.87900
C  37.13100 1.77900 28.37600
C  36.95800 1.26800 26.94800
C  35.42800 1.41400 26.65300
C  34.93000 1.95700 27.95000
C  37.80200 2.02100 25.90200
C  34.68800 0.07100 26.20100
C  33.59300 0.37200 25.05400
N  33.69400 2.70000 30.60800
C  32.95600 2.75100 29.44200
C  31.62700 3.25300 29.70500
C  31.60700 3.58300 31.13600
C  32.86700 3.22600 31.57600
C  30.43800 3.41800 28.81800
C  30.84400 4.18200 32.20700
O  29.70100 4.62200 32.21200
C  31.68900 3.95000 33.54400
C  31.97700 5.33600 34.03600
O  32.63800 6.14200 33.43800
O  31.20600 5.58600 35.15900
C  31.15500 6.99500 35.59400
H  38.30600 2.72500 34.74400
H  39.16800 1.35200 28.45500
H  32.80500 2.22700 27.42300
H  33.78500 4.26300 35.58300
H  36.30200 2.66300 36.10300
H  36.13200 5.46600 34.94700
H  37.33500 4.61200 36.00300
H  35.74400 5.26200 36.63600
H  34.42400 1.37400 36.34700
H  32.87900 1.64300 35.58500
H  32.91500 1.67900 38.06700
H  31.97100 2.80300 37.27100
H  40.98700 1.28300 34.08700
H  40.35700 2.89200 34.31400
H  41.72200 2.73200 33.28100
H  43.29300 0.70600 30.48000
H  42.30200 0.29900 31.98400
H  42.92500 1.98400 31.45400
H  37.13300 0.19200 26.96400
H  35.34200 2.21800 25.92200
H  37.30300 2.29200 24.97100
H  38.77800 1.60800 25.64700
H  38.11500 2.94100 26.39500
H  34.19800 -0.29600 27.10200
H  35.47200 -0.61100 25.87200
H  33.96400 0.12900 24.05800
H  33.33200 1.42800 25.12900
H  32.71600 -0.24200 25.25800
H  30.57100 3.16200 27.76700
H  30.07500 4.44400 28.76900
H  29.66700 2.77600 29.24300
H  31.03100 3.37000 34.19200
H  30.11800 7.32400 35.51600
H  31.69700 7.67900 34.94200
H  31.58800 7.01200 36.59400

