158

Mg 46.93500 24.66300 27.89700
C  47.47300 26.85700 30.55600
C  46.00900 22.23100 30.25100
C  46.41400 22.30000 25.35900
C  48.22500 26.81500 25.72200
N  46.52500 24.69200 30.13200
C  46.83500 25.70000 31.00600
C  46.57600 25.34300 32.50600
C  46.25600 23.79300 32.33700
C  46.37600 23.51200 30.79000
C  47.16800 22.85200 33.13900
C  45.45300 26.17800 33.13500
C  45.76400 26.65100 34.54900
H  44.69600 26.41100 35.65600
N  46.02400 22.70000 27.77700
C  45.77600 21.85000 28.84200
C  45.14500 20.58500 28.36500
C  45.31300 20.59800 26.95700
C  45.98300 21.92800 26.61100
C  44.64600 19.52200 29.35200
C  45.03600 19.48400 25.96300
O  45.36900 19.64900 24.80700
C  44.33400 18.15200 26.47200
N  47.21700 24.50800 25.84700
C  47.08500 23.49300 25.03200
C  47.55900 23.87400 23.60900
C  47.65800 25.46600 23.65600
C  47.66900 25.59900 25.18900
C  48.84900 23.12900 23.05300
C  46.51400 26.19200 22.91400
C  45.22100 26.61600 23.67900
N  47.89300 26.38900 28.08000
C  48.38000 27.15600 27.06600
C  48.90300 28.38700 27.69800
C  48.60700 28.28700 29.05500
C  47.92600 27.10200 29.21100
C  49.56200 29.48200 26.88700
C  48.73700 28.93600 30.28600
O  49.26300 30.03900 30.58000
C  48.02200 28.01800 31.34200
C  48.85000 27.51800 32.44200
O  49.76000 26.77300 32.27500
O  48.57500 28.05400 33.65800
C  49.47400 27.64100 34.71100
H  45.63700 21.51200 30.98400
H  46.35500 21.57200 24.54700
H  48.52300 27.60400 25.02800
H  47.50000 25.40400 33.08100
H  45.24500 23.52700 32.64500
H  47.36100 21.99700 32.49000
H  46.69500 22.44400 34.03300
H  48.07800 23.36500 33.44900
H  44.47700 25.69200 33.14400
H  45.27800 27.05700 32.51500
H  45.78900 27.74000 34.49700
H  46.73200 26.28900 34.89500
H  43.57000 19.39100 29.23200
H  44.70500 19.92000 30.36500
H  45.22400 18.61700 29.16500
H  43.43500 18.46400 27.00300
H  45.01000 17.46300 26.97900
H  44.04200 17.61300 25.57100
H  46.71300 23.54600 23.00600
H  48.60900 25.84900 23.28600
H  49.18000 22.43400 23.82500
H  49.56100 23.91600 22.80800
H  48.53800 22.53900 22.19000
H  46.28200 25.64300 22.00100
H  46.96800 27.15100 22.66200
H  45.02400 27.68700 23.73300
H  45.30700 26.15600 24.66300
H  44.42700 26.07300 23.16600
H  49.37800 30.49000 27.25900
H  49.21200 29.41500 25.85700
H  50.65000 29.46500 26.82200
H  47.26200 28.63700 31.81800
H  50.38400 27.06300 34.54900
H  48.97000 27.13800 35.53700
H  49.91500 28.56200 35.09200
Mg -10.72000 39.81500 43.83800
C  -9.61700 36.81100 42.40200
C  -8.10400 41.46700 42.05500
C  -12.23200 42.76600 44.54500
C  -13.57200 38.10000 44.80500
N  -9.05600 39.21200 42.43600
C  -8.84600 37.92200 41.99100
C  -7.62600 37.86800 40.98000
C  -7.07900 39.32100 41.18700
C  -8.11200 40.07700 41.95200
C  -5.65200 39.57300 41.65200
C  -7.94500 37.41700 39.52100
C  -7.19400 36.16400 39.08400
H  -6.01700 36.38200 37.97600
N  -10.19900 41.86300 43.44100
C  -9.13700 42.31200 42.59800
C  -9.21000 43.68700 42.57900
C  -10.38700 44.13100 43.34300
C  -11.00800 42.87800 43.85100
C  -8.26000 44.60100 41.78700
C  -10.68800 45.53600 43.60800
O  -10.04700 46.37900 43.04000
C  -11.70200 45.94500 44.69200
N  -12.61800 40.34300 44.64400
C  -13.01100 41.62100 44.75100
C  -14.55700 41.71900 45.13500
C  -14.92400 40.26500 45.36800
C  -13.65900 39.48800 44.93000
C  -14.80900 42.71800 46.34800
C  -16.16200 39.84500 44.57200
C  -17.05300 38.92900 45.33500
N  -11.46300 37.80900 43.72900
C  -12.61600 37.29000 44.17100
C  -12.65500 35.87200 44.07600
C  -11.48800 35.61400 43.39600
C  -10.80000 36.85100 43.17400
C  -13.56600 34.82800 44.57600
C  -10.67600 34.62000 42.72100
O  -10.79800 33.37100 42.65500
C  -9.39500 35.33900 41.99600
C  -8.24000 34.80400 42.75500
O  -7.75800 35.32700 43.72300
O  -7.74300 33.77900 42.06200
C  -6.53400 33.11900 42.57100
H  -7.35900 42.09600 41.56300
H  -12.87600 43.64800 44.52900
H  -14.52700 37.66900 45.11300
H  -6.96200 37.12900 41.42700
H  -6.89600 39.78900 40.22000
H  -4.99800 38.70300 41.70900
H  -5.68000 39.93200 42.68100
H  -5.15100 40.31100 41.02600
H  -7.57600 38.20800 38.86700
H  -9.01100 37.25500 39.36400
H  -7.99500 35.54000 38.68600
H  -6.81200 35.62200 39.94900
H  -8.83500 44.85300 40.89600
H  -7.45800 43.99300 41.37000
H  -7.98800 45.53300 42.28300
H  -12.71100 45.78100 44.31600
H  -11.50500 46.97600 44.98700
H  -11.62200 45.24600 45.52500
H  -15.00900 42.10700 44.22200
H  -15.01200 40.10300 46.44300
H  -15.26300 42.23000 47.21100
H  -15.44600 43.55900 46.07700
H  -13.81900 43.04300 46.66900
H  -15.94900 39.34100 43.62900
H  -16.73600 40.76900 44.50800
H  -17.07500 37.93700 44.88400
H  -18.06300 39.33000 45.25100
H  -16.78300 38.96300 46.39100
H  -13.95900 35.22900 45.51000
H  -13.06100 33.91900 44.90200
H  -14.29600 34.66100 43.78400
H  -9.27300 35.11200 40.93600
H  -5.66600 33.77100 42.66500
H  -6.39800 32.43900 41.72900
H  -6.69700 32.66600 43.54900

