158

Mg 43.09300 41.90200 26.68400
C  42.19900 44.00300 29.26800
C  44.72700 39.87500 29.12500
C  44.00400 39.77800 24.37000
C  42.07200 44.20900 24.35900
N  43.41100 41.89500 28.88300
C  42.91600 42.88900 29.75400
C  43.02200 42.47500 31.20400
C  44.14500 41.36400 31.17500
C  44.22200 41.08300 29.61500
C  45.60200 41.69700 31.76600
C  41.66600 42.01800 31.83600
C  41.21300 42.80700 33.06500
H  40.73800 42.06700 34.34900
N  44.16100 40.01100 26.76500
C  44.69700 39.37100 27.82600
C  45.16200 37.97400 27.33000
C  44.84200 37.92000 25.94800
C  44.26500 39.28400 25.65800
C  45.68800 36.97300 28.36900
C  45.20500 36.81400 24.95000
O  45.01000 36.79800 23.78800
C  45.88000 35.66200 25.56300
N  43.10900 42.05400 24.66900
C  43.58800 41.02900 23.88300
C  43.52800 41.44300 22.39500
C  42.64300 42.67400 22.44800
C  42.61400 43.04500 23.90500
C  44.95700 41.65200 21.73600
C  41.29600 42.53700 21.73700
C  40.32900 41.56200 22.38400
N  42.18600 43.62700 26.75400
C  41.79900 44.51300 25.70900
C  41.23900 45.73200 26.25300
C  41.29400 45.50300 27.66500
C  41.92500 44.31200 27.91100
C  40.83100 46.95900 25.59900
C  41.02400 46.19100 28.95600
O  40.44500 47.28100 29.21700
C  41.52600 45.19700 30.08300
C  42.41700 45.97600 30.93800
O  43.56100 46.27300 30.62600
O  41.84500 46.25500 32.15200
C  42.59300 46.91500 33.24200
H  45.34300 39.32700 29.84100
H  44.41000 39.14200 23.58200
H  41.70600 44.95800 23.65400
H  43.37600 43.35800 31.73600
H  43.81700 40.45000 31.66900
H  45.84300 41.08200 32.63400
H  45.82000 42.72800 32.04500
H  46.25200 41.34100 30.96700
H  41.78100 41.00200 32.21300
H  40.91400 41.88400 31.05800
H  40.35000 43.33700 32.66200
H  41.98200 43.49400 33.41600
H  45.89000 37.28400 29.39400
H  46.56800 36.51800 27.91500
H  45.00300 36.12600 28.36700
H  46.81900 35.91500 26.05600
H  46.10700 35.13600 24.63500
H  45.20700 35.00300 26.11000
H  43.09000 40.60000 21.86000
H  43.11100 43.53000 21.96000
H  45.75000 41.26700 22.37600
H  45.13800 42.72500 21.67700
H  45.05800 41.14200 20.77800
H  41.27600 42.27300 20.68000
H  40.87500 43.53800 21.83200
H  39.48700 42.14300 22.76100
H  40.63400 41.00000 23.26700
H  39.96300 40.90200 21.59800
H  39.75500 47.12700 25.64800
H  41.11500 47.10700 24.55700
H  41.28800 47.74200 26.20400
H  40.61100 44.92000 30.60700
H  42.25500 47.95000 33.27400
H  43.64800 46.82900 32.98100
H  42.29000 46.43500 34.17200
Mg 36.19600 48.95300 26.18400
C  36.86700 46.66500 28.84900
C  34.54000 50.87600 28.37000
C  35.29800 50.86700 23.62500
C  37.34200 46.55300 23.99000
N  35.90000 48.81900 28.35400
C  36.40500 47.94400 29.21300
C  36.05900 48.33400 30.63200
C  35.18500 49.51200 30.42000
C  35.13600 49.72700 28.92700
C  33.67100 49.39300 30.90300
C  37.37900 48.70100 31.36200
C  37.27700 48.79000 32.92000
H  35.94500 48.76200 33.56600
N  35.26400 50.70200 26.02300
C  34.58300 51.37500 27.00700
C  34.10100 52.66800 26.52800
C  34.44300 52.72900 25.11000
C  35.00600 51.42800 24.85300
C  33.55500 53.78600 27.44800
C  34.18400 53.86000 24.06600
O  34.53900 53.80400 22.85700
C  33.47600 55.14800 24.45300
N  36.27300 48.71900 24.11800
C  35.86000 49.60500 23.23100
C  36.00700 49.23700 21.74200
C  36.68200 47.84500 21.87400
C  36.83300 47.73300 23.44000
C  34.63100 49.20200 20.97000
C  37.92700 47.63800 20.95300
C  39.41300 47.94400 21.51700
N  36.94900 46.92800 26.35800
C  37.40100 46.14800 25.35000
C  37.90100 44.86200 25.91400
C  37.71800 44.96200 27.36100
C  37.14100 46.26200 27.56200
C  38.51800 43.85100 25.00700
C  37.76300 44.31700 28.65000
O  38.20800 43.21800 29.04900
C  37.34000 45.51800 29.62600
C  36.23900 44.85000 30.45600
O  35.09300 44.73200 30.02100
O  36.72900 44.52400 31.72900
C  35.63500 44.24200 32.63000
H  33.87100 51.44200 29.02200
H  35.02500 51.48700 22.76800
H  37.71000 45.90000 23.19600
H  35.58900 47.54200 31.21600
H  35.60800 50.38600 30.91600
H  32.97100 49.79200 30.16900
H  33.58400 49.94400 31.83900
H  33.51900 48.32400 31.05000
H  37.73000 49.66500 30.99300
H  38.09400 47.95700 31.01200
H  37.94100 49.61000 33.19000
H  37.90100 47.92500 33.14300
H  33.90400 54.76400 27.11700
H  33.97500 53.59900 28.43700
H  32.49400 53.86500 27.68400
H  32.52700 54.75000 24.81400
H  33.23400 55.73700 23.56800
H  34.13300 55.57900 25.20800
H  36.65900 49.93100 21.21100
H  36.04100 47.00700 21.59900
H  34.66300 49.99900 20.22700
H  33.73400 49.49900 21.51300
H  34.43300 48.27700 20.42800
H  37.73100 48.10200 19.98600
H  38.04000 46.56500 20.79700
H  39.85100 48.57200 20.74100
H  39.95300 47.05800 21.85400
H  39.29700 48.62100 22.36300
H  38.93600 44.17800 24.05500
H  37.69000 43.18500 24.76300
H  39.29000 43.40100 25.63100
H  38.17700 45.82900 30.25200
H  35.07800 45.16200 32.81100
H  36.12700 43.86800 33.52800
H  35.03700 43.41400 32.24900

