158

Mg 1.01300 7.76700 27.95200
C  1.46800 9.96300 30.55200
C  0.85300 5.22600 30.37200
C  0.57700 5.52600 25.42000
C  1.30700 10.25700 25.64400
N  1.32300 7.60700 30.22200
C  1.35300 8.70100 31.06200
C  1.03200 8.23500 32.53500
C  1.21400 6.70400 32.43100
C  1.10900 6.48200 30.89900
C  2.44000 6.18100 33.10800
C  -0.39700 8.64100 32.98700
C  -0.84400 8.46800 34.49400
H  0.20400 8.15900 35.61900
N  0.71600 5.72700 27.87100
C  0.69700 4.86900 28.97500
C  0.35800 3.55000 28.52000
C  0.28100 3.60600 27.08900
C  0.63500 4.98600 26.75600
C  -0.00900 2.40700 29.55600
C  -0.21500 2.48800 26.06700
O  -0.26600 2.56900 24.86200
C  -0.64800 1.18400 26.74100
N  0.87600 7.84300 25.83300
C  0.61400 6.87500 24.96000
C  0.63900 7.28300 23.37900
C  0.76900 8.80900 23.61800
C  1.02700 9.00700 25.13100
C  1.85000 6.73000 22.53300
C  -0.43400 9.59200 23.00700
C  -0.07500 10.52600 21.82500
N  1.36400 9.71700 27.99100
C  1.48200 10.62800 26.96000
C  1.59100 11.96900 27.54700
C  1.60100 11.72000 28.92300
C  1.45000 10.34700 29.16200
C  1.68400 13.27800 26.75500
C  1.64700 12.46100 30.13100
O  1.77800 13.68900 30.32500
C  1.42700 11.36900 31.27900
C  2.55100 11.62600 32.24800
O  3.70100 11.32000 32.08000
O  1.92100 12.06500 33.38800
C  2.83600 12.19500 34.57300
H  0.83000 4.51200 31.19800
H  0.55900 4.82300 24.58500
H  1.28100 11.02800 24.87100
H  1.80600 8.72400 33.12600
H  0.32400 6.23300 32.84800
H  3.14200 6.88000 33.56100
H  2.94200 5.58900 32.34300
H  2.09000 5.58300 33.95000
H  -0.99600 7.92000 32.42900
H  -0.57100 9.60800 32.51700
H  -1.57900 7.67000 34.38600
H  -1.25900 9.43700 34.77000
H  0.65800 1.54800 29.47900
H  -1.00100 2.02000 29.32200
H  -0.02100 2.70000 30.60600
H  -0.88900 0.37000 26.05800
H  -1.50800 1.29700 27.40200
H  0.12100 0.69300 27.33700
H  -0.23500 7.05200 22.77000
H  1.71100 9.18600 23.21900
H  2.12600 5.71200 22.80900
H  2.77800 7.27900 22.69400
H  1.65900 6.89900 21.47400
H  -0.81000 10.11400 23.88700
H  -1.22700 8.90000 22.72100
H  -0.71500 10.17400 21.01600
H  1.00500 10.43500 21.70500
H  -0.26500 11.55800 22.11800
H  2.59600 13.74100 27.13200
H  0.74600 13.82100 26.64600
H  1.92200 13.16100 25.69700
H  0.46700 11.60100 31.74100
H  2.45900 12.91400 35.30000
H  3.76700 12.62300 34.20300
H  2.97400 11.26000 35.11500
Mg 47.03600 17.08400 28.04100
C  45.00700 16.31000 31.07000
C  49.32600 18.51900 30.00600
C  48.38700 17.94300 25.28000
C  44.19500 15.85700 26.22400
N  47.13400 17.36200 30.30000
C  46.20200 17.04100 31.30100
C  46.86100 17.33400 32.62700
C  47.90600 18.44300 32.25500
C  48.22600 18.02900 30.79700
C  47.51900 19.92300 32.25600
C  47.47400 16.00900 33.27000
C  47.56800 15.92600 34.78200
H  47.77900 17.07200 35.77300
N  48.69800 17.98600 27.73400
C  49.56300 18.52100 28.64000
C  50.71500 19.01200 28.01000
C  50.45600 18.87500 26.62000
C  49.14000 18.19900 26.51000
C  51.94000 19.52600 28.77100
C  51.35500 19.32800 25.40600
O  51.09100 18.98600 24.23100
C  52.51200 20.28600 25.69700
N  46.40300 16.85200 26.00800
C  47.16400 17.40800 25.01400
C  46.61200 17.07100 23.61200
C  45.33500 16.28000 23.89400
C  45.30400 16.29500 25.47000
C  46.54500 18.27000 22.58800
C  45.48000 14.81200 23.29700
C  46.46300 13.85700 23.98400
N  45.04800 16.12300 28.45500
C  44.05400 15.72800 27.62200
C  42.91700 15.12700 28.43100
C  43.27500 15.33800 29.71700
C  44.53600 15.96100 29.73100
C  41.62300 14.51100 27.86200
C  42.78800 15.24100 31.15500
O  41.77900 14.77800 31.59300
C  43.94000 15.78800 32.04500
C  43.33100 16.99200 32.76900
O  42.83600 17.92500 32.21500
O  43.35300 16.88900 34.11800
C  42.53100 17.78500 34.86300
H  50.05600 19.02700 30.64000
H  48.92200 18.25400 24.38000
H  43.36000 15.56600 25.58400
H  46.15600 17.71300 33.36700
H  48.76500 18.38700 32.92500
H  48.24100 20.40200 32.91700
H  46.63500 19.99600 32.88900
H  47.38500 20.40100 31.28600
H  48.52200 15.91800 32.98400
H  46.93100 15.15000 32.87500
H  48.46600 15.33800 34.96900
H  46.77600 15.34000 35.24800
H  52.69500 18.74000 28.78000
H  51.65200 19.65100 29.81500
H  52.28600 20.45800 28.32500
H  53.25300 19.94500 26.42100
H  52.11800 21.26500 25.96700
H  53.08800 20.38200 24.77600
H  47.25600 16.28100 23.22400
H  44.38400 16.72200 23.59800
H  45.49300 18.54500 22.52100
H  46.89900 18.11200 21.56900
H  47.10900 19.16300 22.85800
H  45.82500 14.99300 22.27900
H  44.46100 14.44400 23.17600
H  47.46500 14.28400 23.98100
H  46.55600 12.93100 23.41500
H  46.31900 13.56800 25.02500
H  40.79500 15.02900 28.34500
H  41.70300 13.42600 27.94100
H  41.44600 14.64500 26.79500
H  44.25200 15.07000 32.80300
H  42.51200 17.59400 35.93600
H  41.46700 17.66200 34.65900
H  42.76300 18.81500 34.59400

