158

Mg 4.65300 54.20000 41.41700
C  3.57600 50.88600 41.13500
C  7.33500 53.23100 39.29700
C  5.57500 57.43200 41.12400
C  1.66400 55.00900 42.88400
N  5.30700 52.26600 40.23800
C  4.72000 51.10000 40.37300
C  5.47000 50.07800 39.55000
C  6.78100 50.74000 39.25800
C  6.48000 52.23600 39.58900
C  7.98600 50.06700 40.00800
C  4.64800 49.86800 38.13800
C  4.71700 48.42900 37.62800
H  5.38400 48.23200 36.31000
N  6.20900 55.18700 40.41700
C  7.25000 54.59000 39.65800
C  8.17400 55.56100 39.30800
C  7.78000 56.83800 39.80700
C  6.48800 56.58600 40.46500
C  9.38400 55.19900 38.50300
C  8.50100 58.20000 39.70500
O  9.57400 58.19300 39.14500
C  7.96700 59.39200 40.34300
N  3.75200 55.99500 41.85300
C  4.32100 57.17700 41.69900
C  3.45900 58.29700 42.41700
C  2.20500 57.50600 42.96800
C  2.55700 56.07900 42.49700
C  4.12900 59.23500 43.43200
C  0.75700 57.95700 42.55900
C  0.37700 57.35500 41.21600
N  2.97900 53.18800 42.01400
C  1.82000 53.60400 42.64500
C  1.00700 52.52900 43.01200
C  1.66600 51.37300 42.51100
C  2.80700 51.87500 41.84400
C  -0.28800 52.63600 43.70000
C  1.64900 49.90700 42.34700
O  0.81500 49.08200 42.69900
C  2.90200 49.51400 41.47900
C  2.53900 48.66100 40.40300
O  1.75500 48.94400 39.52700
O  3.05700 47.43300 40.61200
C  2.48600 46.29500 39.94000
H  8.24400 52.98300 38.74500
H  5.80800 58.49200 41.23900
H  0.75400 55.21500 43.45100
H  5.64300 49.12200 40.04400
H  7.15900 50.63200 38.24100
H  8.56700 50.82000 40.53900
H  8.70800 49.59100 39.34400
H  7.61500 49.41300 40.79700
H  5.02000 50.59200 37.41300
H  3.63200 50.24500 38.26000
H  3.66200 48.15800 37.59500
H  5.28000 47.79000 38.30800
H  9.94400 54.38600 38.96300
H  10.05900 55.98900 38.17300
H  9.03700 54.80300 37.54800
H  7.03100 59.72400 39.89300
H  8.65800 60.22000 40.18500
H  7.97200 59.21700 41.41900
H  3.04200 58.91700 41.62300
H  2.32900 57.48800 44.05100
H  5.10600 58.83400 43.70300
H  3.46200 59.43400 44.27100
H  4.41000 60.12700 42.87200
H  0.72700 59.03100 42.37500
H  0.07100 57.71600 43.37000
H  -0.28600 58.06400 40.72100
H  -0.34000 56.53600 41.27300
H  1.05100 57.10700 40.39600
H  -0.10200 52.24200 44.69900
H  -1.04900 52.15000 43.08900
H  -0.53500 53.67300 43.92500
H  3.56300 48.93600 42.12400
H  2.79400 46.24700 38.89500
H  1.41600 46.39700 40.11800
H  2.74200 45.31800 40.34900
Mg -5.98900 25.43700 26.55500
C  -4.52000 26.84300 29.48400
C  -7.76400 23.36700 28.68000
C  -7.09100 23.94000 23.85100
C  -3.59100 27.23300 24.73800
N  -6.02000 25.06000 28.83600
C  -5.50700 25.87500 29.81600
C  -5.96900 25.44800 31.16800
C  -6.68700 24.06600 30.93600
C  -6.79400 24.13100 29.43100
C  -5.82800 22.84400 31.22900
C  -6.91800 26.55400 31.83000
C  -7.38600 26.28800 33.25100
H  -6.75800 25.11100 34.10000
N  -7.33700 23.89200 26.25700
C  -7.93700 23.16900 27.26700
C  -8.89300 22.22900 26.63900
C  -8.81800 22.41800 25.19200
C  -7.74200 23.44900 25.02700
C  -9.81200 21.29100 27.48100
C  -9.58800 21.72900 24.04700
O  -9.27000 21.97400 22.90000
C  -10.62400 20.72000 24.40500
N  -5.29900 25.47800 24.61300
C  -5.98000 24.81500 23.66000
C  -5.26300 24.98800 22.29700
C  -4.34600 26.20200 22.53800
C  -4.40900 26.37200 24.04100
C  -4.39100 23.73500 21.75000
C  -4.70900 27.50900 21.84500
C  -3.55500 28.21300 21.02500
N  -4.41800 26.81100 26.95400
C  -3.52700 27.43000 26.11200
C  -2.54800 28.18500 26.85800
C  -2.96500 28.00800 28.20000
C  -4.06300 27.12000 28.18700
C  -1.29000 28.86600 26.22900
C  -2.55700 28.31900 29.56500
O  -1.56900 28.92000 30.00500
C  -3.63100 27.58600 30.52300
C  -2.77100 26.79300 31.38200
O  -2.20500 25.73100 31.06200
O  -2.87000 27.25700 32.68500
C  -2.24900 26.33800 33.71500
H  -8.41300 22.71200 29.26500
H  -7.46000 23.55700 22.89700
H  -2.82800 27.74600 24.14900
H  -5.08000 25.26100 31.77000
H  -7.63300 23.97900 31.46900
H  -5.00900 23.09100 31.90500
H  -5.43400 22.35900 30.33600
H  -6.34100 22.09000 31.82500
H  -7.78400 26.73300 31.19200
H  -6.32000 27.46500 31.80400
H  -8.44800 26.04800 33.20200
H  -7.33000 27.25300 33.75600
H  -10.58300 20.80700 26.88300
H  -10.19700 21.93700 28.27000
H  -9.33100 20.45800 27.99400
H  -10.94300 20.25800 23.47100
H  -11.50100 21.24000 24.79200
H  -10.27300 19.91500 25.05000
H  -5.99800 25.22800 21.52900
H  -3.31700 25.90300 22.33900
H  -4.73600 23.40500 20.76900
H  -4.52500 22.91600 22.45700
H  -3.34100 24.00900 21.65600
H  -4.99800 28.19700 22.64000
H  -5.59300 27.43000 21.21200
H  -2.67600 27.58200 20.88900
H  -3.28300 29.20600 21.38500
H  -3.74800 28.46200 19.98100
H  -1.54600 29.89100 25.96300
H  -0.96300 28.29900 25.35700
H  -0.38300 28.80400 26.83100
H  -4.20900 28.26600 31.15000
H  -2.59600 25.30400 33.73000
H  -2.24000 26.79800 34.70300
H  -1.17600 26.41700 33.53800

