158

Mg 43.60400 42.34300 26.37200
C  42.80300 44.64900 28.88500
C  45.46600 40.51700 28.72700
C  44.61700 40.36400 24.03100
C  42.14900 44.44800 24.01300
N  44.12300 42.57600 28.53900
C  43.56300 43.58600 29.37800
C  44.00200 43.41000 30.83100
C  44.84900 42.12600 30.73900
C  44.85700 41.66600 29.32600
C  46.17300 42.04600 31.51400
C  42.89800 43.34500 31.90000
C  43.35700 44.06600 33.12600
H  42.48500 44.48300 34.31800
N  44.67800 40.58600 26.36900
C  45.45100 40.03000 27.36000
C  46.02300 38.76700 26.87700
C  45.61700 38.64900 25.50200
C  44.88400 39.88700 25.24900
C  46.67400 37.86100 27.84600
C  45.96500 37.57800 24.49900
O  45.47100 37.49900 23.34400
C  46.78400 36.39500 24.98600
N  43.59200 42.54100 24.27900
C  44.04100 41.51800 23.53600
C  43.90600 41.78600 22.00900
C  42.81700 42.92700 22.06600
C  42.93800 43.36300 23.50200
C  45.31500 42.25800 21.47700
C  41.48600 42.46100 21.43700
C  40.79400 41.31100 22.33700
N  42.75600 44.18900 26.41300
C  42.20900 44.93000 25.36900
C  41.62700 46.16000 25.89000
C  41.77600 46.11600 27.23100
C  42.49500 44.90600 27.49300
C  41.05800 47.29900 25.12200
C  41.61100 46.82600 28.50900
O  41.07500 47.89500 28.83500
C  42.30200 45.91300 29.64700
C  43.37900 46.67700 30.41900
O  44.54900 46.86200 30.09800
O  42.80100 47.23600 31.50500
C  43.78400 48.00400 32.27300
H  45.91800 39.95700 29.54900
H  45.00300 39.80400 23.17700
H  41.65000 45.06700 23.26300
H  44.73300 44.17900 31.08000
H  44.15500 41.36900 31.10400
H  45.99500 41.49900 32.44100
H  46.43800 43.02900 31.90300
H  46.99400 41.66400 30.90800
H  42.77800 42.31500 32.23500
H  41.90300 43.62400 31.55300
H  43.77000 45.02600 32.81500
H  44.21100 43.59500 33.61300
H  46.59800 38.23000 28.86800
H  47.73800 37.78500 27.62400
H  46.12300 36.92100 27.89400
H  46.41500 36.00500 25.93500
H  47.81300 36.73000 25.11700
H  46.76100 35.59900 24.24200
H  43.50700 40.88300 21.54700
H  43.12500 43.82400 21.52900
H  45.04200 42.95800 20.68700
H  45.87200 41.40300 21.09300
H  45.98500 42.64400 22.24500
H  41.81100 42.13400 20.44900
H  40.85900 43.34600 21.33200
H  40.05200 41.75900 22.99700
H  41.50900 40.75400 22.94300
H  40.45600 40.50900 21.68100
H  41.90400 47.96300 24.94600
H  40.49200 47.89200 25.84100
H  40.42700 47.17800 24.24100
H  41.51900 45.63600 30.35300
H  44.64000 47.40100 32.57600
H  43.30400 48.28000 33.21200
H  44.29800 48.77800 31.70300
Mg -11.77400 38.40000 42.27900
C  -9.57400 35.93300 41.05400
C  -9.85700 40.72100 40.53200
C  -14.27700 40.54300 42.58200
C  -13.98400 35.79600 43.47400
N  -10.05600 38.27300 40.81500
C  -9.19600 37.19100 40.61700
C  -7.84900 37.53300 39.92200
C  -8.02200 39.04400 39.74400
C  -9.41300 39.39100 40.35800
C  -6.89100 39.89300 40.30500
C  -7.63400 36.82300 38.55500
C  -6.31600 36.03800 38.35900
H  -5.47100 36.31600 37.11300
N  -11.94800 40.41300 41.79000
C  -11.04500 41.14200 41.09400
C  -11.56600 42.46700 41.00000
C  -12.83300 42.48100 41.54500
C  -13.07000 41.11000 42.04500
C  -10.74200 43.66100 40.42800
C  -13.78500 43.67800 41.54800
O  -13.46000 44.74700 41.05800
C  -15.18200 43.57800 42.06800
N  -13.93500 38.18100 42.97200
C  -14.66600 39.27700 42.99200
C  -16.06700 38.95400 43.54700
C  -15.94000 37.35300 43.84700
C  -14.50900 37.09700 43.45900
C  -16.67600 39.84400 44.72600
C  -16.94500 36.46300 43.11900
C  -18.17400 36.01600 43.86300
N  -11.84100 36.25500 42.23500
C  -12.75300 35.40700 42.82600
C  -12.10800 34.07000 42.83700
C  -10.86400 34.23600 42.20100
C  -10.78200 35.57200 41.79100
C  -12.60900 32.79200 43.44600
C  -9.58400 33.58000 41.83100
O  -9.15500 32.44900 42.13000
C  -8.73000 34.56600 41.00800
C  -7.39500 34.58600 41.63000
O  -6.46700 33.80800 41.32100
O  -7.28000 35.48900 42.68600
C  -6.04700 35.24200 43.53500
H  -9.14200 41.43100 40.11100
H  -15.07500 41.28500 42.64300
H  -14.65200 35.09100 43.97300
H  -7.03900 37.27400 40.60400
H  -8.09600 39.36100 38.70400
H  -7.09500 40.07300 41.36100
H  -6.70700 40.82100 39.76300
H  -5.97300 39.31500 40.19900
H  -7.68300 37.51100 37.71100
H  -8.51000 36.20600 38.35400
H  -6.63400 34.99600 38.32800
H  -5.78500 36.24600 39.28800
H  -10.80000 43.75200 39.34400
H  -9.71700 43.42000 40.70900
H  -11.00600 44.58800 40.93800
H  -15.74200 44.47800 41.81700
H  -15.06700 43.38900 43.13500
H  -15.73600 42.77500 41.58100
H  -16.76000 39.14500 42.72800
H  -16.07100 37.17100 44.91400
H  -15.75300 40.33200 45.04000
H  -17.07700 39.31000 45.58800
H  -17.34200 40.59600 44.30200
H  -16.48000 35.55000 42.74800
H  -17.20200 36.95300 42.17900
H  -18.79800 35.66900 43.03900
H  -18.66800 36.77400 44.47200
H  -17.97200 35.11900 44.44800
H  -12.84100 32.07800 42.65600
H  -13.48800 33.00700 44.05400
H  -11.80500 32.42700 44.08400
H  -8.63600 34.37400 39.93900
H  -6.16400 35.80800 44.45900
H  -5.11500 35.51600 43.04000
H  -6.00000 34.20800 43.87700

