158

Mg 34.34500 2.83900 28.87400
C  32.34500 3.62500 31.69100
C  36.94900 2.56500 30.92400
C  36.29100 2.74100 26.04000
C  31.64100 3.65100 26.83900
N  34.59800 2.88900 31.10600
C  33.63900 3.15200 32.01900
C  34.25000 3.13000 33.45700
C  35.79900 2.95700 33.10900
C  35.77800 2.74800 31.66200
C  36.65200 4.15900 33.52400
C  33.59300 2.03700 34.32800
C  33.49300 2.32500 35.84200
H  34.25000 3.55700 36.33500
N  36.23700 2.47800 28.54100
C  37.13000 2.25200 29.51900
C  38.36600 1.80200 28.90600
C  38.22700 1.81900 27.50200
C  36.89600 2.44400 27.27100
C  39.45900 1.33700 29.79700
C  39.16200 1.18300 26.44500
O  39.11100 1.62500 25.31000
C  40.20600 0.11000 26.72700
N  34.01400 3.34400 26.72800
C  34.95600 3.09200 25.77200
C  34.41200 3.18800 24.34400
C  32.86900 3.09300 24.60800
C  32.79900 3.37800 26.18200
C  34.68200 4.52100 23.62600
C  32.14900 1.72400 24.22100
C  30.69900 1.83300 23.65900
N  32.37100 3.48900 29.12000
C  31.38500 3.75100 28.17400
C  30.19400 4.04900 28.82300
C  30.47700 3.96800 30.19000
C  31.87200 3.71500 30.34800
C  28.87200 4.40500 28.24500
C  29.91400 4.13900 31.56600
O  28.81800 4.46100 31.96400
C  31.16400 3.90100 32.55400
C  31.29100 5.20000 33.33100
O  32.03900 6.12600 33.03400
O  30.44700 5.25200 34.38900
C  30.52200 6.50900 35.23100
H  37.81600 2.54200 31.58700
H  36.81100 2.67600 25.08200
H  30.75100 3.62800 26.20700
H  34.12500 4.12800 33.87700
H  36.15400 2.04000 33.58000
H  36.96100 4.83500 32.72700
H  37.54300 3.70400 33.95800
H  36.15000 4.69100 34.33200
H  34.16000 1.12000 34.16700
H  32.59400 1.75500 33.99700
H  33.82200 1.46600 36.42600
H  32.43100 2.50400 36.00900
H  39.68800 0.27300 29.73000
H  39.33900 1.56500 30.85600
H  40.38900 1.86100 29.57600
H  41.17700 0.49400 27.04000
H  40.33600 -0.50200 25.83500
H  39.91100 -0.59700 27.50300
H  34.73300 2.31800 23.77100
H  32.30700 3.89200 24.12500
H  35.17400 5.25100 24.26900
H  33.74800 4.94000 23.25200
H  35.32000 4.40100 22.75000
H  31.99000 1.19000 25.15800
H  32.69800 1.21300 23.43000
H  29.95400 1.40000 24.32600
H  30.66300 1.13800 22.82100
H  30.37900 2.81400 23.30800
H  28.83500 4.17900 27.18000
H  28.58300 5.41400 28.53900
H  28.03800 3.74700 28.48800
H  30.95500 3.00000 33.13000
H  30.36800 7.34100 34.54500
H  31.47400 6.47800 35.76100
H  29.70400 6.54800 35.95000
Mg -12.02200 38.61200 41.49100
C  -10.14900 36.07300 40.25000
C  -9.94700 40.91900 39.96400
C  -14.26000 41.01700 42.20200
C  -14.16400 36.22100 42.85300
N  -10.32600 38.55100 40.27600
C  -9.66800 37.36600 39.90700
C  -8.34600 37.71900 39.09200
C  -8.16300 39.22400 39.46000
C  -9.55100 39.65100 39.95700
C  -7.04300 39.47400 40.61400
C  -8.41800 37.31800 37.60400
C  -7.23800 36.48800 36.89800
H  -6.58200 37.13600 35.67600
N  -12.14000 40.70600 41.11200
C  -11.10600 41.49400 40.51000
C  -11.50100 42.87300 40.55200
C  -12.82700 42.93300 41.15700
C  -13.12000 41.55000 41.63000
C  -10.62000 43.93500 40.17100
C  -13.61700 44.19000 41.41500
O  -13.13900 45.26900 41.06700
C  -14.92900 44.30500 42.25200
N  -14.01700 38.57600 42.28900
C  -14.67200 39.71000 42.46500
C  -16.16800 39.31700 42.78400
C  -16.07700 37.84100 43.17000
C  -14.64700 37.49600 42.81100
C  -16.93000 40.19600 43.74800
C  -17.16000 36.93200 42.50500
C  -17.78900 35.70300 43.38100
N  -12.07400 36.51100 41.61000
C  -13.02200 35.69700 42.21200
C  -12.57700 34.37300 42.03400
C  -11.45700 34.46500 41.23200
C  -11.27400 35.77600 40.98400
C  -13.20700 33.14500 42.62100
C  -10.39400 33.68800 40.58500
O  -10.23400 32.48400 40.44600
C  -9.46100 34.74200 39.83400
C  -7.93200 34.72600 40.23300
O  -7.00600 34.38200 39.49100
O  -7.78600 35.02700 41.57100
C  -6.49000 34.72600 42.10100
H  -9.18800 41.49800 39.43500
H  -14.99600 41.66600 42.68300
H  -14.79800 35.52700 43.41000
H  -7.55400 37.21600 39.64800
H  -7.86900 39.80800 38.58700
H  -7.18500 40.46500 41.04500
H  -6.07400 39.58300 40.12600
H  -7.07800 38.54700 41.18700
H  -8.41000 38.23300 37.01200
H  -9.30500 36.74800 37.33000
H  -7.54400 35.45100 36.76100
H  -6.44900 36.53000 37.64900
H  -9.59100 43.57900 40.13000
H  -10.66800 44.77600 40.86400
H  -10.75000 44.27800 39.14500
H  -15.43700 45.23100 41.98400
H  -14.77500 44.27700 43.33000
H  -15.55800 43.48700 41.90000
H  -16.62700 39.44200 41.80300
H  -16.08100 37.85000 44.26000
H  -17.77000 40.73300 43.30800
H  -16.31100 40.89300 44.31300
H  -17.36900 39.49100 44.45500
H  -16.76300 36.51200 41.58100
H  -17.96400 37.61600 42.23700
H  -17.27500 35.85400 44.33000
H  -17.65500 34.71800 42.93300
H  -18.83200 35.94000 43.59400
H  -13.48200 33.24500 43.67100
H  -12.55200 32.30700 42.38100
H  -14.20600 33.01100 42.20700
H  -9.62100 34.61800 38.76300
H  -6.30800 33.65300 42.15900
H  -6.52900 35.10600 43.12100
H  -5.59900 35.16800 41.65600

