158

Mg 43.27900 3.88700 47.09900
C  41.36000 6.84900 47.09400
C  40.29000 2.11600 46.74700
C  45.01600 1.20800 46.25400
C  46.08400 6.00600 46.50100
N  41.09000 4.49800 46.94500
C  40.51400 5.72300 47.06200
C  38.96800 5.66400 47.08200
C  38.79900 4.10500 47.11800
C  40.15700 3.47400 46.88300
C  38.15300 3.58800 48.43200
C  38.26200 6.36800 45.86300
C  39.19600 6.92100 44.76000
H  38.80600 6.38900 43.36100
N  42.75300 1.87000 46.85600
C  41.49000 1.31400 46.69700
C  41.54600 -0.04300 46.42700
C  42.95200 -0.39800 46.32500
C  43.63800 0.86800 46.53400
C  40.34200 -0.89300 46.22500
C  43.44100 -1.89200 46.07400
O  42.63500 -2.82800 45.86200
C  44.85500 -2.29600 46.03300
N  45.21600 3.65600 46.36100
C  45.71800 2.39400 46.16400
C  47.15400 2.49400 45.68000
C  47.54700 3.97800 45.98200
C  46.18400 4.64600 46.29800
C  48.02500 1.46500 46.39800
C  48.53500 4.71300 44.99000
C  49.87800 4.95600 45.62300
N  43.70400 6.04600 46.75800
C  44.94500 6.72300 46.65300
C  44.65300 8.18700 46.75000
C  43.26800 8.26400 46.97000
C  42.74300 6.94700 46.97300
C  45.75600 9.23800 46.65800
C  42.19700 9.17100 47.29600
O  42.22400 10.39100 47.34900
C  40.91600 8.28900 47.31200
C  40.08900 8.54100 48.49600
O  40.10800 7.81700 49.46000
O  39.28000 9.59700 48.33200
C  38.28800 10.07800 49.27000
H  39.28800 1.70900 46.59900
H  45.53400 0.30400 45.92900
H  47.03300 6.53400 46.61600
H  38.65800 6.13000 48.01800
H  38.21500 3.64000 46.32400
H  37.72500 4.40900 49.00600
H  38.93200 3.14500 49.05300
H  37.39100 2.85400 48.17100
H  37.72200 7.23800 46.23700
H  37.52700 5.73500 45.36600
H  40.23600 6.60600 44.84300
H  39.06500 8.00300 44.77700
H  39.85000 -0.80100 45.25700
H  39.55800 -0.62800 46.93500
H  40.46400 -1.94800 46.46800
H  45.44600 -1.88200 46.85000
H  45.16400 -1.94400 45.04900
H  44.99100 -3.37700 46.03700
H  47.16700 2.30400 44.60700
H  48.02600 3.81400 46.94700
H  48.90400 1.91400 46.86000
H  48.26900 0.79300 45.57500
H  47.51000 0.99800 47.23700
H  48.16800 5.71100 44.75000
H  48.52700 4.20900 44.02300
H  50.62000 4.47900 44.98200
H  49.95400 4.49100 46.60500
H  49.98000 6.03300 45.75500
H  46.13200 9.48600 47.65000
H  45.39900 10.20500 46.30400
H  46.58600 8.89600 46.04000
H  40.30000 8.64100 46.48400
H  38.28200 9.43100 50.14700
H  37.38300 10.03500 48.66400
H  38.58200 11.10000 49.51200
Mg 1.14900 43.59000 25.86000
C  3.44700 43.52200 28.54600
C  -1.17300 42.47000 28.07200
C  -0.73900 43.01100 23.22300
C  3.90500 44.24900 23.75200
N  1.21400 43.03500 28.11500
C  2.17700 43.25800 28.96900
C  1.64500 43.09100 30.43900
C  0.24600 42.61100 30.28000
C  0.03900 42.77800 28.72000
C  0.06900 41.11000 30.87100
C  1.84700 44.39000 31.17400
C  2.22800 44.44300 32.64500
H  1.60700 43.29200 33.42900
N  -0.77000 42.99100 25.67000
C  -1.56000 42.58900 26.74000
C  -2.86300 42.20700 26.19300
C  -2.71900 42.27800 24.76000
C  -1.41100 42.75200 24.47800
C  -3.96900 41.73300 27.10500
C  -3.66000 41.81300 23.65700
O  -3.45600 41.80200 22.42700
C  -5.04100 41.19800 24.05600
N  1.51200 43.71600 23.91600
C  0.50900 43.48600 22.97800
C  1.09000 43.58000 21.53900
C  2.39900 44.36400 21.74700
C  2.66700 43.96200 23.22100
C  1.28100 42.21100 20.79200
C  2.18200 45.88800 21.65800
C  3.06200 46.55000 20.58900
N  3.24900 43.93000 26.10200
C  4.27400 44.13000 25.11200
C  5.50900 44.23800 25.73800
C  5.22800 43.99400 27.11600
C  3.86100 43.82300 27.23800
C  6.84600 44.35600 25.16100
C  5.86000 43.88800 28.42200
O  7.02600 43.93100 28.77100
C  4.69500 43.61400 29.44600
C  4.93500 42.32200 30.21000
O  5.05500 41.27600 29.63900
O  5.14200 42.44500 31.54300
C  5.16800 41.22200 32.37300
H  -2.02300 42.35900 28.74700
H  -1.27000 42.73900 22.30800
H  4.69600 44.53400 23.05400
H  2.25100 42.45600 31.08500
H  -0.38200 43.29500 30.85100
H  -0.56200 41.14600 31.75900
H  0.97900 40.56000 31.11000
H  -0.43200 40.51300 30.10800
H  0.89900 44.92800 31.16200
H  2.62900 44.95200 30.66400
H  1.95000 45.44900 32.96100
H  3.30600 44.47600 32.80000
H  -5.00900 41.67300 26.78300
H  -4.07800 42.47100 27.90000
H  -3.68100 40.75500 27.48900
H  -4.88300 40.17500 24.39800
H  -5.60000 41.16800 23.12000
H  -5.46900 41.90500 24.76600
H  0.40300 44.09400 20.86800
H  3.19900 43.98600 21.11100
H  1.35700 41.39900 21.51600
H  2.24300 42.26400 20.28300
H  0.54300 42.02000 20.01300
H  2.31800 46.29700 22.65900
H  1.15200 46.12800 21.39400
H  2.48400 47.22500 19.95700
H  3.57300 45.81900 19.96300
H  3.84900 47.06800 21.13600
H  6.76400 44.06200 24.11500
H  7.49400 43.66600 25.70100
H  7.11600 45.40500 25.28400
H  4.62100 44.46100 30.12800
H  5.80400 40.50900 31.84700
H  4.28200 40.68000 32.70200
H  5.65600 41.52000 33.30100

