158

Mg -1.24200 17.84000 26.21700
C  -1.53800 15.46500 28.92500
C  -1.76600 20.26200 28.70200
C  -1.63900 20.09800 23.80700
C  -1.56000 15.18800 23.99100
N  -1.66900 17.85600 28.58100
C  -1.51400 16.76600 29.44500
C  -1.84400 17.23600 30.88800
C  -2.23800 18.77400 30.73800
C  -1.77900 19.03600 29.26000
C  -3.74400 19.12600 30.96900
C  -0.69600 16.83700 31.95200
C  -0.71700 17.58700 33.28200
H  -0.55400 16.96900 34.61600
N  -1.45700 19.88300 26.23600
C  -1.69700 20.71700 27.36700
C  -1.97700 22.07900 26.98300
C  -1.84000 22.09200 25.53100
C  -1.59900 20.63600 25.09000
C  -2.36400 23.12400 28.00500
C  -1.97400 23.11000 24.51900
O  -1.81000 22.99800 23.28000
C  -2.20400 24.52400 25.06600
N  -1.79900 17.70200 24.19500
C  -1.68000 18.75900 23.37700
C  -1.66200 18.30700 21.88200
C  -1.45000 16.75600 21.93400
C  -1.65100 16.48900 23.43800
C  -2.84400 18.81900 21.03800
C  -0.12300 16.14200 21.38200
C  -0.14800 15.34800 20.06700
N  -1.43500 15.81400 26.35500
C  -1.47700 14.85500 25.32900
C  -1.45200 13.50100 25.92300
C  -1.57300 13.75200 27.29200
C  -1.44200 15.13400 27.53500
C  -1.50500 12.17000 25.22800
C  -1.68400 13.03700 28.55600
O  -1.75400 11.84800 28.83600
C  -1.67400 14.13300 29.65200
C  -0.64600 13.72600 30.58300
O  0.57000 13.85300 30.52400
O  -1.33300 13.41900 31.74100
C  -0.41200 12.86300 32.76700
H  -1.94000 20.90800 29.56500
H  -1.62400 20.80200 22.97300
H  -1.34800 14.35800 23.31300
H  -2.66200 16.60500 31.23700
H  -1.69300 19.30900 31.51500
H  -4.04900 19.68500 30.08400
H  -3.87500 19.72500 31.87100
H  -4.34400 18.22600 31.10200
H  0.26600 16.84800 31.43800
H  -0.95500 15.79000 32.11300
H  -1.67100 18.10700 33.37300
H  0.05900 18.33200 33.10500
H  -3.11900 23.74400 27.52200
H  -1.50200 23.76500 28.19000
H  -2.70300 22.71700 28.95700
H  -2.01100 25.29700 24.32100
H  -1.43200 24.59800 25.83200
H  -3.24300 24.45900 25.39000
H  -0.79800 18.82800 21.46800
H  -2.29600 16.21100 21.51400
H  -2.61000 19.48900 20.21000
H  -3.55700 19.33000 21.68500
H  -3.32200 17.92400 20.63800
H  0.31900 15.48000 22.12600
H  0.64900 16.90100 21.26400
H  0.62000 15.71000 19.38400
H  -1.00700 15.62100 19.45500
H  0.00800 14.28100 20.23000
H  -0.98000 12.14100 24.27300
H  -2.58500 12.06600 25.12600
H  -0.93800 11.40300 25.75500
H  -2.65900 14.16100 30.11800
H  0.30500 12.16100 32.34000
H  -1.06200 12.33200 33.46200
H  0.26200 13.56700 33.25500
Mg 46.96800 44.75700 41.72600
C  43.63500 43.83100 42.49400
C  47.66200 41.35300 41.53800
C  49.85000 45.48300 40.28500
C  45.92300 48.18700 41.51600
N  45.79600 42.85200 42.09000
C  44.45900 42.78300 42.27700
C  43.93700 41.37400 42.24200
C  45.28500 40.50800 42.24200
C  46.35200 41.62900 41.94700
C  45.52100 39.78600 43.58700
C  43.03800 40.88800 41.04900
C  43.00800 41.71100 39.71700
H  42.89200 40.91700 38.43200
N  48.55600 43.54500 40.95800
C  48.67400 42.22400 41.04000
C  50.03600 41.85900 40.71500
C  50.61100 43.03900 40.19200
C  49.62200 44.07300 40.40900
C  50.62800 40.54700 40.75000
C  51.96400 43.14300 39.50400
O  52.71900 42.17000 39.29000
C  52.41500 44.38200 38.81400
N  47.71700 46.50900 40.93500
C  49.00100 46.58700 40.55300
C  49.56800 47.97800 40.52800
C  48.22900 48.87800 40.62200
C  47.23300 47.83300 41.12900
C  50.64100 48.20400 41.63800
C  47.85800 49.57000 39.34500
C  48.43000 50.96900 38.98000
N  45.17600 45.88200 42.11600
C  44.92000 47.21800 41.93600
C  43.47700 47.43200 42.35500
C  42.92900 46.13200 42.50700
C  43.97400 45.22600 42.46300
C  42.79400 48.73800 42.43800
C  41.66200 45.39000 42.65900
O  40.47300 45.83400 42.72200
C  42.09100 43.81900 42.81300
C  41.75400 43.35600 44.18600
O  42.13400 43.79800 45.23800
O  40.91100 42.24300 44.02300
C  40.48400 41.72100 45.29300
H  47.95200 40.30000 41.54100
H  50.83100 45.86900 40.00300
H  45.65000 49.24300 41.44800
H  43.48400 41.20900 43.22000
H  45.43900 39.79700 41.43000
H  46.37300 39.12300 43.43300
H  44.63600 39.22800 43.89200
H  45.90800 40.41500 44.38900
H  42.03300 40.71700 41.43300
H  43.28700 39.93300 40.58700
H  43.84100 42.40600 39.61300
H  42.09600 42.30900 39.74000
H  50.57300 40.03700 39.78900
H  50.16100 39.85900 41.45500
H  51.64700 40.64000 41.12800
H  51.67500 44.90900 38.21200
H  53.17300 44.19800 38.05300
H  52.73700 45.01500 39.64200
H  49.95600 48.13100 39.52200
H  48.24500 49.63500 41.40700
H  50.89200 47.23800 42.07700
H  50.24100 48.85800 42.41200
H  51.57800 48.67000 41.33400
H  46.77200 49.66200 39.34200
H  48.06000 48.92100 38.49300
H  49.02800 51.29600 39.83100
H  47.54200 51.59600 39.06000
H  49.04300 50.90000 38.08200
H  41.99500 48.81900 41.70100
H  43.46300 49.55200 42.15700
H  42.41800 48.89400 43.44900
H  41.46400 43.26300 42.11600
H  40.13800 42.50500 45.96600
H  41.29800 41.09700 45.66200
H  39.61700 41.06400 45.23500

