158

Mg -1.68100 17.35600 26.86300
C  -2.34500 15.38100 29.63200
C  -2.36600 20.05800 28.76500
C  -1.46100 19.31700 24.08600
C  -1.65000 14.48000 24.89800
N  -2.14300 17.72300 29.00400
C  -2.27700 16.74700 30.02300
C  -2.56100 17.42700 31.42700
C  -2.79900 18.89000 31.04800
C  -2.41100 18.86900 29.48800
C  -4.29800 19.49300 31.29600
C  -1.41000 17.25900 32.46600
C  -1.84600 16.78600 33.88300
H  -0.87000 16.80300 35.06300
N  -1.75400 19.42700 26.50300
C  -2.04100 20.34300 27.43700
C  -2.01500 21.62300 26.87300
C  -1.64600 21.50900 25.47000
C  -1.52900 20.06300 25.29300
C  -2.11000 22.88400 27.74100
C  -1.35400 22.58700 24.43500
O  -1.05200 22.24700 23.27000
C  -1.74900 23.98600 24.65400
N  -1.45600 16.96900 24.83000
C  -1.37900 17.96900 23.86600
C  -1.12100 17.32300 22.53700
C  -0.98700 15.81000 22.86700
C  -1.47300 15.71700 24.27300
C  -2.21600 17.55000 21.48500
C  0.48100 15.25500 22.63700
C  1.61800 15.66100 23.61900
N  -1.93500 15.33900 27.15000
C  -1.87400 14.30200 26.26400
C  -2.11300 13.07200 26.90500
C  -2.21000 13.41700 28.22700
C  -2.18600 14.82400 28.33500
C  -2.22400 11.68500 26.35300
C  -2.49600 12.90700 29.59500
O  -2.72000 11.76800 29.96600
C  -2.66100 14.15600 30.49500
C  -1.65300 13.78600 31.64000
O  -0.48200 13.99400 31.53900
O  -2.32100 13.25300 32.74200
C  -1.51300 12.95900 33.95800
H  -2.62000 20.94100 29.35500
H  -1.60800 19.93700 23.19900
H  -1.74200 13.60600 24.25000
H  -3.47000 17.04500 31.89200
H  -2.17600 19.55200 31.64900
H  -5.01500 18.77700 31.69700
H  -4.72700 19.96800 30.41400
H  -4.12100 20.27500 32.03500
H  -0.87700 18.20200 32.58500
H  -0.65400 16.65900 31.96000
H  -2.17400 15.75400 33.75700
H  -2.68000 17.42300 34.17600
H  -3.12700 23.27500 27.76400
H  -1.49800 23.71300 27.38600
H  -1.73200 22.82400 28.76100
H  -1.79800 24.63900 23.78300
H  -1.07000 24.41100 25.39300
H  -2.72400 24.00700 25.14100
H  -0.13600 17.66600 22.22000
H  -1.73700 15.23800 22.32000
H  -1.79700 17.47600 20.48100
H  -2.52900 18.59200 21.55500
H  -3.03800 16.87400 21.71700
H  0.75100 15.42100 21.59400
H  0.36800 14.17600 22.73800
H  1.27000 16.37600 24.36400
H  2.26100 16.30700 23.02100
H  2.19500 14.78700 23.92100
H  -1.76200 11.65200 25.36600
H  -3.31200 11.64100 26.30600
H  -1.83500 10.86600 26.95900
H  -3.63200 14.22400 30.98500
H  -1.30700 13.87100 34.51900
H  -0.49000 12.62800 33.78000
H  -1.91000 12.14900 34.57000
Mg -0.21000 7.65900 27.36000
C  0.47500 9.98800 29.83700
C  -0.64200 5.28500 29.59300
C  -0.74100 5.58600 24.66800
C  0.81800 10.14000 25.04500
N  0.11500 7.69500 29.54500
C  0.06600 8.74500 30.38000
C  -0.17400 8.33100 31.77100
C  -0.39400 6.77700 31.68900
C  -0.27500 6.54400 30.17400
C  0.64400 5.93700 32.35700
C  -1.29800 9.06200 32.47400
C  -1.35800 8.94100 34.01900
H  -0.16700 8.47900 34.82300
N  -0.53300 5.73200 27.14700
C  -0.81600 4.92600 28.21800
C  -1.10900 3.59400 27.71800
C  -1.09500 3.60900 26.31800
C  -0.80100 5.05600 26.01600
C  -1.36100 2.40500 28.69300
C  -1.34300 2.47700 25.22200
O  -1.39100 2.64700 23.99900
C  -1.63700 1.02600 25.85400
N  0.10600 7.83100 25.12500
C  -0.28800 6.84900 24.28800
C  -0.29600 7.39200 22.85000
C  -0.08600 8.88500 22.97100
C  0.36200 8.95500 24.43800
C  0.65800 6.46200 22.03100
C  -1.46300 9.63900 22.84000
C  -1.79300 10.29800 21.41900
N  0.55100 9.63100 27.40100
C  0.98200 10.50300 26.40000
C  1.37700 11.82100 26.95400
C  1.22300 11.68000 28.33400
C  0.86500 10.28800 28.52100
C  1.80300 13.01400 26.15900
C  1.33900 12.28100 29.58100
O  1.61400 13.43600 29.93000
C  0.92400 11.20900 30.61100
C  1.92800 11.18300 31.64600
O  3.02300 10.65500 31.48800
O  1.48300 11.82800 32.75100
C  2.38400 11.81000 33.86700
H  -0.80100 4.58100 30.41300
H  -0.90400 4.87400 23.85700
H  0.96900 10.90000 24.27600
H  0.73100 8.41500 32.37300
H  -1.36000 6.40200 32.02800
H  1.45400 5.73500 31.65700
H  0.27300 4.95000 32.63700
H  1.07600 6.38800 33.25000
H  -2.17500 8.50700 32.14000
H  -1.39300 10.13500 32.30600
H  -2.25700 8.36200 34.22800
H  -1.62200 9.91300 34.43600
H  -2.41600 2.32600 28.95600
H  -0.87600 2.69000 29.62600
H  -0.99900 1.42500 28.38100
H  -1.99800 0.45100 25.00100
H  -2.42800 1.11700 26.59800
H  -0.73000 0.59300 26.27800
H  -1.32000 7.30600 22.48900
H  0.72200 9.19600 22.30900
H  0.95700 5.52100 22.49300
H  1.46300 7.00700 21.53700
H  0.04300 6.03200 21.24000
H  -1.40600 10.49200 23.51700
H  -2.35400 9.09500 23.15300
H  -2.79600 10.00100 21.11300
H  -1.00200 10.16200 20.68200
H  -1.74000 11.36800 21.62300
H  0.86600 13.33000 25.70100
H  2.55800 12.75100 25.41800
H  2.32100 13.69300 26.83700
H  0.02900 11.63900 31.06000
H  2.53600 10.76200 34.12400
H  2.07100 12.36300 34.75200
H  3.41400 12.11800 33.68600

