158

Mg 24.84300 -6.28700 45.39500
C  27.07900 -3.92900 43.70000
C  22.36700 -5.13600 43.32100
C  23.09900 -8.97400 46.28000
C  27.78500 -7.70700 46.78800
N  24.76000 -4.75900 43.60200
C  25.80000 -3.88600 43.20800
C  25.34500 -3.05400 42.04000
C  23.74300 -3.26400 42.14100
C  23.57700 -4.45900 43.06600
C  23.05200 -1.99400 42.67800
C  25.95400 -3.58900 40.60400
C  26.48900 -2.58500 39.60300
H  26.02200 -2.76200 38.14200
N  22.98100 -6.88700 44.92700
C  22.10000 -6.29200 44.03900
C  20.79400 -6.92100 44.12200
C  20.93600 -7.97800 45.12100
C  22.41600 -7.98300 45.48000
C  19.61900 -6.45300 43.24000
C  19.82500 -8.80500 45.54100
O  18.65600 -8.72600 45.11900
C  20.12700 -9.88700 46.45000
N  25.24800 -7.98000 46.52300
C  24.38800 -8.97900 46.76900
C  25.03500 -10.27500 47.32500
C  26.38000 -9.68500 47.82000
C  26.49900 -8.39100 46.90700
C  24.23500 -11.11100 48.32700
C  27.56700 -10.68200 47.56100
C  28.82200 -10.49800 48.39400
N  26.92500 -5.91800 45.38300
C  27.97300 -6.54500 46.07000
C  29.19900 -5.92100 45.79600
C  28.84500 -4.81600 44.92600
C  27.44300 -4.88800 44.66500
C  30.56500 -6.32600 46.34300
C  29.41500 -3.60800 44.32300
O  30.51400 -3.12300 44.46100
C  28.30200 -3.09100 43.33200
C  28.17500 -1.61000 43.60300
O  27.55600 -1.11800 44.49400
O  28.82600 -0.93000 42.60800
C  28.85500 0.55900 42.67900
H  21.46000 -4.72800 42.87100
H  22.59800 -9.92600 46.46800
H  28.65700 -8.29700 47.07800
H  25.64700 -2.03900 42.29900
H  23.36000 -3.51200 41.15100
H  23.80000 -1.20500 42.60800
H  22.61900 -2.07500 43.67400
H  22.24000 -1.68600 42.01900
H  25.21300 -4.18600 40.07200
H  26.68000 -4.33300 40.93100
H  27.57800 -2.58400 39.64400
H  26.11800 -1.61200 39.92600
H  18.75100 -7.11200 43.23600
H  19.98800 -6.41700 42.21500
H  19.19600 -5.47200 43.46100
H  19.26400 -10.36400 46.91400
H  20.71900 -9.50700 47.28200
H  20.54300 -10.74800 45.92500
H  25.12600 -10.93200 46.46000
H  26.27000 -9.41300 48.87000
H  24.67900 -11.13600 49.32200
H  24.09800 -12.10200 47.89300
H  23.24100 -10.69200 48.47900
H  27.95500 -10.42900 46.57400
H  27.14600 -11.68700 47.61000
H  29.17600 -11.38900 48.91200
H  28.64000 -9.74100 49.15700
H  29.66200 -10.08400 47.83600
H  30.81400 -7.35700 46.09500
H  30.52600 -6.20300 47.42600
H  31.28500 -5.58000 46.00700
H  28.61400 -3.06000 42.28800
H  29.85800 0.87600 42.96300
H  28.16400 0.92700 43.43800
H  28.69000 1.06300 41.72700
Mg 41.57400 7.95100 29.77700
C  43.25600 9.39700 32.45400
C  39.43800 6.44400 31.99000
C  39.82200 6.78800 27.12500
C  44.02800 9.07200 27.56000
N  41.53400 7.73200 31.99900
C  42.13100 8.59600 32.89700
C  41.57200 8.36300 34.37100
C  40.43600 7.29100 34.15600
C  40.50000 7.06400 32.61700
C  40.61100 5.90600 34.89500
C  41.12700 9.73300 34.83500
C  40.93700 9.92500 36.35200
H  41.62400 11.04500 37.11100
N  39.80000 7.01000 29.61200
C  39.06100 6.41700 30.59400
C  37.79800 6.00000 30.06900
C  37.86100 6.19300 28.63000
C  39.14900 6.70400 28.37700
C  36.64100 5.48400 30.89800
C  36.74200 6.03500 27.63700
O  36.88200 6.18000 26.42900
C  35.33900 5.77400 28.17200
N  41.94400 7.86600 27.64100
C  41.08600 7.31900 26.79300
C  41.60500 7.47500 25.30300
C  42.76400 8.55100 25.45500
C  42.96000 8.49700 26.96500
C  41.95500 6.16600 24.63000
C  42.59700 9.98000 24.87100
C  41.33600 10.73900 25.13600
N  43.32500 8.89800 29.91400
C  44.23200 9.31500 28.89500
C  45.35000 10.03000 29.57700
C  44.97500 10.13000 30.91400
C  43.81800 9.38700 31.09500
C  46.52700 10.53800 28.81100
C  45.33200 10.75800 32.17700
O  46.32100 11.51700 32.41800
C  44.28500 10.29500 33.20400
C  45.02900 9.64300 34.36600
O  45.98900 8.89300 34.29600
O  44.48000 10.11500 35.51200
C  44.98500 9.74300 36.88900
H  38.66700 6.26300 32.74200
H  39.32000 6.50100 26.19900
H  44.77000 9.39800 26.82900
H  42.33900 8.00800 35.06000
H  39.44100 7.58400 34.49200
H  39.84800 5.81400 35.66800
H  41.56300 5.77400 35.40900
H  40.39400 5.08800 34.20800
H  40.21200 9.89300 34.26500
H  41.78200 10.57200 34.60200
H  41.17000 8.92400 36.71600
H  39.90400 10.27100 36.35300
H  36.68700 4.41700 30.67500
H  35.62600 5.81600 30.67800
H  36.72500 5.49300 31.98400
H  35.14400 6.61200 28.84100
H  35.25200 4.87200 28.77800
H  34.59800 5.71400 27.37500
H  40.79200 7.80300 24.65500
H  43.66400 8.11700 25.02000
H  43.02100 6.20700 24.40700
H  41.27400 6.03300 23.78900
H  41.73200 5.35000 25.31800
H  42.96100 10.14300 23.85600
H  43.37000 10.52900 25.40800
H  41.01800 11.23100 24.21700
H  41.43600 11.66000 25.71100
H  40.58200 10.13600 25.64300
H  46.84900 9.77600 28.10200
H  47.35500 10.90300 29.41900
H  46.11600 11.32400 28.17700
H  43.85200 11.21400 33.59800
H  46.04700 9.51200 36.80100
H  44.31500 9.06400 37.41600
H  44.95700 10.67200 37.45800

