158

Mg 53.54500 23.78000 44.40400
C  50.96100 26.00400 43.68300
C  51.51300 21.14100 43.27100
C  56.28800 21.75500 44.12200
C  55.47800 26.47400 45.29000
N  51.46800 23.61000 43.68800
C  50.63600 24.65600 43.35400
C  49.31500 24.11800 42.87900
C  49.46300 22.56200 43.11700
C  50.91200 22.39500 43.42200
C  48.52800 21.90700 44.11000
C  49.11500 24.48100 41.32100
C  47.69400 24.82000 40.94500
H  47.30300 24.17900 39.50800
N  53.86100 21.65600 43.76700
C  52.89300 20.82800 43.26300
C  53.47900 19.51400 42.95000
C  54.82900 19.70400 43.07700
C  55.10100 21.05200 43.69000
C  52.69000 18.33500 42.63200
C  55.83600 18.62000 42.85500
O  55.55500 17.43200 42.56700
C  57.32400 18.91300 42.91600
N  55.62400 24.04100 44.67000
C  56.49800 23.10200 44.53600
C  57.90800 23.63800 44.75800
C  57.67100 25.12400 45.24800
C  56.14300 25.24300 45.05400
C  58.74300 22.79300 45.75300
C  58.38000 26.15300 44.41700
C  59.03900 27.30700 45.13600
N  53.34400 25.85500 44.54300
C  54.15000 26.80800 45.03900
C  53.47700 28.09000 45.16700
C  52.22000 27.78900 44.55900
C  52.17100 26.43400 44.24600
C  53.91300 29.46300 45.71500
C  50.96800 28.35000 44.16800
O  50.49800 29.47600 44.32100
C  50.17400 27.21500 43.42500
C  49.89500 27.66700 42.06500
O  50.72900 27.86700 41.17700
O  48.51900 27.80300 41.92800
C  48.14600 28.38800 40.60400
H  50.91700 20.22900 43.19300
H  57.15700 21.09500 44.08200
H  56.17100 27.29300 45.49800
H  48.51200 24.52200 43.49500
H  49.20300 21.99100 42.22600
H  47.63500 22.49400 44.32900
H  48.98500 21.78900 45.09300
H  48.15000 20.95500 43.73800
H  49.29700 23.50400 40.87400
H  49.83500 25.21900 40.96900
H  47.52500 25.89500 41.00700
H  47.01600 24.39400 41.68400
H  51.86100 18.55600 41.96000
H  52.32600 17.77400 43.49300
H  53.30500 17.63900 42.06100
H  57.71700 19.79700 42.41400
H  57.74600 18.13000 42.28500
H  57.62500 18.92700 43.96300
H  58.32900 23.60000 43.75400
H  57.70800 25.23000 46.33200
H  58.23600 21.89100 46.09800
H  58.96700 23.43900 46.60100
H  59.63900 22.40600 45.26600
H  57.82800 26.59900 43.58900
H  59.22000 25.63200 43.95900
H  60.12800 27.26400 45.15000
H  58.55600 27.50800 46.09200
H  58.82600 28.19800 44.54600
H  54.61400 29.82900 44.96400
H  54.60200 29.40100 46.55700
H  53.09000 30.16800 45.83600
H  49.33200 27.09100 44.10500
H  47.05600 28.39300 40.59800
H  48.42200 27.87000 39.68500
H  48.52500 29.39900 40.75400
Mg 46.89900 16.08600 28.07900
C  44.98700 15.82300 30.74700
C  49.20500 17.84900 29.94200
C  48.58000 17.04100 25.20100
C  44.47700 14.50000 26.17600
N  46.98900 16.78200 30.05700
C  46.09100 16.56900 31.02400
C  46.65900 16.99700 32.38000
C  47.74600 18.08700 31.97600
C  48.00500 17.58500 30.50300
C  47.33100 19.56600 32.07900
C  47.04400 15.72800 33.28100
C  46.46700 15.82300 34.70400
H  46.31300 17.17900 35.41700
N  48.78200 17.04800 27.63500
C  49.54700 17.62200 28.60900
C  50.82300 18.02600 27.97600
C  50.65600 17.89500 26.54500
C  49.25800 17.33000 26.41100
C  51.99900 18.63100 28.78500
C  51.60900 18.32300 25.49500
O  51.32400 18.32200 24.32500
C  52.91400 18.95500 25.83100
N  46.57100 15.87700 26.01800
C  47.34000 16.45000 25.03800
C  46.81000 16.04100 23.69700
C  45.63900 15.12000 24.02900
C  45.48700 15.18300 25.51000
C  46.43100 17.33500 22.82600
C  45.80900 13.70300 23.57200
C  44.69200 13.15500 22.64900
N  45.05000 15.26500 28.36200
C  44.25800 14.60600 27.54700
C  43.10500 14.10400 28.31000
C  43.35100 14.46800 29.62000
C  44.57600 15.24400 29.55000
C  41.91800 13.34700 27.75400
C  42.85400 14.52300 30.94200
O  41.90600 13.96900 31.49900
C  43.93800 15.35100 31.71200
C  43.32800 16.43800 32.52300
O  43.00200 17.55600 32.08700
O  43.17000 15.97300 33.77300
C  42.36000 16.86200 34.51800
H  50.02000 18.33600 30.48000
H  49.16000 17.32500 24.32100
H  43.65600 13.92600 25.74100
H  45.85300 17.49400 32.92100
H  48.59200 17.87100 32.62800
H  46.28400 19.69800 32.35400
H  47.53000 20.02000 31.10800
H  47.78000 20.20900 32.83600
H  48.13200 15.66200 33.29300
H  46.74200 14.81400 32.76900
H  47.18300 15.24700 35.29100
H  45.50800 15.33600 34.87900
H  51.93600 18.53200 29.86900
H  51.84300 19.69300 28.59400
H  52.90500 18.16800 28.39400
H  52.59700 19.81800 26.41700
H  53.42100 19.40000 24.97500
H  53.53700 18.29000 26.42900
H  47.60200 15.54600 23.13300
H  44.76800 15.66200 23.66200
H  46.57400 18.30600 23.29900
H  45.42900 17.31300 22.39800
H  47.13200 17.38600 21.99200
H  45.84900 13.12100 24.49300
H  46.74300 13.62700 23.01500
H  43.71700 13.62700 22.77000
H  44.51600 12.09900 22.85600
H  45.01000 13.24600 21.61000
H  42.40900 12.38600 27.60000
H  41.60800 13.76100 26.79500
H  41.11100 13.38200 28.48700
H  44.40500 14.67900 32.43100
H  41.34000 17.04500 34.18000
H  42.91300 17.76900 34.76300
H  42.26500 16.39000 35.49600

