158

Mg -2.18400 17.00400 26.38700
C  -2.68700 14.67300 28.85500
C  -2.97900 19.50600 28.62800
C  -2.35600 19.18800 23.68500
C  -1.67100 14.36800 24.05600
N  -2.59000 17.08000 28.49500
C  -2.61500 15.96400 29.33900
C  -2.97400 16.42600 30.72400
C  -3.23300 17.97500 30.62100
C  -2.95100 18.21600 29.19000
C  -4.64000 18.49600 31.08800
C  -1.84900 16.07100 31.81700
C  -1.77200 17.10300 32.96700
H  -1.46200 16.41700 34.30900
N  -2.59700 19.13300 26.19300
C  -2.77100 19.97500 27.24800
C  -2.98700 21.32200 26.67500
C  -2.77600 21.21700 25.25600
C  -2.53600 19.77300 25.00100
C  -3.43400 22.52200 27.60600
C  -2.88400 22.26300 24.23100
O  -2.71900 22.05500 23.02500
C  -3.26800 23.63300 24.58600
N  -2.05100 16.81900 24.20200
C  -2.07400 17.86200 23.34500
C  -1.81000 17.33800 21.82500
C  -1.27200 15.89100 22.00500
C  -1.73900 15.61900 23.50100
C  -2.96800 17.58400 20.81200
C  0.25000 15.77600 21.76800
C  1.30500 16.20900 22.86600
N  -2.21600 14.98700 26.42000
C  -2.00100 14.02000 25.37300
C  -2.12600 12.71700 25.85800
C  -2.32900 12.94700 27.27600
C  -2.45400 14.31800 27.53800
C  -2.16500 11.43200 25.03100
C  -2.54200 12.25200 28.46300
O  -2.67200 11.08700 28.63700
C  -2.79900 13.31100 29.62900
C  -1.71000 13.02100 30.62900
O  -0.53600 13.24800 30.56700
O  -2.33900 12.49300 31.74400
C  -1.56400 12.29200 32.94500
H  -3.36600 20.28500 29.28700
H  -2.10400 19.91200 22.90700
H  -1.59100 13.54400 23.34400
H  -3.90900 15.87800 30.84200
H  -2.49000 18.63500 31.07000
H  -5.15000 19.00000 30.26700
H  -4.34300 19.23100 31.83700
H  -5.20500 17.70100 31.57400
H  -0.89600 16.07800 31.28800
H  -2.09700 15.08100 32.19800
H  -2.71600 17.61500 33.15400
H  -1.00100 17.79800 32.63400
H  -4.49100 22.69400 27.81000
H  -2.95700 23.46300 27.33000
H  -2.90800 22.54300 28.56100
H  -3.08200 24.27800 23.72800
H  -2.64200 24.13000 25.32700
H  -4.34500 23.59700 24.74900
H  -1.07100 18.04400 21.44600
H  -1.85900 15.28200 21.31900
H  -2.49300 17.61400 19.83200
H  -3.41100 18.54200 21.08600
H  -3.75400 16.82900 20.82400
H  0.50200 16.42700 20.93100
H  0.31200 14.74200 21.43100
H  1.93900 15.37700 23.17300
H  0.83600 16.53800 23.79300
H  1.91300 16.94800 22.34500
H  -1.53800 11.53800 24.14600
H  -3.22300 11.20900 24.89100
H  -1.64000 10.71700 25.66500
H  -3.77200 13.26100 30.11700
H  -2.16700 12.78300 33.70900
H  -0.58400 12.76800 32.94600
H  -1.52000 11.21300 33.09600
Mg 42.66500 41.61500 26.45000
C  41.91300 43.86500 29.18500
C  43.63000 39.35200 28.84700
C  44.01500 39.70400 24.06800
C  42.02300 44.07400 24.13900
N  42.76800 41.66700 28.71700
C  42.40500 42.61800 29.60200
C  42.42100 42.06500 31.05700
C  43.16500 40.70500 30.92500
C  43.16700 40.53900 29.39000
C  44.52800 40.66000 31.60300
C  41.08200 41.98800 31.75000
C  41.16300 41.78700 33.27300
H  40.53000 42.84900 34.14000
N  43.75100 39.72700 26.44600
C  43.81700 38.97800 27.52900
C  44.35300 37.66900 27.11400
C  44.55900 37.74800 25.70700
C  44.15300 39.09700 25.32300
C  44.56600 36.49500 28.05100
C  45.13000 36.80100 24.81500
O  45.42300 37.06900 23.65700
C  45.33700 35.35700 25.27400
N  43.15100 41.88900 24.45000
C  43.59500 40.91900 23.64800
C  43.53900 41.30400 22.18700
C  42.85700 42.63900 22.19900
C  42.66500 42.90600 23.66300
C  44.95900 41.24500 21.49900
C  41.39700 42.54700 21.49200
C  40.32100 41.72900 22.18700
N  41.98900 43.58700 26.51200
C  41.74900 44.45600 25.51400
C  41.35900 45.67500 26.05500
C  41.44200 45.55900 27.52400
C  41.74600 44.22300 27.73600
C  41.08800 46.89100 25.23200
C  41.31700 46.20200 28.80400
O  40.97500 47.33700 28.99400
C  41.50900 45.07800 29.92700
C  42.55100 45.62300 30.89700
O  43.78000 45.73500 30.60000
O  42.03700 46.02700 32.07100
C  43.03300 46.62800 32.98200
H  44.01200 38.65700 29.59700
H  44.49700 39.13600 23.27000
H  41.88300 44.84500 23.37800
H  42.99100 42.88700 31.49000
H  42.58500 39.97100 31.48300
H  44.56400 39.66200 32.03900
H  44.67500 41.27800 32.48900
H  45.36700 40.83400 30.92900
H  40.61200 41.07700 31.38100
H  40.49700 42.89700 31.60700
H  42.14600 41.58600 33.69900
H  40.64500 40.89100 33.61800
H  44.21600 35.57100 27.59200
H  44.08500 36.62000 29.02100
H  45.64600 36.43100 28.18000
H  45.87800 35.39300 26.21900
H  46.00200 34.96500 24.50400
H  44.39200 34.82500 25.17000
H  42.88600 40.49300 21.86500
H  43.53700 43.29800 21.65900
H  45.73300 40.94800 22.20600
H  45.28300 42.19000 21.06200
H  44.84900 40.45700 20.75300
H  41.55200 42.16300 20.48400
H  41.04600 43.55100 21.25400
H  39.50500 42.37900 22.50300
H  40.69900 41.13600 23.02000
H  39.89300 41.02400 21.47400
H  40.29800 47.48000 25.69700
H  40.78200 46.56500 24.23800
H  41.97400 47.52500 25.18300
H  40.59200 44.92300 30.49600
H  42.83300 46.24400 33.98200
H  43.01400 47.71300 33.08100
H  44.04700 46.24800 32.85700

