158

Mg 1.97200 -1.13500 44.85400
C  5.45700 -0.45500 44.05800
C  1.22300 1.48600 42.63200
C  -1.21400 -1.95500 45.15600
C  3.08200 -4.03100 46.41800
N  3.24600 0.37700 43.55000
C  4.60600 0.39500 43.34900
C  5.00500 1.73700 42.54700
C  3.60700 2.28600 42.07900
C  2.57900 1.26000 42.74100
C  3.23800 3.70600 42.55500
C  5.86600 1.45200 41.28100
C  6.94400 2.50400 40.98300
H  6.47700 3.62800 40.12200
N  0.14700 -0.26800 44.09700
C  0.07300 0.81900 43.25200
C  -1.29100 1.09400 43.08900
C  -2.10100 0.18400 43.82200
C  -1.10000 -0.72100 44.44800
C  -1.79400 2.30400 42.27500
C  -3.60200 0.21700 44.01100
O  -4.33700 1.02500 43.39400
C  -4.26500 -0.63100 45.04600
N  1.01800 -2.81300 45.45900
C  -0.27500 -2.87900 45.59400
C  -0.66500 -4.22600 46.25200
C  0.68800 -4.82200 46.71500
C  1.68500 -3.80400 46.19400
C  -1.77400 -4.07600 47.40100
C  0.86600 -6.28700 46.29000
C  1.12700 -7.34400 47.37200
N  3.80600 -2.07300 45.23900
C  4.07900 -3.22200 45.96200
C  5.53300 -3.41400 46.04100
C  6.07100 -2.34300 45.35300
C  4.99700 -1.58200 44.79300
C  6.30000 -4.44200 46.81100
C  7.40300 -1.82700 44.88500
O  8.57200 -2.15900 45.07400
C  6.96900 -0.55200 44.05400
C  7.54300 0.60800 44.90100
O  7.12600 0.94500 45.97300
O  8.58500 1.27500 44.23300
C  9.18800 2.49300 44.87200
H  1.02600 2.38500 42.04400
H  -2.26400 -2.22900 45.27800
H  3.45800 -4.89300 46.97400
H  5.60000 2.37800 43.19700
H  3.50800 2.28800 40.99300
H  4.04600 4.23600 43.05900
H  2.32000 3.71100 43.14200
H  3.05500 4.39400 41.73000
H  5.26400 1.26400 40.39200
H  6.31800 0.46700 41.40100
H  7.61900 1.88500 40.39200
H  7.39300 2.85100 41.91300
H  -1.37100 1.99900 41.31700
H  -1.32300 3.22000 42.63000
H  -2.86400 2.50600 42.23200
H  -5.29300 -0.29000 45.17000
H  -3.68800 -0.56400 45.96800
H  -4.34300 -1.65300 44.67700
H  -0.99700 -4.87900 45.44500
H  0.80500 -4.87800 47.79800
H  -2.03600 -3.02000 47.46200
H  -1.53100 -4.53500 48.36000
H  -2.62500 -4.69100 47.11000
H  1.67800 -6.28400 45.56200
H  -0.04000 -6.70200 45.84800
H  0.18900 -7.82500 47.65000
H  1.76000 -6.96600 48.17400
H  1.83500 -8.08300 46.99600
H  6.09600 -5.42100 46.37700
H  6.02500 -4.42300 47.86600
H  7.37500 -4.36400 46.64700
H  7.42800 -0.64000 43.06900
H  9.02600 3.36400 44.23600
H  10.25200 2.26400 44.92900
H  8.83300 2.61300 45.89500
Mg 42.35300 41.06300 26.18400
C  41.48600 43.37300 28.69100
C  43.62200 39.04600 28.71600
C  43.46200 38.95800 23.91500
C  41.30600 43.27100 23.85200
N  42.55100 41.34000 28.50900
C  42.10100 42.27700 29.31900
C  42.31700 41.94800 30.87200
C  43.05500 40.57300 30.75500
C  43.02700 40.23100 29.28400
C  44.54000 40.51000 31.31900
C  40.88500 41.82400 31.64200
C  40.59300 42.71900 32.85100
H  39.95800 41.98900 34.06200
N  43.51500 39.28400 26.26900
C  43.89200 38.62500 27.39600
C  44.54900 37.40800 27.02000
C  44.52600 37.34100 25.59900
C  43.86100 38.58100 25.19800
C  44.97800 36.44600 28.15700
C  45.09800 36.20600 24.71900
O  44.86800 36.11900 23.52100
C  45.74500 34.92900 25.29600
N  42.49100 41.16700 24.10300
C  42.84500 40.10500 23.35300
C  42.35700 40.28600 21.88100
C  41.82400 41.78500 21.84200
C  41.83500 42.05700 23.36000
C  43.42500 39.97200 20.75300
C  40.43000 41.81800 21.21300
C  40.17500 43.10200 20.38700
N  41.58000 43.01700 26.17700
C  41.19400 43.81800 25.10100
C  40.69400 45.04800 25.59600
C  40.83900 44.96100 26.92400
C  41.36100 43.63000 27.30700
C  40.14700 46.11800 24.66000
C  40.59200 45.62000 28.17900
O  40.10200 46.71600 28.36800
C  41.01700 44.64200 29.35500
C  42.06400 45.40100 30.14200
O  43.23500 45.55800 29.84200
O  41.46900 45.80100 31.23700
C  42.45600 46.34800 32.21800
H  44.00100 38.46200 29.55800
H  43.47700 38.22900 23.10200
H  40.85700 43.78100 22.99700
H  42.83600 42.82900 31.25000
H  42.47700 39.80300 31.26600
H  44.66200 41.41900 31.91000
H  45.28000 40.60100 30.52400
H  44.89300 39.66200 31.90600
H  40.79000 40.80400 32.01300
H  40.10500 41.98800 30.89800
H  39.91200 43.51100 32.53800
H  41.54300 43.15900 33.15400
H  45.58500 37.14800 28.72800
H  45.56200 35.56000 27.90500
H  44.05100 36.17200 28.66000
H  46.05800 34.27500 24.48200
H  44.94300 34.55800 25.93500
H  46.58800 35.32600 25.86100
H  41.54400 39.56800 21.76500
H  42.49600 42.53700 21.42900
H  44.40300 39.95900 21.23400
H  43.47200 40.65700 19.90600
H  43.18200 39.02200 20.27600
H  39.70500 41.68700 22.01700
H  40.31700 40.98000 20.52600
H  39.16100 43.47400 20.53100
H  40.30900 42.82500 19.34100
H  40.88700 43.88800 20.64000
H  39.39000 45.68700 24.00400
H  40.99300 46.44100 24.05300
H  39.73000 46.92100 25.26800
H  40.10300 44.56500 29.94300
H  42.86100 45.64700 32.94800
H  41.91700 47.10500 32.78800
H  43.26500 46.88800 31.72600

