158

Mg 40.48600 9.45000 29.88300
C  42.43300 10.54000 32.65900
C  38.15800 8.33800 32.15300
C  38.74400 8.24800 27.23900
C  43.17400 10.32200 27.75900
N  40.37800 9.37700 32.14800
C  41.18500 9.99700 33.00300
C  40.72700 9.95800 34.47600
C  39.36300 9.18100 34.31100
C  39.28100 8.94400 32.78600
C  39.34900 7.80100 35.13000
C  40.64900 11.36300 35.13000
C  39.63700 11.48000 36.31600
H  40.08300 12.44800 37.39000
N  38.70100 8.39100 29.71300
C  37.85000 8.13000 30.78800
C  36.57600 7.61300 30.18700
C  36.72800 7.69600 28.80300
C  38.11000 8.10400 28.52000
C  35.42200 7.16500 31.05300
C  35.70700 7.44100 27.71200
O  35.93400 7.51100 26.52500
C  34.41400 7.03900 28.14600
N  40.92200 9.33600 27.84300
C  39.96400 8.85300 26.89300
C  40.52100 9.06400 25.43200
C  41.84600 9.88600 25.68400
C  41.99300 9.87100 27.21200
C  40.79300 7.75600 24.62100
C  41.85800 11.32900 25.12100
C  41.18500 12.40400 25.90900
N  42.47800 10.25500 30.08800
C  43.40700 10.48600 29.14700
C  44.51100 11.12800 29.84100
C  44.15300 11.18000 31.16900
C  42.94400 10.56200 31.25600
C  45.82700 11.60700 29.21700
C  44.65300 11.66200 32.45800
O  45.70100 12.25000 32.80300
C  43.56400 11.20800 33.50000
C  44.14900 10.25800 34.47600
O  44.34300 9.09400 34.34600
O  44.50900 10.94400 35.63500
C  45.54800 10.35400 36.51300
H  37.39000 8.00500 32.85400
H  38.25400 7.81200 26.36500
H  43.93500 10.66800 27.05800
H  41.37600 9.30100 35.05500
H  38.58000 9.87700 34.61300
H  39.97600 7.91600 36.01300
H  39.66600 6.95000 34.52700
H  38.34200 7.60700 35.50100
H  40.51600 12.12500 34.36200
H  41.59000 11.61300 35.61900
H  39.31200 10.55500 36.79100
H  38.81300 12.00500 35.83200
H  35.40900 7.43900 32.10800
H  35.43700 6.08500 31.20300
H  34.42100 7.45800 30.73800
H  33.84700 7.80300 28.67600
H  34.45900 6.11100 28.71600
H  33.83000 6.84200 27.24600
H  39.78400 9.58900 24.82300
H  42.73100 9.39000 25.28500
H  40.85000 6.93200 25.33300
H  41.77900 7.73500 24.15800
H  39.95700 7.65000 23.93000
H  41.29700 11.28100 24.18900
H  42.87900 11.57900 24.83200
H  40.81400 12.11700 26.89300
H  40.33300 12.80500 25.36100
H  41.89300 13.19700 26.15100
H  45.77400 11.94300 28.18100
H  46.59900 10.83800 29.24500
H  46.30900 12.42500 29.75100
H  43.29200 12.10000 34.06400
H  46.46400 10.02600 36.02000
H  45.09000 9.48500 36.98500
H  45.90800 10.99900 37.31500
Mg -4.85300 25.58100 25.82200
C  -3.62200 26.87100 28.85200
C  -6.80100 23.38300 27.64700
C  -6.09500 24.32100 23.02500
C  -2.52900 27.50900 24.07100
N  -5.21200 25.25000 27.99100
C  -4.65900 25.89000 29.05700
C  -5.13900 25.41800 30.40600
C  -6.19900 24.28500 29.99200
C  -5.99700 24.17800 28.47200
C  -5.88400 22.90600 30.65000
C  -5.82200 26.62300 31.21100
C  -5.98000 26.41900 32.69800
H  -5.20500 25.28300 33.45300
N  -6.17700 24.09400 25.38400
C  -6.92200 23.36900 26.23500
C  -7.93700 22.59300 25.54600
C  -7.76600 22.91000 24.17400
C  -6.60500 23.75600 24.13100
C  -9.03100 21.71200 26.18800
C  -8.54900 22.35400 22.97300
O  -8.28300 22.64300 21.80300
C  -9.75800 21.45000 23.10900
N  -4.25400 25.68800 23.85000
C  -4.96200 25.21000 22.87000
C  -4.43400 25.53900 21.49800
C  -3.37100 26.58600 21.87800
C  -3.32300 26.60000 23.35900
C  -3.93500 24.25600 20.66600
C  -3.61600 27.98500 21.36000
C  -2.72800 28.50600 20.19700
N  -3.41400 26.86900 26.30300
C  -2.53700 27.66000 25.50800
C  -1.77900 28.50300 26.34600
C  -2.16000 28.23100 27.65700
C  -3.15400 27.21800 27.58600
C  -0.78700 29.56200 25.88000
C  -1.85100 28.57300 29.05100
O  -1.00100 29.35500 29.52700
C  -2.89500 27.74000 29.86100
C  -2.09900 26.93000 30.88100
O  -1.75900 25.71800 30.82100
O  -2.02700 27.77000 32.01700
C  -1.30100 27.20000 33.15900
H  -7.53700 22.74200 28.13600
H  -6.46400 24.06600 22.02900
H  -1.84700 28.03400 23.39900
H  -4.26800 24.92100 30.83300
H  -7.25700 24.37800 30.23600
H  -5.21500 23.11300 31.48500
H  -5.43700 22.19400 29.95500
H  -6.69600 22.27900 31.02000
H  -6.80300 26.68400 30.73900
H  -5.24400 27.54300 31.13100
H  -7.05600 26.41200 32.86900
H  -5.61300 27.32000 33.19000
H  -9.31200 20.81300 25.63800
H  -9.98700 22.20700 26.35700
H  -8.69200 21.44100 27.18800
H  -10.03400 21.18700 22.08900
H  -10.65800 21.95000 23.46800
H  -9.56600 20.53300 23.66600
H  -5.27600 25.97000 20.95600
H  -2.33700 26.33200 21.64400
H  -4.57900 24.07000 19.80700
H  -3.97200 23.47200 21.42200
H  -2.88800 24.36300 20.38100
H  -3.65700 28.75200 22.13300
H  -4.69000 28.05200 21.18500
H  -2.19600 27.71300 19.67100
H  -2.13100 29.34500 20.55400
H  -3.42000 28.92700 19.46700
H  -0.27100 29.23400 24.97800
H  -0.01800 29.57400 26.65200
H  -1.25300 30.52700 25.68000
H  -3.49600 28.47100 30.40200
H  -1.68400 27.74500 34.02200
H  -0.23300 27.26000 32.95000
H  -1.60600 26.17600 33.37000

