158

Mg 24.36300 -4.90200 46.89700
C  26.32900 -2.75400 45.08200
C  21.70800 -4.15100 44.85400
C  22.93000 -7.90200 47.64400
C  27.31100 -5.97700 48.61500
N  24.06900 -3.61600 45.18600
C  24.97600 -2.74700 44.65300
C  24.41400 -1.90800 43.50000
C  22.83900 -2.18400 43.64800
C  22.82700 -3.35100 44.66900
C  22.08300 -0.99800 44.26100
C  25.02000 -2.16900 42.14900
C  25.48600 -1.07000 41.23100
H  25.04300 -1.07400 39.78400
N  22.46600 -5.78500 46.48700
C  21.50500 -5.29400 45.62900
C  20.34800 -6.17900 45.67200
C  20.65600 -7.27200 46.50300
C  22.05100 -7.06400 46.94400
C  19.17600 -6.03800 44.80400
C  19.68800 -8.40000 46.86000
O  18.52500 -8.45100 46.45200
C  20.18300 -9.45900 47.95500
N  25.13000 -6.74500 47.86200
C  24.30400 -7.73900 48.12700
C  24.96000 -8.74600 49.20800
C  26.40300 -8.10800 49.37100
C  26.27900 -6.86700 48.53100
C  24.13400 -9.00200 50.44000
C  27.55500 -9.08800 48.86700
C  28.64100 -9.51300 49.94900
N  26.42800 -4.45600 46.97600
C  27.43000 -4.86900 47.76300
C  28.61900 -3.97900 47.57900
C  28.22000 -3.18900 46.47900
C  26.89200 -3.52800 46.15400
C  29.92700 -4.02300 48.33700
C  28.69100 -2.24100 45.50300
O  29.78400 -1.74800 45.41700
C  27.47200 -1.95200 44.56600
C  27.31700 -0.50800 44.52000
O  26.96700 0.20000 45.44900
O  27.72900 0.00400 43.33800
C  27.65000 1.45500 43.17500
H  20.97300 -3.85900 44.10100
H  22.56700 -8.90700 47.86900
H  28.10400 -6.24500 49.31600
H  24.51300 -0.82800 43.61100
H  22.38200 -2.50600 42.71200
H  21.64500 -0.29200 43.55500
H  22.88100 -0.41400 44.71900
H  21.52000 -1.27200 45.15300
H  24.16900 -2.63000 41.64900
H  25.80400 -2.91800 42.04200
H  26.56900 -0.95000 41.25700
H  25.16300 -0.13300 41.68500
H  19.40800 -5.25700 44.07900
H  18.28100 -5.75000 45.35500
H  19.07100 -6.91500 44.16600
H  19.33300 -10.08000 48.23600
H  20.72000 -9.05000 48.81200
H  20.80600 -10.10900 47.34200
H  25.02000 -9.66100 48.61900
H  26.68700 -7.66700 50.32600
H  23.14800 -8.61200 50.18700
H  24.53400 -8.52900 51.33700
H  24.22300 -10.08100 50.56600
H  28.03900 -8.70700 47.96800
H  27.12300 -10.01100 48.48100
H  28.36700 -9.04400 50.89400
H  29.51800 -8.97200 49.59400
H  28.81600 -10.54400 50.25600
H  30.59800 -3.35300 47.79900
H  30.36900 -5.01600 48.40600
H  29.83400 -3.57400 49.32600
H  27.75700 -2.33500 43.58600
H  28.32900 1.59200 42.33300
H  28.12300 2.02300 43.97600
H  26.70200 1.95500 42.97400
Mg 49.24700 36.08500 27.58800
C  47.48300 34.25400 30.06200
C  49.97400 38.53900 30.05900
C  51.13100 37.67000 25.30500
C  48.26300 33.81600 25.26100
N  48.69100 36.33300 29.81800
C  48.08000 35.41300 30.61500
C  48.09100 35.90300 32.10400
C  48.54400 37.37100 31.92700
C  49.03900 37.47400 30.45000
C  47.38700 38.39400 32.41800
C  49.19600 34.95500 32.87100
C  49.08000 34.72600 34.39500
H  48.29600 35.64300 35.24700
N  50.33400 37.86900 27.63300
C  50.52700 38.71000 28.75000
C  51.41900 39.80300 28.41700
C  51.72300 39.61300 26.98600
C  51.06300 38.36000 26.56100
C  51.55200 40.94900 29.37500
C  52.47400 40.53200 26.05100
O  52.65000 40.35300 24.88200
C  53.27700 41.72300 26.67300
N  49.57400 35.84500 25.53400
C  50.42800 36.60400 24.81000
C  50.35900 36.31500 23.32500
C  49.44200 35.08400 23.23600
C  49.08800 34.83500 24.77800
C  49.86500 37.44400 22.48400
C  50.05800 33.79100 22.59600
C  49.51300 33.42000 21.19100
N  48.21700 34.30800 27.59200
C  47.83600 33.56900 26.56900
C  46.80000 32.58300 27.00400
C  46.67100 32.81200 28.35000
C  47.53000 33.89800 28.68700
C  46.16900 31.57300 26.15500
C  46.05600 32.35700 29.51900
O  45.27800 31.43800 29.68300
C  46.48600 33.34500 30.61900
C  46.85300 32.63700 31.92300
O  47.83700 31.93800 32.05100
O  45.85000 32.89200 32.81500
C  45.91600 31.98400 34.00800
H  50.18800 39.30500 30.80800
H  51.62000 38.16300 24.46200
H  47.81400 33.10800 24.56200
H  47.12500 35.77800 32.59300
H  49.49700 37.55900 32.42100
H  46.42600 37.88400 32.48400
H  47.30300 39.27400 31.78100
H  47.69200 38.70700 33.41700
H  50.22600 35.15700 32.57700
H  49.20400 33.95500 32.43500
H  50.10100 34.65100 34.76900
H  48.83300 33.68500 34.60100
H  52.19500 41.76300 29.04100
H  52.08600 40.63500 30.27200
H  50.62300 41.49200 29.54900
H  53.85900 41.44300 27.55100
H  52.59100 42.53200 26.92300
H  53.89000 42.07800 25.84400
H  51.36600 36.00200 23.05000
H  48.45600 35.20100 22.78700
H  49.10800 37.96000 23.07500
H  49.34700 37.06800 21.60200
H  50.71900 38.06900 22.22200
H  49.82800 32.90400 23.18700
H  51.13800 33.93200 22.58700
H  48.78800 34.13900 20.81100
H  49.06500 32.42800 21.24700
H  50.30100 33.51500 20.44300
H  45.25800 32.02300 25.76000
H  45.86600 30.76200 26.81700
H  46.82000 31.26400 25.33700
H  45.58000 33.92900 30.78000
H  45.32200 32.49300 34.76700
H  46.89200 31.72300 34.41700
H  45.36700 31.07800 33.75000

