158

Mg 5.87400 55.58400 40.95500
C  4.32400 52.46100 41.10300
C  8.43000 54.15500 39.22100
C  7.16800 58.60300 40.71200
C  2.67300 57.04400 41.92600
N  6.10500 53.64600 39.94700
C  5.40300 52.50200 40.23600
C  5.88600 51.37000 39.29900
C  7.33300 51.81600 39.10500
C  7.30800 53.33300 39.44800
C  8.55000 51.03300 39.61200
C  4.97100 51.17500 37.98100
C  4.78000 49.75800 37.53200
H  5.43200 49.32300 36.21100
N  7.69100 56.23000 40.30900
C  8.69700 55.50900 39.64300
C  9.83700 56.35300 39.41300
C  9.53400 57.62100 39.92000
C  8.09700 57.58700 40.36100
C  11.23800 55.82500 39.05600
C  10.44400 58.91900 39.82200
O  11.60500 58.88500 39.40600
C  9.83900 60.24000 40.18300
N  4.92600 57.50000 41.15200
C  5.82000 58.62200 41.03300
C  5.07600 59.94500 41.33700
C  3.74500 59.40700 41.93400
C  3.75800 57.89200 41.75500
C  6.00100 60.96900 42.07200
C  2.49000 60.02100 41.26200
C  1.50600 60.79900 42.23400
N  3.84600 54.90600 41.45200
C  2.67900 55.62100 41.85200
C  1.66900 54.67000 42.10500
C  2.31600 53.39300 42.01000
C  3.57000 53.61400 41.50100
C  0.26900 54.94000 42.51200
C  2.18500 51.90800 42.20900
O  1.24900 51.28200 42.70000
C  3.53600 51.23500 41.64400
C  3.13000 50.16300 40.71600
O  2.36000 50.13000 39.77200
O  3.88500 49.00100 41.01500
C  3.54800 47.84500 40.18200
H  9.34000 53.70700 38.81800
H  7.40400 59.65400 40.53300
H  1.76700 57.46000 42.37300
H  6.05100 50.45900 39.87300
H  7.55000 51.82300 38.03600
H  8.21200 50.29800 40.34200
H  9.31500 51.69900 40.01200
H  8.99100 50.60000 38.71500
H  5.44700 51.68200 37.14100
H  3.99400 51.65700 38.03500
H  3.70200 49.62700 37.44700
H  5.05500 49.05000 38.31300
H  11.24500 54.74700 38.89800
H  12.04900 56.08600 39.73600
H  11.60800 56.40100 38.20800
H  10.56600 61.05000 40.23500
H  9.31800 60.12300 41.13400
H  9.10400 60.47600 39.41400
H  4.92500 60.33500 40.33000
H  3.78200 59.48000 43.02100
H  6.70600 60.31400 42.58400
H  5.50400 61.63700 42.77500
H  6.51700 61.72000 41.47400
H  1.81200 59.24800 40.90000
H  2.81500 60.70000 40.47400
H  1.90200 60.66100 43.24000
H  0.48700 60.42400 42.14300
H  1.51100 61.87600 42.06300
H  -0.27300 55.68100 41.92300
H  0.22100 55.07100 43.59300
H  -0.27200 54.01200 42.32600
H  4.01200 50.80500 42.52500
H  4.34800 47.10600 40.14900
H  3.41600 48.00400 39.11200
H  2.65600 47.38400 40.60600
Mg 10.13100 48.10300 26.38600
C  8.45800 47.94100 29.35500
C  12.89800 49.51300 28.00900
C  11.81400 48.26000 23.38800
C  7.24000 47.00400 24.78000
N  10.56700 48.70600 28.39000
C  9.82900 48.37500 29.48500
C  10.47800 48.83400 30.81900
C  11.68900 49.63300 30.23100
C  11.75600 49.24100 28.78300
C  11.69700 51.14400 30.52900
C  10.93100 47.71000 31.74400
C  10.24800 47.57600 33.12300
H  10.53100 48.45800 34.39300
N  12.05400 48.88700 25.79100
C  13.02500 49.22000 26.61800
C  14.21600 49.47500 25.87800
C  13.91200 49.17000 24.52700
C  12.49800 48.79700 24.51600
C  15.47500 50.06700 26.46800
C  14.82200 49.20600 23.31500
O  14.45700 49.01100 22.15000
C  16.31200 49.50300 23.52000
N  9.55500 47.89600 24.29500
C  10.45300 47.82300 23.35000
C  9.77300 47.28100 22.09100
C  8.47000 46.65700 22.55300
C  8.37100 47.21700 23.95600
C  9.59700 48.30700 20.98200
C  8.40700 45.05500 22.51800
C  9.30000 44.20900 23.42400
N  8.18700 47.69400 26.95100
C  7.13100 47.26200 26.12900
C  5.95000 47.11800 26.91800
C  6.46700 47.34700 28.22900
C  7.82100 47.66900 28.16000
C  4.52300 46.86100 26.44900
C  6.03800 47.39800 29.60500
O  4.97400 47.16300 30.20500
C  7.39700 47.61800 30.43500
C  7.75500 46.41600 31.27700
O  8.64100 45.59600 31.04900
O  6.92500 46.43100 32.40600
C  7.27000 45.55200 33.52900
H  13.71800 50.00500 28.53600
H  12.26100 48.28800 22.39300
H  6.44900 46.52700 24.19700
H  9.77400 49.50300 31.31500
H  12.61300 49.29700 30.70100
H  12.65700 51.53700 30.86200
H  10.98800 51.46600 31.29200
H  11.49300 51.60900 29.56500
H  12.00100 47.83700 31.90600
H  10.66900 46.79100 31.21900
H  10.34400 46.53900 33.44500
H  9.15900 47.60800 33.08100
H  16.16800 49.27300 26.74700
H  15.32000 50.55900 27.42800
H  16.12500 50.72600 25.89200
H  16.84900 49.10700 24.38200
H  16.39000 50.58100 23.66000
H  16.89300 49.34100 22.61200
H  10.36100 46.52100 21.57500
H  7.64900 46.97400 21.91000
H  10.26500 48.14800 20.13500
H  10.02200 49.24400 21.34200
H  8.59800 48.50500 20.59400
H  8.45400 44.64900 21.50700
H  7.37400 44.83500 22.78500
H  10.22100 44.63100 23.82500
H  9.56300 43.37600 22.77100
H  8.64300 43.93800 24.25000
H  4.07000 47.75200 26.01300
H  3.90400 46.51200 27.27600
H  4.57300 46.17700 25.60200
H  7.25400 48.44000 31.13600
H  6.93500 44.53600 33.32300
H  6.66700 45.99600 34.32100
H  8.35100 45.56900 33.67000

