158

Mg 36.93700 49.88400 24.54800
C  37.16400 48.11800 27.57100
C  35.27700 52.36400 26.15400
C  36.27700 51.25800 21.46600
C  37.88300 46.85900 22.82700
N  36.47900 50.21100 26.68400
C  36.68100 49.39300 27.75300
C  36.34200 50.14500 29.02300
C  35.76400 51.51800 28.50600
C  35.84900 51.44300 27.01900
C  34.28500 51.82000 29.02000
C  37.67900 50.28800 29.80400
C  37.68700 50.00000 31.35000
H  36.32100 49.81000 32.01300
N  36.04400 51.65700 23.89500
C  35.48600 52.55200 24.70300
C  35.11800 53.75700 23.90600
C  35.38900 53.44600 22.55500
C  35.89800 52.02400 22.54900
C  34.48200 54.94600 24.61800
C  35.24200 54.29800 21.33700
O  35.46900 53.91700 20.16700
C  34.85000 55.83000 21.53700
N  37.04400 49.08700 22.44200
C  36.80400 49.93400 21.39200
C  37.21400 49.21800 20.10300
C  37.78500 47.87200 20.53200
C  37.63400 47.90100 22.01500
C  36.11300 49.12600 19.00900
C  39.33100 47.64900 20.15600
C  40.32600 48.82400 20.57600
N  37.58200 47.94600 25.02100
C  37.82400 46.82000 24.21400
C  38.04100 45.67000 25.03500
C  37.81800 46.16200 26.32200
C  37.44400 47.50700 26.29100
C  38.44300 44.35100 24.55100
C  37.79000 45.72800 27.75100
O  37.97900 44.62500 28.24500
C  37.41500 47.02700 28.56800
C  36.24800 46.62700 29.39200
O  35.09700 46.74800 29.01500
O  36.68200 46.10000 30.58900
C  35.65600 45.47900 31.42100
H  34.99700 53.23400 26.75200
H  36.06600 51.77800 20.53000
H  38.14200 45.94600 22.28800
H  35.65200 49.52200 29.59100
H  36.42900 52.31100 28.84900
H  33.61600 51.63900 28.17900
H  34.20900 52.88400 29.24300
H  33.82300 51.17400 29.76700
H  37.91800 51.34800 29.72000
H  38.53400 49.70500 29.46300
H  38.26700 50.76800 31.86100
H  38.23800 49.06500 31.44500
H  33.45600 55.24000 24.39900
H  34.98400 55.83100 24.22800
H  34.59600 54.95500 25.70200
H  33.82100 55.91800 21.88500
H  34.65600 56.30600 20.57600
H  35.72800 56.22000 22.05300
H  37.99400 49.81300 19.62700
H  37.23400 47.01600 20.14200
H  35.16700 49.39300 19.48200
H  36.10300 48.25000 18.36200
H  36.28300 49.99100 18.36700
H  39.43100 47.64100 19.07000
H  39.55900 46.71100 20.66300
H  39.89100 49.52500 21.28700
H  40.65100 49.44100 19.73800
H  41.19300 48.29800 20.97600
H  39.47900 44.18200 24.84300
H  38.19200 44.28700 23.49200
H  37.86100 43.55700 25.02000
H  38.28200 47.36300 29.13700
H  34.91700 46.20000 31.77000
H  36.14400 44.98900 32.26400
H  35.15000 44.68800 30.86700
Mg 10.49000 47.74900 26.26800
C  8.68100 47.68100 29.17200
C  13.15200 48.89200 28.10600
C  12.32000 48.07700 23.35100
C  7.73500 46.95900 24.36700
N  10.78500 48.39700 28.37400
C  10.00100 48.10800 29.44000
C  10.61200 48.57900 30.80600
C  11.84700 49.29900 30.26100
C  12.02200 48.73300 28.85000
C  11.75100 50.88300 30.34300
C  10.92300 47.31300 31.74200
C  10.43300 47.47600 33.17400
H  10.48200 46.23900 34.19600
N  12.48800 48.32200 25.78300
C  13.40100 48.72900 26.73200
C  14.68200 48.96800 26.10700
C  14.42300 48.64100 24.70100
C  13.00800 48.32600 24.54200
C  15.83700 49.50500 26.85900
C  15.43300 48.52300 23.57000
O  15.11800 48.04400 22.47100
C  16.84800 48.82800 23.72300
N  10.07800 47.51900 24.12800
C  10.96000 47.79500 23.13800
C  10.39800 47.45200 21.70200
C  8.93000 47.04000 22.08900
C  8.86800 47.19800 23.63100
C  10.48600 48.73800 20.75100
C  8.57000 45.60900 21.66700
C  9.41300 44.44700 22.24500
N  8.60800 47.37400 26.67200
C  7.53500 47.14600 25.76800
C  6.30800 46.92800 26.54600
C  6.72800 47.12800 27.86500
C  8.12300 47.42000 27.88000
C  4.98800 46.71500 25.99300
C  6.23300 47.22000 29.24100
O  5.04800 47.05900 29.65100
C  7.51900 47.65800 30.13800
C  7.67300 46.74000 31.27200
O  8.28600 45.69500 31.31900
O  6.75100 47.06100 32.19100
C  6.37800 46.01700 33.18700
H  13.90400 49.41600 28.70000
H  12.79400 48.16500 22.37200
H  6.80600 46.76200 23.82800
H  9.90500 49.22300 31.32900
H  12.65700 48.93300 30.89200
H  12.13700 51.22600 31.30300
H  10.69500 51.14200 30.42400
H  12.20300 51.52900 29.59000
H  11.98800 47.12800 31.87900
H  10.60400 46.33200 31.38800
H  9.50400 48.03500 33.06700
H  11.22600 48.02600 33.68000
H  15.87800 49.60400 27.94400
H  16.12600 50.46200 26.42500
H  16.54400 48.71200 26.61300
H  17.32400 48.97300 22.75200
H  17.38300 48.00800 24.20100
H  16.86100 49.74500 24.31100
H  10.83600 46.58200 21.21300
H  8.29800 47.75600 21.56400
H  11.07200 48.51100 19.86100
H  10.95800 49.53600 21.32500
H  9.46200 48.98900 20.47400
H  8.67300 45.58800 20.58200
H  7.49200 45.49700 21.78300
H  8.83100 43.87800 22.97000
H  10.22000 44.89100 22.82700
H  9.93600 43.79200 21.54800
H  4.33700 46.18000 26.68400
H  5.07900 46.10600 25.09300
H  4.57300 47.66600 25.65700
H  7.32000 48.63500 30.57900
H  7.06500 45.94500 34.03100
H  6.18900 45.02200 32.78600
H  5.36500 46.30200 33.46900

