158

Mg 48.96900 45.89900 43.30800
C  45.69900 46.22300 42.13200
C  48.92200 42.51500 42.40400
C  52.39300 45.79400 43.56500
C  49.06200 49.29800 43.75900
N  47.55500 44.61400 42.23000
C  46.26200 44.95100 41.87800
C  45.48800 43.68600 41.48200
C  46.42200 42.57600 41.85000
C  47.73300 43.25800 42.23400
C  45.83400 41.72300 42.96100
C  44.99300 43.64100 40.01700
C  45.86500 44.32400 38.92500
H  46.14800 43.42500 37.64100
N  50.44800 44.34400 43.04800
C  50.17500 43.07500 42.64200
C  51.44800 42.36600 42.49500
C  52.47800 43.23800 42.92100
C  51.83000 44.54200 43.16000
C  51.44000 40.94300 42.28200
C  53.93600 42.80200 42.92600
O  54.25200 41.71000 42.59200
C  55.05700 43.80800 43.20100
N  50.54700 47.37100 43.47300
C  51.83600 47.04100 43.80700
C  52.75000 48.26700 44.09000
C  51.64800 49.30400 44.43900
C  50.35100 48.65100 43.88400
C  53.77700 48.01300 45.19000
C  51.95800 50.76800 43.95800
C  52.36700 51.70300 45.10500
N  47.65400 47.48500 43.13000
C  47.91000 48.79800 43.34100
C  46.61600 49.52900 43.02300
C  45.71400 48.55400 42.60600
C  46.41300 47.31800 42.66000
C  46.36300 51.00400 42.93700
C  44.34800 48.32300 42.09700
O  43.35900 49.00400 41.98300
C  44.36600 46.78400 41.71000
C  43.12600 46.12300 42.22800
O  42.37300 45.55300 41.51600
O  42.96000 46.19300 43.57000
C  41.74600 45.58100 44.02000
H  48.74300 41.45700 42.19800
H  53.47800 45.85200 43.67000
H  49.16700 50.35900 43.99700
H  44.61200 43.70000 42.12900
H  46.55800 41.93000 40.98300
H  44.75400 41.59000 42.90700
H  46.04800 41.99600 43.99500
H  46.26100 40.72100 42.91500
H  43.99000 44.06300 39.95900
H  44.84400 42.58600 39.78400
H  46.84100 44.59600 39.32700
H  45.27900 45.18300 38.59800
H  51.98000 40.68900 41.37000
H  50.51300 40.37400 42.20500
H  51.93000 40.49900 43.14800
H  54.93700 44.68000 42.55800
H  55.97400 43.43600 42.74500
H  55.21100 44.02100 44.25800
H  53.29200 48.41800 43.15700
H  51.39100 49.32500 45.49800
H  53.57300 47.13000 45.79600
H  53.69200 48.90500 45.81000
H  54.75700 47.96900 44.71400
H  51.09800 51.20300 43.44900
H  52.72700 50.77000 43.18500
H  51.60400 52.41400 45.42400
H  53.20200 52.35500 44.85000
H  52.73900 51.29300 46.04400
H  46.82100 51.27500 41.98600
H  46.86900 51.58200 43.71100
H  45.28300 51.15000 42.94700
H  44.27500 46.60700 40.63800
H  40.89400 45.73900 43.35900
H  41.46900 45.98500 44.99400
H  41.77500 44.49600 44.12200
Mg 30.77300 58.57000 40.65500
C  28.17700 56.63300 39.64500
C  33.00600 56.03200 39.54300
C  33.38800 60.73000 40.84900
C  28.52100 61.29100 41.12300
N  30.61900 56.61400 39.69400
C  29.42500 55.98800 39.48400
C  29.53100 54.55000 38.92300
C  31.04900 54.38300 39.10600
C  31.62300 55.77300 39.54400
C  31.52900 53.16900 40.10000
C  29.10700 54.47200 37.33000
C  28.03700 53.46600 36.84300
H  27.15500 53.94200 35.69700
N  32.93200 58.39200 40.24500
C  33.61600 57.29300 39.82300
C  35.01900 57.59500 39.72600
C  35.18000 58.96900 40.18300
C  33.80300 59.47400 40.42200
C  36.02500 56.53200 39.17300
C  36.54300 59.69600 40.36300
O  37.58100 59.26600 39.94700
C  36.60700 60.99400 40.97100
N  30.92600 60.70600 40.76900
C  32.09300 61.32900 41.07000
C  31.90400 62.84300 41.27700
C  30.39400 62.95700 41.60000
C  29.87700 61.60100 41.03100
C  32.91600 63.54700 42.18600
C  29.66100 64.16800 40.90000
C  28.51100 64.70900 41.64400
N  28.71800 58.88100 40.66100
C  27.92300 60.02400 40.85100
C  26.51700 59.63100 40.69500
C  26.60000 58.26900 40.21900
C  27.96200 57.93700 40.18600
C  25.25800 60.50900 40.83100
C  25.75900 57.18300 39.75800
O  24.54100 57.07400 39.59900
C  26.73900 56.01100 39.44500
C  26.34700 54.88800 40.35300
O  26.88700 54.57200 41.42300
O  25.19600 54.33700 39.86300
C  24.61800 53.33900 40.77500
H  33.64700 55.18600 39.28600
H  34.16800 61.48000 40.99600
H  27.74900 62.03400 41.33500
H  28.90400 53.90100 39.53600
H  31.53300 54.15100 38.15700
H  30.67800 52.97400 40.75200
H  32.43900 53.46800 40.62100
H  31.73000 52.29800 39.47700
H  30.06200 54.28100 36.84100
H  28.73400 55.37600 36.84800
H  27.45300 53.23800 37.73500
H  28.44400 52.50300 36.53500
H  36.66800 56.88200 38.36500
H  35.57000 55.60300 38.82700
H  36.73600 56.18200 39.92200
H  36.03700 60.86800 41.89200
H  36.16600 61.74000 40.31000
H  37.58300 61.34500 41.30600
H  31.99800 63.25000 40.27100
H  30.25100 62.89600 42.67900
H  33.48000 64.34500 41.70300
H  33.53700 62.86600 42.76700
H  32.36200 64.07100 42.96400
H  29.31500 63.76500 39.94900
H  30.27900 65.01500 40.60200
H  28.94200 65.60000 42.10000
H  28.29700 64.06900 42.50000
H  27.62200 64.96500 41.06800
H  24.98800 60.91900 39.85800
H  25.50300 61.36100 41.46500
H  24.39300 60.02000 41.28000
H  26.38900 55.77400 38.44100
H  25.32900 52.67300 41.26400
H  23.90900 52.71400 40.23300
H  24.15600 53.85500 41.61700

