158

Mg 47.48100 35.75000 26.31500
C  45.68000 34.22500 29.04000
C  48.46200 38.30500 28.37600
C  48.88800 37.01000 23.57100
C  46.23500 32.97100 24.25100
N  47.02200 36.21600 28.34700
C  46.36600 35.39800 29.37700
C  46.60500 35.94500 30.76900
C  47.23900 37.34900 30.46500
C  47.65400 37.32300 28.97200
C  46.31100 38.55000 30.63200
C  47.62700 35.02100 31.54500
C  47.50500 34.78000 33.03300
H  46.69500 35.83800 33.80400
N  48.59500 37.41500 26.02000
C  48.90200 38.30900 27.00600
C  49.70800 39.34200 26.34800
C  49.85700 38.97600 24.95200
C  49.04300 37.78500 24.77000
C  50.27800 40.45800 27.16000
C  50.58100 39.67900 23.76300
O  50.70800 39.21900 22.60100
C  51.11800 41.15500 24.00100
N  47.39700 35.07600 24.14000
C  48.18800 35.77500 23.34100
C  48.35500 35.04200 21.95600
C  47.53000 33.72900 22.22300
C  47.07500 33.87000 23.66400
C  47.90700 35.88300 20.79000
C  48.35700 32.40600 22.05500
C  47.88700 31.51500 20.93200
N  46.03000 34.01000 26.53400
C  45.77400 33.00300 25.58300
C  45.07800 32.00600 26.30400
C  44.95000 32.42100 27.66100
C  45.59600 33.67700 27.71400
C  44.50800 30.71900 25.80000
C  44.41900 32.07600 28.96200
O  43.72900 31.13300 29.32300
C  44.77100 33.30000 29.83400
C  45.16000 32.76000 31.19500
O  45.94800 31.85200 31.39400
O  44.38700 33.43500 32.14700
C  44.36100 32.75800 33.47900
H  48.84300 39.09600 29.02500
H  49.53300 37.28900 22.73400
H  46.01700 32.10600 23.62000
H  45.64800 35.89300 31.28800
H  48.17000 37.61200 30.96700
H  46.00700 39.05600 29.71600
H  46.84500 39.24500 31.28000
H  45.38300 38.28000 31.13600
H  48.63900 35.41500 31.45000
H  47.85200 34.11100 30.98900
H  48.55100 34.75300 33.33700
H  47.21600 33.74200 33.19500
H  49.85800 41.41700 26.85700
H  51.35700 40.47700 27.00500
H  50.16700 40.45400 28.24500
H  51.61500 41.36900 23.05500
H  51.83300 41.16600 24.82400
H  50.23400 41.78100 24.11700
H  49.42200 34.82200 21.97300
H  46.67300 33.76800 21.55000
H  47.46200 35.26300 20.01200
H  48.75900 36.52100 20.55600
H  47.16800 36.58500 21.17900
H  48.32000 31.70700 22.88900
H  49.40800 32.59300 21.83400
H  47.22600 30.69000 21.19700
H  48.80100 31.05700 20.55200
H  47.44000 32.12000 20.14400
H  43.45700 30.76300 25.51300
H  44.70800 30.08100 26.66100
H  45.18100 30.29400 25.05500
H  43.80100 33.78200 29.95800
H  43.67800 31.90800 33.48900
H  44.09200 33.49500 34.23500
H  45.36400 32.38300 33.68300
Mg -4.38800 25.50100 26.02300
C  -3.48200 27.34900 28.98600
C  -6.32600 23.57200 28.08100
C  -5.01300 23.75800 23.37500
C  -2.23100 27.57000 24.25100
N  -4.78700 25.40900 28.25500
C  -4.32500 26.23900 29.28000
C  -5.03700 25.89300 30.55900
C  -5.75000 24.50000 30.31600
C  -5.54400 24.42100 28.80400
C  -5.08800 23.29700 31.06200
C  -5.89900 27.12700 31.06900
C  -6.51900 26.90600 32.45100
H  -6.02300 25.86500 33.51400
N  -5.56200 23.92100 25.72300
C  -6.35700 23.31100 26.67100
C  -7.15900 22.32700 26.00500
C  -6.71300 22.24900 24.66200
C  -5.70300 23.27700 24.53200
C  -8.17500 21.48100 26.75600
C  -7.26800 21.42400 23.52400
O  -6.85700 21.51000 22.37000
C  -8.40900 20.53500 23.77100
N  -3.66000 25.56400 24.13200
C  -4.10400 24.78200 23.17700
C  -3.35500 25.04800 21.84800
C  -2.77800 26.43600 22.12600
C  -2.87200 26.51700 23.60300
C  -2.31300 23.93700 21.51400
C  -3.63900 27.55000 21.37900
C  -3.04700 27.93300 20.06100
N  -3.15800 27.28300 26.49200
C  -2.24700 27.97100 25.64400
C  -1.61700 29.08200 26.39200
C  -2.04600 28.88300 27.73500
C  -2.91100 27.74700 27.72600
C  -0.71000 30.18300 25.83300
C  -2.00300 29.40200 29.10600
O  -1.42100 30.37700 29.56100
C  -2.89100 28.38500 29.98800
C  -2.02500 27.69200 30.93800
O  -1.02700 27.09200 30.59400
O  -2.54900 27.67400 32.22000
C  -1.87500 26.84000 33.18800
H  -6.92100 22.88100 28.68100
H  -5.28000 23.13600 22.51900
H  -1.64800 28.27000 23.64900
H  -4.24200 25.73400 31.28700
H  -6.81500 24.43900 30.53800
H  -4.32000 22.84500 30.43500
H  -5.80200 22.52200 31.34100
H  -4.67300 23.53600 32.04100
H  -6.69200 27.14700 30.32100
H  -5.25700 28.00300 31.16100
H  -7.58600 26.85400 32.23800
H  -6.32200 27.84400 32.97100
H  -9.10400 21.44600 26.18700
H  -8.45600 21.87500 27.73300
H  -7.76000 20.48300 26.89800
H  -8.31700 19.82400 24.59200
H  -8.41600 19.95800 22.84600
H  -9.34000 21.09600 23.85600
H  -4.10900 25.06500 21.06100
H  -1.74400 26.62900 21.84100
H  -1.24900 24.16400 21.44800
H  -2.71700 23.56100 20.57400
H  -2.36800 23.11500 22.22700
H  -3.76300 28.38600 22.06800
H  -4.60200 27.08300 21.17200
H  -3.73600 27.78400 19.23000
H  -2.27300 27.18500 19.88900
H  -2.70500 28.96700 20.03500
H  -0.24200 29.79200 24.92900
H  0.13300 30.41500 26.48400
H  -1.31400 31.08200 25.71000
H  -3.69400 28.89200 30.52300
H  -2.44000 26.71800 34.11200
H  -0.90900 27.28200 33.43500
H  -1.91500 25.82100 32.80300

