158

Mg 2.14200 -1.15200 43.69100
C  5.48800 -0.05100 43.28200
C  1.17900 1.78900 42.23400
C  -0.98200 -2.47300 43.51300
C  3.38900 -4.10300 44.92100
N  3.26000 0.55900 42.77600
C  4.59100 0.83900 42.66700
C  4.86600 2.23300 42.11500
C  3.47700 2.89700 41.97800
C  2.58600 1.65500 42.37900
C  3.19700 4.15300 42.85800
C  5.70400 2.22300 40.74600
C  5.21700 1.27600 39.61000
H  6.13600 0.15400 38.98000
N  0.39900 -0.45600 42.99500
C  0.17800 0.76000 42.42000
C  -1.13800 0.90000 41.99800
C  -1.83100 -0.25300 42.52000
C  -0.81300 -1.13600 43.04100
C  -1.67300 2.08600 41.28500
C  -3.31100 -0.41000 42.39800
O  -4.04100 0.49000 41.96600
C  -4.04900 -1.72900 42.79700
N  1.36500 -3.09700 43.88900
C  -0.00000 -3.39700 43.93000
C  -0.27200 -4.73600 44.57100
C  1.16700 -5.19100 45.00100
C  2.04600 -4.03100 44.57700
C  -1.35100 -4.93400 45.73100
C  1.61700 -6.55300 44.36300
C  2.49900 -7.43500 45.22700
N  4.05600 -1.95300 44.00800
C  4.38800 -3.14100 44.63100
C  5.84800 -3.17400 44.82800
C  6.32000 -1.97600 44.37400
C  5.19500 -1.28000 43.86500
C  6.72100 -4.34900 45.39600
C  7.47000 -1.10700 44.30100
O  8.61700 -1.35400 44.62400
C  6.96600 0.16400 43.60300
C  7.02700 1.25900 44.60100
O  7.64700 2.27900 44.38200
O  6.36200 0.96800 45.73100
C  6.25400 2.07700 46.71700
H  0.85300 2.73700 41.80000
H  -2.01400 -2.81400 43.62700
H  3.73200 -4.92500 45.55200
H  5.44400 2.92600 42.72600
H  3.09900 3.24100 41.01500
H  3.20800 3.87400 43.91200
H  2.25800 4.63000 42.57800
H  4.01600 4.85600 42.70900
H  6.67100 1.86300 41.09700
H  5.75200 3.23000 40.33100
H  4.78200 1.78300 38.74800
H  4.31300 0.81200 40.00600
H  -2.00700 1.63600 40.34900
H  -0.98400 2.88400 41.00900
H  -2.58000 2.59700 41.60600
H  -3.60700 -2.60900 42.33000
H  -5.11000 -1.67200 42.55400
H  -4.05700 -1.95900 43.86200
H  -0.49300 -5.41900 43.75100
H  1.15200 -5.27700 46.08800
H  -0.87900 -5.46000 46.56100
H  -2.21400 -5.48200 45.35500
H  -1.66600 -3.91700 45.96600
H  2.15700 -6.29300 43.45300
H  0.76500 -7.13300 44.00800
H  3.53100 -7.50400 44.88200
H  2.19600 -8.47300 45.36300
H  2.56900 -7.06300 46.24900
H  7.57100 -4.72400 44.82700
H  6.11000 -5.24800 45.48400
H  7.15700 -4.12300 46.36900
H  7.56800 0.53100 42.77100
H  6.42000 3.05100 46.25800
H  6.92500 1.93500 47.56400
H  5.26400 2.10900 47.17200
Mg 30.57900 59.42200 39.72000
C  27.59700 57.73700 38.66300
C  32.32400 56.69400 38.60400
C  33.27400 61.17700 40.07000
C  28.52400 62.31200 39.86100
N  30.05800 57.48700 38.69800
C  28.79200 57.00600 38.30200
C  28.85100 55.65800 37.51300
C  30.31200 55.19100 37.82700
C  30.98000 56.50600 38.49900
C  30.42400 53.90500 38.71600
C  28.41800 55.71700 36.01300
C  27.30500 54.72600 35.51600
H  26.07200 55.22300 34.86900
N  32.54700 58.96500 39.54800
C  33.07700 57.75300 39.12200
C  34.54500 57.84100 39.29000
C  34.85600 59.16700 39.80200
C  33.49100 59.82600 39.84600
C  35.43700 56.78200 39.07200
C  36.25500 59.72400 40.25600
O  37.30200 59.05400 40.22700
C  36.33200 60.93600 41.12500
N  30.88100 61.51000 39.93200
C  32.08600 61.98000 40.18800
C  32.04100 63.42900 40.40200
C  30.54200 63.76600 40.15600
C  29.91300 62.44100 39.93300
C  32.63600 63.95600 41.73900
C  30.25800 64.74700 38.95000
C  29.14500 65.80200 39.23800
N  28.53000 59.93100 39.49300
C  27.86600 61.14800 39.62200
C  26.41700 60.99500 39.50000
C  26.28400 59.64200 39.13500
C  27.58100 59.02200 39.15900
C  25.28500 62.02300 39.78700
C  25.29500 58.62100 38.77500
O  24.07300 58.65800 38.69600
C  26.10500 57.34500 38.36400
C  25.50100 56.13600 39.07800
O  25.64000 55.85300 40.26700
O  24.76500 55.34100 38.22100
C  24.13300 54.13200 38.81400
H  32.89600 55.80600 38.32600
H  34.16200 61.79600 40.21700
H  27.85300 63.13400 40.11700
H  28.14100 55.06900 38.09400
H  30.82800 55.04300 36.87900
H  30.56400 53.02800 38.08400
H  29.56200 53.63900 39.32800
H  31.21500 53.96300 39.46400
H  29.28100 55.35000 35.45600
H  28.32400 56.72900 35.61900
H  26.86800 54.10200 36.29600
H  27.68100 54.00200 34.79300
H  36.26100 56.68600 39.78000
H  35.97200 56.89300 38.12800
H  34.88700 55.84300 39.13100
H  37.15700 60.75400 41.81400
H  35.36300 60.96600 41.62400
H  36.43900 61.83500 40.51800
H  32.59800 63.98200 39.64600
H  30.01800 63.96700 41.09000
H  32.86700 63.29500 42.57500
H  31.98400 64.76500 42.06600
H  33.55000 64.44900 41.40600
H  29.88700 64.07000 38.18100
H  31.14300 65.35300 38.75700
H  29.16500 65.97100 40.31500
H  28.12800 65.52800 38.95800
H  29.35600 66.76700 38.77600
H  24.31100 61.70000 39.42100
H  25.50800 62.95000 39.25900
H  25.23600 62.19900 40.86200
H  26.05800 57.22300 37.28200
H  23.27400 54.36900 39.44100
H  24.75700 53.54800 39.49100
H  23.63100 53.51200 38.07200

