158

Mg -1.26300 18.34500 27.27500
C  -1.58700 16.37000 30.29700
C  -1.52900 21.00300 29.28100
C  -1.56700 20.09600 24.45800
C  -1.43800 15.44400 25.36700
N  -1.64500 18.59000 29.59900
C  -1.45900 17.75000 30.63100
C  -1.66500 18.36000 31.97900
C  -1.89000 19.83800 31.57700
C  -1.70400 19.83600 30.01200
C  -3.27000 20.51700 31.99900
C  -0.62400 17.93300 33.07400
C  -1.09100 17.22800 34.36200
H  -0.09900 17.33600 35.58400
N  -1.46500 20.26800 26.93600
C  -1.58500 21.28500 27.88400
C  -1.64000 22.62200 27.22700
C  -1.40200 22.28400 25.82800
C  -1.50100 20.79900 25.65800
C  -1.63900 23.93500 27.94800
C  -1.15900 23.25400 24.70300
O  -1.03800 22.87400 23.53300
C  -0.96300 24.76200 24.89600
N  -1.64500 17.74800 25.15800
C  -1.55800 18.71500 24.21000
C  -1.47600 18.00400 22.77200
C  -1.20100 16.56500 23.13100
C  -1.41700 16.56300 24.63900
C  -2.74500 18.15000 21.97300
C  0.17900 15.99600 22.82800
C  1.38000 16.72500 23.57600
N  -1.51800 16.33000 27.69200
C  -1.47300 15.28100 26.79200
C  -1.53700 14.04800 27.61700
C  -1.60900 14.46300 28.97200
C  -1.62700 15.83800 28.96700
C  -1.50900 12.66900 27.02300
C  -1.80000 13.97200 30.32600
O  -2.03100 12.77600 30.67900
C  -1.64300 15.12600 31.30300
C  -0.36200 14.70700 31.98300
O  0.76300 15.07700 31.68000
O  -0.74600 13.83800 32.92600
C  0.32500 13.60500 33.84900
H  -1.50700 21.88000 29.93200
H  -1.73100 20.67100 23.54500
H  -1.17600 14.52700 24.83400
H  -2.58200 17.94600 32.39800
H  -1.13100 20.52800 31.94700
H  -3.39400 20.21900 33.04100
H  -4.00500 20.02000 31.36600
H  -3.25600 21.60400 31.93000
H  -0.05900 18.83000 33.32800
H  -0.01700 17.16200 32.59900
H  -1.27000 16.17400 34.14700
H  -2.06400 17.63800 34.63300
H  -0.59600 24.20600 27.78500
H  -1.92500 23.64100 28.95700
H  -2.26400 24.75400 27.59000
H  0.03000 24.90000 25.32300
H  -1.74900 25.28600 25.44100
H  -0.92400 25.17800 23.88900
H  -0.61300 18.47400 22.30100
H  -1.95500 15.91000 22.69400
H  -2.52400 18.61700 21.01300
H  -3.42300 18.84500 22.47000
H  -3.29000 17.24800 21.69700
H  0.34900 16.06400 21.75300
H  0.25900 14.94800 23.11700
H  1.07900 17.00100 24.58700
H  1.76200 17.60300 23.05500
H  2.21900 16.03500 23.66700
H  -0.76700 12.04100 27.51600
H  -1.15300 12.82000 26.00400
H  -2.47900 12.17300 27.03400
H  -2.46500 15.14200 32.01900
H  1.10000 13.10600 33.26700
H  -0.01700 13.02300 34.70500
H  0.63400 14.49100 34.40200
Mg 26.20300 49.32200 26.56000
C  23.91100 50.48900 29.01200
C  28.44700 48.62900 28.92500
C  28.37700 48.39000 24.09700
C  24.17700 50.76100 23.98700
N  26.16700 49.56700 28.71200
C  25.12600 49.92600 29.56800
C  25.52500 49.65600 31.06200
C  27.03500 49.32700 30.90100
C  27.19800 49.12300 29.41400
C  28.01300 50.31200 31.49700
C  24.57900 48.57600 31.81400
C  24.03400 48.89100 33.23200
H  24.96000 49.32000 34.32600
N  28.18200 48.55500 26.46300
C  28.94500 48.27800 27.58300
C  30.12900 47.63600 27.13700
C  30.15400 47.66400 25.75100
C  28.84500 48.22100 25.36100
C  31.09300 47.09500 28.16800
C  31.29600 47.45500 24.76100
O  31.12800 47.45500 23.54300
C  32.54800 46.84900 25.17300
N  26.20200 49.60800 24.28600
C  27.19100 49.02500 23.55800
C  26.83800 49.07600 22.00600
C  25.45200 49.73300 21.98500
C  25.20100 50.01800 23.44700
C  27.90800 49.90800 21.15500
C  24.32000 48.74200 21.41300
C  23.30100 48.07100 22.29800
N  24.43500 50.39200 26.47300
C  23.69400 50.82100 25.38500
C  22.58000 51.58100 25.82600
C  22.59700 51.36800 27.21700
C  23.74500 50.64900 27.57700
C  21.60400 52.25900 25.01400
C  21.81900 51.62800 28.43200
O  20.69300 52.19800 28.53700
C  22.64900 51.04400 29.60600
C  22.94200 52.06000 30.68500
O  23.86700 52.86600 30.55900
O  22.22100 51.86200 31.78000
C  22.51200 52.64600 32.96000
H  29.18600 48.43600 29.70600
H  28.93900 47.95100 23.27000
H  23.47000 51.03900 23.20200
H  25.28100 50.62800 31.49200
H  27.14000 48.37000 31.41100
H  27.38300 51.14700 31.80400
H  28.65500 50.69200 30.70200
H  28.73000 49.89900 32.20700
H  25.14400 47.64500 31.86700
H  23.73000 48.35300 31.16700
H  23.40300 48.09400 33.62700
H  23.37300 49.74700 33.10200
H  31.19200 46.02600 27.98100
H  30.85900 47.14600 29.23100
H  32.12000 47.46000 28.17000
H  33.06800 47.70000 25.61300
H  33.04200 46.41500 24.30500
H  32.38700 46.06000 25.90700
H  26.79400 48.03900 21.67300
H  25.40500 50.60600 21.33400
H  27.54400 50.84900 20.74400
H  28.20900 49.36800 20.25700
H  28.83000 50.07300 21.71200
H  24.75100 48.01100 20.72900
H  23.67100 49.30900 20.74600
H  22.85000 47.16800 21.88800
H  22.54200 48.83100 22.48400
H  23.82400 47.91600 23.24200
H  20.65000 51.77900 25.23400
H  21.74200 52.22800 23.93300
H  21.55900 53.32900 25.21900
H  22.03100 50.30400 30.11400
H  23.01300 51.96400 33.64800
H  21.55600 52.93700 33.39500
H  23.14300 53.53100 32.88000

