158

Mg 0.47600 7.38600 26.00200
C  0.99600 9.63200 28.67900
C  0.60200 4.79000 28.04800
C  0.22200 5.58700 23.28600
C  0.69500 10.26900 23.76300
N  0.72100 7.27100 28.18300
C  0.89800 8.27300 29.07100
C  1.00900 7.76300 30.53400
C  0.94900 6.12400 30.29700
C  0.71500 6.00700 28.73100
C  2.20600 5.32800 30.81600
C  -0.12200 8.34300 31.39100
C  0.26800 9.29100 32.50100
H  -0.20600 9.04300 33.92400
N  0.31900 5.49100 25.72500
C  0.35900 4.52000 26.73100
C  0.19600 3.21400 26.16500
C  0.10900 3.41500 24.74900
C  0.17800 4.89700 24.48200
C  0.32200 1.94300 26.96300
C  0.11200 2.44300 23.51900
O  0.13900 2.81600 22.33500
C  0.06000 1.00500 23.83100
N  0.49600 7.89900 23.76800
C  0.32000 6.93200 22.89200
C  0.20600 7.53700 21.44100
C  -0.04800 9.00400 21.69800
C  0.35000 9.13100 23.11500
C  1.48900 7.17900 20.65600
C  -1.51300 9.43100 21.59100
C  -1.81800 10.25300 20.31800
N  0.80600 9.57800 26.18800
C  0.95300 10.56200 25.18600
C  1.24200 11.86100 25.89100
C  1.22200 11.53500 27.26700
C  1.00600 10.14800 27.40500
C  1.24400 13.17800 25.19600
C  1.37000 12.08400 28.59600
O  1.56600 13.23400 28.95800
C  1.14000 10.79900 29.59200
C  2.31300 10.82800 30.45600
O  3.30400 10.16500 30.24100
O  2.19000 11.78300 31.47400
C  3.28900 11.87200 32.38400
H  0.58800 3.91200 28.69800
H  0.23000 5.01900 22.35300
H  0.68300 11.14600 23.11300
H  1.97500 8.03000 30.96400
H  0.14900 5.64600 30.86300
H  2.64200 4.81900 29.95700
H  1.77800 4.61700 31.52400
H  2.93600 5.95600 31.32600
H  -0.56900 7.52000 31.94900
H  -0.85900 8.78600 30.72200
H  -0.24800 10.20700 32.21300
H  1.33600 9.50900 32.49200
H  0.87400 2.04500 27.89700
H  0.87100 1.12500 26.49700
H  -0.64200 1.49000 27.19500
H  -0.84100 0.90100 24.43500
H  0.85500 0.62700 24.47400
H  -0.11400 0.27700 23.03800
H  -0.69700 7.04600 21.07800
H  0.66800 9.54100 21.07500
H  1.86400 8.03100 20.09000
H  1.34200 6.30000 20.02700
H  2.27900 6.94200 21.36900
H  -1.75500 9.98400 22.49900
H  -2.13400 8.55500 21.77800
H  -0.88800 10.26400 19.75000
H  -2.24200 11.21200 20.61500
H  -2.60200 9.75900 19.74400
H  1.21000 14.04100 25.86100
H  0.38300 13.12800 24.53100
H  2.12200 13.16400 24.55000
H  0.25300 11.04600 30.17500
H  3.40600 12.93700 32.58200
H  4.23200 11.46800 32.01500
H  2.96100 11.25100 33.21800
Mg 36.41800 2.33600 29.88300
C  34.31900 3.46000 32.52400
C  38.97600 2.03900 32.18600
C  38.52100 1.95800 27.36500
C  33.74200 2.74500 27.73400
N  36.57500 2.82300 32.07400
C  35.65500 3.14600 32.94100
C  36.12800 3.16400 34.38700
C  37.54100 2.56400 34.23700
C  37.69200 2.36000 32.74400
C  38.78400 3.27500 34.92200
C  35.21200 2.46600 35.43400
C  34.72100 3.27000 36.73300
H  35.48300 4.44100 37.33200
N  38.51900 2.01900 29.82200
C  39.37800 1.86100 30.86300
C  40.66300 1.50000 30.29600
C  40.56900 1.47000 28.88300
C  39.16100 1.88800 28.66700
C  41.81000 1.19500 31.14500
C  41.67300 1.14500 27.82000
O  41.50500 1.36300 26.63900
C  42.98500 0.32200 28.28200
N  36.17400 2.24500 27.82300
C  37.22200 2.13900 26.93900
C  36.72500 2.15500 25.42000
C  35.13900 2.02900 25.64000
C  34.96600 2.35800 27.17400
C  37.13000 3.46000 24.68700
C  34.46800 0.67500 25.29500
C  32.91300 0.56900 25.33800
N  34.40100 2.98200 29.99900
C  33.44700 3.11900 29.01900
C  32.20700 3.63000 29.52500
C  32.51700 3.74300 30.91800
C  33.83400 3.40000 31.16800
C  31.06500 3.88700 28.75300
C  31.96100 4.17700 32.18700
O  30.85800 4.65300 32.37700
C  33.11800 3.96000 33.27200
C  33.31200 5.27100 34.02700
O  34.39700 5.91800 34.14200
O  32.16700 5.62100 34.74100
C  32.30200 6.85400 35.51200
H  39.62700 1.64900 32.97100
H  39.17900 1.75400 26.51700
H  32.83800 2.65500 27.12800
H  36.23400 4.23300 34.57700
H  37.47700 1.52600 34.56400
H  39.31800 2.53100 35.51200
H  38.43300 4.07600 35.57200
H  39.47100 3.85500 34.30600
H  35.74400 1.59400 35.81500
H  34.30200 2.09500 34.96300
H  34.80600 2.47100 37.47000
H  33.65200 3.46700 36.64400
H  41.65200 1.19600 32.22400
H  42.70200 1.77200 30.90000
H  41.91300 0.11200 31.08000
H  43.52800 0.90700 29.02300
H  43.65900 0.16900 27.43900
H  42.79200 -0.59300 28.84200
H  37.17700 1.28300 24.94800
H  34.59500 2.72500 25.00100
H  37.44700 4.22300 25.39700
H  36.39100 3.81200 23.96800
H  37.99800 3.11600 24.12400
H  35.01900 -0.09500 25.83500
H  34.71900 0.47700 24.25300
H  32.69000 -0.08800 26.17800
H  32.41900 0.12900 24.47200
H  32.48400 1.55400 25.52500
H  30.63900 2.93700 28.43000
H  31.17100 4.63900 27.97200
H  30.33000 4.24000 29.47600
H  32.66900 3.17400 33.87900
H  32.44000 7.71000 34.85200
H  33.15800 6.70900 36.17000
H  31.43700 7.08600 36.13500

