158

Mg 47.80900 16.10700 28.57500
C  45.78600 15.57000 31.35800
C  50.06200 17.70900 30.64200
C  49.62900 16.94300 25.78900
C  45.35600 14.63500 26.50200
N  47.84600 16.69000 30.77000
C  47.02600 16.26900 31.72500
C  47.54600 16.61200 33.10400
C  48.75900 17.53300 32.81000
C  48.87700 17.31900 31.32800
C  48.43500 19.03000 33.03000
C  47.85800 15.42200 34.00100
C  47.07500 15.26900 35.36000
H  46.72400 16.60500 35.93400
N  49.61800 17.10400 28.23800
C  50.42400 17.66600 29.25700
C  51.65700 18.07000 28.69100
C  51.51000 17.89800 27.27400
C  50.19900 17.25500 27.03900
C  52.77000 18.65900 29.48300
C  52.47700 18.17100 26.13000
O  52.25600 17.77200 24.99700
C  53.72100 18.86600 26.36700
N  47.49400 15.90900 26.38200
C  48.42500 16.28800 25.48800
C  47.70300 16.28200 24.11200
C  46.62400 15.15600 24.38600
C  46.50200 15.13900 25.86700
C  47.15100 17.68200 23.71500
C  46.90300 13.80200 23.69200
C  47.44600 12.64500 24.53600
N  45.97100 15.24100 28.83800
C  45.05700 14.66800 27.87400
C  43.85900 14.26200 28.58500
C  44.07800 14.68200 29.89100
C  45.38100 15.25800 30.02400
C  42.63600 13.66100 28.02200
C  43.42700 14.67200 31.27300
O  42.31400 14.26300 31.61600
C  44.60500 15.28700 32.24300
C  44.08200 16.54200 32.89500
O  44.32500 17.70600 32.59300
O  43.14900 16.13100 33.80900
C  42.56100 17.21800 34.63100
H  50.71300 18.30900 31.28100
H  50.06800 17.28300 24.84900
H  44.64600 14.16500 25.81900
H  46.73600 17.25800 33.44200
H  49.68000 17.24000 33.31300
H  47.53700 19.29100 33.59100
H  48.31700 19.56000 32.08500
H  49.26600 19.45800 33.59100
H  48.92300 15.32700 34.21100
H  47.56500 14.55800 33.40400
H  47.69700 14.70800 36.05800
H  46.15600 14.69300 35.25400
H  52.69100 19.74600 29.47400
H  53.77300 18.40800 29.13700
H  52.79500 18.23300 30.48600
H  53.45400 19.75100 26.94500
H  54.21200 19.22300 25.46200
H  54.53400 18.23200 26.72300
H  48.35400 15.96800 23.29600
H  45.63300 15.43100 24.02600
H  46.07900 17.57000 23.55700
H  47.56800 18.02000 22.76600
H  47.36500 18.39800 24.50800
H  47.48400 13.83400 22.77100
H  45.99100 13.41100 23.24100
H  46.70500 11.90300 24.83500
H  47.93700 12.94000 25.46400
H  48.20900 12.20400 23.89500
H  42.83200 13.00200 27.17600
H  41.95100 14.46700 27.75900
H  42.10300 13.08900 28.78200
H  44.93600 14.49400 32.91300
H  41.47400 17.18900 34.54700
H  42.89500 18.23400 34.42100
H  42.81500 16.94800 35.65600
Mg 9.34600 47.72800 26.25400
C  7.21400 48.13800 29.03600
C  11.85100 49.08400 28.49300
C  11.55700 47.73900 23.70600
C  6.79500 47.07500 24.24500
N  9.50400 48.46800 28.53300
C  8.50500 48.25100 29.45100
C  8.88400 48.54100 30.90100
C  10.43000 48.93100 30.71800
C  10.63800 48.90500 29.15700
C  10.81200 50.29600 31.38400
C  8.67200 47.36300 31.89100
C  9.62200 46.83500 32.96000
H  8.94800 46.31500 34.23500
N  11.43400 48.24500 26.11800
C  12.24100 48.80800 27.13900
C  13.55800 48.88600 26.57200
C  13.45000 48.39200 25.22200
C  12.12000 48.12400 24.99900
C  14.84000 49.40700 27.21900
C  14.62200 48.33600 24.21300
O  14.50800 47.94800 23.09600
C  16.05100 48.67400 24.61900
N  9.20400 47.42300 24.24300
C  10.19700 47.43400 23.39200
C  9.78000 47.03900 21.94400
C  8.27600 46.97200 22.12200
C  8.05300 47.12000 23.67500
C  10.29700 47.95900 20.79200
C  7.67200 45.63400 21.48800
C  7.34600 45.64600 20.00400
N  7.39100 47.60800 26.53300
C  6.40600 47.27500 25.60000
C  5.08300 47.36900 26.20200
C  5.34000 47.71000 27.55200
C  6.73700 47.84700 27.67900
C  3.69100 47.04300 25.51300
C  4.74200 48.07200 28.78000
O  3.57500 48.12900 29.08500
C  5.91900 48.29600 29.77000
C  5.60900 47.23200 30.83900
O  5.98500 46.06000 30.83200
O  5.04500 47.78600 31.99500
C  4.53900 46.63500 32.77800
H  12.69800 49.41000 29.10000
H  12.22300 47.74900 22.84100
H  5.98600 46.88000 23.53800
H  8.34600 49.44600 31.18400
H  11.05500 48.20900 31.24300
H  11.71100 50.18600 31.99100
H  10.02900 50.63500 32.06200
H  10.93100 51.15600 30.72400
H  8.53700 46.49700 31.24400
H  7.71800 47.64400 32.33700
H  10.39900 47.50900 33.32000
H  10.01500 45.91500 32.52800
H  14.47300 49.66900 28.21100
H  15.17800 50.30900 26.70900
H  15.54500 48.62600 27.50300
H  16.14400 48.00600 25.47500
H  16.04400 49.75800 24.72500
H  16.82900 48.34200 23.93100
H  10.20000 46.05800 21.72600
H  7.89800 47.88600 21.66500
H  11.03400 48.68700 21.13000
H  9.57100 48.52300 20.20700
H  10.72100 47.26800 20.06400
H  6.77600 45.24100 21.96900
H  8.38800 44.83300 21.67300
H  7.57000 46.56400 19.46100
H  6.31400 45.31300 19.89200
H  7.99100 44.97400 19.43700
H  3.87600 46.69000 24.49900
H  3.20400 48.01800 25.47000
H  3.26200 46.28200 26.16500
H  5.79000 49.30900 30.15100
H  3.98100 45.97900 32.11000
H  3.88700 46.97200 33.58400
H  5.29000 45.97300 33.21000

