158

Mg 44.66400 3.84400 46.59300
C  42.49800 6.75200 46.63800
C  41.85900 1.91100 46.03200
C  46.81700 1.37500 45.62000
C  47.31100 6.17500 46.59300
N  42.39800 4.38000 46.15500
C  41.75300 5.58300 46.37000
C  40.25400 5.35600 46.23500
C  40.07300 3.74700 46.40700
C  41.52900 3.27800 46.28200
C  39.47100 3.25500 47.81100
C  39.44700 6.00100 45.08900
C  39.98300 5.70500 43.68700
H  39.86600 6.79100 42.56000
N  44.35900 1.86000 45.94400
C  43.12400 1.25900 45.85700
C  43.37000 -0.14400 45.55800
C  44.81700 -0.33000 45.27900
C  45.43900 0.97600 45.60200
C  42.21000 -1.10300 45.35800
C  45.43800 -1.64200 44.65000
O  44.77600 -2.66000 44.34200
C  46.91200 -1.74300 44.39200
N  46.63300 3.82500 46.05600
C  47.31300 2.61700 45.86800
C  48.81500 2.93200 45.80000
C  48.94200 4.45100 45.97000
C  47.49700 4.84400 46.24800
C  49.63800 1.99500 46.73600
C  49.81100 5.16500 44.82100
C  51.22100 5.51000 45.30500
N  44.93300 6.05800 46.81200
C  46.09500 6.84800 46.73800
C  45.76600 8.26600 46.86500
C  44.34700 8.29000 46.75700
C  43.91600 6.94200 46.71900
C  46.83000 9.32500 46.90800
C  43.18500 9.20800 46.65000
O  43.14900 10.42200 46.58900
C  41.94500 8.21300 46.67500
C  41.16300 8.45200 47.94500
O  41.60700 8.09500 49.02700
O  39.91000 9.02800 47.77600
C  39.11300 8.91300 48.99000
H  41.07900 1.14800 46.08100
H  47.62100 0.65200 45.46600
H  48.15400 6.86500 46.66200
H  39.82900 5.74100 47.16200
H  39.46700 3.42300 45.56100
H  38.73000 3.94500 48.21400
H  40.21800 2.99600 48.56100
H  38.86900 2.37900 47.56900
H  39.48600 7.07600 45.26300
H  38.43500 5.61700 45.21800
H  39.23900 4.94600 43.44400
H  40.95500 5.21100 43.67300
H  42.53200 -2.14200 45.43200
H  41.93300 -0.79900 44.34900
H  41.45300 -0.95800 46.12900
H  47.51700 -1.63600 45.29200
H  47.22200 -0.98800 43.66900
H  47.11800 -2.70400 43.92000
H  49.08600 2.67300 44.77700
H  49.43100 4.66400 46.92000
H  49.95000 1.19000 46.07100
H  49.05500 1.60300 47.56900
H  50.41500 2.66500 47.10300
H  49.21700 6.05500 44.61100
H  49.94200 4.45100 44.00800
H  51.39900 6.57400 45.14700
H  51.92900 4.91100 44.73300
H  51.30500 5.19700 46.34500
H  46.60800 9.82000 47.85400
H  46.65300 10.12100 46.18500
H  47.86600 8.98900 46.92000
H  41.31200 8.41200 45.81100
H  38.94200 7.91800 49.40100
H  38.10300 9.10200 48.62600
H  39.20600 9.57400 49.85200
Mg -6.14300 25.26000 25.67800
C  -4.61900 26.59700 28.45600
C  -7.86700 23.28300 27.58000
C  -6.97900 23.54900 22.86000
C  -4.06100 27.25200 23.63100
N  -6.15200 24.89100 27.79800
C  -5.58500 25.63700 28.78700
C  -6.03900 25.28500 30.21100
C  -6.91900 23.96700 29.82300
C  -6.97600 24.04400 28.25700
C  -6.33900 22.68700 30.22600
C  -6.91900 26.30700 30.92400
C  -6.78900 26.47700 32.43500
H  -6.52600 25.30600 33.46100
N  -7.34800 23.73300 25.27400
C  -8.03200 23.05800 26.20500
C  -8.86400 22.06000 25.58900
C  -8.52500 22.04000 24.15700
C  -7.57500 23.15000 24.07400
C  -10.05400 21.32300 26.37100
C  -9.11200 21.13700 23.07700
O  -8.75000 21.31500 21.93500
C  -10.05300 20.01400 23.34900
N  -5.61900 25.37700 23.54000
C  -6.18900 24.62400 22.57800
C  -5.64000 24.85600 21.14100
C  -4.92000 26.22000 21.36000
C  -4.79600 26.28800 22.94200
C  -4.76900 23.66000 20.70100
C  -5.69800 27.49500 20.89700
C  -5.01700 28.16900 19.71400
N  -4.65700 26.67800 25.91300
C  -3.82100 27.34100 25.01800
C  -2.92600 28.27800 25.79600
C  -3.18800 27.88300 27.14000
C  -4.24100 26.91400 27.17700
C  -1.93100 29.26700 25.29000
C  -2.76400 28.16900 28.50500
O  -2.04300 28.97200 29.03900
C  -3.76400 27.32700 29.42100
C  -2.99400 26.47900 30.33100
O  -2.40800 25.44400 30.10700
O  -2.93300 27.13900 31.52800
C  -2.37300 26.37500 32.64500
H  -8.48800 22.66400 28.23200
H  -7.25200 23.04300 21.93200
H  -3.46400 27.97800 23.07500
H  -5.23300 25.07200 30.91400
H  -7.91900 23.94500 30.25700
H  -6.18100 22.01200 29.38400
H  -6.98900 22.18800 30.94500
H  -5.44200 22.78900 30.83700
H  -7.93400 26.14000 30.56100
H  -6.59800 27.30400 30.62100
H  -7.67200 26.98900 32.81700
H  -6.03900 27.23800 32.65200
H  -11.04300 21.30600 25.91300
H  -10.25500 21.77800 27.34100
H  -9.86000 20.25300 26.44600
H  -10.13300 19.44800 22.42100
H  -11.05500 20.33500 23.63300
H  -9.70600 19.32000 24.11400
H  -6.44200 24.93000 20.40700
H  -3.94300 26.09800 20.89300
H  -4.14300 23.89800 19.84100
H  -5.38400 22.87400 20.26300
H  -4.16400 23.27200 21.52100
H  -5.73200 28.27900 21.65400
H  -6.72900 27.29200 20.60700
H  -5.34400 27.77700 18.75100
H  -3.93500 28.04300 19.75200
H  -5.06000 29.24800 19.86500
H  -1.96500 29.46800 24.21900
H  -0.92700 29.05900 25.65900
H  -2.25900 30.21800 25.71000
H  -4.37400 28.05000 29.96300
H  -2.88300 26.66800 33.56300
H  -1.31900 26.58600 32.82700
H  -2.43200 25.29800 32.49500

