158

Mg 8.70000 2.61900 27.76100
C  10.21200 1.34000 30.64700
C  6.81700 4.61500 29.80600
C  7.09500 3.64800 25.02100
C  10.31400 0.11900 25.81300
N  8.66500 2.97800 29.97600
C  9.40900 2.40900 30.99500
C  9.19400 3.00200 32.34200
C  8.13200 4.10100 32.00600
C  7.84600 3.96200 30.51100
C  6.82000 4.17100 32.83700
C  10.53300 3.56800 32.90200
C  10.37000 4.45000 34.19300
H  11.26500 4.20500 35.38000
N  7.13000 3.92900 27.46500
C  6.56000 4.69300 28.46600
C  5.58700 5.54300 27.86300
C  5.64600 5.31400 26.41400
C  6.68400 4.26400 26.22100
C  4.82600 6.61600 28.59200
C  4.80500 5.93700 25.37200
O  4.94400 5.58900 24.17700
C  3.61900 6.89900 25.74100
N  8.75700 2.02700 25.66700
C  7.94600 2.54300 24.74500
C  8.26500 1.98700 23.35600
C  9.29800 0.92700 23.59800
C  9.49600 0.98800 25.09000
C  6.93200 1.59000 22.63900
C  10.64900 1.10500 22.77800
C  11.23200 -0.19700 22.12600
N  9.90100 1.04100 28.07900
C  10.49300 0.11900 27.24100
C  11.37000 -0.77100 28.02400
C  11.25400 -0.36500 29.36000
C  10.33000 0.73900 29.33200
C  12.33600 -1.81700 27.44100
C  11.69800 -0.63300 30.63400
O  12.54700 -1.37200 31.06900
C  11.03200 0.51000 31.56300
C  10.32400 -0.19300 32.75400
O  9.27700 -0.78800 32.75300
O  10.95900 0.20000 33.91500
C  10.32400 -0.21400 35.18300
H  6.35700 5.30300 30.51800
H  6.61000 4.05700 24.13200
H  10.88400 -0.55500 25.17000
H  8.58000 2.35800 32.97000
H  8.67000 5.04000 32.13700
H  6.12000 3.59800 32.22900
H  6.43800 5.18400 32.96400
H  7.00600 3.67200 33.78800
H  10.98100 4.18400 32.12200
H  11.18600 2.72100 33.11400
H  9.33300 4.48900 34.52600
H  10.59800 5.50800 34.06400
H  5.03300 7.61700 28.21300
H  4.88700 6.54700 29.67800
H  3.75500 6.57200 28.39800
H  2.82800 6.35900 26.26000
H  3.31100 7.33700 24.79200
H  3.85500 7.85000 26.21900
H  8.67600 2.73900 22.68200
H  8.84400 -0.05300 23.45700
H  6.47500 2.34200 21.99700
H  6.22000 1.58600 23.46400
H  6.92800 0.61000 22.16300
H  11.35300 1.62100 23.43100
H  10.47800 1.79500 21.95100
H  11.24700 -0.00200 21.05300
H  10.62100 -1.02300 22.49100
H  12.29100 -0.23200 22.38000
H  11.71500 -2.47100 26.82900
H  12.82200 -2.40600 28.21900
H  13.13700 -1.36000 26.86000
H  11.89200 0.99600 32.02400
H  9.28000 0.10100 35.17000
H  10.81700 0.41300 35.92600
H  10.44100 -1.28400 35.35700
Mg 25.81500 0.15000 29.41200
C  27.57800 0.14300 32.34600
C  22.88800 0.43000 31.16400
C  24.17600 0.03600 26.51500
C  28.85300 -0.47800 27.75000
N  25.37100 0.33100 31.46800
C  26.27400 0.43300 32.55700
C  25.57700 0.91700 33.89300
C  24.04300 0.98700 33.41200
C  24.08500 0.48000 31.96500
C  22.94000 0.29400 34.34700
C  26.14100 2.26100 34.43900
C  25.32800 2.81500 35.63800
H  26.03600 2.79300 36.98200
N  23.77100 0.23500 28.94800
C  22.68200 0.33500 29.74200
C  21.45600 0.40200 29.01600
C  21.88100 0.49600 27.68800
C  23.35500 0.21900 27.67200
C  20.07600 0.54800 29.53800
C  21.03800 0.80600 26.44700
O  21.45500 0.87100 25.25900
C  19.60300 1.06200 26.62100
N  26.44200 -0.30200 27.37000
C  25.51400 -0.20300 26.36300
C  26.28600 -0.34700 25.07100
C  27.75300 -0.25400 25.42900
C  27.69600 -0.44500 26.93600
C  25.83600 -1.66700 24.47200
C  28.33500 1.22000 24.95500
C  29.88700 1.28100 24.75700
N  27.74900 -0.32900 29.93300
C  28.85100 -0.54600 29.12600
C  30.03400 -0.75600 29.95200
C  29.57700 -0.48000 31.25300
C  28.22000 -0.13200 31.17000
C  31.36300 -1.16300 29.47600
C  29.91900 -0.33000 32.67100
O  30.93400 -0.60100 33.29600
C  28.66500 0.09200 33.38300
C  28.39700 -0.99300 34.33100
O  27.63300 -1.92400 34.11600
O  29.09700 -0.76800 35.46000
C  28.91200 -1.66700 36.60100
H  21.96400 0.60900 31.71800
H  23.68200 -0.05600 25.54500
H  29.81400 -0.51100 27.23300
H  25.51500 0.16700 34.68100
H  23.81900 2.05100 33.33200
H  22.30300 1.08500 34.74200
H  23.34400 -0.30000 35.16700
H  22.37200 -0.43400 33.76800
H  26.31400 2.91100 33.58100
H  27.13100 2.00300 34.81600
H  24.35900 2.32300 35.72500
H  25.09200 3.86100 35.44200
H  19.37900 -0.22600 29.22000
H  19.59500 1.50900 29.35400
H  20.16800 0.47000 30.62200
H  18.98800 1.13200 25.72500
H  19.55600 2.06300 27.05000
H  19.14400 0.27100 27.21500
H  25.93900 0.55500 24.56600
H  28.39100 -1.05300 25.05100
H  26.60500 -2.41900 24.30000
H  25.26400 -1.47400 23.56400
H  25.09600 -2.13200 25.12300
H  27.98400 2.06700 25.54400
H  27.85500 1.49000 24.01500
H  30.13300 1.32900 23.69700
H  30.39300 0.42400 25.20200
H  30.35700 2.13700 25.24200
H  31.65400 -2.20900 29.57700
H  32.07100 -0.69600 30.16100
H  31.62800 -0.81000 28.48000
H  28.74500 1.07800 33.84000
H  29.16400 -1.13700 37.52000
H  29.62500 -2.49200 36.60400
H  27.90600 -2.07800 36.67800

