158

Mg 25.92500 -1.37900 29.52200
C  27.96000 -1.47400 32.39800
C  23.20100 -0.99100 31.45000
C  24.00800 -1.32200 26.76200
C  28.78300 -2.21100 27.65000
N  25.67500 -1.08700 31.70400
C  26.63800 -1.22200 32.67700
C  26.00600 -0.97300 34.07200
C  24.48100 -0.98600 33.71800
C  24.46200 -0.97900 32.18000
C  23.68600 -2.22500 34.29700
C  26.41900 0.30100 34.79200
C  26.69700 0.03700 36.24900
H  26.75200 1.23600 37.29800
N  23.86100 -1.26100 29.14400
C  22.89800 -1.09600 30.11800
C  21.57700 -1.16600 29.49100
C  21.83400 -0.96500 28.11100
C  23.28600 -1.17700 27.95100
C  20.26200 -1.24500 30.35100
C  20.82600 -0.55000 26.98100
O  21.05500 -0.50700 25.77000
C  19.40800 -0.39800 27.39300
N  26.32300 -1.83500 27.50700
C  25.36700 -1.68700 26.50500
C  26.02000 -1.67500 25.12400
C  27.52200 -2.10400 25.40300
C  27.53600 -2.15900 26.93100
C  25.31100 -2.61300 24.06900
C  28.68800 -1.23000 24.79700
C  28.67500 0.32900 25.02300
N  27.99700 -1.77100 29.85500
C  28.99800 -2.10500 29.02500
C  30.31800 -2.03000 29.72600
C  29.91500 -1.74000 31.04600
C  28.52100 -1.67100 31.11700
C  31.61900 -2.39400 29.11800
C  30.41200 -1.55000 32.44600
O  31.55200 -1.45700 32.85200
C  29.15500 -1.42100 33.34200
C  29.34000 -2.45600 34.42000
O  28.69100 -3.46600 34.31200
O  30.20300 -2.10700 35.37900
C  30.36700 -2.95600 36.53300
H  22.33300 -0.94000 32.11100
H  23.49800 -1.06000 25.83200
H  29.69500 -2.51200 27.13100
H  26.16900 -1.86200 34.68000
H  24.05600 -0.15100 34.27500
H  22.73300 -1.89100 34.70800
H  24.16200 -2.77900 35.10500
H  23.39400 -2.86600 33.46500
H  25.62200 1.03900 34.69800
H  27.25900 0.70100 34.22400
H  27.61500 -0.49000 36.50800
H  25.87600 -0.60700 36.56500
H  19.51500 -1.71500 29.71100
H  20.00200 -0.22100 30.62100
H  20.31700 -1.83000 31.26900
H  19.28100 0.21400 28.28600
H  19.04300 -1.42100 27.48000
H  18.81400 0.06200 26.60300
H  25.82600 -0.65800 24.78400
H  27.56400 -3.07800 24.91500
H  26.05300 -3.35300 23.77200
H  25.14000 -1.94600 23.22400
H  24.32300 -2.94600 24.38900
H  28.56600 -1.39100 23.72600
H  29.67700 -1.61600 25.04400
H  28.11900 0.58300 25.92500
H  28.35600 0.78700 24.08600
H  29.73400 0.56900 25.11900
H  32.31100 -1.62600 29.46400
H  31.67700 -2.49100 28.03400
H  31.99600 -3.33700 29.51300
H  29.26300 -0.48900 33.89500
H  30.33300 -4.03600 36.38800
H  29.57500 -2.70100 37.23700
H  31.37900 -2.70200 36.84800
Mg -10.28300 39.37000 42.31000
C  -9.07100 36.09400 41.64200
C  -7.37200 40.62100 40.75600
C  -11.74800 42.30000 42.25900
C  -13.34500 37.89100 43.09500
N  -8.54300 38.44400 41.20800
C  -8.21700 37.10000 41.10300
C  -6.92900 36.87700 40.40800
C  -6.24900 38.19600 40.59600
C  -7.43900 39.18300 40.90800
C  -5.23200 38.29000 41.75200
C  -7.05500 36.36400 38.96000
C  -6.08800 35.26900 38.50300
H  -5.10100 35.50800 37.39000
N  -9.60000 41.24900 41.70800
C  -8.40700 41.57400 40.99500
C  -8.37000 42.96500 40.57900
C  -9.60000 43.50400 41.09000
C  -10.36700 42.33000 41.75200
C  -7.26000 43.66300 39.73700
C  -10.03000 44.94700 41.06600
O  -9.20200 45.74600 40.72600
C  -11.34000 45.41000 41.39400
N  -12.29100 39.99700 42.67500
C  -12.61100 41.27400 42.65200
C  -14.11000 41.51200 42.86600
C  -14.65900 40.03900 43.24600
C  -13.32700 39.31100 43.09600
C  -14.34100 42.67900 43.96800
C  -15.77000 39.47000 42.27900
C  -16.72300 38.45300 42.83800
N  -11.04200 37.42000 42.55800
C  -12.30900 36.96800 42.85800
C  -12.29400 35.54000 43.07900
C  -11.03000 35.18900 42.61300
C  -10.33700 36.34000 42.32500
C  -13.38900 34.66600 43.43100
C  -10.12900 34.05300 42.37800
O  -10.23900 32.88200 42.59100
C  -8.89200 34.64400 41.71300
C  -7.73700 34.20300 42.52500
O  -7.57900 34.39600 43.75100
O  -6.81800 33.48200 41.73600
C  -5.57100 33.08300 42.37200
H  -6.46200 41.05400 40.33500
H  -12.36400 43.20100 42.26700
H  -14.27500 37.50600 43.51900
H  -6.40200 36.12100 40.99100
H  -5.73800 38.40000 39.65500
H  -5.25400 37.32100 42.25300
H  -5.60400 39.03900 42.45100
H  -4.20400 38.41000 41.40900
H  -6.87400 37.22000 38.31000
H  -8.00600 35.88200 38.73000
H  -6.73500 34.46700 38.14900
H  -5.64800 34.76500 39.36400
H  -7.83000 44.13300 38.93500
H  -6.47500 43.00100 39.37200
H  -6.81700 44.51500 40.25300
H  -12.12700 44.86000 40.87800
H  -11.50200 46.47700 41.23500
H  -11.33600 45.26500 42.47400
H  -14.46000 41.76000 41.86400
H  -14.94400 40.15500 44.29100
H  -13.39400 43.05000 44.35800
H  -14.80200 42.33200 44.89300
H  -14.87400 43.55400 43.59500
H  -15.34000 38.97700 41.40700
H  -16.41000 40.27500 41.91700
H  -17.01400 37.69600 42.11000
H  -17.68400 38.86600 43.14300
H  -16.37300 37.87800 43.69500
H  -14.01100 35.19100 44.15600
H  -13.11500 33.69700 43.84600
H  -13.87400 34.43800 42.48100
H  -8.81200 34.22100 40.71100
H  -5.22600 32.33700 41.65600
H  -5.62800 32.63100 43.36100
H  -4.82700 33.87600 42.29500

