158

Mg 28.16600 56.05300 40.60500
C  25.77900 53.60400 39.83700
C  30.69300 54.04900 39.38400
C  30.19300 58.78200 40.30000
C  25.41800 58.28900 41.18600
N  28.20000 54.14200 39.53500
C  27.12800 53.29000 39.50700
C  27.55100 51.91900 38.97800
C  29.10100 51.93300 39.15700
C  29.38400 53.42200 39.37200
C  29.62600 51.05700 40.27700
C  26.99200 51.59600 37.57500
C  26.66300 52.76300 36.67000
H  27.37000 52.85400 35.28000
N  30.20000 56.30000 40.06500
C  31.06400 55.36400 39.65900
C  32.44300 56.00700 39.59500
C  32.26300 57.31800 39.97300
C  30.82400 57.50400 40.16300
C  33.69600 55.29600 39.08300
C  33.42100 58.34400 40.10100
O  34.56000 57.93500 39.89000
C  33.27100 59.82600 40.42500
N  27.79100 58.17600 40.62800
C  28.83700 59.06300 40.48200
C  28.30100 60.49600 40.43400
C  26.80500 60.35100 40.72200
C  26.65500 58.83500 40.87000
C  29.07300 61.43000 41.40800
C  25.85300 61.06700 39.75300
C  24.61100 61.82100 40.33600
N  26.02200 55.94200 40.72600
C  25.00500 56.93300 40.98500
C  23.67700 56.32100 41.06700
C  23.95200 54.99800 40.61300
C  25.35800 54.79800 40.40500
C  22.34400 56.97100 41.33200
C  23.38700 53.63300 40.28500
O  22.28000 53.16600 40.37800
C  24.52800 52.69200 39.78400
C  24.49500 51.41200 40.49500
O  24.28600 50.27100 40.02600
O  25.02500 51.60000 41.75100
C  25.19000 50.38100 42.50800
H  31.55500 53.47700 39.03500
H  30.86200 59.64600 40.30500
H  24.60200 58.98900 41.37600
H  27.21100 51.21600 39.73900
H  29.61300 51.57700 38.26200
H  28.92600 51.05000 41.11200
H  30.57500 51.49500 40.58400
H  29.84500 50.02200 40.01500
H  26.13100 50.93300 37.65800
H  27.84300 50.99500 37.25500
H  27.00700 53.74400 36.99800
H  25.63200 52.85400 36.32900
H  33.89500 55.59400 38.05300
H  33.43500 54.24200 39.17000
H  34.61600 55.44800 39.64900
H  32.74500 60.00200 41.36300
H  32.82700 60.32000 39.56100
H  34.29200 60.17600 40.57300
H  28.41900 60.75400 39.38100
H  26.52900 60.71500 41.71100
H  29.74300 62.04300 40.80600
H  29.65900 60.87100 42.13800
H  28.36700 62.09300 41.90900
H  25.41400 60.37700 39.03200
H  26.47600 61.77900 39.21200
H  24.82400 62.89000 40.36100
H  24.48900 61.35500 41.31400
H  23.66100 61.61900 39.84100
H  21.89900 57.05700 40.34000
H  22.33100 57.91800 41.87100
H  21.79900 56.27100 41.96600
H  24.28500 52.49900 38.73900
H  25.77200 50.66700 43.38400
H  25.78400 49.63100 41.98400
H  24.27900 49.98400 42.95500
Mg -2.78400 34.77500 27.02900
C  -4.72600 33.49100 29.70000
C  -1.25000 37.05500 29.10500
C  -1.50200 36.28300 24.34900
C  -4.48500 32.44800 24.98200
N  -3.04000 35.23600 29.12300
C  -3.82800 34.54400 30.04900
C  -3.40900 34.95400 31.41800
C  -2.34300 36.17100 31.20700
C  -2.14000 36.09600 29.70300
C  -2.92600 37.58400 31.62100
C  -2.80300 33.76300 32.23600
C  -3.51600 33.35300 33.57000
H  -2.80100 33.17900 34.93800
N  -1.62200 36.49300 26.79400
C  -0.99100 37.19400 27.75300
C  -0.10600 38.23600 27.17700
C  -0.18200 38.02600 25.76100
C  -1.13800 36.92600 25.55900
C  0.51900 39.32600 27.96400
C  0.47700 38.74500 24.63400
O  0.37800 38.41900 23.49300
C  1.32800 39.92200 25.00300
N  -3.15600 34.56200 25.00000
C  -2.39200 35.21700 24.09900
C  -2.53500 34.71100 22.66400
C  -3.29900 33.38700 22.89800
C  -3.70800 33.47500 24.38300
C  -3.18500 35.70900 21.71400
C  -2.40800 32.12300 22.55300
C  -3.16300 31.07400 21.66800
N  -4.32800 33.19900 27.25600
C  -4.88500 32.36800 26.31000
C  -5.77400 31.44900 27.00700
C  -5.77100 31.84800 28.38900
C  -4.82000 32.93200 28.42700
C  -6.52000 30.25900 26.50300
C  -6.29600 31.55100 29.62900
O  -6.98200 30.59900 29.94200
C  -5.73800 32.65600 30.56300
C  -6.82300 33.39100 31.21000
O  -7.23700 34.44500 30.74000
O  -7.26600 32.84300 32.38300
C  -8.40900 33.45000 33.07000
H  -0.67300 37.68000 29.79000
H  -0.93300 36.46500 23.43500
H  -4.90700 31.72100 24.28500
H  -4.27000 35.33500 31.96700
H  -1.45700 35.99300 31.81600
H  -3.98500 37.46200 31.84700
H  -2.93600 38.23000 30.74300
H  -2.31500 38.05700 32.39000
H  -1.78300 34.08700 32.44200
H  -2.80000 32.84200 31.65300
H  -3.81600 32.32700 33.35800
H  -4.30300 34.09600 33.70400
H  -0.12600 40.20000 27.88000
H  1.57400 39.48500 27.74000
H  0.50500 39.05600 29.02000
H  0.78300 40.76800 25.42100
H  1.65800 40.37700 24.06900
H  2.17600 39.62300 25.61900
H  -1.52200 34.49600 22.32400
H  -4.24100 33.32300 22.35200
H  -2.58500 35.84200 20.81400
H  -3.30900 36.70800 22.13200
H  -4.21200 35.37100 21.57500
H  -2.18000 31.54400 23.44800
H  -1.52800 32.46700 22.00800
H  -3.20100 30.12100 22.19600
H  -2.67600 30.87500 20.71400
H  -4.16600 31.38500 21.37300
H  -6.43700 29.45200 27.23100
H  -5.91600 29.86600 25.68500
H  -7.54000 30.38700 26.13900
H  -5.29700 32.11400 31.40000
H  -8.05400 34.35800 33.55700
H  -8.79700 32.78400 33.84000
H  -9.31200 33.56600 32.47000

