158

Mg 44.28700 5.37600 46.58800
C  42.29700 8.18700 46.49600
C  41.20700 3.49700 46.06100
C  45.98200 2.48700 46.47300
C  47.18100 7.24100 46.50100
N  42.00000 5.75400 46.42700
C  41.47300 7.03100 46.32300
C  39.95900 7.01700 46.08700
C  39.63000 5.47500 45.97000
C  40.98900 4.85500 46.24000
C  38.37500 5.09300 46.80900
C  39.32100 7.73300 44.77900
C  40.30100 7.81300 43.56900
H  39.92000 7.06500 42.26400
N  43.67100 3.31800 46.16000
C  42.39000 2.78400 46.03900
C  42.58000 1.35000 45.78900
C  43.98600 1.02400 45.85900
C  44.61200 2.28400 46.21800
C  41.53000 0.39800 45.47000
C  44.66200 -0.29700 45.65200
O  43.91600 -1.17200 45.24300
C  46.19100 -0.62300 45.78100
N  46.18500 5.00200 46.22400
C  46.66000 3.73700 46.51100
C  48.15000 3.61500 46.92800
C  48.64800 5.09800 46.63300
C  47.29700 5.84400 46.44600
C  48.28200 3.24800 48.43700
C  49.48300 5.19100 45.34800
C  50.98900 5.21300 45.56100
N  44.67400 7.30900 46.58800
C  45.91600 7.97100 46.44400
C  45.59500 9.37800 46.52900
C  44.24100 9.50800 46.58700
C  43.69600 8.24400 46.56400
C  46.64900 10.51900 46.50800
C  43.11300 10.49000 46.66700
O  43.11400 11.72200 46.80800
C  41.88500 9.62200 46.60700
C  41.04900 9.82900 47.77800
O  41.02800 9.13400 48.76800
O  40.21800 10.84900 47.49500
C  39.14000 10.84000 48.45700
H  40.41600 2.86000 45.66000
H  46.63200 1.61400 46.55900
H  48.11600 7.78500 46.64800
H  39.47400 7.35500 47.00300
H  39.55400 5.11200 44.94500
H  37.62200 5.87500 46.89800
H  38.72700 4.95700 47.83200
H  37.94200 4.17500 46.41100
H  39.10100 8.76800 45.04200
H  38.38700 7.24100 44.50700
H  41.35300 7.64500 43.79800
H  40.38900 8.85100 43.24800
H  41.61200 -0.20100 44.56400
H  40.54100 0.81900 45.29200
H  41.38700 -0.33500 46.26400
H  46.54700 -0.30400 46.76100
H  46.66500 0.03900 45.05700
H  46.49500 -1.66700 45.70500
H  48.59100 2.95900 46.17700
H  49.14100 5.48100 47.52600
H  47.35000 2.75500 48.71500
H  48.45000 4.09900 49.09600
H  49.05100 2.48100 48.53000
H  49.21600 6.13800 44.87900
H  49.22100 4.38500 44.66300
H  51.25400 5.01700 46.60000
H  51.33200 6.18300 45.20000
H  51.41800 4.49100 44.86700
H  46.87500 10.81500 45.48300
H  47.59300 10.13800 46.90000
H  46.16000 11.39000 46.94300
H  41.22900 9.85700 45.76900
H  38.54700 11.67100 48.07600
H  39.27600 11.31300 49.43000
H  38.48800 9.98000 48.60600
Mg 1.44700 42.71600 24.70400
C  2.40600 42.87600 27.98300
C  -1.69200 41.56400 25.73400
C  0.63100 41.78500 21.44900
C  4.60300 43.50400 23.59400
N  0.53600 42.15700 26.68700
C  1.03900 42.50300 27.87100
C  -0.04800 42.30400 28.93000
C  -1.28700 41.80000 28.16500
C  -0.80300 41.76300 26.81000
C  -1.79600 40.37900 28.64300
C  -0.20200 43.59900 29.73800
C  -0.49300 43.38600 31.24300
H  -1.08600 42.05100 31.76600
N  -0.30200 41.93200 23.70900
C  -1.45200 41.56400 24.33900
C  -2.46000 41.25100 23.36600
C  -1.82300 41.35800 22.06800
C  -0.44700 41.72700 22.34500
C  -3.93300 40.92300 23.74700
C  -2.37100 41.18200 20.68400
O  -1.71700 41.24600 19.66500
C  -3.83000 40.67800 20.59500
N  2.43900 42.64500 22.76800
C  1.94600 42.17900 21.65600
C  3.05800 42.03100 20.55400
C  4.16400 43.04200 21.11400
C  3.70400 43.16500 22.55000
C  3.50400 40.56700 20.47700
C  4.13700 44.46100 20.54900
C  4.92300 44.59700 19.23000
N  3.21600 43.06100 25.59700
C  4.42500 43.39700 25.08200
C  5.29200 43.68600 26.17200
C  4.57800 43.50200 27.35000
C  3.32600 43.09800 26.92300
C  6.68600 44.15600 26.13500
C  4.68200 43.50100 28.85100
O  5.56500 43.73900 29.66700
C  3.23000 43.00400 29.28000
C  3.42000 41.70200 30.01100
O  4.51600 41.03600 30.01800
O  2.36000 41.27300 30.78600
C  2.42000 40.17500 31.71500
H  -2.68400 41.33900 26.13100
H  0.47800 41.35600 20.45700
H  5.51700 43.85000 23.10700
H  0.30000 41.50900 29.58900
H  -2.06400 42.54100 28.35300
H  -1.48200 39.65700 27.89000
H  -2.87900 40.46200 28.73200
H  -1.34100 40.05800 29.58000
H  -1.00600 44.21900 29.34000
H  0.64500 44.28000 29.64900
H  -1.05000 44.28300 31.51500
H  0.45200 43.47100 31.77900
H  -4.59600 41.72300 23.41600
H  -4.09300 40.74400 24.81000
H  -4.20700 39.98500 23.26300
H  -4.19200 40.82200 19.57700
H  -4.58500 41.13300 21.23700
H  -3.80900 39.59800 20.74100
H  2.64400 42.26000 19.57200
H  5.18000 42.64900 21.15000
H  4.47900 40.49800 20.95900
H  3.55100 40.30700 19.41900
H  2.85500 39.83900 20.96400
H  4.66400 44.99300 21.34200
H  3.12500 44.86000 20.48800
H  4.97700 45.63600 18.90500
H  4.65000 43.96000 18.38900
H  5.94300 44.30900 19.48300
H  7.36400 43.35000 25.85500
H  6.91100 44.72800 27.03400
H  6.76400 44.72100 25.20600
H  2.65500 43.68400 29.90800
H  2.46500 39.24400 31.15100
H  1.39500 40.08800 32.07400
H  3.19600 40.35900 32.45800

