158

Mg 1.08000 8.52400 26.79700
C  1.36600 10.90300 29.36900
C  1.12600 6.06500 29.21600
C  0.85400 6.18500 24.29800
C  1.13500 11.08300 24.38800
N  1.43100 8.50500 29.08100
C  1.40500 9.59900 29.92000
C  1.12100 9.24700 31.36200
C  1.22800 7.65200 31.30800
C  1.23700 7.38700 29.81000
C  2.42800 7.01500 32.01700
C  -0.29900 9.58900 31.85300
C  -0.63600 9.38500 33.35800
H  0.42000 9.00200 34.39500
N  0.98100 6.40400 26.74400
C  1.06800 5.58800 27.87600
C  1.00900 4.18800 27.40400
C  0.81500 4.19500 25.97200
C  0.89500 5.61900 25.62100
C  1.17000 3.08600 28.38900
C  0.73700 3.06000 25.00100
O  0.55300 3.11900 23.78600
C  0.71200 1.70800 25.63600
N  1.05300 8.65000 24.68300
C  0.89800 7.53000 23.87800
C  0.65300 7.99700 22.49000
C  0.49800 9.50500 22.48500
C  0.95700 9.77600 23.93800
C  1.81500 7.54800 21.64500
C  -0.90700 10.08700 22.10300
C  -0.93100 10.95500 20.78400
N  1.43800 10.50500 26.80200
C  1.37100 11.43800 25.76500
C  1.66300 12.77200 26.32900
C  1.50400 12.59100 27.67700
C  1.48300 11.17300 27.96300
C  1.90600 14.06600 25.61800
C  1.52100 13.28900 28.89300
O  1.51100 14.50500 29.13900
C  1.23800 12.22700 30.06000
C  2.31300 12.45000 31.08100
O  3.49000 12.68100 30.89300
O  1.80800 12.49000 32.37800
C  2.75600 12.78700 33.49500
H  1.09800 5.30600 30.00000
H  0.72400 5.46300 23.49000
H  1.09600 11.93000 23.70000
H  1.88900 9.79500 31.90800
H  0.42000 7.13000 31.82200
H  2.11100 6.58500 32.96800
H  3.29300 7.65200 32.19800
H  2.79900 6.24600 31.33900
H  -1.03200 9.05900 31.24600
H  -0.44300 10.63300 31.57400
H  -1.44200 8.65400 33.29400
H  -1.07000 10.27500 33.81300
H  2.00300 2.44900 28.09200
H  0.28500 2.46200 28.26500
H  1.37200 3.38400 29.41800
H  -0.14400 1.79000 26.30600
H  1.62500 1.46700 26.18000
H  0.46300 0.91200 24.93400
H  -0.17900 7.43700 22.06300
H  1.15300 10.04800 21.80400
H  1.88200 8.15200 20.74000
H  1.90100 6.48700 21.41100
H  2.72100 7.74000 22.21900
H  -1.27700 10.63100 22.97200
H  -1.60600 9.27900 21.89100
H  -1.80700 10.67600 20.19900
H  -0.10500 10.80900 20.08800
H  -1.07500 11.99800 21.06400
H  1.26400 14.13100 24.73900
H  2.95200 14.02200 25.31400
H  1.69400 14.86900 26.32400
H  0.26500 12.29900 30.54600
H  3.49400 11.98800 33.41700
H  2.23300 12.64300 34.44100
H  3.14700 13.80400 33.49500
Mg 35.34000 2.92100 30.23100
C  32.75500 3.86200 32.35400
C  37.41900 3.05200 32.99700
C  37.99700 2.56900 28.25600
C  33.23400 3.08400 27.59000
N  35.14500 3.48600 32.33300
C  33.99000 3.83900 32.97800
C  34.11600 3.90100 34.53800
C  35.65600 3.87500 34.66200
C  36.13100 3.39800 33.22000
C  36.06000 5.22600 35.09900
C  33.43900 2.65300 35.12500
C  33.11100 2.58700 36.65900
H  33.67900 3.68700 37.68800
N  37.42600 2.76100 30.55800
C  38.05900 2.72700 31.78300
C  39.44100 2.47100 31.61900
C  39.55200 2.20800 30.24600
C  38.31900 2.57700 29.63200
C  40.35300 2.40600 32.79500
C  40.76300 1.63500 29.40400
O  40.69300 1.34800 28.19700
C  42.07800 1.43900 30.13200
N  35.60700 3.00500 28.20400
C  36.80200 2.79400 27.57800
C  36.59900 2.46900 26.03900
C  35.03100 2.54100 25.91000
C  34.56200 2.87400 27.30500
C  37.32500 3.27400 24.93100
C  34.38800 1.26500 25.35500
C  34.15700 0.00300 26.26100
N  33.30700 3.36800 29.96700
C  32.57500 3.36200 28.82100
C  31.18200 3.65300 29.14400
C  31.22600 3.83700 30.57000
C  32.53000 3.69000 30.99700
C  30.20900 3.67900 28.14400
C  30.36400 4.17700 31.71100
O  29.22600 4.54800 31.77300
C  31.37500 4.24300 32.93400
C  31.41700 5.61400 33.42800
O  31.30400 6.62200 32.73100
O  31.41700 5.55800 34.80200
C  31.62600 6.81400 35.54900
H  38.05800 3.25300 33.86000
H  38.85700 2.60800 27.58600
H  32.55100 2.96800 26.74500
H  33.44000 4.68500 34.87900
H  35.98700 3.16800 35.42300
H  36.17100 5.14900 36.18000
H  35.38600 6.06100 34.90900
H  37.05600 5.53600 34.78200
H  33.99600 1.76200 34.83700
H  32.45000 2.39600 34.74300
H  33.49300 1.68500 37.13700
H  32.02900 2.47000 36.71700
H  40.20000 1.49400 33.37200
H  40.27900 3.35900 33.31800
H  41.39900 2.44700 32.49000
H  42.81800 1.28200 29.34600
H  42.04800 0.63100 30.86200
H  42.34200 2.40900 30.55200
H  36.90200 1.43300 25.89200
H  34.79400 3.37900 25.25500
H  38.27900 2.85400 24.61500
H  37.60200 4.23800 25.35900
H  36.64400 3.35000 24.08300
H  35.06500 0.92600 24.57100
H  33.51800 1.56400 24.77000
H  35.06700 -0.58500 26.14300
H  33.36200 -0.61800 25.84700
H  34.15500 0.30400 27.30800
H  30.12800 2.75300 27.57400
H  30.54700 4.48900 27.49800
H  29.26600 4.00200 28.58700
H  30.99100 3.62300 33.74400
H  30.64200 7.18000 35.84100
H  32.11200 7.60000 34.97000
H  32.26100 6.73600 36.43200

