158

Mg 43.07200 42.82700 26.67900
C  41.78100 45.19100 28.87900
C  44.27600 40.94000 29.26600
C  44.29800 40.75800 24.43700
C  42.16900 45.01900 23.95600
N  43.00200 43.04600 28.81400
C  42.36900 44.05700 29.53700
C  42.42300 43.69900 31.03600
C  43.52300 42.62500 31.14700
C  43.54500 42.08400 29.68200
C  44.84700 43.01100 31.80800
C  41.03300 43.08600 31.45100
C  40.40100 43.43300 32.77200
H  41.25300 43.83700 33.93300
N  44.07000 41.06300 26.80200
C  44.43500 40.44800 27.92400
C  45.02500 39.20700 27.63900
C  44.98200 39.07200 26.19700
C  44.42900 40.34900 25.75500
C  45.67300 38.30500 28.66800
C  45.34900 37.90700 25.36400
O  45.24600 37.87200 24.15800
C  45.82200 36.73800 25.99800
N  43.46400 43.00100 24.52300
C  43.87300 41.92700 23.86800
C  43.88000 42.02000 22.40700
C  42.98800 43.33100 22.25600
C  42.84100 43.83300 23.68400
C  45.28800 42.13100 21.72800
C  41.66400 43.08500 21.34900
C  40.26400 43.00200 22.00200
N  42.28100 44.77300 26.40800
C  42.04300 45.56000 25.24200
C  41.33500 46.75900 25.64700
C  41.26900 46.64500 27.07400
C  41.85900 45.44800 27.48400
C  40.71900 47.84900 24.70900
C  40.76200 47.31300 28.23700
O  40.06400 48.34500 28.34900
C  40.97200 46.32600 29.59000
C  41.85400 47.08300 30.41500
O  42.97100 47.36500 30.13400
O  41.21500 47.25500 31.63300
C  41.99800 47.94200 32.65100
H  44.66200 40.26700 30.03400
H  44.57000 39.91600 23.79800
H  41.78400 45.68500 23.18200
H  42.72800 44.54200 31.65500
H  43.15000 41.88200 31.85200
H  45.12100 42.31700 32.60300
H  44.79600 44.00500 32.25300
H  45.59600 43.08600 31.02000
H  41.02200 41.99600 31.40800
H  40.22100 43.32800 30.76500
H  39.87700 42.51000 33.02200
H  39.63700 44.19900 32.64200
H  45.83400 38.72400 29.66200
H  46.68800 38.13700 28.30800
H  45.20800 37.31900 28.68700
H  46.71900 37.10300 26.49900
H  46.07600 35.99500 25.24200
H  45.01800 36.34400 26.62000
H  43.32100 41.11800 22.15500
H  43.63600 44.08200 21.80400
H  45.49800 43.06100 21.20000
H  45.26300 41.31700 21.00300
H  46.13400 42.06900 22.41300
H  41.70100 42.17100 20.75600
H  41.78600 43.84700 20.57900
H  39.69700 43.87400 21.67500
H  40.29000 42.86800 23.08300
H  39.86400 42.03000 21.71300
H  40.29300 47.29300 23.87400
H  41.49900 48.47200 24.27000
H  39.99500 48.46400 25.24400
H  40.03900 46.00100 30.05200
H  42.74200 48.70000 32.40400
H  42.48400 47.24000 33.32800
H  41.17000 48.45600 33.14000
Mg 36.28700 49.77500 24.72500
C  36.48500 47.85200 27.74500
C  34.82100 52.17500 26.48200
C  35.31600 51.01800 21.70700
C  37.44700 46.90500 23.06100
N  35.57000 49.90500 26.94900
C  35.90800 49.12400 27.93300
C  35.71900 49.84100 29.34000
C  35.04000 51.25000 28.82500
C  35.23500 51.15200 27.35700
C  33.55300 51.50500 29.23400
C  37.06900 50.15900 30.09800
C  37.06400 49.88000 31.61500
H  35.67600 49.85000 32.37000
N  35.29300 51.44200 24.11700
C  34.81500 52.31000 25.01100
C  34.20800 53.39800 24.30600
C  34.38800 53.19800 22.87600
C  34.98200 51.84200 22.85800
C  33.52900 54.60300 25.02500
C  33.93400 54.09000 21.72600
O  33.92900 53.58800 20.64500
C  33.35400 55.51900 21.95400
N  36.12700 48.95300 22.67900
C  35.72800 49.66700 21.66100
C  35.98900 48.98400 20.31400
C  36.92000 47.78400 20.74400
C  36.84800 47.85800 22.22800
C  34.66800 48.61300 19.52300
C  38.43200 47.92500 20.19400
C  39.54000 48.70700 20.98200
N  37.04100 47.83300 25.22800
C  37.50700 46.79400 24.48300
C  37.98000 45.72700 25.34800
C  37.53500 46.08200 26.58500
C  36.94100 47.30500 26.48600
C  38.56200 44.42300 24.87900
C  37.30700 45.65300 27.96000
O  37.58700 44.52600 28.38000
C  36.74900 46.80200 28.79300
C  35.52400 46.36300 29.49000
O  34.46900 46.00300 29.01000
O  35.87400 46.36900 30.80200
C  34.91500 45.92900 31.79500
H  34.33200 52.97600 27.04100
H  35.00000 51.56800 20.81800
H  37.70700 46.03400 22.45600
H  35.00000 49.19400 29.84200
H  35.61500 52.12700 29.12400
H  33.30900 50.95900 30.14500
H  32.83600 51.20400 28.47100
H  33.40700 52.56400 29.44600
H  37.36200 51.18200 29.86600
H  37.79400 49.48400 29.64200
H  37.66500 50.67400 32.05700
H  37.65000 48.97800 31.79000
H  34.13100 55.48500 24.80700
H  33.41600 54.52900 26.10600
H  32.54600 54.83200 24.61600
H  33.32300 56.00900 20.98100
H  33.86100 56.18400 22.65300
H  32.31400 55.46000 22.27400
H  36.62000 49.66000 19.73900
H  36.50600 46.80000 20.52300
H  34.76200 47.58700 19.16600
H  34.46200 49.25800 18.66900
H  33.78100 48.68700 20.15200
H  38.43400 48.14400 19.12600
H  38.70100 46.87400 20.09600
H  39.02200 49.27400 21.75500
H  39.97300 49.31900 20.19100
H  40.27700 47.96900 21.29900
H  39.38400 44.09600 25.51600
H  38.89100 44.37600 23.84100
H  37.79500 43.64800 24.84900
H  37.52200 47.08400 29.50700
H  34.98800 44.87000 32.04100
H  33.96400 46.34200 31.45600
H  35.23200 46.34400 32.75100

