158

Mg 8.57600 4.49800 27.61600
C  9.91400 2.86000 30.40400
C  6.67000 6.45900 29.69400
C  7.27200 5.93400 24.93700
C  10.10000 2.14700 25.52500
N  8.34600 4.60800 29.81800
C  9.04500 3.91700 30.73300
C  8.74300 4.39000 32.18800
C  7.72300 5.57600 31.92500
C  7.50000 5.53700 30.33900
C  6.36300 5.48900 32.65800
C  9.95900 4.72000 33.12600
C  9.77500 5.89500 34.07600
H  10.11700 5.56300 35.50200
N  7.14900 5.98700 27.38400
C  6.49500 6.71200 28.32000
C  5.61700 7.74700 27.74900
C  5.83700 7.55900 26.33500
C  6.79000 6.39900 26.15300
C  4.77800 8.69900 28.52600
C  5.32400 8.38300 25.17300
O  5.44500 8.05700 24.01100
C  4.72100 9.69900 25.47200
N  8.65600 4.06000 25.50700
C  8.10700 4.82600 24.56400
C  8.41400 4.40600 23.11700
C  9.31800 3.21000 23.34900
C  9.45300 3.14600 24.85300
C  7.15900 4.12800 22.34100
C  10.70400 3.27200 22.67200
C  11.15100 1.92500 22.12500
N  9.73300 2.85200 27.87400
C  10.26900 1.99900 26.93400
C  11.04000 0.97200 27.62600
C  11.00500 1.34200 28.98900
C  10.13300 2.41100 29.07900
C  11.71400 -0.19200 27.02200
C  11.44800 0.97400 30.31200
O  12.24500 0.09500 30.54700
C  10.77700 1.99000 31.32200
C  9.94300 1.24900 32.43000
O  8.78600 0.83300 32.34100
O  10.76900 1.23000 33.51500
C  10.09500 0.78700 34.73200
H  6.13200 7.11300 30.38200
H  6.86500 6.42000 24.04700
H  10.64200 1.46300 24.86800
H  8.20000 3.65800 32.78600
H  8.20900 6.52500 32.15300
H  5.46100 5.49300 32.04600
H  6.37300 6.39200 33.26800
H  6.29700 4.64600 33.34500
H  10.85100 4.89100 32.52400
H  10.29600 3.80900 33.62100
H  8.80600 6.39400 34.10900
H  10.37900 6.68400 33.62700
H  5.18800 9.70800 28.51600
H  4.64900 8.30800 29.53500
H  3.78800 8.74900 28.07000
H  5.44200 10.23400 26.08900
H  3.82000 9.37400 25.99200
H  4.43200 10.20300 24.55000
H  8.96300 5.29700 22.81400
H  8.71700 2.32600 23.13700
H  6.32200 3.91500 23.00600
H  7.16000 3.25800 21.68400
H  7.01200 5.07100 21.81400
H  11.45100 3.66300 23.36300
H  10.71900 4.04600 21.90400
H  10.38700 1.15000 22.06700
H  11.96600 1.55900 22.74900
H  11.64500 2.00900 21.15600
H  11.01700 -0.49900 26.24200
H  11.79900 -1.00000 27.74800
H  12.64800 0.05100 26.51500
H  11.57300 2.58600 31.76800
H  9.60200 1.59400 35.27400
H  10.74600 0.36800 35.49900
H  9.33600 0.04500 34.48500
Mg 41.79000 8.26500 29.48300
C  43.54900 9.29200 32.21800
C  39.59100 6.56000 31.65400
C  39.85000 7.23900 26.88500
C  44.03500 9.52800 27.38400
N  41.73700 7.82800 31.67400
C  42.48300 8.49400 32.59400
C  41.91300 8.28200 34.03600
C  40.76300 7.17900 33.76900
C  40.68800 7.18500 32.25200
C  40.90700 5.78400 34.40700
C  41.47500 9.62500 34.72800
C  40.70000 9.67400 36.10300
H  41.27500 10.47900 37.27200
N  39.83700 7.11400 29.27200
C  39.09600 6.50000 30.28700
C  37.83200 6.11300 29.77100
C  37.90300 6.30800 28.32900
C  39.24600 6.86100 28.13800
C  36.76100 5.56500 30.74400
C  36.80200 6.12800 27.24300
O  36.92600 6.34000 26.08300
C  35.34500 5.71200 27.71600
N  42.09900 8.10300 27.51000
C  41.14800 7.67100 26.57000
C  41.60100 7.72300 25.17500
C  42.68800 8.78400 25.25300
C  42.99700 8.80600 26.80800
C  42.22400 6.35600 24.88200
C  42.18000 10.14700 24.70900
C  43.14300 10.87200 23.75500
N  43.59500 9.10000 29.69800
C  44.42000 9.63400 28.76600
C  45.57600 10.22500 29.37200
C  45.23500 10.15700 30.76900
C  44.03100 9.45400 30.87400
C  46.85900 10.85100 28.74300
C  45.62200 10.58300 32.13100
O  46.56600 11.24300 32.49600
C  44.47300 10.06400 33.13100
C  45.07200 9.29900 34.24500
O  45.70200 8.28200 34.14700
O  44.75600 9.80600 35.44000
C  45.19000 9.11600 36.60700
H  38.90700 6.18000 32.41600
H  39.25100 6.97900 26.01000
H  44.67000 10.00000 26.63100
H  42.80600 7.86600 34.50300
H  39.80200 7.58900 34.07900
H  41.73400 5.76200 35.11800
H  41.13200 5.01300 33.67100
H  39.98400 5.56800 34.94400
H  41.01700 10.28600 33.99300
H  42.41900 10.14500 34.89300
H  40.42800 8.68600 36.47300
H  39.76900 10.15600 35.80500
H  37.00800 5.50700 31.80400
H  36.36600 4.57600 30.51100
H  35.91500 6.22500 30.55200
H  34.91800 6.65000 28.07100
H  35.44800 4.93900 28.47800
H  34.80500 5.35400 26.83900
H  40.82800 7.82400 24.41200
H  43.58000 8.64200 24.64300
H  43.29500 6.46300 24.71200
H  41.96600 6.03600 23.87300
H  41.98200 5.56600 25.59300
H  41.98000 10.82700 25.53700
H  41.25500 10.09200 24.13500
H  44.05000 10.28700 23.59800
H  43.42900 11.83600 24.17500
H  42.70300 11.08000 22.78000
H  47.14200 11.75900 29.27500
H  46.77900 10.99300 27.66500
H  47.63500 10.13800 29.02000
H  43.95200 10.95000 33.49400
H  46.21800 9.46800 36.68400
H  45.11500 8.02800 36.57900
H  44.58700 9.47000 37.44300

