158

Mg 35.64300 1.87300 29.89500
C  33.46500 3.17500 32.34500
C  38.21700 2.11600 32.19600
C  37.85800 1.60600 27.36500
C  33.17100 2.54500 27.41900
N  35.83700 2.75000 31.91400
C  34.81500 2.90100 32.77600
C  35.16400 2.84200 34.22200
C  36.76400 2.85400 34.16000
C  36.98900 2.62000 32.60700
C  37.45900 4.15700 34.63000
C  34.54000 1.71900 35.10400
C  34.43900 2.08300 36.60100
H  35.15200 3.25800 37.19400
N  37.69900 1.55600 29.80500
C  38.49600 1.60700 30.87300
C  39.78400 1.09900 30.43600
C  39.78700 1.14400 28.98600
C  38.42000 1.44100 28.66000
C  40.94300 0.86500 31.36100
C  40.90000 0.86100 27.99500
O  40.78900 0.90600 26.79400
C  42.31000 0.46500 28.45200
N  35.51300 1.94600 27.70500
C  36.54900 1.78900 26.95300
C  36.17500 1.74000 25.45000
C  34.61400 1.74800 25.48600
C  34.37000 1.99300 26.98400
C  36.80400 2.97200 24.58000
C  33.93500 0.44900 24.97000
C  33.36600 0.59200 23.51900
N  33.65400 2.61800 29.91900
C  32.80600 2.87900 28.78000
C  31.56500 3.34500 29.29600
C  31.74100 3.41800 30.72500
C  33.05500 3.03700 31.02500
C  30.42300 3.73400 28.40800
C  31.09200 3.82800 31.94700
O  30.01300 4.32700 32.18900
C  32.17400 3.62200 33.09200
C  32.30500 4.88800 33.87700
O  33.29300 5.65000 33.86400
O  31.25100 4.97500 34.72300
C  31.08400 6.13600 35.59700
H  38.98900 2.17000 32.96600
H  38.46300 1.40800 26.47800
H  32.53400 2.73700 26.55200
H  34.80400 3.80400 34.58600
H  37.27200 2.06600 34.71700
H  38.08000 3.94300 35.50000
H  36.78100 4.89200 35.06300
H  37.97200 4.68100 33.82400
H  35.22600 0.88600 34.95300
H  33.52600 1.58800 34.72500
H  34.85500 1.17100 37.03000
H  33.37400 2.30400 36.67600
H  41.29700 -0.16400 31.29500
H  40.58700 0.90200 32.39100
H  41.73100 1.58700 31.14300
H  42.36500 -0.26400 29.26000
H  42.61700 1.39300 28.93400
H  42.88800 0.14400 27.58500
H  36.69400 0.87400 25.04000
H  34.28700 2.63500 24.94300
H  36.99100 2.64000 23.55900
H  37.81300 3.14100 24.95400
H  36.16800 3.85800 24.56300
H  33.18600 0.18200 25.71500
H  34.64400 -0.36700 24.82800
H  32.31100 0.57400 23.79400
H  33.57000 -0.25100 22.85800
H  33.55600 1.54200 23.02000
H  30.11100 2.96700 27.69900
H  30.76400 4.67900 27.98500
H  29.52900 3.82300 29.02600
H  31.87200 2.80700 33.74900
H  30.24900 5.74500 36.17800
H  30.78200 7.09000 35.16400
H  31.86600 6.32000 36.33200
Mg 6.59800 53.96900 41.79200
C  5.71200 50.72300 41.16600
C  9.71700 53.43600 40.42100
C  7.13300 57.35200 41.81100
C  3.20900 54.67200 42.74400
N  7.53100 52.31800 40.81900
C  7.02800 51.05900 40.60600
C  8.11200 50.09000 40.10100
C  9.44800 50.90500 40.35500
C  8.89600 52.29300 40.51800
C  10.32400 50.49900 41.58100
C  7.92500 49.60900 38.65600
C  6.95800 50.46800 37.77000
H  7.51900 51.39400 36.71400
N  8.13900 55.18000 41.31000
C  9.38800 54.72900 40.82400
C  10.28200 55.88800 40.60100
C  9.54700 57.00900 41.04000
C  8.22600 56.56900 41.40300
C  11.59600 55.87100 39.93100
C  10.18200 58.38200 41.23800
O  11.27100 58.73900 40.88400
C  9.43900 59.50900 41.92500
N  5.28700 55.75500 42.07500
C  5.81600 56.97400 42.10700
C  4.77900 58.08700 42.43400
C  3.42300 57.26400 42.44700
C  3.95600 55.79200 42.36800
C  5.05700 58.80000 43.79200
C  2.49100 57.65000 41.27200
C  0.96600 57.73400 41.53500
N  4.81300 52.98000 41.81700
C  3.51700 53.32200 42.39200
C  2.76200 52.12100 42.59000
C  3.53400 51.12500 41.99800
C  4.77700 51.74100 41.62100
C  1.42100 51.97800 43.21800
C  3.57200 49.70300 41.74400
O  2.75200 48.80900 41.99900
C  5.02700 49.37200 41.30300
C  4.97000 48.55400 40.04800
O  4.63200 48.87800 38.94400
O  5.28800 47.30400 40.38200
C  5.32500 46.25100 39.38000
H  10.72700 53.21000 40.07400
H  7.25900 58.43400 41.73600
H  2.22500 54.93300 43.14100
H  8.10200 49.25600 40.80300
H  10.14600 50.85400 39.51800
H  11.32700 50.27900 41.21600
H  9.95600 49.60000 42.07600
H  10.43800 51.30500 42.30700
H  7.67500 48.56000 38.81300
H  8.90700 49.54900 38.18700
H  6.25100 50.99800 38.40800
H  6.44500 49.66700 37.23800
H  11.48900 54.99300 39.29400
H  12.49700 55.70400 40.52000
H  11.64300 56.73600 39.26900
H  8.72200 59.97900 41.25200
H  10.23500 60.22800 42.11900
H  8.97300 59.19400 42.85800
H  4.80500 58.76500 41.58100
H  2.81400 57.35500 43.34700
H  4.24300 58.57800 44.48300
H  5.26300 59.85100 43.59100
H  5.94400 58.29900 44.18000
H  2.54200 56.84000 40.54500
H  2.79900 58.54900 40.73900
H  0.42900 57.53000 40.60900
H  0.72400 58.74500 41.86400
H  0.70200 56.99300 42.28900
H  1.40300 50.95700 43.60000
H  0.53200 52.00600 42.58800
H  1.30900 52.78600 43.94000
H  5.48700 48.85900 42.14700
H  4.42600 45.64400 39.48500
H  6.24100 45.66700 39.47200
H  5.42800 46.65700 38.37300

