158

Mg -0.07300 6.87700 25.65400
C  1.05300 9.06400 28.09000
C  -0.01400 4.34100 27.94700
C  -0.89800 4.77000 23.27700
C  0.35200 9.50100 23.37700
N  0.57400 6.65900 27.76000
C  0.82700 7.74300 28.57700
C  0.95300 7.33500 30.02800
C  0.99500 5.74400 29.95300
C  0.42800 5.55600 28.52100
C  2.30000 5.07600 30.25100
C  -0.12200 7.98600 31.04500
C  -0.07300 7.51500 32.46800
H  1.22900 7.50500 33.18600
N  -0.47400 4.84400 25.63000
C  -0.43400 3.98600 26.66000
C  -0.99600 2.70000 26.21300
C  -1.38300 2.79000 24.82000
C  -0.86400 4.17600 24.52900
C  -1.14200 1.52800 27.20100
C  -2.02600 1.81500 23.83500
O  -2.37800 2.17500 22.70600
C  -2.12900 0.46700 24.23800
N  -0.17300 7.14000 23.65700
C  -0.48900 6.09600 22.84200
C  -0.86200 6.54300 21.43000
C  -0.52000 8.04400 21.49100
C  -0.04900 8.27300 22.92100
C  -0.09100 5.77200 20.31400
C  -1.63200 9.00200 21.11700
C  -1.05900 10.19600 20.31800
N  0.56900 8.88600 25.72900
C  0.64500 9.83500 24.69100
C  1.14700 11.07500 25.18600
C  1.22000 10.84500 26.57100
C  0.90300 9.50800 26.83000
C  1.38100 12.25300 24.35500
C  1.50900 11.47900 27.86300
O  1.81700 12.66200 28.16000
C  1.28400 10.33100 28.90400
C  2.32100 10.30300 29.95800
O  3.46200 9.84100 29.82300
O  1.84000 10.90000 31.16100
C  2.98000 11.00300 32.04100
H  0.15800 3.57300 28.70400
H  -1.17800 4.20200 22.38700
H  0.47100 10.29000 22.63200
H  1.91100 7.75100 30.34300
H  0.26900 5.29100 30.62800
H  2.68800 4.69200 29.30700
H  2.19900 4.30100 31.01100
H  3.00500 5.79300 30.67000
H  -1.12400 7.92200 30.62000
H  0.10900 9.05100 31.04800
H  -0.53100 6.53100 32.56500
H  -0.83700 8.16700 32.89300
H  -1.92600 1.50800 27.95800
H  -0.14600 1.57400 27.64100
H  -1.03300 0.58700 26.66200
H  -2.81500 0.48500 25.08600
H  -1.10300 0.18400 24.47100
H  -2.53300 -0.25200 23.52500
H  -1.93600 6.38200 21.34000
H  0.27800 8.26700 20.78200
H  0.45300 4.87900 20.62200
H  0.57200 6.46800 19.80100
H  -0.83300 5.41100 19.60100
H  -2.16600 9.31500 22.01400
H  -2.40800 8.54000 20.50700
H  -1.51900 10.22800 19.33100
H  0.02500 10.29400 20.24700
H  -1.36700 11.04300 20.93200
H  2.16000 11.83600 23.71700
H  1.77200 13.10000 24.91900
H  0.53500 12.42300 23.68900
H  0.33700 10.75400 29.23800
H  3.82000 11.52100 31.57700
H  3.44700 10.15400 32.53900
H  2.56500 11.60200 32.85200
Mg 35.00600 3.07800 30.18000
C  32.69500 3.98300 32.80900
C  37.35300 3.18000 32.45600
C  37.07500 2.62800 27.63100
C  32.29200 3.45300 27.97500
N  34.99400 3.41400 32.37300
C  33.96100 3.60900 33.26100
C  34.41100 3.63900 34.71500
C  35.97000 3.68200 34.54100
C  36.15000 3.45600 33.02900
C  36.76100 4.97100 34.87800
C  33.91200 2.40800 35.46100
C  33.61400 2.56000 36.96200
H  34.34500 3.63900 37.78700
N  36.90400 2.84800 30.03600
C  37.79100 2.81600 31.09400
C  39.11200 2.63300 30.61300
C  39.04600 2.43300 29.19900
C  37.61000 2.58300 28.89000
C  40.25800 2.50900 31.54100
C  40.20200 2.06400 28.16000
O  40.03400 1.91200 26.94000
C  41.61900 1.85000 28.67300
N  34.76900 3.03000 28.07300
C  35.75800 2.79900 27.22100
C  35.25700 2.50900 25.79800
C  33.70100 2.72000 25.88900
C  33.54200 3.09600 27.40400
C  36.02100 3.33100 24.71000
C  32.80700 1.52800 25.50000
C  33.16400 0.15600 26.14700
N  32.99100 3.67100 30.28100
C  31.99800 3.76700 29.34600
C  30.82200 4.29500 29.93500
C  31.06400 4.31000 31.27800
C  32.39300 3.95700 31.47800
C  29.59400 4.57100 29.12900
C  30.35700 4.67500 32.47300
O  29.20700 5.11800 32.68500
C  31.41000 4.40600 33.61100
C  31.53900 5.61900 34.50700
O  31.92500 6.67400 34.13400
O  30.94800 5.36000 35.72000
C  30.65900 6.45100 36.69000
H  38.04300 2.99600 33.28200
H  37.76600 2.42300 26.81100
H  31.49200 3.50000 27.23200
H  34.27400 4.60100 35.21000
H  36.49400 2.97400 35.18400
H  37.76000 4.83500 35.29200
H  36.11800 5.54400 35.54500
H  36.92500 5.56700 33.98000
H  34.60600 1.60600 35.20900
H  32.96500 2.22700 34.95400
H  33.60000 1.62400 37.51900
H  32.56700 2.86200 36.98500
H  40.87100 3.41100 31.53000
H  40.86100 1.66000 31.22000
H  39.86600 2.37300 32.54900
H  42.27800 1.88500 27.80600
H  41.61300 0.85500 29.11800
H  41.93400 2.61200 29.38600
H  35.49800 1.47100 25.56800
H  33.40800 3.52200 25.21200
H  36.65600 4.08900 25.17000
H  35.35900 3.76200 23.95900
H  36.70800 2.59300 24.29700
H  32.89400 1.36600 24.42600
H  31.75000 1.66500 25.72900
H  32.40900 -0.31500 26.77600
H  34.02000 0.36700 26.78700
H  33.44700 -0.58900 25.40400
H  29.55500 3.96300 28.22500
H  29.53700 5.62700 28.86600
H  28.74100 4.37400 29.78000
H  31.05000 3.50800 34.11300
H  31.20700 6.32400 37.62300
H  29.64200 6.45500 37.08100
H  30.79600 7.42700 36.22300

