158

Mg -2.30900 34.95800 27.12000
C  -4.01800 33.27200 29.76400
C  -0.77600 36.88500 29.49500
C  -0.70000 36.65100 24.64700
C  -4.18700 33.20600 24.85300
N  -2.40000 35.09700 29.48800
C  -3.13600 34.22700 30.32300
C  -2.86900 34.54000 31.80900
C  -2.03100 35.93000 31.68600
C  -1.67500 35.97400 30.15700
C  -2.73600 37.23600 32.06400
C  -1.99400 33.37200 32.48400
C  -2.68300 32.79000 33.78900
H  -1.79900 32.66800 35.07700
N  -0.84300 36.47800 27.06300
C  -0.41600 37.18200 28.13600
C  0.54800 38.15400 27.68900
C  0.66000 38.06700 26.31900
C  -0.26400 37.00100 25.96800
C  1.23000 39.10500 28.65100
C  1.56500 38.80200 25.33000
O  1.73800 38.36200 24.22500
C  2.40400 39.99000 25.82400
N  -2.48100 35.00100 25.02700
C  -1.64600 35.73400 24.20100
C  -1.92900 35.49300 22.75900
C  -2.99100 34.34100 22.77900
C  -3.34000 34.15200 24.28600
C  -2.44100 36.76600 21.95000
C  -2.63200 32.98500 22.10300
C  -1.44300 32.22200 22.74500
N  -3.84400 33.63000 27.23100
C  -4.51200 32.94700 26.18100
C  -5.29500 31.88600 26.67300
C  -5.04500 32.02500 28.07300
C  -4.24100 33.08300 28.36600
C  -6.16800 30.87800 25.98900
C  -5.45700 31.35600 29.29600
O  -6.27200 30.45900 29.43600
C  -4.88000 32.17600 30.45600
C  -5.97200 32.49700 31.42700
O  -6.84100 33.28900 31.14700
O  -5.96400 31.67400 32.52500
C  -7.02300 31.71200 33.50200
H  -0.13600 37.40100 30.21300
H  -0.23900 37.19600 23.82100
H  -4.67600 32.52600 24.15400
H  -3.84900 34.73300 32.24500
H  -1.14200 35.85300 32.31200
H  -3.16700 37.75500 31.20700
H  -2.07100 37.90300 32.61300
H  -3.54200 36.99900 32.75900
H  -1.02800 33.68700 32.87900
H  -1.90600 32.56000 31.76200
H  -2.97000 31.76400 33.56000
H  -3.61300 33.34200 33.92600
H  0.83000 40.07500 28.35600
H  2.31500 39.06800 28.54700
H  0.95200 38.90800 29.68600
H  1.80000 40.66200 26.43300
H  2.86500 40.49200 24.97300
H  3.23300 39.52800 26.36000
H  -1.09100 35.12400 22.16800
H  -3.86100 34.74400 22.26100
H  -3.45500 36.58500 21.59400
H  -1.71000 37.03200 21.18700
H  -2.35200 37.63700 22.59900
H  -2.41900 33.22800 21.06200
H  -3.56100 32.41600 22.12500
H  -0.75800 32.00300 21.92700
H  -1.90800 31.28400 23.05100
H  -0.92400 32.65900 23.59900
H  -7.08100 30.60900 26.52000
H  -5.63800 30.02800 25.55700
H  -6.55200 31.45200 25.14700
H  -4.08000 31.60000 30.92200
H  -6.75500 32.42700 34.28000
H  -7.26500 30.75700 33.96800
H  -7.89400 32.18700 33.05000
Mg -5.90600 25.84100 26.35400
C  -4.66300 27.22700 29.24600
C  -7.86300 23.65700 28.55400
C  -6.46200 23.71700 23.81700
C  -3.59200 27.59900 24.52000
N  -6.32700 25.54500 28.64200
C  -5.60200 26.18900 29.58000
C  -6.06800 25.76800 30.97400
C  -6.78300 24.42200 30.73600
C  -7.01700 24.53600 29.24000
C  -6.03200 23.09900 31.24400
C  -7.00600 26.86800 31.58600
C  -6.88200 26.94100 33.17800
H  -6.14100 25.87900 34.00400
N  -7.07100 24.07200 26.17000
C  -7.88400 23.44200 27.10900
C  -8.72900 22.45400 26.45000
C  -8.26200 22.38900 25.08300
C  -7.20400 23.41700 24.93500
C  -9.78900 21.72900 27.14100
C  -8.74100 21.42200 23.99200
O  -8.11900 21.34400 22.98000
C  -10.00500 20.61800 24.11600
N  -5.08000 25.65400 24.52000
C  -5.52100 24.77500 23.57300
C  -4.86100 25.02000 22.17500
C  -4.17100 26.36500 22.40600
C  -4.24300 26.57200 23.96100
C  -3.97600 23.84300 21.70300
C  -4.68100 27.65600 21.59700
C  -3.53100 28.42400 20.75500
N  -4.51200 27.27200 26.80100
C  -3.57600 27.92100 25.95400
C  -2.83200 28.88500 26.63600
C  -3.21400 28.65900 27.94900
C  -4.25500 27.68300 27.97700
C  -1.90300 29.80100 25.94700
C  -3.00100 29.09900 29.35700
O  -2.31700 29.94100 29.85500
C  -3.84400 28.07500 30.21800
C  -2.91900 27.37700 31.22100
O  -2.24600 26.36900 31.07000
O  -2.85700 28.11500 32.37600
C  -2.15000 27.36300 33.48000
H  -8.31900 22.91400 29.21100
H  -6.57300 22.96700 23.03200
H  -2.94800 28.20000 23.87400
H  -5.08500 25.65300 31.43100
H  -7.71900 24.46700 31.29200
H  -6.16100 22.28100 30.53600
H  -6.39100 22.80900 32.23200
H  -5.00800 23.35300 31.51700
H  -8.04100 26.58000 31.40100
H  -6.82900 27.85600 31.16200
H  -7.94500 27.05700 33.38900
H  -6.39700 27.90300 33.34000
H  -10.78100 22.01600 26.79300
H  -9.66500 21.85500 28.21600
H  -9.55300 20.66500 27.13600
H  -9.75800 19.75800 24.73800
H  -10.34200 20.25000 23.14700
H  -10.63700 21.34800 24.62200
H  -5.64600 25.11800 21.42500
H  -3.14300 26.26200 22.06000
H  -3.99300 23.16000 22.55200
H  -2.92100 24.11900 21.68600
H  -4.36600 23.34200 20.81700
H  -5.23500 28.30100 22.27900
H  -5.46400 27.31500 20.91900
H  -3.54000 29.49100 20.97700
H  -3.83800 28.20700 19.73200
H  -2.54500 27.98900 20.91600
H  -1.95000 29.73700 24.86000
H  -0.87500 29.50100 26.15300
H  -2.06500 30.84600 26.21000
H  -4.55200 28.64900 30.81600
H  -1.12900 27.74100 33.42300
H  -2.19800 26.27500 33.51700
H  -2.61800 27.75200 34.38400

