158

Mg 47.39900 25.32500 28.48200
C  48.08200 27.38800 31.22000
C  47.04400 22.75000 30.70300
C  46.99900 23.26900 25.86600
C  48.13900 27.82500 26.30700
N  47.74000 25.06600 30.73600
C  47.73200 26.12400 31.62100
C  47.43400 25.61600 33.00700
C  47.18800 24.06200 32.87000
C  47.39600 23.89100 31.37200
C  48.17500 23.23600 33.76600
C  46.25900 26.40300 33.75600
C  45.86400 26.00700 35.17200
H  45.96300 27.08300 36.24000
N  46.96400 23.34300 28.30900
C  46.87300 22.42100 29.31700
C  46.54500 21.05900 28.83900
C  46.42300 21.23200 27.37500
C  46.71800 22.69900 27.15400
C  46.51700 19.75600 29.67000
C  46.06300 20.21400 26.34000
O  46.13600 20.41900 25.15200
C  45.62500 18.84500 26.85300
N  47.58000 25.53400 26.35900
C  47.47600 24.51300 25.51900
C  47.59500 24.96300 24.05900
C  47.72500 26.52300 24.25600
C  47.80800 26.64000 25.73700
C  48.72000 24.36600 23.24800
C  46.52700 27.26900 23.59400
C  46.98100 28.59800 22.90800
N  48.10300 27.19600 28.68200
C  48.39000 28.08900 27.65200
C  48.84100 29.37000 28.30600
C  48.70200 29.12700 29.71400
C  48.24400 27.78500 29.82800
C  49.52200 30.48800 27.62300
C  48.88700 29.74500 31.04400
O  49.37000 30.79700 31.42100
C  48.25800 28.69800 32.02600
C  49.23900 28.44000 33.12600
O  50.36800 28.04700 32.92700
O  48.75000 28.81200 34.38700
C  49.55000 28.36400 35.54300
H  46.83200 21.98200 31.45000
H  46.76900 22.58100 25.05000
H  48.39100 28.58200 25.56100
H  48.31000 25.77300 33.63700
H  46.14300 23.87800 33.12300
H  47.69100 22.31900 34.10400
H  48.43400 23.69200 34.72200
H  49.07200 23.01800 33.18800
H  45.37400 26.40800 33.12000
H  46.56500 27.44900 33.74200
H  46.50300 25.16200 35.42800
H  44.88200 25.57300 34.98300
H  45.54300 19.45000 30.05100
H  47.17500 19.82200 30.53700
H  46.93300 18.96300 29.04800
H  45.08300 18.36700 26.03700
H  44.93300 18.89300 27.69400
H  46.50900 18.23200 27.03300
H  46.63200 24.61700 23.68300
H  48.63700 26.84900 23.75700
H  49.45900 25.16300 23.15800
H  48.40200 23.94400 22.29500
H  49.15800 23.57800 23.86100
H  45.80300 27.36800 24.40300
H  46.05400 26.74700 22.76200
H  48.04700 28.82400 22.90000
H  46.47300 29.48900 23.27600
H  46.75400 28.56100 21.84300
H  50.39200 30.81300 28.19400
H  48.89300 31.34100 27.87700
H  49.65900 30.20000 26.58100
H  47.38600 29.11600 32.53000
H  50.40900 29.01100 35.71800
H  49.98000 27.37400 35.38800
H  48.93700 28.37100 36.44400
Mg 26.48300 50.85100 26.43300
C  24.56700 51.93200 29.01100
C  28.89700 49.83100 28.82700
C  28.31600 49.37300 24.04100
C  24.45800 52.29300 24.13200
N  26.81700 51.12500 28.72800
C  25.73600 51.29900 29.49400
C  26.07100 51.11200 31.00900
C  27.65100 50.90000 30.85500
C  27.82100 50.55900 29.38400
C  28.56000 52.04500 31.37100
C  25.27100 50.00500 31.62300
C  24.85900 50.28200 33.12100
H  25.88000 50.70000 34.24600
N  28.37500 49.81600 26.38800
C  29.17900 49.47400 27.51500
C  30.22900 48.63100 27.10700
C  30.10500 48.45800 25.64600
C  28.90000 49.25300 25.28300
C  31.27100 48.05700 27.97600
C  30.82500 47.58900 24.77000
O  30.61700 47.47500 23.62600
C  31.96500 46.70100 25.26200
N  26.48800 50.90800 24.32400
C  27.22100 50.07300 23.56500
C  26.60200 49.84600 22.19500
C  25.22300 50.76500 22.26300
C  25.38000 51.36000 23.63300
C  27.54600 50.13700 20.97400
C  23.87200 50.04600 22.04100
C  22.81600 50.67500 21.06300
N  24.87100 51.99500 26.54700
C  24.10900 52.52900 25.46800
C  22.95800 53.21900 26.08500
C  23.07400 52.98900 27.44800
C  24.24900 52.26200 27.69400
C  21.86600 53.86900 25.36600
C  22.40500 53.17900 28.71200
O  21.27600 53.62600 28.95400
C  23.38000 52.52400 29.85200
C  23.81000 53.61500 30.75500
O  24.66400 54.46600 30.51700
O  23.08600 53.67300 31.95300
C  23.58200 54.66100 33.01800
H  29.63700 49.56500 29.58500
H  28.79300 48.82200 23.22800
H  23.65100 52.54600 23.44100
H  26.00900 52.01000 31.62300
H  28.00800 50.01600 31.38500
H  27.90900 52.83900 31.73700
H  29.19800 52.44100 30.58100
H  29.08700 51.67100 32.24800
H  25.86400 49.09100 31.58900
H  24.36300 49.83700 31.04400
H  24.32400 49.43300 33.54700
H  24.07400 51.03500 33.04000
H  31.18600 48.44400 28.99200
H  32.25000 48.37400 27.61500
H  31.39200 46.98300 27.83700
H  32.66300 47.38600 25.74300
H  32.39700 46.21300 24.38800
H  31.43000 46.01000 25.91400
H  26.30900 48.81000 22.02500
H  25.37100 51.66100 21.66000
H  27.24100 50.96800 20.33800
H  27.53100 49.25200 20.33700
H  28.57600 50.39400 21.21900
H  23.40500 50.07700 23.02600
H  24.13800 49.02300 21.77500
H  22.47600 49.84300 20.44700
H  23.16800 51.43200 20.36200
H  21.95900 51.13800 21.55300
H  21.13000 54.28800 26.05200
H  21.30700 53.22800 24.68300
H  22.30000 54.57100 24.65400
H  22.77300 51.75600 30.33200
H  22.89900 54.80000 33.85600
H  23.70300 55.61400 32.50400
H  24.50900 54.32500 33.48200

