158

Mg 25.69300 50.57000 27.14600
C  23.63600 51.47100 29.70600
C  28.14700 49.76800 29.46400
C  27.74500 49.98000 24.48900
C  23.17300 51.52300 24.73700
N  25.93700 50.70400 29.40400
C  24.82600 50.95100 30.18000
C  25.20000 50.63800 31.69400
C  26.68400 50.27900 31.58700
C  26.97200 50.21200 30.05000
C  27.72800 51.12800 32.40500
C  24.27400 49.48900 32.34000
C  23.24600 49.93300 33.33600
H  23.33200 49.29000 34.72300
N  27.64300 49.95500 26.95700
C  28.44900 49.71400 28.06600
C  29.75200 49.25900 27.54800
C  29.71800 49.27900 26.08400
C  28.33500 49.76800 25.77500
C  30.89700 48.93800 28.42400
C  30.73900 48.70300 25.10200
O  30.52800 48.83000 23.88400
C  31.90200 47.72700 25.53100
N  25.51100 50.90400 24.96200
C  26.50800 50.48700 24.14700
C  26.07600 50.48600 22.63200
C  24.55200 50.92700 22.72300
C  24.40400 51.14400 24.22300
C  27.05300 51.23800 21.70400
C  23.53800 49.91700 22.15500
C  22.62800 50.35200 20.95000
N  23.89900 51.52000 27.18500
C  22.97600 51.80600 26.15700
C  21.82900 52.44900 26.79100
C  22.02000 52.29800 28.16400
C  23.28400 51.70200 28.34600
C  20.67600 53.18400 26.09600
C  21.44700 52.46300 29.48300
O  20.41900 53.01500 29.88300
C  22.44000 51.94600 30.50300
C  22.71400 53.17200 31.42400
O  23.30200 54.17300 31.06800
O  22.09600 52.94300 32.63600
C  22.22200 54.04900 33.63100
H  28.85800 49.41800 30.21600
H  28.33600 49.68500 23.61900
H  22.35400 51.87100 24.10500
H  25.08200 51.58900 32.21200
H  26.85000 49.27300 31.97300
H  28.14600 51.93400 31.80100
H  28.53200 50.48900 32.76800
H  27.27400 51.69500 33.21700
H  24.94100 48.81200 32.87400
H  23.87600 48.97500 31.46500
H  22.24000 49.85100 32.92500
H  23.50900 50.96700 33.56000
H  31.14000 47.87800 28.48800
H  30.88000 49.33500 29.43900
H  31.58800 49.46300 27.76300
H  32.56100 48.16400 26.28100
H  32.33100 47.29800 24.62600
H  31.43500 46.88200 26.03700
H  26.05200 49.45300 22.28800
H  24.35200 51.90900 22.29500
H  27.42800 50.50200 20.99200
H  27.87100 51.66600 22.28300
H  26.56600 52.04200 21.15200
H  22.91500 49.66800 23.01400
H  23.94000 48.91700 21.99200
H  22.57600 49.50200 20.27000
H  23.02400 51.24400 20.46500
H  21.65300 50.51200 21.41100
H  20.28300 53.88900 26.82800
H  20.03000 52.45500 25.60700
H  21.09800 53.69600 25.23000
H  21.91400 51.12100 30.98500
H  22.71700 54.93900 33.24200
H  22.76900 53.72700 34.51700
H  21.21100 54.35700 33.89600
Mg 15.64400 51.10300 26.48500
C  17.91300 50.47500 29.14100
C  13.38200 52.09000 28.74200
C  13.55200 51.24200 23.96000
C  18.19400 50.04200 24.19900
N  15.77400 51.41000 28.67600
C  16.74700 51.01000 29.60000
C  16.35400 51.27100 31.02500
C  14.79100 51.57700 30.87500
C  14.59900 51.66300 29.34600
C  13.96700 50.34200 31.41100
C  17.15200 52.43900 31.62700
C  17.88000 52.13600 32.94700
H  17.00700 51.53900 34.00500
N  13.77500 51.65000 26.35400
C  12.99800 52.09400 27.38500
C  11.60700 52.27600 26.86000
C  11.64600 52.00300 25.48400
C  13.05400 51.61700 25.21800
C  10.51000 52.65500 27.82900
C  10.48900 52.15300 24.42500
O  10.61700 51.83400 23.22700
C  9.10200 52.43900 24.94400
N  15.88500 50.78200 24.30200
C  14.81900 50.84400 23.49200
C  15.14400 50.39400 22.05200
C  16.65800 50.00700 22.20300
C  16.98100 50.32300 23.66500
C  14.24800 49.33800 21.35000
C  17.58100 50.89000 21.26700
C  18.61800 50.10500 20.53300
N  17.49100 50.27600 26.58000
C  18.42900 49.96800 25.63100
C  19.68900 49.52600 26.20500
C  19.51700 49.64100 27.59500
C  18.17200 50.15100 27.78100
C  20.97300 49.01400 25.44100
C  20.12600 49.49300 28.87500
O  21.23900 49.19100 29.25000
C  19.06200 49.92000 29.94000
C  18.63500 48.73000 30.70400
O  17.98000 47.84500 30.22100
O  19.10900 48.83300 32.01200
C  18.58800 47.83200 32.94600
H  12.66000 52.31400 29.52900
H  12.88100 51.08300 23.11200
H  19.00500 49.69700 23.55500
H  16.47800 50.42800 31.70500
H  14.40800 52.49900 31.31300
H  13.57400 49.79400 30.55500
H  13.18400 50.73100 32.06100
H  14.59000 49.63200 31.95600
H  16.43300 53.23200 31.83300
H  17.86200 53.01400 31.03200
H  18.43500 52.98600 33.34300
H  18.58600 51.35400 32.66400
H  10.14200 51.76600 28.34200
H  9.70700 53.25900 27.40700
H  10.94200 53.22300 28.65400
H  8.96100 53.50500 25.12100
H  8.76900 51.87100 25.81300
H  8.37000 52.13400 24.19600
H  15.01100 51.24900 21.39000
H  16.72000 48.94100 21.98300
H  13.85600 48.63000 22.08000
H  14.80800 48.85300 20.55100
H  13.38500 49.86600 20.94600
H  17.98700 51.73000 21.83000
H  16.98100 51.42500 20.53100
H  18.60000 50.49500 19.51500
H  18.42700 49.03500 20.62400
H  19.52900 50.34800 21.07900
H  21.13900 49.81400 24.72000
H  20.78000 48.08400 24.90600
H  21.78800 48.85200 26.14600
H  19.33500 50.68700 30.66500
H  17.50200 47.90300 32.89000
H  18.92000 47.83200 33.98400
H  18.75000 46.80200 32.62800

