158

Mg 26.13100 0.91600 29.57100
C  28.01700 0.51500 32.52600
C  23.32500 0.92000 31.42600
C  24.35300 1.02400 26.66900
C  29.03400 0.36000 27.75300
N  25.70100 0.55400 31.77300
C  26.61500 0.57300 32.79100
C  25.92500 0.77800 34.18500
C  24.39700 0.65900 33.77300
C  24.40600 0.70800 32.23400
C  23.65500 -0.53600 34.21000
C  26.28400 2.05400 34.85800
C  27.10700 1.93900 36.18000
H  26.77500 2.92300 37.35700
N  24.13200 1.04000 29.17600
C  23.18300 1.01300 30.05100
C  21.89800 1.17100 29.31500
C  22.17300 1.42900 27.94600
C  23.63700 1.18600 27.89900
C  20.52100 1.15700 29.99200
C  21.28000 1.84800 26.76700
O  21.70600 1.82600 25.63400
C  19.83400 2.11100 26.97800
N  26.62800 0.82500 27.51400
C  25.71000 0.86100 26.51400
C  26.42000 0.78300 25.12700
C  27.94100 0.69900 25.57600
C  27.85600 0.60600 27.05600
C  25.95400 -0.20400 24.05000
C  28.89100 1.88400 25.13400
C  30.34400 1.49100 24.83800
N  28.10500 0.44600 29.94700
C  29.19700 0.30400 29.11900
C  30.42600 0.17800 29.87900
C  30.02800 0.15600 31.21600
C  28.55600 0.37200 31.23000
C  31.77500 0.01600 29.25000
C  30.48000 0.09200 32.61400
O  31.59900 -0.06400 33.11800
C  29.18900 0.51700 33.49300
C  29.09000 -0.49900 34.55200
O  28.66100 -1.62600 34.30800
O  29.66200 -0.12800 35.67500
C  29.51900 -1.00300 36.86000
H  22.47100 0.84100 32.10100
H  23.73400 0.97900 25.77100
H  29.93300 0.11700 27.18300
H  26.15500 -0.05100 34.85400
H  23.82900 1.51300 34.14200
H  22.91200 -0.90000 33.49900
H  23.13100 -0.36100 35.14900
H  24.40600 -1.30800 34.37300
H  25.41400 2.68600 35.03500
H  26.88300 2.64300 34.16400
H  28.10900 2.23800 35.87100
H  27.20200 0.89600 36.48100
H  19.76000 0.56600 29.48300
H  20.07400 2.15000 29.94200
H  20.57400 0.96100 31.06300
H  19.39700 1.11800 26.87200
H  19.40600 2.71300 26.17600
H  19.53300 2.60200 27.90400
H  26.28400 1.76600 24.67600
H  28.43900 -0.25700 25.41600
H  26.79500 -0.74600 23.61800
H  25.37400 0.31500 23.28700
H  25.31300 -0.94200 24.53400
H  28.97800 2.55800 25.98600
H  28.40300 2.48600 24.36600
H  30.55300 0.42100 24.86400
H  31.02900 1.93000 25.56500
H  30.54200 1.92900 23.86000
H  32.29700 0.74900 29.86500
H  31.82800 0.31200 28.20200
H  32.21500 -0.97200 29.39000
H  29.32500 1.45000 34.04000
H  30.23300 -0.89800 37.67700
H  29.42200 -2.08100 36.72500
H  28.58400 -0.67800 37.31600
Mg 46.23700 25.29700 28.30900
C  47.45700 27.34900 30.90000
C  45.46800 22.90500 30.74100
C  45.70200 22.98300 25.83200
C  47.56900 27.40400 25.94800
N  46.44400 25.15400 30.60800
C  46.92600 26.20700 31.40000
C  46.79200 25.80500 32.87000
C  46.16900 24.34000 32.86000
C  46.03100 24.08800 31.35700
C  46.98400 23.23100 33.57900
C  46.09900 26.92300 33.73300
C  45.42400 26.40000 35.02200
H  45.63200 27.36300 36.20300
N  45.60600 23.22100 28.22400
C  45.35200 22.46600 29.36700
C  44.97400 21.08900 28.91200
C  45.12400 20.98300 27.50000
C  45.41200 22.44900 27.06100
C  44.60400 19.91800 29.86600
C  44.88700 19.79800 26.56200
O  45.00900 19.95200 25.36600
C  44.52400 18.42700 27.20000
N  46.67900 25.13200 26.24000
C  46.23700 24.18500 25.41400
C  46.31600 24.60100 23.91900
C  46.79800 26.08600 24.00600
C  47.04000 26.23800 25.46900
C  47.36400 23.78100 23.12100
C  45.82800 27.15600 23.42900
C  45.81100 27.40400 21.95100
N  47.29100 27.08600 28.35600
C  47.74600 27.84400 27.26100
C  48.41100 29.03300 27.78600
C  48.28200 28.92000 29.22400
C  47.63800 27.69600 29.48600
C  49.02600 30.17200 27.16200
C  48.54200 29.57600 30.47500
O  49.07300 30.65000 30.64200
C  48.10200 28.58300 31.61100
C  49.37200 28.30100 32.41900
O  50.11500 27.32500 32.28800
O  49.40900 29.08500 33.49900
C  50.27800 28.48300 34.60900
H  45.10900 22.21200 31.50500
H  45.47900 22.38800 24.94400
H  47.88400 28.16000 25.22400
H  47.81900 25.80200 33.23700
H  45.21700 24.32500 33.39000
H  47.40000 22.46100 32.92900
H  46.35800 22.92200 34.41600
H  47.81100 23.75700 34.05500
H  45.32600 27.40600 33.13500
H  46.88400 27.64800 33.94500
H  45.90300 25.48400 35.36600
H  44.35700 26.33800 34.81100
H  45.36300 19.13600 29.87700
H  43.64000 19.57200 29.49200
H  44.38000 20.21100 30.89200
H  44.24000 17.79100 26.36100
H  43.65500 18.67100 27.81100
H  45.27900 18.03100 27.87800
H  45.33900 24.49500 23.44800
H  47.74200 26.14100 23.46300
H  47.46300 24.34900 22.19700
H  46.95100 22.79700 22.89700
H  48.32800 23.68000 23.61900
H  46.02400 28.10300 23.93100
H  44.89600 26.69900 23.75900
H  46.62800 28.07000 21.67400
H  44.85700 27.90000 21.77200
H  45.75100 26.45500 21.41800
H  50.02500 30.30900 27.57700
H  48.56100 31.13300 27.38200
H  49.12400 30.03400 26.08500
H  47.34300 29.06800 32.22500
H  50.16900 29.29100 35.33300
H  51.32100 28.39300 34.30500
H  49.93600 27.47500 34.84200

