158

Mg 16.97600 -1.17400 27.69700
C  15.96200 0.87000 30.33100
C  19.09500 -2.83800 29.81700
C  18.34200 -2.87100 25.05400
C  15.29100 0.91600 25.47800
N  17.60600 -0.84400 29.84700
C  16.88800 -0.07500 30.74100
C  17.27400 -0.40300 32.17100
C  18.38100 -1.49400 31.95500
C  18.37000 -1.78200 30.42600
C  19.82800 -1.16300 32.32300
C  16.03300 -0.82200 33.07100
C  16.19900 -0.20700 34.51200
H  17.47100 0.50700 35.05300
N  18.47900 -2.66200 27.46600
C  19.18800 -3.22400 28.47200
C  20.00300 -4.35400 27.92100
C  19.72600 -4.44500 26.49400
C  18.86200 -3.30500 26.25200
C  21.01000 -5.12800 28.79900
C  20.17900 -5.49600 25.55700
O  19.97300 -5.39300 24.36700
C  21.03800 -6.67800 26.01700
N  16.92000 -0.93400 25.55700
C  17.49000 -1.82400 24.67300
C  17.06600 -1.59200 23.25200
C  15.94900 -0.49500 23.41000
C  16.06800 -0.12500 24.92700
C  18.22800 -1.05800 22.30100
C  14.50400 -1.09200 23.18600
C  13.52100 -0.05200 22.80100
N  15.86800 0.49000 27.77700
C  15.21500 1.25000 26.79200
C  14.52100 2.32400 27.45300
C  14.75600 2.22900 28.78600
C  15.59300 1.10000 28.95800
C  13.71700 3.32500 26.74100
C  14.54900 2.84600 30.06700
O  13.90100 3.85900 30.32300
C  15.28000 2.01200 31.14900
C  16.22500 2.76100 31.86400
O  17.46100 2.87900 31.59900
O  15.57700 3.54300 32.82500
C  16.43400 4.53000 33.62100
H  19.61500 -3.48400 30.52700
H  18.56900 -3.54500 24.22600
H  14.72700 1.54100 24.78300
H  17.75700 0.47700 32.59600
H  18.16600 -2.43600 32.46000
H  20.51800 -1.31100 31.49200
H  20.11400 -1.82700 33.13800
H  19.99000 -0.16200 32.72200
H  15.91000 -1.90400 33.11100
H  15.09700 -0.44500 32.65900
H  15.82100 -1.03500 35.11200
H  15.45100 0.57800 34.62800
H  22.05400 -5.00000 28.51300
H  20.75100 -6.18700 28.79100
H  20.83300 -4.95900 29.86100
H  22.10200 -6.44900 25.96000
H  20.96000 -7.39100 25.19600
H  20.66800 -7.09800 26.95200
H  16.55900 -2.36900 22.67900
H  16.11100 0.35600 22.74900
H  18.11000 -0.06300 21.87300
H  18.57900 -1.69800 21.49100
H  19.08900 -0.82900 22.92800
H  14.17100 -1.67800 24.04300
H  14.58600 -1.82100 22.38000
H  12.68800 0.09400 23.48900
H  13.21900 -0.16900 21.76000
H  14.01700 0.90900 22.93200
H  12.69100 2.97500 26.62700
H  14.21100 3.64000 25.82200
H  13.60400 4.25300 27.30200
H  14.46900 1.68200 31.79900
H  16.66800 5.44700 33.08000
H  17.38300 4.07600 33.90700
H  15.87800 4.86700 34.49600
Mg 35.49100 3.44500 29.50600
C  33.74400 4.18600 32.38500
C  38.37600 3.11500 31.30500
C  37.13200 2.78500 26.63100
C  32.62400 4.22000 27.67200
N  35.97400 3.77800 31.56200
C  35.10700 3.92200 32.61000
C  35.91100 3.75800 33.97700
C  37.44100 3.79700 33.56900
C  37.27900 3.55800 32.04400
C  38.16800 5.19500 33.84100
C  35.46100 2.42800 34.66000
C  35.20100 2.56900 36.20700
H  36.05800 3.47500 37.06500
N  37.45800 2.98300 29.09600
C  38.49000 2.81200 29.93100
C  39.60500 2.19500 29.25000
C  39.30300 2.25900 27.87300
C  37.91900 2.65900 27.78000
C  40.74600 1.53300 29.94300
C  40.23600 1.93000 26.69600
O  39.81600 2.13000 25.56700
C  41.66000 1.49400 26.93100
N  35.05200 3.59900 27.44100
C  35.81900 3.21300 26.42900
C  35.23700 3.55700 25.13200
C  33.69400 3.76000 25.48000
C  33.77700 3.88700 26.91900
C  35.85700 4.71600 24.35200
C  32.76200 2.67000 24.90400
C  32.38600 1.45900 25.84400
N  33.50700 4.06700 29.86600
C  32.46700 4.35800 29.08300
C  31.32100 4.62000 29.93000
C  31.71500 4.58500 31.24100
C  33.08500 4.34200 31.08900
C  29.87800 4.83000 29.46700
C  31.32900 4.62000 32.64100
O  30.19400 4.75400 33.10200
C  32.66400 4.39500 33.41400
C  32.88600 5.63700 34.12000
O  33.53800 6.60500 33.82400
O  32.09600 5.49200 35.20700
C  32.28400 6.46900 36.31900
H  39.29000 2.87200 31.85100
H  37.64800 2.37300 25.76100
H  31.83300 4.54300 26.99200
H  35.77900 4.57200 34.68900
H  38.03100 2.97100 33.96800
H  37.60500 5.76800 34.57800
H  38.25200 5.80300 32.94000
H  39.08400 5.06600 34.41800
H  36.25300 1.68700 34.55300
H  34.48100 2.09300 34.32100
H  35.25300 1.55600 36.60700
H  34.14700 2.83500 36.28700
H  40.79100 0.46700 29.72300
H  40.70400 1.66800 31.02400
H  41.66400 2.01400 29.60600
H  41.54800 0.66100 27.62600
H  42.41000 2.23300 27.21200
H  41.96700 1.00300 26.00700
H  35.48200 2.69900 24.50600
H  33.35300 4.74700 25.16800
H  36.25400 4.19200 23.48300
H  36.58500 5.32300 24.89000
H  35.01200 5.34300 24.07100
H  33.13800 2.37000 23.92600
H  31.78400 3.09000 24.66800
H  32.39600 0.51300 25.30300
H  31.34100 1.57400 26.13200
H  32.99300 1.45000 26.74900
H  29.40600 3.86600 29.65200
H  29.83500 5.17100 28.43200
H  29.35900 5.64900 29.96400
H  32.64500 3.50100 34.03900
H  32.84100 5.90400 37.06600
H  31.29500 6.66700 36.73200
H  32.66500 7.44800 36.02800

