158

Mg 50.04600 35.44700 26.78200
C  47.57800 34.11900 28.85400
C  49.90100 38.37700 28.64500
C  52.09400 36.84100 24.46000
C  49.82400 32.50600 24.73800
N  48.91100 36.12100 28.56700
C  48.00500 35.37100 29.29300
C  47.64000 35.99600 30.60500
C  48.04500 37.49200 30.29700
C  49.13200 37.32400 29.22800
C  46.86700 38.44000 29.92600
C  48.28900 35.40900 31.85100
C  47.55100 35.12400 33.10600
H  47.77300 36.07300 34.33000
N  50.85300 37.27100 26.61200
C  50.67400 38.33900 27.48200
C  51.37500 39.49500 26.94600
C  52.12700 39.07700 25.79600
C  51.68500 37.69300 25.54100
C  51.41400 40.87000 27.66300
C  53.10100 39.88500 24.92700
O  53.50500 39.43300 23.85900
C  53.61500 41.20700 25.42700
N  50.58100 34.82600 24.69000
C  51.67200 35.47800 24.09300
C  52.22200 34.70800 22.86000
C  51.57600 33.27500 23.02400
C  50.61300 33.53300 24.26500
C  52.02600 35.23300 21.50600
C  52.57700 32.10100 23.35100
C  53.43800 31.62400 22.23700
N  49.04700 33.59800 26.84700
C  49.00000 32.57200 25.90600
C  48.09500 31.57000 26.32800
C  47.44300 32.13700 27.46800
C  48.06100 33.37200 27.69200
C  47.91500 30.20000 25.69600
C  46.51600 31.89700 28.49700
O  45.72700 30.94200 28.77900
C  46.52200 33.12200 29.37900
C  46.76400 32.69600 30.79400
O  47.82900 32.36100 31.18400
O  45.58600 32.65000 31.55400
C  45.63200 31.72300 32.67800
H  49.82000 39.23700 29.31400
H  52.77400 37.23000 23.69900
H  49.95500 31.52900 24.26700
H  46.56700 35.91200 30.77700
H  48.61000 38.03000 31.05800
H  47.04500 38.85700 28.93500
H  46.79900 39.14700 30.75300
H  45.92900 37.88500 29.91100
H  48.98500 36.20400 32.11800
H  48.98100 34.62200 31.55000
H  47.79400 34.10000 33.38900
H  46.49000 35.08000 32.86000
H  51.27300 41.60600 26.87100
H  52.43500 41.13000 27.94200
H  50.74100 41.17600 28.46400
H  52.88400 42.00000 25.27100
H  54.54300 41.49100 24.93200
H  53.78800 41.12600 26.50100
H  53.29200 34.62900 23.05300
H  51.08000 32.89800 22.13000
H  52.98400 35.41800 21.02100
H  51.53800 36.20800 21.48700
H  51.40100 34.59400 20.88200
H  52.08900 31.19400 23.70900
H  53.12900 32.62400 24.13100
H  53.32600 30.54500 22.13000
H  54.49700 31.87600 22.29400
H  53.01000 32.06200 21.33500
H  48.23400 30.21500 24.65400
H  46.87600 29.90100 25.56300
H  48.35700 29.39900 26.28800
H  45.55500 33.62500 29.37200
H  44.99800 32.19800 33.42600
H  46.62800 31.51700 33.07000
H  45.12700 30.79500 32.41200
Mg -2.58600 35.25300 26.61400
C  -4.31700 33.84700 29.33500
C  -1.25300 37.57900 28.85400
C  -1.20800 36.81800 24.02500
C  -3.98900 32.93900 24.55000
N  -2.71000 35.61900 28.93400
C  -3.50900 34.98700 29.77200
C  -3.26300 35.47600 31.27000
C  -2.32000 36.73800 31.07600
C  -2.12100 36.70300 29.51300
C  -2.60600 38.10200 31.68300
C  -2.79800 34.31000 32.19800
C  -2.30600 34.71800 33.63700
H  -3.31600 34.41400 34.74000
N  -1.33700 36.93600 26.43700
C  -0.92400 37.73700 27.49600
C  -0.05700 38.78300 26.89800
C  -0.09500 38.59100 25.43800
C  -0.95000 37.41000 25.20100
C  0.69500 39.77200 27.68200
C  0.55500 39.30800 24.32200
O  0.51700 39.01100 23.15800
C  1.48000 40.47000 24.60000
N  -2.78600 35.07100 24.64100
C  -2.05200 35.78300 23.67800
C  -2.12300 35.16900 22.34400
C  -2.59200 33.73400 22.61500
C  -3.20100 33.91600 24.02200
C  -3.11400 35.95700 21.34900
C  -1.39700 32.75700 22.69500
C  -1.71400 31.37400 22.11100
N  -3.93000 33.67000 26.82400
C  -4.38100 32.80900 25.89300
C  -5.22800 31.85000 26.52300
C  -5.25700 32.17700 27.89700
C  -4.38800 33.32800 28.01700
C  -6.02000 30.77200 25.76600
C  -5.71100 31.80600 29.20700
O  -6.53900 31.00800 29.56600
C  -5.15300 32.87100 30.18400
C  -6.15000 33.53700 31.10300
O  -6.59000 34.70600 31.02400
O  -6.40500 32.71200 32.07200
C  -7.36400 33.16700 33.05200
H  -0.77300 38.33500 29.47900
H  -0.69800 37.16500 23.12400
H  -4.35400 32.23900 23.79600
H  -4.21100 35.81600 31.68800
H  -1.33100 36.57300 31.50400
H  -3.52300 38.02300 32.26600
H  -2.68100 38.92800 30.97500
H  -1.70700 38.36600 32.24000
H  -2.04900 33.71300 31.67700
H  -3.67200 33.68200 32.37200
H  -2.09500 35.78400 33.72200
H  -1.38900 34.18600 33.89300
H  1.71100 39.41000 27.84000
H  0.35100 39.98000 28.69500
H  0.76300 40.77700 27.26500
H  0.94400 41.33800 24.98300
H  1.95300 40.74300 23.65600
H  2.24000 40.19700 25.33200
H  -1.15500 35.15800 21.84200
H  -3.30000 33.39600 21.85800
H  -3.15900 37.03200 21.52300
H  -4.11800 35.56400 21.50800
H  -2.91000 35.74400 20.30000
H  -1.09600 32.55000 23.72200
H  -0.52000 33.13100 22.16700
H  -0.89400 31.23100 21.40600
H  -2.63900 31.18000 21.56800
H  -1.59900 30.59600 22.86600
H  -6.66200 30.31400 26.51900
H  -5.39100 29.96000 25.40000
H  -6.61300 31.30000 25.02000
H  -4.48800 32.30300 30.83500
H  -8.29400 33.24700 32.48800
H  -7.18500 34.15900 33.46600
H  -7.50200 32.47900 33.88600

