158

Mg 49.39300 45.09200 43.81700
C  46.42300 46.05100 42.13200
C  49.09300 41.98400 42.36000
C  52.76600 44.74900 44.13800
C  49.73300 48.54600 44.66800
N  48.04200 44.24700 42.26900
C  46.85400 44.74100 41.87700
C  46.07200 43.76700 40.99000
C  46.86900 42.46100 41.08800
C  48.03900 42.84600 42.03300
C  46.08200 41.20900 41.58800
C  45.73900 44.28600 39.48600
C  44.26500 44.32500 39.07500
H  43.67000 43.43200 37.97600
N  50.72500 43.49400 43.43600
C  50.43100 42.30100 42.83500
C  51.62200 41.49800 42.76600
C  52.69100 42.28600 43.29000
C  52.09300 43.59200 43.64000
C  51.67200 40.09900 42.15100
C  54.11000 41.80200 43.64400
O  54.45700 40.70200 43.29900
C  55.11200 42.54400 44.42000
N  51.00400 46.48900 44.34000
C  52.22700 46.01300 44.59200
C  53.18600 47.07700 45.18500
C  52.13400 48.12200 45.55700
C  50.89100 47.72700 44.79000
C  54.16200 46.54000 46.34800
C  52.53900 49.69400 45.48800
C  52.71300 50.34000 46.86900
N  48.30900 46.92600 43.64200
C  48.54600 48.14800 44.11900
C  47.43900 49.02300 43.74600
C  46.55200 48.23700 43.08500
C  47.19200 46.98100 42.94000
C  47.32500 50.54300 43.94400
C  45.30000 48.20600 42.44300
O  44.48100 49.12000 42.40100
C  45.15100 46.80400 41.72400
C  43.98700 46.07200 42.16100
O  43.83200 45.38300 43.14000
O  43.03900 46.37000 41.21700
C  41.65800 45.84800 41.36500
H  49.00800 41.01800 41.85700
H  53.85100 44.69200 44.24400
H  49.87300 49.56100 45.04400
H  45.07900 43.55900 41.39100
H  47.14300 42.27100 40.05000
H  46.29700 41.01100 42.63800
H  46.49100 40.37900 41.01200
H  45.00900 41.27300 41.40800
H  46.19900 43.66100 38.72100
H  46.32700 45.19200 39.33900
H  44.19600 45.37600 38.79400
H  43.60700 44.25900 39.94100
H  50.64900 39.73600 42.04500
H  52.19900 39.27400 42.63100
H  52.05700 40.18000 41.13500
H  54.78200 42.98600 45.36000
H  55.71200 43.09600 43.69700
H  55.76600 41.75300 44.78900
H  53.76700 47.55400 44.39600
H  51.64500 48.02200 46.52600
H  53.95300 46.95900 47.33300
H  55.18100 46.73000 46.01100
H  54.09400 45.49200 46.64000
H  51.79300 50.28900 44.96200
H  53.45900 49.94300 44.96000
H  53.75300 50.66600 46.84300
H  52.53100 49.60500 47.65300
H  52.15600 51.26300 47.03400
H  47.89100 50.96400 43.11300
H  47.73000 50.83200 44.91400
H  46.28700 50.83600 43.79100
H  45.09700 46.86500 40.63800
H  41.67200 44.78100 41.58700
H  41.02600 45.92700 40.48000
H  41.06600 46.33100 42.14200
Mg 30.79500 57.97300 38.42900
C  28.07100 55.97100 37.40100
C  32.68500 55.19700 38.17000
C  33.28400 59.94200 39.38300
C  28.72800 60.73700 38.25000
N  30.41300 55.84900 37.65200
C  29.23000 55.29000 37.35500
C  29.41700 53.78700 37.00000
C  30.92400 53.59500 37.24300
C  31.36600 54.93700 37.78800
C  31.39800 52.43000 38.19500
C  29.00600 53.39000 35.55400
C  29.48500 54.43700 34.46500
H  28.36600 54.79600 33.46000
N  32.75700 57.59500 38.79400
C  33.39300 56.39300 38.62100
C  34.73600 56.52800 38.98600
C  34.99900 57.88200 39.27500
C  33.68100 58.57900 39.16800
C  35.75100 55.39500 38.88600
C  36.33900 58.42800 39.51600
O  37.35400 57.76700 39.25100
C  36.61600 59.81500 40.20000
N  30.95700 60.05900 38.87800
C  32.08900 60.66800 39.31100
C  31.98900 62.24800 39.33700
C  30.55100 62.44900 39.02300
C  30.03600 61.03200 38.60100
C  32.67000 63.00800 40.50300
C  30.15300 63.69300 38.19500
C  29.06300 64.66800 38.71900
N  28.79800 58.32700 38.00500
C  28.08000 59.54100 37.98200
C  26.67700 59.25600 37.64400
C  26.58500 57.86500 37.51800
C  27.90900 57.34700 37.71300
C  25.54400 60.30000 37.55300
C  25.70500 56.80000 37.28100
O  24.47800 56.90700 37.26000
C  26.53200 55.58800 37.18600
C  25.99800 54.48200 38.12400
O  26.51000 54.15100 39.14000
O  24.91400 53.91700 37.46000
C  24.36800 52.73500 38.05700
H  33.24900 54.26200 38.19000
H  34.08000 60.62300 39.69200
H  28.00700 61.55100 38.34000
H  28.68900 53.22000 37.57800
H  31.33600 53.44200 36.24600
H  32.15200 51.78100 37.75000
H  30.57200 51.76200 38.44000
H  31.72900 52.79600 39.16700
H  27.93400 53.20000 35.60100
H  29.41600 52.39400 35.38900
H  30.26800 53.85200 33.98100
H  29.99100 55.31200 34.87400
H  36.38200 55.36200 39.77500
H  36.45700 55.73200 38.12700
H  35.35200 54.41600 38.62200
H  37.53100 59.80000 40.79300
H  35.84100 60.09200 40.91400
H  36.71500 60.49400 39.35300
H  32.53700 62.59300 38.46100
H  30.02800 62.61000 39.96600
H  33.21100 62.27700 41.10400
H  31.84300 63.37800 41.10900
H  33.38400 63.79400 40.26100
H  29.84400 63.33900 37.21100
H  31.05500 64.29700 38.09800
H  29.56800 65.29000 39.45700
H  28.17000 64.13300 39.04300
H  28.59600 65.22700 37.90800
H  24.65900 59.81100 37.14600
H  25.81500 61.02300 36.78400
H  25.40000 60.83800 38.49100
H  26.48100 55.14600 36.19100
H  25.17200 52.16700 38.52500
H  23.88800 52.19600 37.24000
H  23.62100 52.93600 38.82500

