158

Mg 24.23700 -7.30400 47.04100
C  26.77300 -5.20900 46.11000
C  22.04400 -5.57300 44.93800
C  22.00300 -9.79000 47.41900
C  26.64400 -9.28600 48.76700
N  24.41800 -5.52100 45.63200
C  25.57700 -4.89000 45.38100
C  25.36000 -3.74400 44.34300
C  23.82200 -3.73100 44.18900
C  23.38000 -5.02200 44.97400
C  23.06300 -2.41700 44.67300
C  26.22300 -3.98200 43.13200
C  26.71700 -2.60900 42.54900
H  25.89400 -2.00900 41.42100
N  22.25600 -7.58600 46.41200
C  21.59600 -6.76300 45.53300
C  20.24800 -7.26000 45.46000
C  20.13700 -8.44000 46.30800
C  21.49100 -8.64700 46.77000
C  19.16400 -6.51400 44.62700
C  18.87800 -9.16600 46.62600
O  17.74400 -8.77300 46.21700
C  18.87600 -10.38100 47.58400
N  24.30800 -9.27300 48.08400
C  23.21300 -10.02900 48.14300
C  23.50700 -11.27000 48.98300
C  24.93000 -11.08000 49.45200
C  25.34200 -9.82000 48.72400
C  22.44000 -11.70400 50.13500
C  25.87800 -12.21000 49.12700
C  26.32500 -13.01600 50.30800
N  26.32200 -7.26700 47.40800
C  27.15400 -8.08600 48.13400
C  28.50100 -7.55800 48.11600
C  28.41400 -6.35800 47.37300
C  27.06200 -6.31400 46.97800
C  29.72200 -8.18200 48.67700
C  29.07400 -5.22500 46.82300
O  30.18800 -4.76900 47.00300
C  28.04200 -4.51200 45.93900
C  28.08800 -3.02800 46.24600
O  27.73800 -2.53400 47.34300
O  28.64000 -2.37600 45.19200
C  28.82300 -0.91500 45.50900
H  21.30300 -4.98200 44.39600
H  21.36900 -10.65500 47.62700
H  27.39100 -9.82100 49.35800
H  25.68700 -2.84200 44.86000
H  23.66600 -3.86100 43.11800
H  23.76900 -1.87400 45.30300
H  22.20600 -2.64200 45.30800
H  22.79500 -1.86900 43.77000
H  25.72500 -4.43400 42.27400
H  27.05100 -4.65200 43.36300
H  27.76800 -2.70300 42.27500
H  26.65100 -1.90900 43.38200
H  18.30300 -7.15200 44.42700
H  19.52800 -6.10200 43.68500
H  18.93000 -5.68500 45.29500
H  17.83100 -10.68600 47.63700
H  19.19100 -10.18700 48.61000
H  19.44600 -11.22200 47.19000
H  23.46600 -12.05300 48.22500
H  25.11000 -10.92000 50.51500
H  22.64300 -11.12300 51.03500
H  22.77100 -12.73300 50.27400
H  21.41500 -11.62400 49.77200
H  26.79500 -11.87100 48.64300
H  25.34300 -12.88300 48.45700
H  27.19700 -12.58700 50.80000
H  26.56800 -14.01400 49.94300
H  25.58900 -13.09800 51.10800
H  29.87200 -9.18500 48.27700
H  29.64500 -8.26900 49.76100
H  30.58700 -7.57900 48.39800
H  28.38800 -4.67600 44.91900
H  27.92900 -0.30300 45.40000
H  29.46000 -0.42900 44.77000
H  29.17800 -0.73800 46.52500
Mg 42.96100 3.35300 47.19900
C  41.06200 6.20600 47.19000
C  40.05600 1.50900 47.08400
C  44.77200 0.55300 46.11700
C  45.85500 5.30200 46.43500
N  40.83000 3.84900 47.14300
C  40.22200 5.12100 47.21200
C  38.66900 4.96400 47.37400
C  38.44300 3.40200 47.63700
C  39.88600 2.87600 47.21200
C  37.97500 3.03400 49.05500
C  37.73900 5.58800 46.26500
C  38.16700 5.41400 44.78900
H  38.02500 6.63600 43.84300
N  42.48900 1.29000 46.76400
C  41.19800 0.76200 46.77700
C  41.25100 -0.61600 46.52600
C  42.62500 -0.98400 46.11800
C  43.36900 0.28600 46.43300
C  39.97700 -1.43200 46.62600
C  43.16400 -2.30100 45.55000
O  42.35000 -3.22600 45.37400
C  44.65700 -2.59100 45.15700
N  44.95400 3.02000 46.26300
C  45.45800 1.77500 46.11100
C  46.94500 1.78200 45.97100
C  47.32000 3.32900 45.88000
C  45.97300 3.96500 46.10700
C  47.54600 0.97200 47.15000
C  48.05600 3.71700 44.52200
C  49.58900 3.93000 44.60600
N  43.49000 5.32200 47.12400
C  44.66800 6.05000 46.85500
C  44.46900 7.44800 47.08900
C  43.04800 7.53600 47.27000
C  42.49600 6.22800 47.14400
C  45.33200 8.64700 46.80200
C  41.93800 8.51400 47.42200
O  41.98400 9.75800 47.36200
C  40.63500 7.65200 47.42300
C  39.95200 7.96300 48.74900
O  40.17000 7.41200 49.79100
O  38.83600 8.66300 48.43700
C  37.86600 8.81100 49.49600
H  39.11400 0.95700 47.07700
H  45.36300 -0.34300 45.91700
H  46.70800 5.95800 46.25100
H  38.49000 5.54800 48.27700
H  37.73100 2.97000 46.93400
H  37.13500 2.35400 48.91600
H  37.57400 3.91300 49.56100
H  38.75600 2.55100 49.64200
H  37.55100 6.65900 46.32800
H  36.78200 5.09800 46.44200
H  37.55100 4.59700 44.41300
H  39.20300 5.07600 44.77300
H  39.39800 -1.11400 45.75900
H  39.39600 -1.29700 47.53800
H  40.14500 -2.49700 46.46800
H  45.39100 -2.49600 45.95700
H  44.91200 -1.82700 44.42300
H  44.64500 -3.59000 44.72000
H  47.27400 1.10000 45.18700
H  47.99700 3.55200 46.70500
H  47.88400 0.04600 46.68500
H  46.93700 0.76200 48.02900
H  48.46000 1.47000 47.47500
H  47.68000 4.60900 44.02100
H  47.91500 2.86200 43.86000
H  49.91700 4.89900 44.22900
H  50.08600 3.25300 43.91200
H  49.88000 3.78400 45.64600
H  46.26600 8.36100 46.31900
H  45.52900 9.16400 47.74100
H  44.78400 9.25500 46.08100
H  40.07200 7.93700 46.53500
H  38.21100 9.63600 50.12000
H  37.71500 7.91600 50.09900
H  36.89200 9.08500 49.08900

