158

Mg 1.61000 -0.95100 44.32000
C  4.99900 -0.46000 43.52600
C  0.85400 1.72800 42.45900
C  -1.48500 -2.13100 44.24600
C  2.64500 -3.89400 46.04900
N  2.75900 0.42500 43.07900
C  4.09400 0.36900 42.87200
C  4.58300 1.55400 41.99400
C  3.25700 2.35900 41.74200
C  2.22100 1.51300 42.58600
C  3.25300 3.94800 42.00900
C  5.35400 1.24400 40.69500
C  6.50700 2.29600 40.39400
H  6.38000 3.15600 39.16400
N  -0.09000 -0.21000 43.55300
C  -0.22400 0.95600 42.81500
C  -1.61200 1.25000 42.57500
C  -2.34200 0.16100 43.16600
C  -1.28700 -0.82100 43.69700
C  -2.04900 2.53500 41.97700
C  -3.82700 0.05800 43.30400
O  -4.55600 0.94000 42.87100
C  -4.44700 -0.96600 44.19500
N  0.72000 -2.82000 44.97100
C  -0.58400 -3.02600 44.78400
C  -0.92700 -4.47400 45.26100
C  0.21400 -4.73800 46.22200
C  1.28100 -3.81400 45.72800
C  -2.39400 -4.66900 45.96700
C  0.61700 -6.27300 46.42000
C  0.73200 -6.63100 47.94800
N  3.40400 -1.98400 44.79600
C  3.65600 -3.19100 45.46100
C  5.08400 -3.26300 45.62900
C  5.68500 -2.19000 44.96200
C  4.59600 -1.48600 44.43100
C  5.73800 -4.36200 46.41200
C  6.94200 -1.54800 44.53000
O  8.11200 -1.82700 44.76300
C  6.50500 -0.46400 43.53900
C  7.02600 0.72400 44.08800
O  6.60400 1.36700 45.03400
O  8.16400 1.13500 43.31000
C  8.52700 2.57600 43.70800
H  0.60700 2.60900 41.86300
H  -2.53800 -2.40700 44.33700
H  2.89100 -4.72400 46.71600
H  5.14200 2.26400 42.60300
H  2.89500 2.08800 40.75100
H  2.67600 4.55800 41.31400
H  4.27300 4.31600 42.12000
H  2.72800 4.05000 42.95800
H  4.80800 1.20300 39.75200
H  5.82200 0.27800 40.88000
H  7.39000 1.66400 40.29800
H  6.55700 3.09300 41.13600
H  -3.10100 2.62700 41.70800
H  -1.57300 2.83800 41.04400
H  -1.80200 3.25800 42.75300
H  -5.47100 -0.68400 44.43900
H  -3.87900 -0.99800 45.12500
H  -4.44100 -1.90200 43.63600
H  -0.90300 -5.12800 44.38900
H  -0.13900 -4.32100 47.16500
H  -3.20000 -4.35200 45.30400
H  -2.38400 -4.24500 46.97200
H  -2.69900 -5.70300 46.12600
H  1.58500 -6.61400 46.05300
H  -0.13500 -6.87500 45.91100
H  -0.16600 -7.13500 48.30500
H  0.99700 -5.71600 48.47700
H  1.61800 -7.26200 48.01000
H  6.76300 -4.65200 46.18400
H  5.16400 -5.26100 46.18800
H  5.63300 -4.11800 47.46900
H  6.97300 -0.52100 42.55500
H  9.09500 3.08800 42.93100
H  9.08300 2.46000 44.63800
H  7.71000 3.29200 43.80200
Mg 24.15800 -5.34500 45.63200
C  26.34400 -3.07400 44.31100
C  21.66000 -4.25900 43.48700
C  22.13900 -7.86000 46.68500
C  26.72300 -6.82700 47.44100
N  24.10100 -3.83000 44.13800
C  25.10900 -3.00900 43.74600
C  24.75200 -2.25800 42.40800
C  23.11500 -2.41000 42.36200
C  22.92100 -3.57600 43.37200
C  22.28800 -1.15000 42.71200
C  25.51600 -2.85900 41.21100
C  26.26700 -1.89200 40.24700
H  25.71000 -1.66300 38.84000
N  22.12500 -5.94600 45.24100
C  21.28500 -5.36000 44.30600
C  19.99000 -6.02800 44.33500
C  20.04500 -7.01400 45.39100
C  21.48500 -6.94300 45.84400
C  18.88400 -5.71900 43.37000
C  18.91800 -7.93600 45.71400
O  17.84100 -7.73000 45.18800
C  19.14000 -9.07000 46.68700
N  24.54200 -7.16900 46.71000
C  23.43300 -7.93400 47.11800
C  23.92600 -9.21200 47.91500
C  25.49100 -8.84900 48.15500
C  25.58100 -7.52100 47.42800
C  23.10100 -9.57700 49.19400
C  26.57100 -9.90300 47.63900
C  27.72800 -10.21700 48.54700
N  26.13100 -4.98000 45.96500
C  27.01000 -5.61100 46.79700
C  28.31700 -4.89900 46.74900
C  28.09700 -3.93500 45.73800
C  26.71000 -3.99300 45.33600
C  29.51800 -5.10800 47.63500
C  28.73500 -2.89700 44.90900
O  29.91600 -2.59200 44.78900
C  27.69300 -2.24400 44.01900
C  27.40500 -0.84300 44.51600
O  26.91500 -0.65500 45.59100
O  28.04800 0.07800 43.77700
C  28.42900 1.33800 44.43700
H  20.97000 -3.79100 42.78200
H  21.53700 -8.60400 47.21000
H  27.47000 -7.19200 48.14900
H  25.00600 -1.22500 42.64600
H  22.73500 -2.72900 41.39200
H  22.02600 -1.08000 43.76800
H  21.36200 -1.17300 42.13800
H  22.88100 -0.27600 42.44300
H  24.69600 -3.30200 40.64700
H  26.23500 -3.61300 41.53000
H  27.28000 -2.28600 40.16600
H  26.48200 -0.94700 40.74500
H  18.34900 -6.63400 43.11400
H  19.22800 -5.25500 42.44600
H  18.18300 -5.07000 43.89400
H  18.19700 -9.59100 46.85200
H  19.53600 -8.67600 47.62300
H  19.87400 -9.77600 46.29700
H  23.95600 -10.10300 47.28900
H  25.60300 -8.70500 49.22900
H  23.74800 -9.43400 50.05900
H  22.60800 -10.54900 49.18100
H  22.32500 -8.81600 49.28400
H  26.98300 -9.69200 46.65300
H  26.08000 -10.82900 47.34000
H  27.33200 -10.34400 49.55400
H  28.55500 -9.51500 48.44200
H  28.00900 -11.20300 48.17700
H  29.67200 -6.12300 47.99900
H  29.33100 -4.59700 48.58000
H  30.49500 -4.85700 47.22100
H  27.93400 -2.33200 42.95900
H  28.86600 1.25500 45.43200
H  27.63700 2.08600 44.39100
H  29.17900 1.81500 43.80700

