158

Mg 0.82500 43.91900 26.23200
C  3.23300 43.90300 28.76300
C  -1.50600 42.90500 28.56300
C  -1.33200 43.66200 23.70200
C  3.45000 44.16100 23.90200
N  0.87000 43.44700 28.45200
C  1.96700 43.60400 29.24400
C  1.59900 43.42400 30.72900
C  0.17500 42.82900 30.52800
C  -0.23400 43.11500 29.11700
C  -0.05900 41.34400 31.00600
C  1.61700 44.84400 31.41700
C  1.54700 44.99600 32.95400
H  1.26600 43.79700 33.89200
N  -1.18900 43.38800 26.17200
C  -1.94100 43.03000 27.19700
C  -3.26300 42.74000 26.72400
C  -3.26200 43.02200 25.30400
C  -1.89500 43.36900 24.99100
C  -4.43000 42.19200 27.49900
C  -4.37800 42.97400 24.24400
O  -4.16900 43.38500 23.11500
C  -5.84300 42.69000 24.57800
N  1.08100 43.91800 24.06900
C  -0.00300 43.81100 23.28200
C  0.44100 43.85900 21.78900
C  1.96900 44.08300 21.90500
C  2.21100 43.98100 23.38200
C  0.01400 42.66600 20.95900
C  2.46700 45.39900 21.14100
C  1.99900 46.73500 21.90700
N  2.90300 44.19400 26.21700
C  3.88500 44.29400 25.25800
C  5.17700 44.43900 25.85600
C  4.96900 44.25800 27.22900
C  3.57100 44.11900 27.42300
C  6.46400 44.38800 25.08500
C  5.64700 44.04500 28.49200
O  6.80100 43.69900 28.70500
C  4.63300 44.13700 29.55600
C  4.92700 43.05700 30.64300
O  5.00600 41.85200 30.35500
O  4.97400 43.63200 31.86500
C  5.27300 42.71300 32.98400
H  -2.25400 42.59000 29.29400
H  -1.94100 43.50500 22.80900
H  4.23800 44.31700 23.16200
H  2.26700 42.70000 31.19700
H  -0.54900 43.34800 31.15500
H  -0.54500 40.64800 30.32300
H  -0.60700 41.36800 31.94700
H  0.86900 40.87000 31.32600
H  0.72000 45.32200 31.02500
H  2.45300 45.45300 31.07400
H  0.83100 45.80700 33.09100
H  2.48600 45.40600 33.32300
H  -5.21200 42.93500 27.34100
H  -4.14600 42.21400 28.55100
H  -4.85500 41.25200 27.14800
H  -6.09100 41.66400 24.84800
H  -6.53500 42.78400 23.74100
H  -6.19500 43.41100 25.31500
H  -0.06800 44.70900 21.33500
H  2.45100 43.17000 21.55400
H  -0.27600 41.99500 21.76700
H  0.77900 42.21800 20.32500
H  -0.88500 42.94400 20.40800
H  2.08500 45.38400 20.12000
H  3.55600 45.39900 21.13100
H  2.27400 47.55700 21.24700
H  2.55900 46.79400 22.84000
H  0.92800 46.93900 21.92900
H  6.32400 44.88800 24.12600
H  6.61800 43.35300 24.77900
H  7.28500 44.92000 25.56700
H  4.64400 45.12100 30.02500
H  5.08600 43.26900 33.90300
H  6.31400 42.39300 32.93600
H  4.62700 41.83600 32.94500
Mg -1.37300 34.64100 26.79800
C  -3.14500 33.06700 29.19900
C  -0.42600 37.06300 29.10700
C  -0.45600 36.70700 24.27600
C  -2.66900 32.28700 24.49700
N  -1.80000 35.05600 28.87500
C  -2.45300 34.14800 29.69500
C  -2.30000 34.54300 31.20600
C  -1.66000 35.92500 31.13500
C  -1.28300 36.00600 29.63900
C  -2.62400 37.14900 31.60000
C  -1.44200 33.50200 32.01000
C  -2.21700 32.73200 33.10800
H  -1.34400 32.62900 34.47200
N  -0.49500 36.55500 26.75300
C  -0.05000 37.34900 27.76700
C  0.64100 38.42400 27.26500
C  0.61300 38.45300 25.84200
C  -0.14000 37.16900 25.54000
C  1.38100 39.37600 28.25200
C  1.05700 39.45600 24.84300
O  0.99700 39.40900 23.62100
C  1.70400 40.65700 25.41100
N  -1.51900 34.52700 24.71000
C  -0.98500 35.44600 23.82600
C  -1.05600 34.96600 22.32600
C  -1.57600 33.42900 22.48100
C  -2.03200 33.41100 23.97200
C  -1.99900 35.98700 21.52100
C  -0.56600 32.29500 22.05500
C  0.50100 31.95600 23.02100
N  -2.54800 32.97700 26.82400
C  -3.02100 32.11600 25.80300
C  -3.83500 31.06600 26.34200
C  -3.90700 31.34100 27.72800
C  -3.18400 32.59800 27.92500
C  -4.60500 30.07000 25.54800
C  -4.41300 31.02400 28.97500
O  -5.04300 29.98000 29.27300
C  -3.99600 32.07200 29.94200
C  -5.17100 32.66300 30.68800
O  -5.91900 33.51200 30.26200
O  -5.30300 32.11600 31.91500
C  -6.53100 32.39800 32.65400
H  -0.07500 37.75400 29.87600
H  -0.06500 37.21000 23.38900
H  -3.18200 31.64100 23.78200
H  -3.29800 34.62000 31.63800
H  -0.79900 36.04400 31.79300
H  -3.67800 36.97700 31.81800
H  -2.58300 37.93300 30.84300
H  -2.19700 37.64900 32.46900
H  -0.52500 33.85900 32.47900
H  -1.01700 32.71800 31.38300
H  -2.43600 31.69200 32.86500
H  -3.13400 33.28900 33.29600
H  2.32000 39.66200 27.77700
H  1.58000 39.14800 29.30000
H  0.77300 40.27900 28.28300
H  1.64900 41.34800 24.57000
H  2.72600 40.33400 25.61300
H  1.15400 40.96700 26.30000
H  -0.09800 35.08300 21.82000
H  -2.43500 33.27900 21.82700
H  -2.90900 35.39400 21.43600
H  -1.57400 36.09300 20.52300
H  -2.21800 36.90600 22.06700
H  -0.11200 32.70300 21.15200
H  -1.13700 31.39000 21.84500
H  0.38000 32.50700 23.95400
H  1.43600 32.29000 22.57200
H  0.55000 30.88200 23.19700
H  -4.13000 29.76100 24.61700
H  -5.52800 30.55700 25.23500
H  -4.88100 29.24400 26.20300
H  -3.34300 31.70800 30.73500
H  -6.28400 32.94100 33.56600
H  -6.97700 31.53900 33.15500
H  -7.31300 32.78000 31.99700

