158

Mg 17.34300 -1.56500 28.53600
C  16.73500 0.42800 31.34600
C  19.35800 -3.60800 30.37100
C  18.65000 -2.88500 25.71200
C  15.95300 1.01500 26.48700
N  17.75000 -1.64900 30.66100
C  17.47800 -0.72500 31.62900
C  18.06100 -1.15100 32.93300
C  19.01600 -2.38400 32.62300
C  18.68400 -2.56900 31.12800
C  20.55600 -2.05100 32.86500
C  16.76900 -1.44700 33.71600
C  16.70100 -0.80200 35.09000
H  17.93700 -0.21600 35.76900
N  18.53900 -3.14800 28.12100
C  19.28000 -3.89800 29.00100
C  19.97300 -4.95100 28.30200
C  19.74500 -4.82100 26.92500
C  18.94800 -3.57500 26.86100
C  20.77300 -6.12000 29.04200
C  20.29200 -5.67600 25.73200
O  20.20700 -5.37100 24.55600
C  20.96500 -7.04600 26.00300
N  17.33200 -0.96900 26.37000
C  17.94700 -1.69100 25.46700
C  17.86800 -1.07400 24.07800
C  16.84500 0.11200 24.32000
C  16.62500 0.03700 25.80400
C  19.27800 -0.58800 23.53600
C  15.56500 0.28700 23.32800
C  14.20000 -0.07400 23.89000
N  16.40200 0.30300 28.78500
C  15.86400 1.16000 27.86700
C  15.12300 2.23000 28.54300
C  15.55400 2.03900 29.90700
C  16.24500 0.79800 30.04800
C  14.22300 3.23300 28.00200
C  15.42900 2.62300 31.19900
O  14.81300 3.58300 31.60000
C  16.20000 1.58200 32.25500
C  17.15200 2.43200 32.97500
O  18.23300 2.65700 32.45700
O  16.63400 3.01200 34.06300
C  17.45800 4.02800 34.67000
H  19.90100 -4.31500 31.00200
H  19.06500 -3.39300 24.83900
H  15.66900 1.79700 25.78000
H  18.56900 -0.24100 33.25200
H  18.74200 -3.28600 33.17000
H  21.20700 -2.26200 32.01700
H  20.89000 -2.66000 33.70400
H  20.61600 -0.97800 33.05000
H  16.68400 -2.49500 34.00600
H  15.85200 -1.16000 33.20100
H  16.27700 -1.54000 35.77100
H  16.01900 0.04400 35.00400
H  21.79600 -5.97800 28.69500
H  20.37000 -7.12600 28.92700
H  20.80900 -5.91100 30.11200
H  20.27300 -7.62900 26.61100
H  21.99000 -7.05500 26.37200
H  20.91600 -7.46200 24.99700
H  17.48700 -1.76200 23.32300
H  17.35100 1.04100 24.05600
H  19.13200 0.39700 23.09300
H  19.78000 -1.31400 22.89700
H  19.84300 -0.49200 24.46200
H  15.72100 -0.20900 22.37000
H  15.61300 1.33200 23.02300
H  13.77900 0.71600 24.51200
H  14.22400 -0.87300 24.63200
H  13.55700 -0.42300 23.08300
H  14.65800 4.23200 28.02300
H  13.30100 3.19700 28.58300
H  14.01300 3.03700 26.95000
H  15.52900 1.24300 33.04300
H  18.46400 3.63400 34.81600
H  17.04500 4.37000 35.61900
H  17.56100 4.90500 34.03100
Mg 50.64700 45.10700 42.51900
C  47.34300 45.71800 41.33400
C  50.17300 41.84500 41.32200
C  53.76800 44.73500 42.88700
C  50.79300 48.53200 43.16100
N  48.92300 43.95200 41.44900
C  47.65200 44.40000 41.15100
C  46.81900 43.28100 40.47000
C  47.57200 41.99100 41.01100
C  49.03000 42.61100 41.23100
C  47.08300 41.26400 42.31100
C  46.59600 43.45300 38.95400
C  45.17100 43.31700 38.48000
H  44.84700 42.33700 37.33400
N  51.81900 43.45500 42.25600
C  51.44900 42.19300 41.82800
C  52.60400 41.36300 41.84700
C  53.66300 42.13400 42.39600
C  53.13600 43.52600 42.52700
C  52.53100 39.90500 41.45700
C  55.01900 41.62500 42.69700
O  55.21600 40.41800 42.72800
C  56.25500 42.52400 43.04800
N  52.07800 46.47500 42.78400
C  53.38200 46.04000 43.04800
C  54.26100 47.23800 43.38200
C  53.30900 48.39100 43.65100
C  51.92300 47.73200 43.24900
C  55.19600 46.93300 44.59800
C  53.48400 49.73600 42.90200
C  53.26700 51.06100 43.71600
N  49.40100 46.79200 42.32200
C  49.61100 48.12300 42.66900
C  48.46400 48.92800 42.37100
C  47.52800 48.01900 41.83100
C  48.13400 46.72300 41.84300
C  48.17900 50.43800 42.68600
C  46.20200 47.87600 41.37200
O  45.27800 48.70700 41.25600
C  46.07700 46.41800 40.95600
C  44.88700 45.88200 41.71600
O  44.96300 45.28500 42.78600
O  43.69800 46.13000 41.13400
C  42.55900 45.34700 41.62500
H  49.87300 40.83100 41.04900
H  54.85800 44.72700 42.95800
H  50.75200 49.60200 43.37200
H  45.87000 43.38800 40.99600
H  47.69600 41.23900 40.23200
H  47.81500 41.35600 43.11300
H  46.96900 40.18600 42.19800
H  46.05600 41.60900 42.43000
H  47.15300 42.57900 38.61600
H  47.03500 44.37500 38.57500
H  44.85500 44.30800 38.15400
H  44.61500 43.06800 39.38400
H  53.32300 39.54500 40.80100
H  51.63700 39.57100 40.93000
H  52.44100 39.42100 42.43000
H  56.20900 42.99400 44.03100
H  56.32900 43.23800 42.22800
H  57.11700 41.85600 43.07800
H  54.86100 47.30600 42.47400
H  53.29200 48.57400 44.72500
H  55.01600 46.04100 45.19800
H  55.13900 47.83800 45.20300
H  56.24000 46.87100 44.29000
H  52.74900 49.68900 42.09800
H  54.51300 49.65900 42.55100
H  52.98300 50.82000 44.74000
H  52.40800 51.64000 43.37900
H  54.12200 51.73300 43.78900
H  47.16400 50.56300 43.06100
H  48.27100 50.99300 41.75300
H  48.86500 50.86100 43.42000
H  45.93300 46.31400 39.88000
H  41.72800 45.32400 40.92100
H  42.12400 45.65300 42.57700
H  42.97200 44.35200 41.79500

