158

Mg 45.69200 4.36300 47.48300
C  43.38400 6.99300 46.73800
C  42.98200 2.16300 46.96100
C  47.80900 1.82800 47.65600
C  48.18200 6.66200 47.27000
N  43.35700 4.59100 46.69200
C  42.67400 5.74600 46.61700
C  41.19600 5.45700 46.46200
C  41.06000 3.93700 46.73200
C  42.57200 3.55300 46.82500
C  40.13900 3.52200 47.86200
C  40.69200 6.05100 45.13000
C  39.25000 6.53600 45.21300
H  38.55400 6.68600 43.88400
N  45.43100 2.27300 47.30600
C  44.26700 1.59700 47.16200
C  44.54800 0.21000 47.18600
C  45.97800 0.04600 47.41200
C  46.46000 1.40900 47.56400
C  43.45800 -0.83500 47.05100
C  46.64200 -1.24100 47.56100
O  46.08600 -2.28600 47.27200
C  48.07500 -1.31600 48.01500
N  47.70700 4.22500 47.30600
C  48.36300 3.11100 47.61900
C  49.82800 3.37700 48.01800
C  49.98900 4.88000 47.62100
C  48.49800 5.32500 47.42100
C  50.04100 2.94200 49.49800
C  50.89000 5.15400 46.40600
C  51.83200 6.39600 46.43300
N  45.85400 6.45300 47.15100
C  46.96300 7.25000 47.14000
C  46.52600 8.62000 46.99900
C  45.13300 8.50300 46.95200
C  44.77800 7.21300 46.90500
C  47.41800 9.84400 46.98200
C  43.92700 9.27000 46.87000
O  43.78700 10.47100 46.87600
C  42.80500 8.32100 46.73000
C  41.84300 8.54700 47.85700
O  41.92200 7.93400 48.90300
O  40.88600 9.56100 47.53800
C  39.92100 9.95900 48.65800
H  42.20200 1.43900 46.71700
H  48.62800 1.12000 47.79800
H  49.11500 7.19600 47.45700
H  40.57300 5.95300 47.20600
H  40.68200 3.46200 45.82700
H  39.72600 4.33500 48.45900
H  40.74400 2.85600 48.47800
H  39.32100 2.95500 47.41900
H  41.00200 5.32900 44.37500
H  41.35000 6.88800 44.90000
H  39.25600 7.56000 45.58800
H  38.69100 5.87100 45.87100
H  43.02200 -0.78300 46.05300
H  42.62600 -0.56200 47.70000
H  43.67800 -1.86800 47.31800
H  48.76100 -0.91900 47.26700
H  48.30500 -2.33200 48.33500
H  48.10200 -0.69600 48.91100
H  50.47300 2.73300 47.42100
H  50.45600 5.42200 48.44300
H  50.87400 2.24800 49.61000
H  49.10300 2.52700 49.86500
H  50.32400 3.81800 50.08400
H  50.25600 5.16600 45.52000
H  51.58700 4.33200 46.24400
H  52.79600 6.07500 46.82700
H  51.51800 7.22100 47.07300
H  51.75800 6.66300 45.37900
H  47.82500 9.99700 45.98300
H  48.15700 9.63700 47.75700
H  46.96600 10.79600 47.26100
H  42.27100 8.52900 45.80200
H  39.53900 10.92700 48.33500
H  40.32200 10.09000 49.66300
H  39.02500 9.34500 48.75600
Mg 54.00200 24.82700 45.47400
C  51.39200 27.08800 44.70100
C  52.02200 22.25800 44.44200
C  56.83100 22.85500 45.64100
C  55.94900 27.54600 46.52500
N  52.05000 24.78200 44.38300
C  51.09600 25.79600 44.27700
C  49.78300 25.21000 43.70700
C  49.97000 23.67900 43.95500
C  51.50100 23.51900 44.25500
C  49.14100 23.12300 45.10000
C  49.61400 25.45300 42.15900
C  48.08400 25.40300 41.65100
H  47.87900 25.10600 40.12400
N  54.35600 22.81800 45.04700
C  53.39000 21.95600 44.75100
C  54.00900 20.60500 44.63600
C  55.41900 20.76200 44.85500
C  55.61100 22.20900 45.19400
C  53.41300 19.43300 44.01700
C  56.43400 19.58800 44.78300
O  56.09100 18.43200 44.69400
C  57.90700 19.78300 44.79600
N  56.06300 25.09800 46.13800
C  57.04700 24.14300 46.11200
C  58.35400 24.71200 46.65200
C  58.07600 26.24900 46.53800
C  56.59800 26.33500 46.39400
C  58.53700 24.28000 48.11800
C  58.60600 26.79400 45.18300
C  59.75300 27.80800 45.37200
N  53.68800 26.86400 45.70400
C  54.62100 27.81700 46.14100
C  53.94500 29.17100 46.25600
C  52.70200 28.93300 45.66100
C  52.60000 27.54100 45.31000
C  54.56000 30.46400 46.87800
C  51.45900 29.50900 45.27800
O  51.09500 30.62900 45.46000
C  50.53900 28.32600 44.62600
C  50.17000 28.73400 43.27900
O  51.01400 28.76700 42.35700
O  48.86800 28.90400 43.20300
C  48.32900 29.19300 41.85400
H  51.38000 21.38600 44.29500
H  57.67200 22.20000 45.87700
H  56.58100 28.37300 46.85700
H  48.87000 25.52800 44.21000
H  49.90000 23.03700 43.07700
H  49.83600 22.94500 45.92100
H  48.75300 22.17600 44.72500
H  48.31600 23.75300 45.43200
H  50.26800 24.73800 41.65800
H  49.99700 26.42600 41.85000
H  47.39700 26.21800 41.87600
H  47.77500 24.51500 42.20300
H  54.01300 19.19800 43.13700
H  52.40900 19.68700 43.67700
H  53.45600 18.56200 44.66900
H  58.21700 20.64700 44.20900
H  58.42400 18.87000 44.50200
H  58.14700 19.82300 45.85900
H  59.14800 24.35800 45.99400
H  58.36600 26.85100 47.39900
H  58.49300 23.19200 48.14200
H  57.75400 24.69600 48.75200
H  59.48400 24.54100 48.59100
H  57.84500 27.32400 44.61000
H  58.98700 26.02800 44.50800
H  60.48500 27.59500 44.59400
H  60.24500 27.82500 46.34500
H  59.45300 28.85600 45.34900
H  55.64400 30.56900 46.92000
H  54.23700 30.42100 47.91800
H  54.17900 31.29400 46.28300
H  49.61300 28.27600 45.20100
H  48.02900 30.24100 41.87600
H  47.38900 28.65600 41.72000
H  48.92900 28.84500 41.01400

