158

Mg 17.30500 -1.67200 27.27100
C  16.05400 0.24400 29.89700
C  19.08600 -3.50800 29.47700
C  19.02900 -2.90600 24.63800
C  15.59600 0.57800 25.02300
N  17.77400 -1.41700 29.35300
C  17.01600 -0.69200 30.25600
C  17.38700 -1.02100 31.69500
C  18.66400 -1.91300 31.52300
C  18.48100 -2.34500 30.03900
C  20.02700 -1.20100 31.84600
C  16.14700 -1.72900 32.39500
C  15.77600 -1.29200 33.84500
H  16.91700 -0.70200 34.66200
N  18.64500 -3.21800 27.03800
C  19.19500 -3.93200 28.10000
C  19.91900 -5.04700 27.56000
C  19.82500 -4.91300 26.11800
C  19.18200 -3.61000 25.86100
C  20.60300 -6.11300 28.33300
C  20.43100 -5.73600 25.01600
O  20.40700 -5.35200 23.82900
C  21.04800 -7.09100 25.35000
N  17.42500 -1.09200 25.19800
C  18.28100 -1.75500 24.42000
C  18.02000 -1.43700 22.97100
C  16.81700 -0.45000 22.98200
C  16.55600 -0.31600 24.46000
C  19.27700 -0.97200 22.23800
C  15.62900 -0.99800 22.16800
C  15.05800 -0.04700 21.00300
N  16.00400 0.02700 27.41600
C  15.33700 0.72600 26.44300
C  14.44600 1.67000 27.04100
C  14.75900 1.61500 28.39500
C  15.66200 0.57900 28.58900
C  13.61900 2.64100 26.29600
C  14.36600 2.13100 29.66300
O  13.53700 2.90200 30.06000
C  15.26400 1.30400 30.75200
C  16.13400 2.31300 31.49100
O  17.26000 2.68800 31.18500
O  15.50300 2.48900 32.73000
C  16.28400 3.39900 33.63100
H  19.65800 -4.08700 30.20600
H  19.51400 -3.31000 23.74600
H  14.99700 1.23600 24.38900
H  17.62600 -0.04800 32.12500
H  18.61600 -2.83500 32.10400
H  19.93500 -0.17300 32.19800
H  20.52900 -1.17600 30.87900
H  20.65700 -1.82400 32.48100
H  16.31900 -2.80400 32.44700
H  15.26400 -1.69300 31.75700
H  15.35200 -2.18800 34.29800
H  15.07200 -0.46200 33.78500
H  20.25800 -6.05600 29.36500
H  21.69100 -6.15900 28.38800
H  20.26400 -7.09800 28.01100
H  21.83700 -6.98400 26.09500
H  21.55200 -7.45000 24.45200
H  20.32700 -7.85000 25.65300
H  17.54600 -2.32900 22.56100
H  17.09000 0.52900 22.58800
H  19.95300 -0.41900 22.89100
H  18.94400 -0.35600 21.40300
H  19.87700 -1.81000 21.88400
H  14.82800 -1.20300 22.87900
H  15.80000 -1.93600 21.63900
H  14.02700 0.28700 21.11600
H  15.03000 -0.58900 20.05700
H  15.73300 0.74200 20.67100
H  13.06800 2.12000 25.51300
H  14.23500 3.30900 25.69400
H  12.95900 3.15800 26.99400
H  14.64600 0.83700 31.51800
H  17.35400 3.28900 33.45200
H  16.11800 3.07900 34.66000
H  15.99300 4.41400 33.35900
Mg 47.12300 24.80900 29.28700
C  47.94600 27.31800 31.68900
C  45.72100 22.97100 31.79400
C  46.60800 22.51300 27.01800
C  49.01800 26.69600 26.90800
N  46.69400 25.17000 31.46100
C  47.18900 26.29400 32.23100
C  46.62200 26.17100 33.68000
C  45.95500 24.73100 33.67800
C  46.17000 24.21900 32.24000
C  46.53700 23.76300 34.76600
C  45.57000 27.30200 33.99900
C  45.55300 28.10700 35.31200
H  46.21300 27.54200 36.50900
N  46.22500 23.00200 29.38300
C  45.67900 22.40200 30.46400
C  45.01600 21.25700 29.97300
C  45.18600 21.11900 28.60400
C  46.10200 22.20800 28.30100
C  44.36000 20.36900 30.99000
C  44.62500 20.06500 27.64900
O  44.90100 20.10500 26.48400
C  43.73700 18.94300 28.08300
N  47.75500 24.66500 27.27400
C  47.49800 23.51400 26.61000
C  48.06500 23.53100 25.16000
C  48.78300 24.87800 25.04800
C  48.57500 25.41800 26.47600
C  49.04400 22.29800 24.88600
C  48.27300 25.73200 23.90100
C  49.31800 26.50800 23.21500
N  48.17500 26.59600 29.18700
C  48.89200 27.23500 28.19900
C  49.36800 28.53900 28.66100
C  49.11300 28.55800 30.03300
C  48.39200 27.39100 30.32700
C  50.17300 29.56600 27.90900
C  49.25800 29.39100 31.18100
O  49.81600 30.44300 31.40800
C  48.45900 28.65600 32.33800
C  49.61400 28.44600 33.35400
O  50.40700 27.54600 33.31100
O  49.50600 29.46200 34.31500
C  50.48100 29.41500 35.38600
H  45.24700 22.33500 32.54400
H  46.20200 21.92300 26.19400
H  49.48100 27.33500 26.15300
H  47.47500 26.17200 34.35900
H  44.88000 24.68400 33.85000
H  45.65700 23.38300 35.28500
H  47.25600 24.36900 35.31700
H  47.11400 22.98900 34.26100
H  44.57400 26.86500 33.92400
H  45.62200 28.03800 33.19700
H  44.52500 28.36100 35.57000
H  46.03700 29.02500 34.97800
H  43.46300 19.86900 30.62400
H  44.10500 20.80100 31.95800
H  45.13700 19.65300 31.25800
H  44.09800 18.19100 28.78400
H  43.27700 18.55700 27.17300
H  42.88500 19.45800 28.52600
H  47.17000 23.51700 24.53800
H  49.82500 24.59700 24.89100
H  49.38400 21.89100 25.83900
H  49.85900 22.63100 24.24300
H  48.49400 21.62300 24.23100
H  47.55100 26.40900 24.35700
H  47.73900 25.08000 23.21000
H  50.36400 26.45600 23.51500
H  49.00400 27.53100 23.42500
H  49.25600 26.33000 22.14100
H  50.01300 29.43200 26.83900
H  51.22500 29.44100 28.16700
H  50.00300 30.62100 28.12500
H  47.62400 29.24800 32.71300
H  50.59000 30.39400 35.85300
H  51.44800 29.04900 35.04100
H  50.00700 28.69600 36.05400

