158

Mg 17.61000 -1.03700 28.25500
C  16.02000 1.03100 30.65400
C  19.27900 -2.55700 30.90100
C  19.52400 -2.42500 26.08500
C  16.13400 1.06000 25.75900
N  17.89300 -0.54400 30.44600
C  16.95500 0.14400 31.22200
C  17.22400 -0.05900 32.77900
C  18.37400 -1.12400 32.69000
C  18.55800 -1.43500 31.27300
C  19.62100 -0.75200 33.51600
C  16.04300 -0.58800 33.57200
C  15.63800 0.03500 34.90100
H  16.75600 0.17800 35.92900
N  19.06500 -2.42400 28.46000
C  19.56200 -3.03400 29.61500
C  20.53200 -4.12700 29.22800
C  20.60800 -4.04500 27.79600
C  19.74700 -2.83200 27.40700
C  21.18400 -5.05700 30.28900
C  21.55400 -4.85200 26.83200
O  21.61100 -4.65200 25.62900
C  22.56100 -5.76800 27.38800
N  17.76800 -0.76200 26.20300
C  18.75900 -1.38500 25.51500
C  18.78500 -1.01000 24.01700
C  17.68000 0.06900 23.94200
C  17.13000 0.13100 25.36200
C  20.09700 -0.51300 23.44100
C  16.64700 -0.12500 22.74700
C  16.77100 0.81000 21.50900
N  16.30000 0.71100 28.11800
C  15.70900 1.37700 27.03700
C  14.87900 2.52100 27.48400
C  14.93700 2.36500 28.90500
C  15.73600 1.24600 29.24800
C  14.14100 3.44200 26.54500
C  14.35700 2.88900 30.20200
O  13.47500 3.63900 30.48600
C  15.14600 2.05200 31.34000
C  16.03100 3.00700 32.07400
O  17.15200 3.33200 31.78100
O  15.29900 3.48700 33.13100
C  15.93800 4.18800 34.23400
H  19.62000 -3.12300 31.77000
H  20.17800 -2.83100 25.31100
H  15.72100 1.56400 24.88300
H  17.60100 0.87600 33.19400
H  18.12500 -2.10100 33.10300
H  19.38600 0.05200 34.21300
H  20.34800 -0.56500 32.72600
H  19.90200 -1.61700 34.11500
H  16.12400 -1.65600 33.77200
H  15.22600 -0.39200 32.87700
H  14.83400 -0.55900 35.33600
H  15.14000 0.98500 34.70600
H  22.22100 -4.79200 30.49800
H  21.17700 -6.09800 29.96700
H  20.79800 -4.88000 31.29300
H  22.18300 -6.33700 28.23700
H  23.44100 -5.20400 27.69900
H  22.73100 -6.40600 26.52100
H  18.52900 -1.94700 23.52200
H  18.19300 1.02900 23.87600
H  20.05700 0.54500 23.18200
H  20.37600 -1.05400 22.53700
H  20.84000 -0.57200 24.23600
H  15.61200 -0.01000 23.07100
H  16.81600 -1.13200 22.36700
H  17.66300 1.43600 21.49500
H  15.86500 1.40600 21.39900
H  16.79800 0.14000 20.64900
H  13.34000 2.79600 26.18900
H  14.94600 3.64300 25.83800
H  13.62700 4.29300 26.99300
H  14.43800 1.74000 32.10700
H  16.94200 4.53700 33.99000
H  15.89500 3.43900 35.02500
H  15.29600 4.93300 34.70400
Mg 40.90900 8.94400 29.52200
C  42.47700 9.74100 32.45900
C  38.66700 7.21600 31.06100
C  39.61100 8.12700 26.47800
C  43.64400 10.49100 27.75900
N  40.77400 8.40900 31.46600
C  41.40800 8.88400 32.60500
C  40.80000 8.39200 33.88300
C  39.86900 7.26200 33.29200
C  39.72500 7.65500 31.82300
C  40.55500 5.80600 33.34200
C  40.03500 9.55800 34.64600
C  40.12400 9.38500 36.19000
H  39.92000 10.67500 37.05500
N  39.20400 8.02900 28.83400
C  38.37600 7.39400 29.64600
C  37.27800 6.92400 28.89500
C  37.50400 7.15100 27.53300
C  38.88700 7.77400 27.55400
C  36.11500 6.12500 29.57100
C  36.65900 6.78900 26.35700
O  37.10900 6.99200 25.22300
C  35.24400 6.31800 26.56400
N  41.54100 9.22600 27.39400
C  40.86800 8.67200 26.36700
C  41.66400 8.83200 24.97900
C  42.91500 9.74000 25.44900
C  42.67600 9.86900 26.94600
C  42.06900 7.46200 24.24900
C  42.86300 11.14400 24.74900
C  41.58400 12.00400 24.93100
N  42.68800 9.92600 30.00100
C  43.71800 10.47300 29.19800
C  44.60900 11.17800 30.14300
C  44.16900 10.89400 31.43700
C  43.06600 10.12200 31.26100
C  45.78300 11.90300 29.71800
C  44.46200 11.17800 32.84000
O  45.32400 11.85000 33.48600
C  43.32200 10.37000 33.53700
C  43.83700 9.46900 34.59700
O  44.54300 8.52300 34.41200
O  43.44600 9.94600 35.88100
C  44.00600 9.13800 37.05400
H  37.94000 6.71400 31.70200
H  39.20500 7.81800 25.51300
H  44.56600 10.82100 27.27500
H  41.47600 7.91300 34.59000
H  38.89400 7.31100 33.77800
H  39.92100 5.05100 33.80900
H  41.40200 5.88800 34.02300
H  40.95800 5.59500 32.35200
H  38.97900 9.37800 34.44400
H  40.38600 10.51000 34.24800
H  41.07300 8.91100 36.44200
H  39.34000 8.73300 36.57400
H  36.31900 6.15500 30.64200
H  36.18900 5.08600 29.25100
H  35.20600 6.67900 29.33500
H  35.28500 5.40900 27.16300
H  34.87700 6.05600 25.57100
H  34.71600 7.17900 26.97400
H  41.01100 9.33900 24.26900
H  43.91800 9.32400 25.35900
H  41.52700 7.31900 23.31400
H  41.82200 6.71900 25.00700
H  43.12500 7.33000 24.01500
H  43.01900 11.00600 23.67900
H  43.74200 11.72100 25.03800
H  41.32100 12.20000 23.89100
H  41.94400 12.94000 25.35800
H  40.72800 11.70900 25.53800
H  46.55000 11.15900 29.50300
H  46.21500 12.52700 30.50000
H  45.59200 12.37900 28.75600
H  42.94400 11.20900 34.12200
H  44.27100 8.14800 36.68300
H  43.36900 9.20100 37.93600
H  44.96100 9.57700 37.34200

