158

Mg 1.66900 7.99800 27.04500
C  1.66400 10.33200 29.57500
C  2.25600 5.45400 29.28000
C  2.20300 5.89100 24.46500
C  1.59900 10.64900 24.70300
N  1.67600 7.91200 29.17900
C  1.65300 8.98100 30.05900
C  1.56600 8.50000 31.48500
C  1.86800 6.90500 31.35100
C  1.92700 6.69300 29.82400
C  3.15300 6.43500 32.08900
C  0.17600 8.83200 32.19900
C  0.29400 9.07600 33.67700
H  1.43800 8.39600 34.45700
N  2.20300 6.00300 26.92600
C  2.39900 5.11100 27.95500
C  2.95600 3.92800 27.41800
C  2.91100 3.99000 26.01500
C  2.43300 5.33200 25.73800
C  3.42300 2.82600 28.31600
C  3.26900 2.94300 24.97800
O  2.98700 3.18800 23.80000
C  3.79000 1.59400 25.34800
N  1.82300 8.28000 24.85100
C  1.89000 7.21100 24.07100
C  1.88200 7.63800 22.57700
C  1.47700 9.09000 22.61000
C  1.60000 9.38800 24.13900
C  3.22500 7.42800 21.82300
C  0.06800 9.39800 22.11800
C  -0.11600 10.58200 21.22000
N  1.72700 10.04100 27.06700
C  1.73800 11.01000 26.03900
C  1.86200 12.30400 26.66000
C  1.87000 12.05800 28.05900
C  1.66700 10.71400 28.23900
C  1.93300 13.68400 26.01400
C  1.88400 12.69700 29.35200
O  1.93400 13.82300 29.76200
C  1.80200 11.57900 30.42400
C  3.17200 11.65100 31.06200
O  4.20800 11.57500 30.46000
O  3.01800 11.80800 32.45100
C  4.28400 11.82400 33.15300
H  2.32400 4.65100 30.01700
H  2.28100 5.24500 23.58800
H  1.58200 11.45200 23.96400
H  2.42200 8.98700 31.95200
H  0.99400 6.41100 31.77500
H  3.61200 5.56100 31.62700
H  3.21800 6.26500 33.16400
H  3.97400 7.13500 31.93300
H  -0.58800 8.06100 32.10400
H  -0.26400 9.68500 31.68200
H  -0.57800 8.52600 34.03100
H  0.31600 10.14200 33.90600
H  4.49100 2.73500 28.11900
H  2.98300 1.83200 28.24100
H  3.41900 3.09700 29.37200
H  2.97200 1.07000 25.84200
H  4.74700 1.56000 25.86800
H  3.99000 1.09500 24.40000
H  1.12500 7.12300 21.98500
H  2.12700 9.68600 21.96900
H  3.87200 7.28500 22.68800
H  3.55000 8.32600 21.29700
H  3.31100 6.61400 21.10400
H  -0.45300 9.66800 23.03600
H  -0.41100 8.49500 21.73800
H  -0.40500 10.28100 20.21300
H  0.78100 11.20000 21.17800
H  -0.92300 11.18300 21.63900
H  0.96600 14.15100 25.82800
H  2.04000 13.47400 24.94900
H  2.72700 14.36200 26.32600
H  1.03600 11.74100 31.18300
H  4.63900 12.85400 33.20700
H  5.16800 11.30600 32.78200
H  4.00100 11.47500 34.14600
Mg 8.71500 2.98900 27.77900
C  10.12100 1.59100 30.71200
C  6.91200 5.22800 29.90800
C  7.29400 4.44500 25.14400
C  10.18300 0.55600 25.83200
N  8.42000 3.27000 30.07500
C  9.13700 2.60500 31.08200
C  8.83300 3.14500 32.48300
C  7.90800 4.32400 32.16700
C  7.60600 4.27500 30.60400
C  6.62500 4.36500 33.06900
C  10.15300 3.63000 33.10300
C  10.07500 4.28500 34.47100
H  10.35600 3.41900 35.69500
N  7.30300 4.61700 27.51400
C  6.71300 5.34100 28.51900
C  5.91400 6.38900 27.90800
C  6.19600 6.38200 26.48600
C  6.95400 5.13800 26.28400
C  5.18900 7.52100 28.70700
C  5.85100 7.33300 25.38400
O  6.10600 7.12600 24.21100
C  5.21900 8.60800 25.74500
N  8.75100 2.59100 25.73700
C  8.02400 3.32100 24.83300
C  8.19200 2.74800 23.46800
C  9.33500 1.64600 23.63600
C  9.39500 1.52000 25.16000
C  6.89100 2.17200 22.72400
C  10.68900 1.91400 22.96800
C  11.48900 0.85200 22.31900
N  9.87100 1.35800 28.11500
C  10.40700 0.46100 27.25800
C  11.28000 -0.49400 27.92300
C  11.15600 -0.09200 29.29600
C  10.35700 1.06300 29.34900
C  12.00100 -1.66500 27.32200
C  11.56900 -0.45300 30.61200
O  12.20900 -1.42900 30.99600
C  10.94700 0.63400 31.61600
C  10.12200 0.10300 32.68900
O  9.02400 -0.41900 32.56900
O  10.89600 0.02000 33.87100
C  10.22200 -0.66000 34.99600
H  6.44400 6.06300 30.43400
H  6.88400 4.94100 24.26200
H  10.83800 -0.07300 25.22600
H  8.41200 2.36900 33.12300
H  8.47700 5.23900 32.32800
H  5.95600 5.01100 32.50000
H  6.76100 4.68700 34.10100
H  6.30000 3.32700 32.99200
H  10.68600 4.20700 32.34800
H  10.88000 2.82000 33.15800
H  9.00600 4.33400 34.67400
H  10.62500 5.22600 34.48200
H  5.79000 8.43000 28.67400
H  5.05400 7.32100 29.77000
H  4.32500 7.79100 28.10000
H  5.20700 9.25700 24.87000
H  5.64200 9.07700 26.63300
H  4.22500 8.31600 26.08400
H  8.66400 3.63100 23.03800
H  8.95200 0.72200 23.20100
H  6.86200 1.11600 22.45400
H  6.66700 2.70300 21.79900
H  6.00800 2.28100 23.35400
H  11.33600 2.21600 23.79100
H  10.62800 2.71700 22.23400
H  11.01200 -0.12800 22.35800
H  12.47500 0.80700 22.78100
H  11.71500 1.10400 21.28200
H  11.83300 -1.65000 26.24500
H  11.57700 -2.60700 27.67000
H  13.07400 -1.66900 27.51300
H  11.74100 1.24200 32.05100
H  10.04200 -1.69100 34.69100
H  9.22700 -0.29000 35.24000
H  10.81600 -0.59400 35.90700

