158

Mg -10.57600 39.94300 39.81100
C  -9.59400 36.83700 39.00400
C  -7.62200 41.23600 38.76600
C  -11.91600 43.06100 39.99100
C  -13.86700 38.61700 40.11300
N  -8.83000 39.14600 38.99000
C  -8.62200 37.77900 38.76500
C  -7.24700 37.56900 38.13500
C  -6.48400 38.93900 38.48900
C  -7.71200 39.82500 38.82800
C  -5.45700 38.84400 39.66300
C  -7.48800 37.48200 36.54100
C  -6.98800 36.15800 35.89100
H  -8.00100 35.62200 34.77400
N  -9.87000 41.87500 39.50800
C  -8.58400 42.19800 39.10400
C  -8.43600 43.66100 39.13700
C  -9.68400 44.22900 39.45000
C  -10.56200 43.04900 39.72200
C  -7.00600 44.29000 38.71000
C  -9.90400 45.66900 39.48300
O  -9.01700 46.50800 39.32800
C  -11.34300 46.33400 39.64900
N  -12.70200 40.70600 39.82500
C  -12.94300 42.09300 40.01800
C  -14.48000 42.40100 40.23500
C  -15.06800 40.92600 40.24000
C  -13.76800 40.01400 40.08200
C  -14.80000 43.25300 41.49500
C  -16.29200 40.50200 39.31000
C  -17.48100 39.83000 40.02300
N  -11.50200 38.08300 39.90200
C  -12.81800 37.74600 40.05400
C  -12.96900 36.35400 39.78600
C  -11.68000 35.91400 39.42900
C  -10.86000 37.03500 39.51400
C  -14.21100 35.54800 39.68300
C  -10.88000 34.77300 38.93000
O  -11.29600 33.64200 38.71900
C  -9.47700 35.29900 38.74800
C  -8.45000 34.40900 39.49700
O  -8.47400 34.23900 40.72800
O  -7.48500 33.87900 38.65200
C  -6.40400 33.16800 39.35200
H  -6.66500 41.66500 38.46400
H  -12.31900 44.06300 40.15000
H  -14.85600 38.16000 40.18200
H  -6.71600 36.65500 38.40100
H  -6.02600 39.37700 37.60200
H  -5.27100 37.79000 39.86700
H  -6.05500 39.23900 40.48500
H  -4.53400 39.34700 39.37400
H  -7.09800 38.33400 35.98300
H  -8.54600 37.60000 36.30700
H  -6.86100 35.40000 36.66500
H  -5.96700 36.22300 35.51400
H  -6.90100 45.26000 39.19600
H  -6.82600 44.25500 37.63500
H  -6.27900 43.70700 39.27600
H  -11.32100 47.42300 39.63300
H  -11.73700 46.01600 40.61400
H  -11.91500 45.99200 38.78600
H  -14.76400 43.00600 39.37400
H  -15.28200 40.62500 41.26500
H  -13.88800 43.69800 41.89200
H  -15.26700 42.64800 42.27200
H  -15.43100 44.10300 41.23600
H  -16.07100 39.91800 38.41700
H  -16.73600 41.46300 39.05000
H  -18.04000 39.09700 39.44200
H  -18.24800 40.53800 40.33800
H  -17.08700 39.43100 40.95700
H  -13.96200 34.48700 39.66100
H  -14.86500 35.68700 38.82200
H  -14.79200 35.73300 40.58700
H  -9.11900 35.20300 37.72300
H  -6.67500 32.24700 39.86900
H  -5.89100 33.87300 40.00600
H  -5.63400 32.77200 38.69000
Mg -2.21200 34.51100 27.03200
C  -4.24800 32.95300 29.46500
C  -0.93700 36.49000 29.50600
C  -0.73500 36.24700 24.64900
C  -3.78500 32.59600 24.53600
N  -2.71900 34.84000 29.19400
C  -3.39200 33.91900 30.01800
C  -3.18700 34.23600 31.49000
C  -2.41100 35.59700 31.35500
C  -2.03500 35.69200 29.89000
C  -3.08800 36.85300 31.89600
C  -2.41600 33.18100 32.33300
C  -3.27700 32.55400 33.41200
H  -3.86300 33.46700 34.48200
N  -0.86400 36.06500 27.06000
C  -0.39800 36.64500 28.23200
C  0.51200 37.71600 27.79600
C  0.59100 37.70100 26.36900
C  -0.35200 36.65800 25.96000
C  1.16300 38.69400 28.74100
C  1.46900 38.39700 25.48900
O  1.56700 38.06700 24.32700
C  2.39100 39.56500 25.91500
N  -2.32800 34.48800 24.91900
C  -1.56900 35.26900 24.13500
C  -1.57400 34.87500 22.66300
C  -2.58100 33.73200 22.65800
C  -2.88500 33.55200 24.16400
C  -1.87400 36.07000 21.72300
C  -1.88700 32.43700 21.96600
C  -0.61100 31.81800 22.71200
N  -3.68700 33.05900 26.95000
C  -4.24200 32.40900 25.86700
C  -5.23800 31.40900 26.31300
C  -5.27000 31.50400 27.78000
C  -4.35800 32.58300 28.08500
C  -5.91800 30.28900 25.47500
C  -5.81700 31.06300 29.02400
O  -6.64700 30.21100 29.30800
C  -5.15200 31.89400 30.16500
C  -6.23900 32.51500 30.92900
O  -6.62500 33.68100 30.73600
O  -6.61000 31.60700 31.90900
C  -7.66700 32.11400 32.84900
H  -0.36400 36.92700 30.32600
H  -0.26700 36.67700 23.76200
H  -4.37600 32.03200 23.81100
H  -4.16500 34.32600 31.96300
H  -1.52900 35.42700 31.97300
H  -3.58600 36.71200 32.85500
H  -3.84100 37.11000 31.15100
H  -2.27300 37.57000 31.99500
H  -1.57700 33.59100 32.89600
H  -1.96900 32.40600 31.71100
H  -2.63400 31.96800 34.06900
H  -4.04200 31.85600 33.07400
H  0.84200 39.67900 28.40300
H  2.24500 38.57500 28.68400
H  0.89500 38.51600 29.78200
H  1.86900 40.49000 26.16000
H  3.07900 39.73900 25.08700
H  2.97000 39.22600 26.77400
H  -0.57000 34.58000 22.35800
H  -3.48200 34.15000 22.21000
H  -2.84700 36.01000 21.23500
H  -1.18700 36.06400 20.87600
H  -1.86900 36.96200 22.35000
H  -1.48400 32.77000 21.00900
H  -2.74300 31.77600 21.82700
H  -1.06600 30.89200 23.06500
H  -0.48000 32.43200 23.60300
H  0.34900 31.77300 22.19900
H  -5.80600 29.36000 26.03400
H  -5.47100 30.20100 24.48400
H  -6.95700 30.58400 25.33100
H  -4.64300 31.21000 30.84500
H  -7.40600 33.12300 33.16900
H  -7.83200 31.41300 33.66600
H  -8.60500 32.28900 32.32300

