158

Mg 44.25400 3.29500 47.56800
C  42.14200 6.11700 46.97100
C  41.29600 1.24000 47.25300
C  46.10900 0.67000 47.69200
C  47.02300 5.51100 47.00500
N  42.03300 3.65900 47.18200
C  41.41000 4.88500 47.13600
C  39.83700 4.76600 47.19600
C  39.65700 3.21700 47.30200
C  41.08300 2.68000 47.27600
C  38.96900 2.75300 48.65500
C  39.01200 5.46800 46.00700
C  39.71700 5.52300 44.64300
H  39.34100 4.63600 43.46000
N  43.77700 1.18300 47.53500
C  42.53600 0.52500 47.37900
C  42.75900 -0.92600 47.34900
C  44.14400 -1.13300 47.58800
C  44.73900 0.26800 47.62200
C  41.57400 -1.91400 47.25500
C  44.87900 -2.42200 47.70200
O  44.25400 -3.49800 47.69200
C  46.35100 -2.60700 47.71600
N  46.27800 3.05600 47.26500
C  46.81700 1.87300 47.47200
C  48.32200 1.87400 47.47900
C  48.64500 3.38000 47.23100
C  47.19500 4.05200 47.15000
C  48.89100 1.50300 48.84900
C  49.59000 3.81800 46.00100
C  50.52000 2.81500 45.26300
N  44.56600 5.37900 47.18500
C  45.72500 6.03900 46.95000
C  45.43800 7.45600 46.81300
C  44.05300 7.50400 46.78800
C  43.55100 6.27000 46.99700
C  46.50900 8.53700 46.68500
C  42.94900 8.40400 46.78000
O  42.85100 9.63900 46.77900
C  41.64900 7.51900 46.73300
C  40.75100 7.99600 47.89800
O  40.87000 7.61500 49.07200
O  39.75400 8.90000 47.43700
C  38.90900 9.39900 48.51300
H  40.49200 0.50200 47.23000
H  46.72700 -0.21800 47.83800
H  47.95600 6.07800 46.96400
H  39.52900 5.39800 48.02900
H  39.13800 2.81500 46.43200
H  39.56200 2.26600 49.42900
H  38.23000 1.99300 48.39900
H  38.42200 3.60900 49.05000
H  38.78500 6.47600 46.35400
H  38.04100 4.98300 45.90900
H  40.78800 5.33200 44.70800
H  39.66500 6.54700 44.27200
H  40.79700 -1.55600 46.57900
H  41.03200 -1.98200 48.19800
H  41.89200 -2.92900 47.01400
H  46.82300 -2.05400 46.90400
H  46.55100 -3.67600 47.63600
H  46.75700 -2.22400 48.65200
H  48.75300 1.17700 46.76100
H  49.13100 3.88000 48.06800
H  49.46900 0.60200 48.64400
H  48.14400 1.48100 49.64300
H  49.65400 2.21800 49.15700
H  50.23600 4.61600 46.36700
H  48.99300 4.38000 45.28300
H  51.54800 3.12200 45.45400
H  50.44300 2.80400 44.17500
H  50.41900 1.81800 45.69200
H  47.15300 8.26600 45.84900
H  46.93000 8.63900 47.68600
H  45.93200 9.44300 46.49900
H  41.08600 7.66400 45.81100
H  38.03900 9.85300 48.03900
H  39.46100 10.10800 49.13100
H  38.47200 8.62400 49.14300
Mg -5.21300 24.72200 26.32100
C  -3.72300 26.59500 29.03300
C  -6.67300 22.68600 28.69800
C  -6.72900 23.41500 23.86400
C  -3.44700 26.95000 24.15800
N  -5.28900 24.77800 28.65000
C  -4.65200 25.55200 29.51100
C  -5.08100 25.30000 30.96100
C  -5.81700 23.94600 30.89600
C  -5.91100 23.74500 29.33800
C  -5.15400 22.69900 31.55000
C  -6.03600 26.51100 31.39700
C  -6.45400 26.60300 32.93200
H  -5.83300 25.62900 33.92500
N  -6.49200 23.22700 26.24200
C  -7.00700 22.47700 27.32900
C  -7.86500 21.45400 26.75400
C  -7.97500 21.61200 25.36100
C  -7.13300 22.85300 25.12200
C  -8.47300 20.45700 27.67900
C  -8.69000 20.75000 24.33300
O  -8.80600 21.08000 23.14900
C  -9.20300 19.38900 24.75100
N  -5.05800 25.19000 24.25700
C  -5.83900 24.45500 23.38700
C  -5.53200 24.73400 21.89600
C  -4.70600 26.10900 22.04800
C  -4.35500 26.09800 23.56200
C  -4.81700 23.54700 21.18900
C  -5.44900 27.37700 21.61900
C  -4.59400 28.42800 20.84000
N  -3.74300 26.32600 26.55200
C  -3.15200 27.05100 25.54400
C  -2.11000 27.87400 26.13900
C  -2.33000 27.73600 27.56300
C  -3.35400 26.85500 27.71400
C  -1.03200 28.76300 25.37400
C  -2.09500 28.32600 28.91400
O  -1.39300 29.23500 29.33000
C  -2.87300 27.45100 29.89500
C  -1.86900 26.53300 30.62200
O  -1.51200 25.40600 30.30200
O  -1.58800 27.11200 31.81600
C  -0.89800 26.28400 32.82300
H  -7.21900 22.08900 29.43100
H  -7.31800 22.87800 23.11800
H  -2.82800 27.53100 23.47000
H  -4.22600 25.37700 31.63200
H  -6.84100 24.02500 31.26100
H  -5.80900 22.32100 32.33400
H  -4.27600 23.02900 32.10500
H  -4.82400 21.93000 30.85100
H  -6.93300 26.31800 30.80900
H  -5.57000 27.45400 31.11000
H  -7.54000 26.64400 33.02000
H  -6.08000 27.60900 33.12400
H  -9.52600 20.71400 27.78900
H  -7.97800 20.47000 28.65000
H  -8.33700 19.42300 27.36300
H  -8.34600 18.85800 25.16500
H  -9.50900 18.86000 23.84800
H  -9.96300 19.56800 25.51100
H  -6.52900 24.79700 21.46000
H  -3.81900 25.99200 21.42500
H  -3.79300 23.60200 21.56000
H  -4.92700 23.48600 20.10700
H  -5.33800 22.68600 21.60800
H  -5.79900 27.89700 22.51100
H  -6.31400 27.06000 21.03700
H  -3.79700 27.97800 20.24900
H  -4.06600 29.12900 21.48700
H  -5.14900 29.03600 20.12600
H  -1.55100 29.57500 24.86300
H  -0.45400 28.09500 24.73600
H  -0.42900 29.27500 26.12400
H  -3.41600 28.06100 30.61600
H  0.03400 26.70600 33.20000
H  -0.63100 25.27300 32.51800
H  -1.57600 26.04200 33.64100

