158

Mg 35.47000 1.20300 30.02000
C  33.17500 2.16700 32.42000
C  37.91700 1.06800 32.58600
C  37.92900 0.95300 27.78700
C  33.15200 1.94400 27.55600
N  35.50200 1.60900 32.27000
C  34.39400 1.89100 33.03200
C  34.75500 2.01600 34.48200
C  36.32400 1.91900 34.51200
C  36.60900 1.50700 33.07600
C  37.11700 3.21400 34.73700
C  34.02800 0.87100 35.29900
C  33.66300 1.25100 36.77500
H  34.81000 1.72600 37.71300
N  37.63600 0.88800 30.13500
C  38.40300 0.83700 31.25900
C  39.80400 0.43300 30.89300
C  39.81400 0.39900 29.46600
C  38.42700 0.85700 29.10200
C  40.96600 0.32500 31.88700
C  40.94600 0.04900 28.48600
O  40.73800 -0.07800 27.28600
C  42.36000 -0.32600 28.95000
N  35.55100 1.52300 27.98600
C  36.68700 1.19900 27.23100
C  36.31300 1.12700 25.68400
C  34.86400 1.66600 25.61500
C  34.44700 1.65800 27.13600
C  37.35000 1.84700 24.81100
C  33.88100 0.88300 24.60000
C  33.62400 1.41700 23.15800
N  33.46800 1.78500 29.97000
C  32.68500 2.07800 28.88100
C  31.37900 2.37800 29.36900
C  31.56300 2.51200 30.74400
C  32.84300 2.13200 31.06300
C  30.13000 2.70900 28.54000
C  30.85800 2.89900 31.99100
O  29.68000 3.30300 32.16700
C  31.98900 2.70600 33.16900
C  32.23400 4.00200 33.76000
O  32.70100 4.97600 33.15700
O  31.89300 4.12600 35.08100
C  32.43200 5.25100 35.82800
H  38.71300 0.93200 33.32100
H  38.60400 0.61500 26.99800
H  32.52800 2.13800 26.68000
H  34.51000 3.02900 34.80000
H  36.77000 1.11100 35.09100
H  37.56100 3.68000 33.85800
H  37.95400 3.08200 35.42200
H  36.60200 4.01100 35.27300
H  34.60200 -0.05500 35.34000
H  33.11900 0.54800 34.79000
H  33.10000 0.49700 37.32500
H  32.97200 2.08300 36.64300
H  40.65600 -0.13700 32.82400
H  41.40300 1.32200 31.94000
H  41.82700 -0.26700 31.57500
H  42.56300 0.34700 29.78300
H  43.17600 -0.26800 28.22900
H  42.24100 -1.34100 29.33000
H  36.27100 0.07900 25.38800
H  34.96500 2.64500 25.14600
H  38.02100 2.47600 25.39600
H  36.92500 2.57400 24.11900
H  37.93400 1.18200 24.17500
H  32.86800 0.87200 25.00200
H  34.25400 -0.14000 24.53900
H  33.68900 2.50300 23.09300
H  32.61100 1.11400 22.89600
H  34.42300 0.99500 22.54800
H  30.32000 2.49100 27.48900
H  29.94300 3.78000 28.61900
H  29.26600 2.23400 29.00500
H  31.60600 2.02600 33.92900
H  32.36800 6.18900 35.27600
H  33.44600 5.00200 36.14100
H  31.62900 5.33300 36.56200
Mg 9.74200 48.57400 26.26900
C  7.50700 48.43200 29.04900
C  12.24100 49.43200 28.41700
C  11.72700 48.56000 23.64300
C  6.92600 47.76700 24.21800
N  9.75100 49.13300 28.45600
C  8.81200 48.81600 29.37500
C  9.38600 48.94400 30.79300
C  10.72100 49.73100 30.55900
C  10.92200 49.44300 29.01700
C  10.60800 51.26700 30.82700
C  9.47700 47.53800 31.59800
C  10.63700 47.29300 32.59400
H  10.35000 46.36500 33.76700
N  11.74100 49.02200 26.06200
C  12.60500 49.33200 27.02900
C  13.86400 49.29200 26.53800
C  13.80500 48.99200 25.11900
C  12.43900 48.90600 24.85000
C  15.14700 49.61000 27.29800
C  14.94900 48.81500 23.94300
O  14.71500 48.58300 22.78200
C  16.30400 48.58400 24.54000
N  9.29500 48.40600 24.18500
C  10.36000 48.33300 23.28800
C  9.83100 48.04400 21.89600
C  8.37500 47.66000 22.15300
C  8.13300 48.04700 23.56900
C  10.14900 49.22200 20.89900
C  8.16800 46.15400 21.96500
C  6.93400 45.78900 21.04600
N  7.58000 48.24900 26.49400
C  6.59100 47.89900 25.59000
C  5.37600 47.60000 26.29000
C  5.63200 47.75300 27.63800
C  7.02100 48.20700 27.68300
C  4.05500 47.16000 25.64700
C  5.11100 47.81700 28.97900
O  3.95900 47.65100 29.37200
C  6.27400 48.09400 29.92600
C  6.42900 46.81100 30.74100
O  6.85800 45.74100 30.24700
O  5.91000 46.94500 31.98100
C  6.08400 45.87500 32.92900
H  13.05900 49.65000 29.10700
H  12.28300 48.45000 22.71000
H  6.06300 47.48500 23.61000
H  8.56500 49.52100 31.21900
H  11.64400 49.33500 30.98300
H  11.05400 51.86000 30.02800
H  11.12500 51.57200 31.73700
H  9.58200 51.46300 31.13600
H  9.20100 46.75700 30.88900
H  8.63400 47.68200 32.27300
H  10.94300 48.22800 33.06300
H  11.53900 46.99700 32.05800
H  15.04200 49.97600 28.32000
H  15.75000 50.35000 26.77200
H  15.68700 48.66600 27.36900
H  16.64700 49.54200 24.93200
H  17.04200 48.36600 23.76800
H  16.27800 47.78200 25.27700
H  10.41500 47.21300 21.50000
H  7.61600 48.12200 21.52100
H  10.68400 48.81800 20.03900
H  10.70100 49.94400 21.50000
H  9.26600 49.63500 20.41000
H  8.01400 45.59000 22.88500
H  9.08200 45.73000 21.54800
H  7.18900 45.65300 19.99500
H  6.10300 46.49200 21.10600
H  6.53900 44.81800 21.34400
H  4.27300 46.55000 24.77000
H  3.47700 48.03100 25.33900
H  3.39000 46.60000 26.30500
H  6.07300 48.99800 30.50100
H  5.05800 45.57900 33.14600
H  6.60500 46.24200 33.81300
H  6.55200 44.96300 32.55900

