158

Mg 46.58000 45.65400 44.42900
C  43.25900 45.05800 43.30700
C  47.41700 42.61100 42.98300
C  49.73400 46.48600 44.88200
C  45.58900 49.00500 44.88700
N  45.46500 44.06200 43.25700
C  44.14700 44.08900 42.91900
C  43.78400 42.86600 42.10700
C  45.04700 41.97900 42.21700
C  46.05200 42.94600 42.80400
C  44.85100 40.65500 43.00200
C  43.35400 43.13100 40.64900
C  42.14500 42.30500 40.08900
H  42.51400 41.28200 38.98600
N  48.36800 44.56300 44.17700
C  48.53900 43.36600 43.59800
C  49.88800 42.96800 43.75900
C  50.59300 44.14600 44.28900
C  49.55600 45.14800 44.51600
C  50.47200 41.54900 43.28400
C  52.07700 44.17000 44.43100
O  52.74100 43.16900 44.22900
C  52.89600 45.35900 44.81300
N  47.52100 47.46900 44.62100
C  48.84700 47.53100 44.93700
C  49.23700 49.00200 45.13100
C  47.98200 49.79300 45.17900
C  46.91800 48.72400 44.88200
C  50.16000 49.34300 46.39600
C  47.94600 51.10300 44.31500
C  47.98700 50.86100 42.70400
N  44.75900 46.78000 44.31900
C  44.52400 48.13100 44.56500
C  43.07400 48.37300 44.53500
C  42.57000 47.11100 44.12800
C  43.64800 46.17800 43.98200
C  42.31000 49.56200 44.96900
C  41.35300 46.37400 43.84800
O  40.15800 46.71800 44.01700
C  41.75900 45.01100 43.26700
C  41.12400 43.97000 44.13500
O  40.21900 43.24600 43.81600
O  41.61800 43.95400 45.43500
C  41.04500 42.92700 46.36600
H  47.62200 41.63900 42.53000
H  50.71700 46.75700 45.27100
H  45.19300 50.02100 44.95200
H  42.93500 42.45000 42.64900
H  45.37500 41.62600 41.23900
H  45.64800 40.56200 43.73900
H  44.87600 39.74900 42.39700
H  43.89500 40.49500 43.50000
H  44.26400 42.98200 40.06900
H  43.06700 44.18200 40.60800
H  41.44500 42.94000 39.54600
H  41.47200 41.88800 40.83900
H  51.39200 41.69700 42.72000
H  49.75500 40.96000 42.71100
H  50.65800 40.81900 44.07100
H  52.72900 46.24100 44.19400
H  53.96400 45.14400 44.84300
H  52.66400 45.74300 45.80600
H  49.78800 49.39300 44.27600
H  47.82000 50.13000 46.20300
H  51.20100 49.42800 46.08400
H  50.03700 48.44800 47.00600
H  49.81100 50.28300 46.82300
H  48.89900 51.56800 44.56800
H  47.09800 51.70300 44.64400
H  48.87700 51.38800 42.36200
H  47.07200 51.26600 42.27200
H  48.04700 49.79600 42.47600
H  42.54500 49.86000 45.99100
H  41.24500 49.33100 44.94800
H  42.48900 50.32500 44.21200
H  41.31900 44.89800 42.27700
H  41.63800 43.04300 47.27400
H  41.22900 41.88400 46.10900
H  40.05200 43.30000 46.62000
Mg 25.76200 51.22900 26.56900
C  23.74300 52.05700 29.27900
C  28.19100 50.17200 28.85700
C  28.13500 51.20600 24.09000
C  23.47200 52.53500 24.42900
N  25.93600 51.02900 28.87600
C  24.93200 51.42400 29.73400
C  25.31800 51.02800 31.15600
C  26.84800 50.59600 31.02200
C  27.02000 50.58100 29.49100
C  27.92000 51.41200 31.80900
C  24.42400 49.94200 31.73400
C  24.68500 49.58700 33.25800
H  23.83900 50.06200 34.39000
N  27.82500 50.69900 26.43700
C  28.60900 50.26800 27.52000
C  29.95600 49.94400 27.04000
C  30.02700 50.30500 25.67500
C  28.63800 50.74400 25.33100
C  31.06400 49.38200 27.98100
C  31.21600 50.21600 24.74100
O  31.22300 50.48700 23.50400
C  32.52400 49.70400 25.24600
N  25.85400 51.94700 24.65700
C  26.89800 51.80700 23.81000
C  26.53400 52.14300 22.38500
C  24.91500 52.33200 22.41000
C  24.78000 52.29500 23.92900
C  27.38400 53.36100 21.83900
C  24.20400 51.20300 21.64900
C  24.46200 49.75200 22.04300
N  23.83400 52.05600 26.78900
C  23.04900 52.56200 25.77900
C  21.75500 53.04300 26.35700
C  21.96600 52.85900 27.76400
C  23.26100 52.27800 27.89700
C  20.65200 53.61000 25.46800
C  21.44700 53.07700 29.10300
O  20.37000 53.58800 29.50000
C  22.53900 52.60400 30.07000
C  22.86000 53.86600 30.86000
O  23.32000 54.94100 30.45800
O  22.58300 53.54600 32.12800
C  22.91900 54.56100 33.10300
H  28.95600 49.84100 29.56300
H  28.88000 51.03700 23.31000
H  22.61300 52.72100 23.78100
H  25.29100 51.89600 31.81400
H  26.87000 49.51600 31.16500
H  28.75700 51.62500 31.14300
H  28.43200 50.72800 32.48500
H  27.59300 52.32300 32.31200
H  24.58500 49.02600 31.16500
H  23.39000 50.27700 31.64700
H  25.72900 49.87700 33.37300
H  24.68900 48.50300 33.37300
H  31.05100 48.29400 28.03600
H  30.78200 49.55200 29.02000
H  32.07500 49.78500 27.91900
H  32.54000 48.70400 25.68100
H  33.01000 50.49000 25.82300
H  33.19000 49.70300 24.38300
H  26.82700 51.27400 21.79600
H  24.52800 53.26900 22.01100
H  28.13800 53.68700 22.55500
H  26.69300 54.18100 21.64100
H  27.85600 53.00900 20.92100
H  24.55800 51.37400 20.63200
H  23.12200 51.32900 21.67600
H  25.34600 49.69200 22.67800
H  24.71000 49.16400 21.15900
H  23.66500 49.24100 22.58400
H  19.80400 53.98200 26.04300
H  20.42200 52.82700 24.74500
H  21.16000 54.41800 24.94200
H  22.12000 51.85200 30.73800
H  23.40900 54.13400 33.97800
H  21.96600 54.98300 33.42100
H  23.50300 55.34100 32.61500

