158

Mg 34.29500 49.36600 25.46100
C  34.83700 47.76000 28.53300
C  32.56400 51.86800 27.19500
C  33.76300 50.93100 22.48400
C  35.86700 46.62600 23.84600
N  33.72700 49.73100 27.58700
C  34.11200 48.95900 28.69400
C  33.72300 49.67400 29.98300
C  32.79400 50.87400 29.53100
C  33.04700 50.82600 28.00300
C  31.33300 50.76700 29.94000
C  34.93000 50.15200 30.85300
C  34.57100 51.19700 31.90100
H  33.29000 50.99800 32.71400
N  33.29500 51.15000 24.89200
C  32.80500 52.09300 25.82000
C  32.24200 53.21300 25.02700
C  32.47400 52.92500 23.66500
C  33.24600 51.65200 23.62900
C  31.54100 54.32600 25.65600
C  31.99600 53.77100 22.50500
O  32.36600 53.51000 21.39400
C  31.15500 54.97200 22.65800
N  34.69300 48.82400 23.42500
C  34.40400 49.69400 22.38800
C  34.89700 49.04400 21.01000
C  35.69300 47.74500 21.51100
C  35.36800 47.66600 22.97500
C  33.78300 48.75000 19.87200
C  37.19900 47.67800 21.11800
C  38.20100 48.56400 21.92900
N  35.18800 47.54500 26.00600
C  35.75200 46.51800 25.19500
C  36.18300 45.48700 26.01800
C  35.83600 45.91200 27.36600
C  35.24100 47.18000 27.29600
C  36.76700 44.20100 25.66400
C  35.77100 45.47000 28.73800
O  36.13100 44.39900 29.25600
C  35.26200 46.72400 29.51600
C  34.18600 46.42600 30.42500
O  32.95300 46.48200 30.20300
O  34.65300 45.81200 31.56700
C  33.71400 45.42300 32.66500
H  32.04600 52.66600 27.73000
H  33.62100 51.36000 21.49000
H  36.39800 45.81400 23.34500
H  33.26100 48.85900 30.54100
H  33.10900 51.83200 29.94500
H  31.09400 49.91200 30.57200
H  30.66500 50.81700 29.08000
H  31.04800 51.62500 30.54900
H  35.79500 50.48000 30.27500
H  35.23500 49.24900 31.38200
H  34.59800 52.20900 31.49900
H  35.41600 51.11200 32.58400
H  32.02100 55.27800 25.42800
H  31.46100 54.30800 26.74300
H  30.48900 54.28400 25.37100
H  31.68300 55.76100 23.19300
H  30.26200 54.82300 23.26500
H  31.03700 55.39800 21.66200
H  35.53200 49.73600 20.45600
H  35.20100 46.86500 21.09700
H  32.88300 48.94600 20.45500
H  33.81600 47.73000 19.49100
H  33.90700 49.51000 19.10100
H  37.39600 48.02100 20.10300
H  37.52000 46.63600 21.10800
H  38.91100 47.88700 22.40400
H  37.54000 49.09000 22.61800
H  38.74700 49.34800 21.40500
H  37.42800 43.79700 26.43000
H  37.33900 44.23600 24.73600
H  35.95500 43.49100 25.50600
H  36.15300 46.90400 30.11800
H  33.60400 44.34200 32.74100
H  32.65800 45.60700 32.46800
H  34.09900 45.88300 33.57600
Mg 0.10300 43.93900 24.78600
C  2.31900 43.25400 27.39800
C  -2.51500 43.15600 26.93300
C  -1.91100 43.98400 22.11100
C  2.95700 44.54800 22.68800
N  -0.10000 43.12100 26.87800
C  0.95700 43.18500 27.79800
C  0.49600 43.12900 29.28500
C  -1.05900 42.92900 29.06800
C  -1.26600 43.01600 27.55600
C  -1.61000 41.62900 29.73700
C  0.79800 44.34500 30.16800
C  1.08700 44.16400 31.66800
H  0.87100 42.79000 32.33000
N  -1.92100 43.58600 24.51200
C  -2.86700 43.38800 25.50500
C  -4.19600 43.36400 24.92500
C  -4.03300 43.60200 23.52500
C  -2.56000 43.75700 23.30500
C  -5.48500 43.21900 25.82400
C  -5.11600 43.81400 22.49900
O  -4.74400 44.07600 21.36500
C  -6.55500 43.83700 22.79800
N  0.50100 44.25500 22.72400
C  -0.51600 44.28000 21.81500
C  0.00300 44.66800 20.35700
C  1.48000 45.02000 20.69400
C  1.67000 44.53900 22.10300
C  -0.22600 43.48300 19.46400
C  1.79900 46.53600 20.49100
C  2.59700 46.97700 19.25700
N  2.15900 43.86300 24.90700
C  3.18600 44.20700 23.98200
C  4.44800 44.02800 24.63400
C  4.18100 43.69700 25.96600
C  2.74900 43.61700 26.07900
C  5.83200 44.32900 24.09900
C  4.81500 43.34800 27.21900
O  5.97900 43.16300 27.50000
C  3.62500 43.27000 28.27400
C  3.76500 42.08700 29.09100
O  3.39300 40.94600 28.83300
O  4.41500 42.45200 30.18200
C  4.73400 41.36400 31.14300
H  -3.31000 42.95900 27.65500
H  -2.51500 43.98600 21.20100
H  3.84100 44.88600 22.14500
H  0.94200 42.26600 29.77900
H  -1.60700 43.74900 29.53400
H  -2.00200 41.03100 28.91400
H  -2.31200 41.84100 30.54300
H  -0.80900 41.04100 30.18700
H  0.08100 45.15400 30.03100
H  1.71700 44.75600 29.75200
H  0.31100 44.74600 32.16500
H  2.07600 44.54900 31.91200
H  -5.99600 44.16700 25.99000
H  -5.25000 42.97900 26.86000
H  -6.22500 42.50000 25.47200
H  -6.68000 42.85400 23.25200
H  -7.21700 43.91500 21.93600
H  -6.83700 44.61000 23.51400
H  -0.57800 45.48800 19.93500
H  2.11100 44.37000 20.08800
H  -0.99900 43.76900 18.75100
H  -0.56600 42.68900 20.12900
H  0.70400 43.24400 18.94900
H  2.25700 46.86600 21.42300
H  0.84900 47.07000 20.51600
H  2.13100 47.80700 18.72500
H  2.80100 46.12500 18.60800
H  3.50800 47.42300 19.65900
H  6.36900 44.97900 24.79000
H  5.78900 44.70600 23.07700
H  6.33000 43.36200 24.03100
H  3.64900 44.13100 28.94200
H  5.81300 41.21800 31.09700
H  4.42900 40.33900 30.93200
H  4.43200 41.78400 32.10200

