158

Mg 24.27000 -4.91200 46.24900
C  26.39700 -2.77900 44.55800
C  21.76100 -4.15800 43.84200
C  22.55800 -7.63900 47.16500
C  26.96100 -6.06100 48.23300
N  24.10900 -3.61500 44.38500
C  25.04600 -2.74400 44.02900
C  24.54900 -1.93800 42.84700
C  23.05400 -2.16400 42.87400
C  22.92100 -3.34700 43.80100
C  22.24400 -0.90300 43.24400
C  25.23600 -2.36400 41.56000
C  25.78000 -1.19500 40.72900
H  25.07600 -0.84900 39.43100
N  22.30200 -5.65800 45.72900
C  21.47300 -5.25300 44.68500
C  20.29500 -6.14300 44.66900
C  20.48500 -7.13000 45.64000
C  21.88100 -6.87000 46.22100
C  19.15600 -5.95800 43.63300
C  19.52600 -8.24800 45.86900
O  18.47600 -8.20300 45.20500
C  19.69100 -9.33500 46.88700
N  24.72300 -6.56400 47.61300
C  23.80500 -7.51500 47.77800
C  24.33100 -8.57400 48.87300
C  25.71500 -8.05500 49.16700
C  25.82400 -6.80100 48.30000
C  23.46100 -8.87000 50.17100
C  26.91600 -9.11700 48.87900
C  27.83700 -9.21700 50.06500
N  26.24600 -4.49300 46.47800
C  27.21100 -4.92700 47.36500
C  28.42300 -4.14400 47.25200
C  28.15200 -3.32600 46.06000
C  26.79900 -3.48600 45.68800
C  29.63600 -4.30100 48.03800
C  28.75300 -2.36700 45.17700
O  29.88200 -1.92900 45.19200
C  27.59300 -1.90900 44.14400
C  27.30400 -0.47100 44.39900
O  26.38900 -0.06600 45.04700
O  28.27500 0.25200 43.74200
C  28.10300 1.70800 44.04900
H  21.02600 -3.91900 43.07100
H  21.95600 -8.47800 47.52000
H  27.76300 -6.41500 48.88300
H  24.66800 -0.88400 43.09900
H  22.63800 -2.56100 41.94900
H  22.71800 -0.13300 42.63500
H  22.50900 -0.67300 44.27600
H  21.17000 -0.98600 43.08100
H  24.49800 -2.89600 40.96000
H  26.08200 -3.03200 41.72200
H  26.78100 -1.49300 40.41600
H  25.85700 -0.34100 41.40200
H  19.29200 -6.61800 42.77600
H  19.24500 -4.92900 43.28600
H  18.19200 -6.24600 44.05100
H  19.62500 -9.02800 47.93100
H  20.66000 -9.81600 46.75300
H  18.89000 -10.07000 46.80500
H  24.42800 -9.50100 48.30700
H  25.73800 -7.67900 50.19000
H  22.46100 -8.44500 50.08600
H  23.95000 -8.59400 51.10500
H  23.37100 -9.91000 50.48500
H  27.55900 -8.70500 48.10100
H  26.51900 -10.09000 48.58900
H  28.52800 -10.02200 49.81700
H  27.31400 -9.41500 51.00000
H  28.35400 -8.25700 50.05900
H  30.38800 -4.94700 47.58500
H  29.49700 -4.65600 49.06000
H  30.10600 -3.31800 48.04200
H  27.94700 -2.08200 43.12700
H  27.33200 2.01600 43.34300
H  29.11000 2.11300 43.95000
H  27.75800 1.90500 45.06400
Mg -5.26600 24.65100 26.89900
C  -3.89400 26.54000 29.54500
C  -6.81400 22.65900 29.19800
C  -6.45600 22.76900 24.43500
C  -2.94800 26.28800 24.82000
N  -5.17600 24.56500 29.09200
C  -4.73000 25.50600 29.97200
C  -5.16300 25.19500 31.38700
C  -5.69600 23.68700 31.24600
C  -5.93100 23.59900 29.77200
C  -4.72000 22.59300 31.77500
C  -6.20500 26.23100 31.85400
C  -6.63300 26.34300 33.38500
H  -5.88600 25.38300 34.32500
N  -6.61700 23.09600 26.79900
C  -7.16900 22.39700 27.86300
C  -8.15700 21.44100 27.41900
C  -8.09700 21.49300 26.05200
C  -7.04700 22.48300 25.67600
C  -9.12200 20.72300 28.42300
C  -8.99600 20.78900 25.17700
O  -8.99700 21.07400 23.99200
C  -9.87500 19.63500 25.51500
N  -4.81100 24.61000 24.92500
C  -5.40600 23.61100 24.09700
C  -4.73600 23.61500 22.72000
C  -3.64700 24.79800 22.89000
C  -3.75200 25.28300 24.29000
C  -4.21100 22.20700 22.44800
C  -3.69700 25.87100 21.76600
C  -2.37000 26.07800 20.99400
N  -3.61200 26.07100 27.05800
C  -2.86600 26.75500 26.11300
C  -2.24200 27.86900 26.74100
C  -2.51800 27.76900 28.06800
C  -3.45100 26.72500 28.22500
C  -1.36000 28.87400 26.00000
C  -2.27200 28.34900 29.40300
O  -1.48900 29.17400 29.78900
C  -3.23500 27.63900 30.31400
C  -2.40800 27.20000 31.44700
O  -1.53300 26.29200 31.35700
O  -2.77300 27.91100 32.60100
C  -2.03800 27.65600 33.80700
H  -7.25600 22.02800 29.97300
H  -6.80400 22.13400 23.61700
H  -2.38800 26.92700 24.13500
H  -4.27400 25.10000 32.00900
H  -6.67800 23.63500 31.71500
H  -3.87600 22.91600 32.38500
H  -4.49700 21.92400 30.94400
H  -5.21200 21.91500 32.47300
H  -7.16700 26.11100 31.35500
H  -5.88400 27.25700 31.67100
H  -7.69300 26.15900 33.55900
H  -6.41400 27.38200 33.63300
H  -10.16100 20.95900 28.19100
H  -8.90100 20.88800 29.47700
H  -9.05400 19.63600 28.37200
H  -10.40100 19.17600 24.67800
H  -10.70800 19.89600 26.16900
H  -9.21400 18.86800 25.91800
H  -5.57900 23.90700 22.09400
H  -2.66800 24.31800 22.89500
H  -4.12600 21.51000 23.28100
H  -3.33500 22.23400 21.80000
H  -4.96300 21.71600 21.83000
H  -4.01600 26.84400 22.13900
H  -4.46200 25.52100 21.07300
H  -1.57800 25.55600 21.53100
H  -2.13700 27.14200 20.97100
H  -2.44000 25.76300 19.95300
H  -1.76400 29.34700 25.10500
H  -0.55200 28.25100 25.61800
H  -0.92000 29.56900 26.71600
H  -3.99200 28.32800 30.68800
H  -1.47300 26.72500 33.85200
H  -2.81500 27.55600 34.56600
H  -1.43600 28.47000 34.20900

