158

Mg 29.79700 58.10300 41.23700
C  26.85200 56.55800 39.81100
C  31.53400 55.37100 39.92000
C  32.39700 59.98700 41.33800
C  27.60500 60.78200 42.21600
N  29.22200 56.22700 39.80100
C  27.96800 55.78000 39.49400
C  28.03800 54.54500 38.66000
C  29.46900 53.95800 39.09100
C  30.16000 55.19800 39.75000
C  29.31800 52.85200 40.25100
C  27.83600 54.88700 37.12900
C  27.12400 53.88700 36.31700
H  27.60300 53.90800 34.82900
N  31.75200 57.70800 40.78000
C  32.29300 56.52200 40.27200
C  33.75700 56.64000 40.28300
C  34.05900 58.02100 40.54000
C  32.74300 58.66000 40.89400
C  34.75800 55.55400 39.92800
C  35.39100 58.69100 40.36700
O  36.30900 58.05300 39.91200
C  35.49700 60.21200 40.65700
N  29.98700 60.09100 41.74700
C  31.19600 60.64300 41.65900
C  31.23300 62.02300 42.30600
C  29.74300 62.28200 42.52300
C  29.03900 60.99000 42.11400
C  32.15400 62.18900 43.52400
C  29.25500 63.36900 41.61900
C  28.14700 64.26400 42.26400
N  27.72400 58.60000 41.12500
C  27.00300 59.63900 41.67400
C  25.61400 59.42600 41.42300
C  25.53000 58.23400 40.74400
C  26.82300 57.78200 40.53000
C  24.42100 60.26900 41.76900
C  24.62700 57.36500 40.08600
O  23.42600 57.34400 39.95200
C  25.46000 56.23100 39.39100
C  24.88700 54.99100 39.91000
O  25.35000 54.37900 40.83000
O  23.78500 54.59100 39.17400
C  23.02900 53.42200 39.62900
H  32.09900 54.50900 39.55800
H  33.23700 60.65400 41.53800
H  27.04600 61.69200 42.44600
H  27.28600 53.81700 38.96400
H  30.10000 53.51300 38.32200
H  29.52300 53.15000 41.28000
H  29.99900 52.03600 40.00900
H  28.35000 52.36000 40.16000
H  28.79600 55.03300 36.63300
H  27.34300 55.85600 37.05200
H  26.11200 54.28800 36.28200
H  26.99300 52.91500 36.79300
H  35.04300 55.53200 38.87600
H  34.31800 54.60400 40.23100
H  35.61600 55.70700 40.58300
H  36.53300 60.48700 40.46100
H  35.26300 60.35900 41.71100
H  34.77200 60.77000 40.06400
H  31.73000 62.70200 41.61300
H  29.51300 62.53300 43.55800
H  32.49800 61.25800 43.97400
H  31.74200 62.82700 44.30600
H  32.99700 62.72000 43.08200
H  28.90700 62.98400 40.66000
H  29.94800 64.18000 41.39400
H  28.44200 65.29300 42.05900
H  28.06200 64.09000 43.33700
H  27.22600 64.02000 41.73500
H  23.95500 59.83000 42.65100
H  23.70500 60.34200 40.94900
H  24.60100 61.31400 42.02200
H  25.33700 56.38500 38.32000
H  22.60500 52.80200 38.83800
H  22.21400 53.76700 40.26600
H  23.61800 52.72400 40.22300
Mg 36.03000 49.60100 26.07400
C  36.39600 47.64800 28.94000
C  34.95300 52.29800 27.94400
C  35.39200 51.31300 23.21200
C  36.42200 46.75200 24.20800
N  35.68100 49.92300 28.13200
C  35.84300 48.96500 29.12700
C  35.45700 49.54300 30.48100
C  34.90300 50.97800 30.21100
C  35.10300 51.08400 28.68100
C  33.33300 51.12900 30.43700
C  36.73000 49.62000 31.47600
C  36.41400 49.34400 32.98400
H  34.96100 49.42200 33.54700
N  35.38400 51.60400 25.63300
C  35.12000 52.59500 26.56300
C  34.94100 53.85700 25.81000
C  35.02700 53.51900 24.44200
C  35.24000 52.12300 24.37500
C  34.67800 55.23000 26.54200
C  34.86100 54.37200 23.17200
O  34.83100 54.00500 22.03600
C  34.55600 55.87900 23.36700
N  35.97500 49.06000 24.00900
C  35.83500 49.96200 22.99700
C  35.69400 49.24300 21.59300
C  36.44200 47.91500 21.99700
C  36.18100 47.87400 23.51700
C  34.22800 49.16700 20.96700
C  37.88600 47.69500 21.54300
C  38.28700 46.34500 20.86200
N  36.41900 47.57200 26.46900
C  36.60000 46.53700 25.62500
C  37.05700 45.35800 26.38900
C  36.93200 45.73300 27.71200
C  36.60500 47.10400 27.69900
C  37.59400 44.07500 25.93500
C  37.05300 45.26300 29.09400
O  37.37000 44.20100 29.56000
C  36.55800 46.55000 29.99000
C  35.32000 46.20200 30.73500
O  34.18400 46.32200 30.28200
O  35.64300 45.66100 31.99900
C  34.41800 45.21900 32.67200
H  34.70200 53.15800 28.56900
H  35.20900 51.82700 22.26600
H  36.70000 45.93300 23.54100
H  34.73200 48.82800 30.87100
H  35.29300 51.77300 30.84600
H  32.92500 51.22900 29.43200
H  33.22000 52.05900 30.99500
H  32.86800 50.32400 31.00600
H  37.11400 50.63800 31.41800
H  37.46700 48.86000 31.21600
H  37.11700 49.89400 33.60900
H  36.73400 48.32500 33.20100
H  35.45300 55.92700 26.22000
H  34.68500 55.21200 27.63200
H  33.69200 55.62600 26.30000
H  35.46000 56.25200 23.85000
H  33.67100 56.12500 23.95400
H  34.64800 56.43900 22.43600
H  36.41000 49.75200 20.94800
H  35.97200 47.10200 21.44500
H  34.11800 48.11200 20.71900
H  34.15800 49.72800 20.03400
H  33.43100 49.56900 21.59200
H  38.45500 47.79200 22.46800
H  38.36500 48.51000 21.00100
H  38.40500 46.66100 19.82500
H  37.48400 45.61000 20.80200
H  39.19400 45.99700 21.35500
H  38.65600 43.97200 26.15800
H  37.39300 43.94000 24.87200
H  37.14400 43.24900 26.48600
H  37.43200 46.78000 30.60000
H  33.78400 46.06600 32.93500
H  34.71700 44.79500 33.63000
H  33.76700 44.56100 32.09700

