158

Mg 6.54800 53.68600 41.68900
C  5.68200 50.37400 41.12300
C  9.56100 53.21500 40.19400
C  7.00500 56.96100 41.86000
C  3.13900 54.21000 42.69900
N  7.41200 52.00900 40.59400
C  6.96200 50.75000 40.62500
C  7.86600 49.84100 39.72700
C  9.18400 50.63700 39.98400
C  8.70500 52.11100 40.30500
C  10.16300 50.20500 41.03500
C  7.47800 49.59400 38.24300
C  6.48700 50.53200 37.66400
H  6.23600 50.52100 36.14100
N  8.09100 54.94600 41.19500
C  9.26900 54.55900 40.58400
C  10.16500 55.66700 40.60800
C  9.45000 56.77600 41.13600
C  8.08000 56.27600 41.45000
C  11.61300 55.50700 40.23300
C  10.00500 58.16700 41.34900
O  11.00600 58.62200 40.77800
C  9.24800 59.05600 42.36200
N  5.23700 55.41800 41.97900
C  5.75100 56.71600 42.15200
C  4.65700 57.67700 42.84000
C  3.44300 56.66600 43.07000
C  3.98100 55.34100 42.52300
C  5.10500 58.37700 44.16400
C  2.00200 56.97900 42.51600
C  1.65700 58.47600 42.31700
N  4.74700 52.53800 41.84800
C  3.51500 52.86500 42.39900
C  2.66100 51.61500 42.51200
C  3.54900 50.62600 42.00300
C  4.73600 51.21600 41.62500
C  1.32500 51.53800 43.16300
C  3.61100 49.16700 41.69200
O  2.80700 48.28700 41.85400
C  5.10800 48.97600 41.28600
C  4.97000 48.12000 40.04300
O  4.33500 48.34900 39.08500
O  5.48900 46.89400 40.30000
C  5.24400 45.79000 39.34900
H  10.57800 52.96400 39.88300
H  7.10500 58.04700 41.91500
H  2.19200 54.36300 43.22100
H  8.00700 48.89300 40.24500
H  9.77400 50.69100 39.06900
H  9.62400 49.48700 41.65300
H  10.43200 51.10500 41.58800
H  10.98300 49.67500 40.55000
H  7.09600 48.57500 38.29400
H  8.31500 49.72300 37.55600
H  6.85700 51.50700 37.98000
H  5.53500 50.51200 38.19400
H  11.71500 55.40600 39.15300
H  12.13900 54.74400 40.80600
H  12.13600 56.43400 40.46800
H  9.87600 59.88700 42.68500
H  8.88000 58.42400 43.17000
H  8.39200 59.51400 41.86700
H  4.47900 58.56000 42.22600
H  3.39800 56.46400 44.14000
H  5.03300 59.45800 44.04800
H  6.15700 58.11900 44.28400
H  4.57100 58.12200 45.08000
H  1.25800 56.51900 43.16700
H  1.80900 56.41300 41.60400
H  0.62300 58.68700 42.58700
H  1.91600 58.83500 41.32000
H  2.37800 59.07500 42.87400
H  0.62100 52.18900 42.64600
H  1.25500 51.68400 44.24100
H  0.90800 50.54200 43.01500
H  5.65900 48.43000 42.05200
H  5.55700 44.79200 39.65700
H  5.89300 46.08300 38.52400
H  4.24700 45.73800 38.91300
Mg -6.21200 24.79000 25.53300
C  -4.96300 26.49300 28.28300
C  -8.25900 23.04900 27.43100
C  -7.30400 23.36400 22.75100
C  -3.92700 26.61100 23.58900
N  -6.45700 24.74400 27.67000
C  -5.91200 25.54200 28.65000
C  -6.29500 25.11000 30.05200
C  -7.12500 23.78600 29.73800
C  -7.36100 23.85900 28.18200
C  -6.39600 22.43700 30.18800
C  -7.00200 26.23500 30.81700
C  -6.43600 26.54400 32.21700
H  -5.86900 25.42200 33.08100
N  -7.65100 23.53900 25.15300
C  -8.48200 22.96400 26.10700
C  -9.58600 22.20200 25.39200
C  -9.15700 22.18900 24.05800
C  -7.94900 23.03500 23.94700
C  -10.68700 21.49500 26.09100
C  -9.93300 21.44900 22.88800
O  -9.60700 21.59100 21.69700
C  -10.97000 20.39600 23.19300
N  -5.74100 25.05100 23.44400
C  -6.28900 24.29800 22.42900
C  -5.69700 24.49300 21.09100
C  -4.69800 25.75700 21.37200
C  -4.72700 25.74800 22.88400
C  -4.98800 23.24700 20.51200
C  -5.17400 27.00600 20.60100
C  -4.39100 27.46300 19.38200
N  -4.79200 26.25200 25.82400
C  -3.96400 26.90900 24.93500
C  -3.13100 27.91400 25.65800
C  -3.52900 27.77200 26.96700
C  -4.54000 26.77600 26.99900
C  -2.30800 28.94000 25.00000
C  -3.28500 28.22200 28.28300
O  -2.55400 29.07700 28.73800
C  -4.06300 27.32000 29.16700
C  -3.18700 26.42500 29.90000
O  -2.77700 25.30800 29.58700
O  -2.92800 26.93300 31.15000
C  -1.82900 26.30300 31.99100
H  -9.03300 22.50600 27.97800
H  -7.58900 22.81600 21.85100
H  -3.10200 26.93900 22.95200
H  -5.39000 24.77000 30.55700
H  -8.04400 23.75200 30.32300
H  -5.34600 22.57300 30.44800
H  -6.40400 21.79100 29.30900
H  -6.95100 21.93200 30.97900
H  -8.06400 25.99300 30.87600
H  -6.98000 27.13000 30.19600
H  -7.33800 26.99300 32.63400
H  -5.71200 27.34900 32.33800
H  -11.59600 21.79400 25.57000
H  -10.68000 21.79300 27.14000
H  -10.57500 20.41500 25.99100
H  -10.71200 19.66600 23.96100
H  -11.00000 19.77700 22.29700
H  -11.99400 20.75900 23.28300
H  -6.55900 24.74900 20.47500
H  -3.69700 25.48400 21.03700
H  -4.81000 22.46400 21.24900
H  -4.02900 23.58200 20.11700
H  -5.63500 22.85700 19.72700
H  -5.22400 27.82400 21.32000
H  -6.18800 26.89900 20.21500
H  -4.93900 27.70700 18.47100
H  -3.77700 26.70300 18.90100
H  -3.65000 28.24100 19.56700
H  -1.64100 29.33700 25.76400
H  -2.93600 29.72800 24.58500
H  -1.66700 28.46600 24.25700
H  -4.65600 27.86100 29.90500
H  -0.85200 26.16300 31.52900
H  -2.26400 25.39200 32.40300
H  -1.55300 27.05000 32.73500

