158

Mg 44.09500 4.81900 46.48800
C  41.88100 7.55800 46.10000
C  41.52200 2.69400 46.09600
C  46.35000 2.26700 46.18800
C  46.70600 7.11300 46.20000
N  41.92100 5.09800 45.89800
C  41.24100 6.27500 45.95500
C  39.73300 6.06100 45.86300
C  39.61100 4.48500 45.95200
C  41.11400 4.03600 46.04100
C  38.64900 3.96100 47.08100
C  39.02700 6.76000 44.66600
C  39.83500 6.78500 43.41400
H  39.10400 7.25000 42.12200
N  43.90100 2.65800 46.34700
C  42.72400 2.07300 46.14200
C  42.92400 0.60200 45.97400
C  44.38800 0.50900 45.85600
C  44.94400 1.84200 46.10600
C  41.85500 -0.48100 45.71500
C  45.17300 -0.75900 45.46300
O  44.52600 -1.81100 45.37500
C  46.65300 -0.79000 45.23500
N  46.25800 4.63200 46.30500
C  46.93600 3.51800 46.23800
C  48.44900 3.66300 46.12000
C  48.51400 5.24300 46.09200
C  47.09100 5.71400 46.23800
C  49.24900 3.04200 47.32600
C  49.08800 5.72800 44.72000
C  50.59500 5.49800 44.61100
N  44.27300 6.89400 46.26400
C  45.41600 7.71800 46.20900
C  45.00200 9.11600 45.98700
C  43.63200 9.05900 46.16200
C  43.21400 7.75100 46.20900
C  45.88400 10.31300 45.79700
C  42.45500 9.93300 46.26000
O  42.40600 11.15200 46.32600
C  41.20600 8.95000 46.10300
C  40.22900 9.14300 47.25300
O  40.22100 8.50200 48.32100
O  39.32800 10.13000 46.92900
C  38.49200 10.66500 47.97200
H  40.70000 2.01800 45.85200
H  46.97300 1.37100 46.21200
H  47.59100 7.71600 45.98600
H  39.44700 6.55700 46.79000
H  39.25600 4.08900 45.00100
H  39.32800 3.38400 47.70900
H  37.85600 3.37600 46.61500
H  38.22100 4.81300 47.60900
H  39.08100 7.82700 44.88300
H  38.00300 6.46500 44.43500
H  40.20300 5.79500 43.14500
H  40.73000 7.39200 43.55200
H  41.93100 -1.36800 46.34300
H  41.97200 -0.82200 44.68600
H  40.86600 -0.05900 45.89600
H  47.21500 -0.79700 46.16900
H  46.75300 0.04900 44.54700
H  46.88900 -1.72100 44.72000
H  48.74000 3.29300 45.13700
H  49.14200 5.50900 46.94300
H  48.63200 3.10700 48.22200
H  50.24800 3.46600 47.43400
H  49.36400 1.97500 47.13400
H  48.97300 6.80600 44.60800
H  48.66800 5.15300 43.89500
H  51.00700 5.00800 45.49300
H  51.03600 6.49000 44.51100
H  50.83200 4.99100 43.67600
H  46.01100 10.48700 44.72800
H  46.80200 10.09200 46.34200
H  45.38800 11.21100 46.16300
H  40.75500 9.21100 45.14500
H  38.81800 11.59100 48.44700
H  38.48100 9.99500 48.83200
H  37.51500 10.74400 47.49500
Mg 5.66200 54.83300 39.74500
C  3.44600 52.19400 40.28500
C  7.99800 52.51400 38.58400
C  7.74000 57.40900 38.87700
C  3.09700 57.07000 40.33100
N  5.60900 52.67300 39.27700
C  4.63600 51.79400 39.62600
C  4.93700 50.33500 39.10300
C  6.50200 50.48400 38.82300
C  6.74900 52.03100 38.91500
C  7.41200 49.61500 39.75900
C  4.15800 50.04600 37.75200
C  4.14200 48.59800 37.24500
H  4.79200 48.45000 35.83400
N  7.62800 54.96800 38.99500
C  8.40000 53.90500 38.61200
C  9.72400 54.40100 38.42600
C  9.75900 55.82300 38.41400
C  8.32300 56.13500 38.79200
C  10.84400 53.41500 38.18300
C  10.93900 56.74600 38.13500
O  12.02400 56.18700 37.98500
C  10.77900 58.22400 38.01900
N  5.44900 56.88300 39.51300
C  6.42200 57.77400 39.16100
C  5.86300 59.21800 39.07600
C  4.39100 59.07200 39.54700
C  4.30100 57.55600 39.78600
C  6.71900 60.36400 39.67500
C  3.43200 59.78600 38.59700
C  2.92600 61.18000 39.05400
N  3.62300 54.72600 40.24400
C  2.73600 55.76200 40.56900
C  1.43200 55.14200 40.93900
C  1.72300 53.78400 40.98600
C  2.98800 53.55700 40.47500
C  0.12100 55.86900 41.17000
C  1.16400 52.50000 41.27800
O  0.03800 52.15600 41.67300
C  2.23000 51.45300 40.83200
C  1.59100 50.53800 40.02900
O  1.00300 50.81300 39.01300
O  1.71700 49.27300 40.49300
C  1.21200 48.23100 39.65400
H  8.71400 51.72200 38.35600
H  8.36700 58.29500 38.75400
H  2.39400 57.85200 40.62600
H  4.65400 49.68000 39.92700
H  6.78500 50.13600 37.83000
H  7.62100 50.26600 40.60800
H  8.27400 49.33300 39.15400
H  6.92600 48.69900 40.09500
H  4.32800 50.86000 37.04700
H  3.13700 50.18900 38.10700
H  3.13200 48.21400 37.10200
H  4.58900 47.87800 37.93100
H  10.45800 52.48600 37.76200
H  11.35500 53.14700 39.10800
H  11.47300 53.87100 37.41900
H  10.19400 58.41100 37.11800
H  11.80000 58.54200 37.81100
H  10.50500 58.76200 38.92600
H  5.80900 59.39900 38.00300
H  4.27700 59.52700 40.53100
H  7.51900 59.86600 40.22300
H  6.13700 60.93900 40.39400
H  7.09400 61.00800 38.87900
H  2.55800 59.18700 38.34200
H  3.94300 59.95100 37.64900
H  2.66900 61.80100 38.19600
H  3.75600 61.66700 39.56500
H  2.04300 61.08200 39.68500
H  0.18300 56.95000 41.28900
H  -0.31700 55.43000 42.06600
H  -0.60700 55.61700 40.40000
H  2.57900 50.86500 41.68200
H  1.21200 48.34100 38.57000
H  0.14000 48.17000 39.84000
H  1.68300 47.30200 39.97600

