158

Mg 1.80400 8.20300 26.29200
C  2.36400 10.31800 28.91700
C  2.92200 5.42100 28.41000
C  1.64600 6.15000 23.60700
C  1.63600 10.94800 24.19700
N  2.54400 7.92800 28.36600
C  2.48500 8.91600 29.33000
C  2.65000 8.33200 30.73900
C  3.04100 6.89600 30.51600
C  2.91900 6.75600 29.00000
C  4.35600 6.41700 31.14900
C  1.42600 8.62300 31.66600
C  1.62700 8.68800 33.20000
H  2.86400 7.90600 33.84600
N  2.19100 6.11500 26.00400
C  2.57800 5.15800 27.01900
C  2.63200 3.87800 26.37900
C  2.22200 3.94800 25.01600
C  1.93800 5.40100 24.82300
C  3.15200 2.63900 27.10300
C  2.02000 2.91000 23.99200
O  1.70100 3.14000 22.81500
C  2.17900 1.41800 24.32400
N  1.67100 8.53900 24.22700
C  1.64400 7.54600 23.32500
C  1.66900 8.05600 21.85200
C  1.39800 9.58600 22.12800
C  1.61500 9.72500 23.61500
C  2.98200 7.74600 21.00600
C  -0.00300 10.13700 21.56100
C  0.09400 11.24500 20.55200
N  1.86200 10.18700 26.49300
C  1.86900 11.19600 25.55300
C  1.97400 12.47000 26.14700
C  2.11100 12.18100 27.54800
C  2.16900 10.78900 27.62900
C  2.08900 13.79900 25.52700
C  2.40700 12.71200 28.85300
O  2.58400 13.84800 29.25700
C  2.31300 11.53300 29.77900
C  3.34500 11.60100 30.81900
O  4.57600 11.48700 30.55900
O  2.82000 11.57400 32.09600
C  3.93200 11.47400 33.12500
H  3.15200 4.61200 29.10700
H  1.82500 5.61700 22.67100
H  1.51400 11.71600 23.43000
H  3.46700 8.81300 31.27800
H  2.18600 6.37100 30.94100
H  4.95500 6.03500 30.32200
H  4.18000 5.57100 31.81300
H  4.89400 7.20800 31.67200
H  0.61900 7.92600 31.43700
H  0.90000 9.50100 31.29100
H  0.75600 8.10200 33.49400
H  1.53800 9.67700 33.64900
H  2.29300 2.09500 27.49600
H  3.69500 3.11400 27.92000
H  3.74700 1.97700 26.47500
H  1.52500 1.18000 25.16300
H  3.24000 1.18600 24.41000
H  1.94700 0.82700 23.43800
H  0.87200 7.55400 21.30400
H  2.27600 10.14000 21.79500
H  2.84400 7.29900 20.02100
H  3.61000 7.14600 21.66500
H  3.47200 8.70900 20.86100
H  -0.52900 10.57000 22.41200
H  -0.65600 9.34700 21.18900
H  -0.59500 10.99500 19.74500
H  1.11100 11.51700 20.26800
H  -0.38600 12.13600 20.95600
H  1.99800 13.64200 24.45300
H  3.02000 14.32000 25.74700
H  1.22100 14.34900 25.89300
H  1.35300 11.47400 30.29100
H  4.48100 10.54600 32.96700
H  3.49200 11.47200 34.12200
H  4.58200 12.34900 33.16400
Mg 35.12100 49.20600 24.87900
C  35.24600 47.40100 27.85400
C  33.92800 51.85000 26.44900
C  34.79800 50.62600 21.78600
C  36.35800 46.26000 23.24800
N  34.57100 49.57900 26.91400
C  34.86300 48.71500 27.97100
C  34.52700 49.44500 29.29800
C  34.00400 50.80400 28.84500
C  34.17100 50.75200 27.34400
C  32.54100 51.11700 29.29300
C  35.83400 49.45500 30.24400
C  35.61900 49.09200 31.72600
H  34.20500 49.25100 32.29500
N  34.39900 50.95100 24.23400
C  34.14500 51.97700 25.06600
C  33.99300 53.19500 24.25900
C  34.08400 52.80300 22.92900
C  34.43700 51.35500 22.89800
C  33.66500 54.54400 24.87700
C  33.88000 53.70200 21.76400
O  33.83200 53.24700 20.62100
C  33.64600 55.20400 21.83300
N  35.57000 48.54000 22.78200
C  35.27900 49.29200 21.75600
C  35.50900 48.57700 20.38800
C  36.22900 47.27800 20.87700
C  36.07000 47.34400 22.36000
C  34.22200 48.26200 19.65200
C  37.72200 47.01600 20.44100
C  38.70300 48.07700 20.98700
N  35.66100 47.23800 25.38800
C  36.10000 46.13200 24.64700
C  36.29400 45.03300 25.55200
C  35.95700 45.44500 26.76800
C  35.65800 46.85000 26.63400
C  36.84600 43.70400 25.16700
C  35.89200 45.10800 28.18400
O  36.21200 44.08100 28.75500
C  35.53100 46.37700 28.94100
C  34.40100 45.93100 29.66600
O  33.27500 45.93000 29.15500
O  34.61200 45.56600 30.93900
C  33.39000 45.20700 31.66000
H  33.59200 52.78400 26.90300
H  34.97300 51.25200 20.90700
H  36.48300 45.27600 22.79300
H  33.72900 48.87900 29.77900
H  34.64000 51.63000 29.16400
H  32.15100 50.36600 29.97900
H  31.85900 51.37300 28.48200
H  32.70500 52.01600 29.88900
H  36.34100 50.42000 30.23600
H  36.50800 48.73500 29.77900
H  36.32200 49.61400 32.37500
H  35.90600 48.06800 31.96400
H  34.41300 55.23900 24.49500
H  33.86200 54.54100 25.94900
H  32.64000 54.79600 24.60700
H  34.33700 55.68600 22.52500
H  32.59400 55.36200 22.07000
H  33.81100 55.70700 20.88000
H  36.15200 49.19000 19.75600
H  35.69100 46.40200 20.51300
H  33.35700 48.87500 19.90200
H  33.91000 47.21700 19.66700
H  34.34200 48.54000 18.60500
H  37.71500 47.05600 19.35100
H  37.98900 46.09100 20.95300
H  39.48600 47.61500 21.58900
H  38.27000 48.90400 21.55000
H  39.34200 48.56700 20.25300
H  37.60800 43.42000 25.89200
H  37.31100 43.93500 24.20800
H  35.94500 43.10200 25.04200
H  36.36500 46.67900 29.57400
H  32.91200 44.26600 31.38700
H  32.58600 45.94300 31.67500
H  33.73400 45.23400 32.69400

