158

Mg 27.36900 50.20300 26.65400
C  25.43100 51.01500 29.34000
C  29.76800 48.99900 28.83600
C  29.64700 50.02100 24.10400
C  25.00900 51.44000 24.52300
N  27.60800 50.19000 28.88900
C  26.56900 50.45100 29.76300
C  27.03400 49.99700 31.17100
C  28.57000 49.55700 30.97400
C  28.66400 49.53900 29.45300
C  29.57900 50.46900 31.78900
C  26.17000 48.87900 31.77800
C  25.39600 49.21200 33.00000
H  26.14100 49.75800 34.18400
N  29.40900 49.47800 26.49600
C  30.20400 49.01200 27.49900
C  31.38100 48.44500 26.97500
C  31.46400 48.87000 25.65300
C  30.15500 49.58700 25.38100
C  32.30700 47.61300 27.84100
C  32.63100 48.85300 24.57700
O  32.57600 49.36100 23.47000
C  33.89800 48.17400 24.89400
N  27.36800 50.59800 24.56900
C  28.41000 50.38500 23.69700
C  27.98200 50.73900 22.27300
C  26.45100 51.22500 22.43800
C  26.24700 51.07300 23.92800
C  28.95900 51.87400 21.61300
C  25.47400 50.37400 21.52400
C  24.20900 51.13600 21.00100
N  25.62600 51.12700 26.85900
C  24.74900 51.55600 25.86900
C  23.56500 52.08000 26.50200
C  23.77300 51.83000 27.88200
C  25.05300 51.32100 28.05200
C  22.36500 52.76100 25.91900
C  23.10800 51.87400 29.21600
O  22.01400 52.32900 29.53500
C  24.15800 51.34800 30.23700
C  24.36700 52.20100 31.39100
O  25.26600 52.96900 31.59800
O  23.32700 51.86100 32.26000
C  23.39500 52.45200 33.53600
H  30.44800 48.58400 29.58300
H  30.44500 49.98800 23.36000
H  24.19000 51.75400 23.87200
H  26.92900 50.91400 31.75000
H  28.83300 48.54800 31.29400
H  30.61900 50.20100 31.60400
H  29.45100 50.51600 32.87000
H  29.41900 51.51900 31.54600
H  26.84700 48.03300 31.89400
H  25.48200 48.50700 31.01900
H  24.86600 48.28000 33.19400
H  24.65100 49.97000 32.75800
H  33.14100 48.28100 28.05600
H  32.65100 46.79000 27.21600
H  31.95500 47.32900 28.83300
H  34.64800 48.33700 24.11900
H  33.57400 47.13300 24.88600
H  34.18200 48.45000 25.90900
H  27.96900 49.80600 21.71100
H  26.34500 52.29700 22.26800
H  29.84400 52.02600 22.23100
H  28.32800 52.73700 21.39900
H  29.35700 51.57800 20.64200
H  25.08300 49.56400 22.14100
H  26.05600 50.05200 20.66100
H  24.05700 52.12400 21.43700
H  23.29100 50.60900 21.25700
H  24.25200 51.33300 19.92900
H  21.59200 52.07600 25.57000
H  22.68800 53.28800 25.02100
H  21.98800 53.44500 26.67900
H  23.76400 50.40000 30.60400
H  22.49000 52.03800 33.97900
H  23.45900 53.54100 33.54200
H  24.24000 52.02800 34.07900
Mg 6.62200 52.61700 41.32800
C  5.84500 49.18200 41.14600
C  9.84200 51.94300 40.42200
C  7.02600 55.96900 40.58500
C  3.16600 53.22500 41.75700
N  7.65600 50.76800 40.61500
C  7.17700 49.48300 40.83800
C  8.34200 48.51200 40.72300
C  9.59700 49.42200 40.74600
C  9.03800 50.77500 40.50100
C  10.37400 49.37100 42.10900
C  8.45600 47.62900 39.36300
C  8.39200 48.33500 37.95000
H  7.34300 47.87600 36.90400
N  8.29400 53.74200 40.69200
C  9.54600 53.28800 40.37000
C  10.39200 54.46400 40.01200
C  9.51900 55.60200 40.13400
C  8.16400 55.11000 40.41000
C  11.85600 54.32900 39.69500
C  10.03100 57.03600 39.98100
O  11.19300 57.16400 39.68500
C  9.22900 58.30300 40.18800
N  5.29300 54.32700 41.08100
C  5.76800 55.56400 40.96700
C  4.65500 56.63300 40.96300
C  3.36400 55.66800 40.84400
C  3.94100 54.34900 41.33200
C  4.58400 57.66100 42.20500
C  2.68100 55.64800 39.35900
C  1.34100 56.35800 39.26500
N  4.90600 51.48300 41.58500
C  3.52700 51.87400 41.86000
C  2.70100 50.62500 42.00900
C  3.67300 49.63800 41.72500
C  4.92600 50.15800 41.42900
C  1.31900 50.54500 42.53900
C  3.79500 48.16800 41.78400
O  2.92700 47.38500 42.16300
C  5.22000 47.79900 41.21900
C  4.99600 47.08000 39.91500
O  4.48700 47.64700 38.94100
O  5.36200 45.77100 39.96100
C  5.15900 45.04900 38.76700
H  10.91100 51.73800 40.33200
H  7.01100 57.05500 40.70000
H  2.07800 53.26400 41.83900
H  8.42100 47.86800 41.59800
H  10.28800 49.12300 39.95800
H  11.36000 48.92700 41.97300
H  9.79900 48.87500 42.89100
H  10.52600 50.37300 42.51100
H  7.59700 46.95900 39.37700
H  9.31200 46.97300 39.52500
H  9.43400 48.26500 37.63600
H  8.19700 49.38700 38.15500
H  12.07700 54.65100 38.67800
H  12.30200 53.34600 39.84600
H  12.51500 55.00500 40.24200
H  9.88400 59.17400 40.19400
H  8.78300 58.28900 41.18300
H  8.44300 58.34200 39.43300
H  4.61100 57.11200 39.98500
H  2.68300 56.13900 41.55300
H  4.42400 58.65300 41.78300
H  5.49800 57.63900 42.79800
H  3.80000 57.43500 42.92700
H  2.45700 54.59400 39.19800
H  3.35200 56.02500 38.58700
H  0.47300 55.71700 39.11500
H  1.27200 56.89200 38.31800
H  1.06500 57.08500 40.02800
H  1.00400 49.50200 42.51900
H  0.64100 51.18000 41.96900
H  1.35900 50.82400 43.59200
H  5.67800 47.16300 41.97700
H  4.42300 44.32500 39.11800
H  5.99400 44.40000 38.50500
H  4.82700 45.42500 37.79900

