158

Mg 45.34600 3.57700 47.66300
C  43.43100 6.42200 47.17300
C  42.33800 1.65600 47.54200
C  47.19300 0.82600 47.47500
C  48.18400 5.60100 47.64400
N  43.20900 4.02200 47.32300
C  42.63100 5.24600 47.11400
C  41.13800 5.08000 46.76000
C  40.71200 3.58500 47.03000
C  42.16900 3.05300 47.29200
C  39.69900 3.36100 48.14100
C  40.83500 5.65600 45.29300
C  39.67000 6.59700 45.22300
H  38.76300 6.56700 43.98700
N  44.86800 1.56100 47.50600
C  43.60300 0.93900 47.53400
C  43.79900 -0.50400 47.38000
C  45.21300 -0.70400 47.40100
C  45.80600 0.57200 47.45600
C  42.66800 -1.46600 47.16000
C  45.86000 -2.19800 47.23900
O  45.20700 -3.20100 47.14900
C  47.35700 -2.39200 47.27400
N  47.43100 3.23200 47.62000
C  47.98800 2.01200 47.63100
C  49.51700 1.98000 47.84400
C  49.81100 3.53700 47.84300
C  48.37600 4.21000 47.77200
C  49.93600 1.19500 49.00700
C  50.88300 4.03100 46.78900
C  52.17400 4.36200 47.33600
N  45.77800 5.62400 47.46400
C  46.97300 6.30300 47.51800
C  46.66800 7.68200 47.37600
C  45.31900 7.79700 47.21000
C  44.80200 6.47900 47.33700
C  47.72000 8.74200 47.12700
C  44.24700 8.69300 46.98700
O  44.31000 9.86100 46.83000
C  42.91500 7.86300 46.88900
C  41.92600 8.41500 47.85600
O  41.55000 7.85500 48.88200
O  41.35800 9.55600 47.36500
C  39.95900 9.88900 47.90300
H  41.42100 1.06300 47.52400
H  47.88900 -0.01400 47.52800
H  49.10500 6.17700 47.76100
H  40.58000 5.74300 47.42100
H  40.42400 3.06700 46.11500
H  39.78100 4.23400 48.78800
H  39.93100 2.47800 48.73700
H  38.66100 3.36900 47.81100
H  40.58900 4.80800 44.65300
H  41.73800 6.15700 44.94500
H  40.04700 7.61700 45.30300
H  39.01500 6.55000 46.09300
H  42.47700 -2.03300 48.07000
H  42.89700 -2.13400 46.32900
H  41.80300 -0.93600 46.76100
H  47.89100 -1.75700 46.56800
H  47.56300 -3.42500 46.99400
H  47.63600 -2.34700 48.32700
H  49.99200 1.49700 46.99000
H  50.27800 3.74200 48.80600
H  49.15000 1.09900 49.75500
H  50.84600 1.52600 49.50800
H  50.13100 0.21400 48.57400
H  50.43800 4.73500 46.08600
H  50.93500 3.18200 46.10700
H  52.51000 5.03100 46.54400
H  52.87600 3.54800 47.51800
H  52.04600 5.01800 48.19700
H  47.26300 9.59900 46.63500
H  48.51900 8.33800 46.50500
H  48.02500 8.93700 48.15500
H  42.73700 8.09000 45.83700
H  39.29400 9.13700 47.48100
H  39.63000 10.88300 47.59800
H  40.00600 9.74300 48.98200
Mg 26.30600 50.54900 25.88100
C  24.26700 51.67300 28.46200
C  28.65100 49.72600 28.16600
C  28.04200 49.16500 23.43300
C  23.75200 51.60900 23.62100
N  26.43000 50.62700 28.03200
C  25.49300 51.08900 28.92500
C  25.94000 50.97300 30.45600
C  27.48100 50.56200 30.27600
C  27.57500 50.29400 28.74900
C  28.43900 51.67100 30.71800
C  25.12500 49.90800 31.15900
C  24.37800 50.32400 32.47600
H  25.09800 50.77500 33.73600
N  28.13100 49.59800 25.81500
C  28.91600 49.33600 26.83000
C  30.15100 48.68400 26.38600
C  29.89700 48.27300 25.00300
C  28.59300 48.94400 24.67800
C  31.29300 48.44100 27.29400
C  30.73500 47.45000 24.12600
O  30.42900 47.28900 22.92300
C  31.84500 46.68900 24.59700
N  26.03500 50.60400 23.82300
C  26.88600 49.84200 23.04100
C  26.46200 49.85800 21.60000
C  24.95100 50.34600 21.75800
C  24.90900 50.89700 23.14400
C  27.34100 50.75100 20.64900
C  23.80800 49.32800 21.45800
C  24.15800 47.85900 21.66300
N  24.51700 51.62600 25.95500
C  23.62600 52.00400 24.95400
C  22.58300 52.78100 25.53200
C  22.70400 52.66200 26.91200
C  23.92900 51.91600 27.12100
C  21.58700 53.51800 24.74100
C  22.12700 53.00100 28.18300
O  21.07500 53.51000 28.54100
C  23.12000 52.32500 29.26600
C  23.52800 53.51700 30.04600
O  24.43900 54.32000 29.83500
O  22.73500 53.48300 31.16700
C  23.27900 54.31400 32.22000
H  29.32300 49.44900 28.98100
H  28.51500 48.74100 22.54500
H  22.91500 51.86100 22.96700
H  25.79500 52.00700 30.76600
H  27.84100 49.69200 30.82700
H  28.02400 52.64800 30.96400
H  29.09900 51.79500 29.85900
H  29.07200 51.25400 31.50200
H  25.74700 49.09800 31.54000
H  24.43600 49.51300 30.41300
H  23.79600 49.42800 32.69100
H  23.54700 50.99600 32.26000
H  31.17000 47.57500 27.94400
H  31.42900 49.37000 27.84800
H  32.22000 48.20900 26.76900
H  32.67400 47.38400 24.73100
H  31.99700 45.95500 23.80600
H  31.48800 46.22800 25.51800
H  26.38100 48.86800 21.15100
H  24.78200 51.12800 21.01800
H  27.55300 50.26500 19.69700
H  28.25600 51.03700 21.16700
H  26.83700 51.68700 20.40800
H  23.48100 49.61200 20.45800
H  23.02700 49.56200 22.18200
H  24.85700 47.78100 22.49600
H  24.55700 47.27800 20.83200
H  23.18200 47.44200 21.91100
H  20.80400 53.90900 25.39000
H  21.07900 52.84700 24.04800
H  22.02400 54.32800 24.15800
H  22.71200 51.60300 29.97400
H  23.69300 55.22600 31.79000
H  24.07300 53.86700 32.81700
H  22.44600 54.60900 32.85900

