158

Mg 40.78600 40.59700 26.71000
C  40.29000 43.13800 29.12200
C  41.99200 38.63000 28.99500
C  41.24400 38.40100 24.10900
C  40.06600 43.10400 24.28600
N  41.04200 40.89300 28.90800
C  40.80600 41.93800 29.68700
C  41.12700 41.62100 31.14500
C  41.51900 40.05400 31.13700
C  41.55000 39.81000 29.58200
C  42.81800 39.63200 31.92600
C  40.01400 42.04400 32.09200
C  39.62100 41.06200 33.27000
H  39.48400 41.56800 34.68900
N  41.46300 38.71900 26.58300
C  41.93100 38.05300 27.67800
C  42.28600 36.69900 27.24000
C  42.20700 36.67200 25.82200
C  41.65000 37.90900 25.45400
C  42.74600 35.58000 28.24000
C  42.59400 35.60700 24.80100
O  42.47800 35.71700 23.55800
C  43.29800 34.36500 25.33900
N  40.79300 40.83000 24.57000
C  40.87700 39.64700 23.73800
C  40.71700 40.03000 22.18900
C  39.86700 41.29900 22.43000
C  40.27300 41.82600 23.82400
C  42.11400 40.30500 21.50300
C  38.26200 41.03800 22.46700
C  37.70600 39.53600 22.64000
N  40.24900 42.63000 26.64000
C  40.08400 43.51500 25.59400
C  39.75800 44.78100 26.10900
C  39.74500 44.70400 27.51200
C  40.09600 43.33700 27.75500
C  39.48600 45.98600 25.35000
C  39.60500 45.44400 28.75800
O  39.22600 46.57600 28.97800
C  40.04000 44.41500 29.83900
C  41.24500 45.02100 30.46200
O  42.41700 44.87900 30.09400
O  40.94800 45.80000 31.60100
C  42.08600 46.28100 32.37900
H  42.33000 37.99300 29.81400
H  41.45400 37.68200 23.31400
H  39.83700 43.87300 23.54500
H  41.97400 42.25100 31.41600
H  40.72800 39.37500 31.45500
H  42.64600 38.88500 32.70000
H  43.39400 40.48400 32.28800
H  43.53600 39.27700 31.18700
H  39.09200 42.00200 31.51300
H  40.00100 43.07800 32.43700
H  40.43700 40.36900 33.47200
H  38.70900 40.50700 33.05100
H  42.15400 34.71500 27.94300
H  42.37800 35.89700 29.21500
H  43.82100 35.41700 28.32800
H  42.74300 33.72800 26.02800
H  44.22900 34.70300 25.79500
H  43.37200 33.65300 24.51700
H  40.26500 39.19900 21.64800
H  39.99500 42.15500 21.76800
H  42.98000 40.26800 22.16400
H  42.00000 41.28700 21.04300
H  42.34400 39.58900 20.71400
H  37.75200 41.54000 21.64500
H  37.95700 41.58600 23.35900
H  36.76100 39.51700 22.09900
H  37.34800 39.37900 23.65700
H  38.41300 38.76700 22.32900
H  40.24100 46.04200 24.56500
H  39.51100 46.90200 25.93900
H  38.48400 45.90000 24.92900
H  39.17400 44.35800 30.49900
H  42.00600 47.24900 32.87300
H  42.81700 46.61500 31.64300
H  42.47600 45.52700 33.06300
Mg -11.39300 37.99200 42.38400
C  -9.04500 35.44000 41.16900
C  -9.42800 40.30800 40.80200
C  -13.91700 39.95100 42.65700
C  -13.22000 35.26500 43.67300
N  -9.52700 37.81700 40.96900
C  -8.78100 36.70800 40.63100
C  -7.58800 37.09900 39.79000
C  -7.67500 38.68300 39.75000
C  -8.93500 38.98500 40.64300
C  -6.37500 39.40600 40.04500
C  -7.61500 36.42000 38.36800
C  -6.26800 35.81100 37.87600
H  -5.55300 36.53000 36.72000
N  -11.58000 39.97100 41.95100
C  -10.69400 40.76600 41.37200
C  -11.20800 42.14100 41.46100
C  -12.52500 42.06900 42.00300
C  -12.75800 40.62000 42.18500
C  -10.56900 43.41600 40.94400
C  -13.45600 43.22800 42.41400
O  -13.19800 44.40400 42.15500
C  -14.75400 42.90200 43.15400
N  -13.27200 37.71000 43.13400
C  -14.14400 38.65100 43.12500
C  -15.52800 38.19200 43.61100
C  -15.35500 36.61100 43.88200
C  -13.87700 36.50500 43.57100
C  -15.96300 39.00000 44.80300
C  -16.18600 35.70800 42.81800
C  -17.27200 34.89800 43.60400
N  -11.21100 35.77700 42.64300
C  -11.94300 34.91200 43.32500
C  -11.19600 33.60900 43.31100
C  -10.15200 33.79100 42.53600
C  -10.14700 35.11400 42.07200
C  -11.69200 32.33200 43.87200
C  -9.02100 33.14800 41.80200
O  -8.61700 32.01700 41.80000
C  -8.17100 34.24200 41.06000
C  -6.87600 34.27100 41.84200
O  -6.01900 33.40000 41.70600
O  -6.77100 35.35300 42.63500
C  -5.56900 35.39500 43.41900
H  -8.81300 41.11600 40.39900
H  -14.83900 40.50800 42.48000
H  -13.88300 34.54300 44.15300
H  -6.66000 36.79400 40.27200
H  -8.02100 39.19900 38.85400
H  -5.65000 38.89900 40.68100
H  -6.59500 40.39700 40.44300
H  -5.85600 39.61700 39.11000
H  -7.92900 37.16900 37.64200
H  -8.45200 35.72200 38.35400
H  -6.56700 34.77800 37.70000
H  -5.47900 35.71800 38.62200
H  -11.23100 43.89800 40.22500
H  -9.65700 43.18200 40.39500
H  -10.30300 44.08300 41.76400
H  -15.19600 43.79600 43.59400
H  -14.50400 42.21300 43.96000
H  -15.48100 42.42500 42.49700
H  -16.29200 38.36000 42.85200
H  -15.55800 36.34100 44.91900
H  -15.13200 38.83000 45.48800
H  -16.87500 38.67300 45.30200
H  -16.12000 40.06900 44.65500
H  -15.42800 35.05000 42.39300
H  -16.72400 36.16500 41.98800
H  -18.18000 34.75800 43.01900
H  -17.59600 35.43700 44.49400
H  -16.84100 33.91500 43.79600
H  -12.61800 32.49100 44.42400
H  -10.96000 31.96100 44.59000
H  -11.79900 31.62300 43.05100
H  -7.94200 33.91400 40.04600
H  -5.63600 36.24300 44.10100
H  -4.71900 35.51100 42.74600
H  -5.39400 34.51400 44.03500

