158

Mg 1.33900 -1.32100 43.36700
C  4.77300 -0.72500 42.68300
C  0.65300 1.74400 41.95600
C  -1.83100 -2.35500 43.06400
C  2.21100 -4.58400 44.41000
N  2.55700 0.25700 42.32300
C  3.88800 0.24700 42.09400
C  4.32500 1.58000 41.47700
C  3.04600 2.49300 41.54500
C  2.04000 1.51600 42.05000
C  3.13900 3.66800 42.53300
C  5.08000 1.42600 40.10100
C  4.36500 0.50700 39.08000
H  4.65300 0.68500 37.58600
N  -0.38200 -0.43300 42.60300
C  -0.44700 0.90600 42.16400
C  -1.84800 1.18800 41.92400
C  -2.53900 -0.01000 42.24500
C  -1.59600 -1.01800 42.70200
C  -2.45200 2.55000 41.54000
C  -4.02600 -0.25600 41.98900
O  -4.66300 0.72100 41.59600
C  -4.83300 -1.49600 42.21200
N  0.36300 -3.10900 43.59300
C  -0.98600 -3.34700 43.46300
C  -1.42900 -4.71600 43.98000
C  -0.07400 -5.43700 44.16800
C  0.88800 -4.31100 44.19100
C  -2.34400 -4.72100 45.23300
C  0.21200 -6.57800 43.21500
C  0.67100 -7.91000 43.87400
N  3.09000 -2.40600 43.62200
C  3.33300 -3.68000 44.16400
C  4.75200 -3.82800 44.38000
C  5.32200 -2.75000 43.73000
C  4.31400 -1.87400 43.35400
C  5.44000 -5.02800 44.90000
C  6.62500 -2.23100 43.26800
O  7.75800 -2.74100 43.27600
C  6.29200 -0.83300 42.53400
C  7.05500 0.20900 43.23500
O  8.24300 0.54100 42.96500
O  6.32900 0.74200 44.22900
C  6.88300 1.79200 45.07200
H  0.38000 2.78500 41.76900
H  -2.83400 -2.77600 42.96900
H  2.45900 -5.53700 44.88200
H  5.09000 1.91300 42.17800
H  2.73800 3.01900 40.64100
H  2.99300 3.36300 43.56900
H  2.39000 4.41300 42.26600
H  4.14300 4.09300 42.52500
H  6.08300 1.00900 40.19900
H  5.17200 2.39600 39.61400
H  3.28500 0.61100 39.18400
H  4.75400 -0.48300 39.32000
H  -1.75800 3.37600 41.69300
H  -3.28000 2.81800 42.19600
H  -2.88900 2.42000 40.55000
H  -5.73100 -1.27600 41.63500
H  -5.04800 -1.66400 43.26700
H  -4.33600 -2.32700 41.71000
H  -2.03400 -5.20600 43.21800
H  -0.04300 -5.84200 45.17900
H  -1.78800 -4.77300 46.16900
H  -3.21500 -5.36700 45.11800
H  -2.79800 -3.73500 45.12900
H  0.98300 -6.30700 42.49300
H  -0.71800 -6.68900 42.65800
H  1.74800 -8.01400 43.73800
H  0.15600 -8.66800 43.28400
H  0.42700 -7.82300 44.93300
H  4.78400 -5.39600 45.68700
H  6.42300 -4.71800 45.25500
H  5.49200 -5.71400 44.05400
H  6.73800 -1.07100 41.56800
H  6.23200 2.02400 45.91500
H  7.09700 2.62800 44.40600
H  7.76200 1.26900 45.44700
Mg 48.47600 34.95200 27.22800
C  46.78500 33.47400 29.91500
C  49.36700 37.61100 29.24100
C  49.72900 36.46400 24.46700
C  47.34200 32.28700 25.20500
N  48.11800 35.44300 29.33800
C  47.60600 34.57300 30.28300
C  47.79800 35.13200 31.67900
C  48.19800 36.60600 31.37700
C  48.63900 36.56700 29.90100
C  47.18300 37.71600 31.67800
C  48.95800 34.37500 32.44600
C  48.85000 34.25400 33.93600
H  47.90800 35.16000 34.78400
N  49.53300 36.76400 26.93800
C  49.79900 37.69900 27.88400
C  50.54900 38.68700 27.28400
C  50.81800 38.33100 25.98700
C  49.92900 37.23900 25.70700
C  51.12900 39.76200 28.06200
C  51.77700 38.96600 24.90100
O  51.93800 38.45100 23.81000
C  52.55100 40.15900 25.37400
N  48.34600 34.52300 25.06300
C  48.95000 35.32600 24.17500
C  48.89600 34.74200 22.74600
C  48.30100 33.32700 22.94000
C  48.03200 33.34200 24.55200
C  48.24000 35.66900 21.70200
C  49.10100 32.10300 22.42300
C  50.01300 31.43100 23.41100
N  47.14000 33.29100 27.47500
C  46.91100 32.23900 26.57600
C  46.08900 31.29000 27.25800
C  45.95300 31.77600 28.53400
C  46.64700 32.97600 28.61200
C  45.62600 29.97900 26.62000
C  45.34900 31.52100 29.75900
O  44.68200 30.54800 30.13600
C  45.80300 32.61900 30.72200
C  46.40000 31.90000 31.94600
O  47.46800 31.37200 32.02200
O  45.45300 31.81300 32.93200
C  45.87100 30.97600 34.18100
H  49.62800 38.42600 29.91900
H  50.03600 36.96000 23.54300
H  47.04400 31.40200 24.63800
H  46.87300 35.02400 32.24600
H  49.18700 36.79700 31.79300
H  46.42200 37.38300 32.38500
H  46.61500 37.90500 30.76700
H  47.71200 38.52200 32.18800
H  49.90500 34.78900 32.09900
H  48.94000 33.33100 32.13200
H  49.80300 34.19100 34.46300
H  48.41600 33.26000 34.03600
H  50.65800 40.67600 27.70300
H  52.21000 39.83200 27.94100
H  50.99400 39.78600 29.14400
H  53.18600 40.51300 24.56300
H  53.22500 40.05500 26.22500
H  51.77500 40.89800 25.57400
H  49.95400 34.59100 22.53100
H  47.29100 33.36100 22.53000
H  47.41300 35.17400 21.19200
H  49.00000 36.09600 21.04700
H  47.65600 36.49100 22.11600
H  49.68400 32.57500 21.63200
H  48.34700 31.37200 22.13100
H  50.99000 31.48000 22.93000
H  49.63200 30.42800 23.59900
H  50.12900 32.05700 24.29600
H  46.14800 29.08500 26.95900
H  45.83800 29.92100 25.55200
H  44.55500 29.81200 26.73900
H  44.95200 33.19200 31.09000
H  46.85200 31.27000 34.55400
H  45.88500 29.93300 33.86400
H  45.21700 30.85600 35.04400

