158

Mg 35.45400 1.61000 28.85300
C  33.39400 2.78900 31.35700
C  38.09300 1.28500 31.06100
C  37.59300 0.70900 26.23600
C  32.86000 2.01300 26.56400
N  35.71300 2.01500 30.90900
C  34.69100 2.45300 31.76400
C  35.20200 2.45700 33.18200
C  36.70500 2.17700 33.06000
C  36.89700 1.81200 31.56300
C  37.52900 3.42500 33.32200
C  34.48000 1.41400 34.05500
C  34.20600 1.86400 35.49200
H  34.81200 3.14800 36.02400
N  37.47400 0.85500 28.70100
C  38.38600 0.85500 29.69700
C  39.61500 0.43000 29.14700
C  39.55700 0.30100 27.75700
C  38.14000 0.60200 27.48000
C  40.78700 0.13400 29.96100
C  40.71500 -0.06300 26.73400
O  40.46900 -0.11600 25.51800
C  42.12300 -0.12600 27.12300
N  35.28000 1.35400 26.71500
C  36.29200 1.11700 25.86700
C  35.83400 1.30200 24.43900
C  34.22700 1.29100 24.60100
C  34.05400 1.57300 26.06900
C  36.34200 2.68100 23.82100
C  33.41100 0.01800 24.08200
C  32.85000 -0.98200 25.06600
N  33.51300 2.26000 28.91100
C  32.55200 2.37600 27.88300
C  31.26400 2.86800 28.42800
C  31.55300 3.05300 29.83400
C  32.92400 2.64400 30.02800
C  30.00000 3.05200 27.70400
C  30.99300 3.41700 31.10100
O  29.83200 3.75700 31.33400
C  32.22200 3.25400 32.19700
C  32.32700 4.65600 32.73800
O  32.94800 5.58600 32.19000
O  31.48700 4.76800 33.81200
C  31.50800 6.02900 34.56100
H  39.00800 1.27200 31.65700
H  38.31500 0.56300 25.43000
H  31.98200 2.09100 25.91800
H  35.10300 3.50800 33.45500
H  37.08200 1.51400 33.83900
H  37.05400 4.36100 33.02500
H  38.45700 3.46600 32.75200
H  37.70500 3.60900 34.38200
H  34.98500 0.44800 34.07200
H  33.50000 1.16500 33.64900
H  34.55200 1.05600 36.13600
H  33.15000 1.83100 35.76000
H  40.53200 -0.22700 30.95700
H  41.40500 1.03200 29.94800
H  41.36600 -0.62400 29.43400
H  42.43800 -1.05400 27.60100
H  42.23200 0.75600 27.75300
H  42.68700 0.10200 26.21900
H  36.12200 0.48500 23.77800
H  33.79600 2.15700 24.09800
H  36.89900 2.36400 22.93900
H  37.05900 3.09500 24.53000
H  35.64100 3.48700 23.60300
H  34.06700 -0.52100 23.39900
H  32.70900 0.41500 23.34900
H  32.79700 -0.48100 26.03300
H  33.32700 -1.93600 25.29000
H  31.83500 -1.25200 24.77600
H  29.14500 2.42700 27.96100
H  30.09300 2.95900 26.62200
H  29.65000 4.05200 27.95900
H  31.80200 2.61700 32.97500
H  32.35800 6.68300 34.36400
H  31.50100 5.99600 35.65000
H  30.66300 6.62900 34.22400
Mg 47.42500 15.89300 27.98500
C  45.81200 15.60800 31.13000
C  49.46600 18.19100 29.26800
C  48.64500 16.31100 24.86500
C  44.89900 13.91100 26.68000
N  47.63300 16.67500 30.02700
C  46.97300 16.38400 31.15200
C  47.56200 17.25900 32.27400
C  48.51500 18.19600 31.64700
C  48.60700 17.61100 30.22100
C  48.11300 19.65400 31.64000
C  48.03100 16.43000 33.44600
C  47.96500 17.05500 34.85100
H  49.05300 16.59800 35.81300
N  48.92900 16.94300 27.18300
C  49.60100 17.91000 27.87900
C  50.53300 18.62700 26.99800
C  50.42600 17.98500 25.72200
C  49.27700 17.03900 25.87000
C  51.39600 19.76900 27.42900
C  51.24700 18.21500 24.50000
O  51.01100 17.64000 23.43900
C  52.38000 19.11700 24.54400
N  46.89600 15.22000 26.00100
C  47.59800 15.38200 24.90800
C  47.01000 14.61400 23.68500
C  45.98900 13.70200 24.42700
C  45.91400 14.27500 25.78600
C  46.48000 15.49600 22.50300
C  46.41100 12.22000 24.26900
C  47.64400 11.79800 25.08500
N  45.69700 15.01900 28.71000
C  44.73700 14.34900 28.00200
C  43.60900 14.03800 28.82100
C  44.02600 14.45700 30.07900
C  45.31200 15.08200 29.94000
C  42.45100 13.15000 28.44300
C  43.64500 14.54300 31.47900
O  42.62300 14.17500 32.04800
C  44.74900 15.31100 32.21400
C  44.27300 16.58900 32.82600
O  43.84800 17.55300 32.13800
O  44.43200 16.59900 34.13700
C  43.95300 17.80700 34.79400
H  50.19200 18.90800 29.65800
H  48.96700 16.42800 23.82800
H  44.18400 13.21400 26.23700
H  46.79800 17.95400 32.62300
H  49.46400 18.04200 32.16200
H  47.29800 19.93500 32.30700
H  47.80100 19.99200 30.65200
H  49.02600 20.16800 31.94300
H  49.07900 16.19300 33.26500
H  47.56100 15.45800 33.59600
H  46.99700 16.75600 35.25300
H  47.96800 18.14400 34.80500
H  52.48000 19.65200 27.40700
H  51.00300 20.19200 28.35300
H  51.20800 20.61700 26.77000
H  53.13800 18.65900 25.18000
H  51.94700 20.09500 24.75600
H  52.77200 19.25600 23.53700
H  47.87600 14.07800 23.29700
H  44.98500 13.73300 24.00200
H  46.45300 16.56100 22.73300
H  45.44500 15.30700 22.21600
H  47.23000 15.29000 21.74000
H  46.46700 11.98700 23.20500
H  45.57800 11.58100 24.56200
H  47.84100 12.34300 26.00800
H  48.51000 12.09800 24.49400
H  47.56400 10.73900 25.32900
H  41.73800 13.69000 27.82000
H  42.01100 12.73600 29.35000
H  43.01500 12.46100 27.81500
H  45.09600 14.69800 33.04600
H  44.27100 18.69800 34.25300
H  44.49100 17.91700 35.73500
H  42.91800 17.79800 35.13400

