158

Mg 40.54200 8.02200 29.28400
C  42.19600 9.44200 31.94200
C  38.37600 6.67900 31.51400
C  38.79700 6.86500 26.78300
C  43.25000 8.72500 27.26600
N  40.34900 8.06400 31.51400
C  41.03500 8.84200 32.34800
C  40.43900 8.78700 33.75500
C  39.36300 7.61200 33.59600
C  39.36600 7.37600 32.11000
C  39.73900 6.33700 34.42200
C  39.87100 10.20100 34.21400
C  39.85100 10.43100 35.75500
H  40.92700 11.36200 36.35900
N  38.80600 7.01400 29.18000
C  38.03800 6.45500 30.18800
C  37.00700 5.63300 29.61400
C  37.07800 5.81000 28.20600
C  38.24700 6.63400 27.98400
C  36.05000 4.88400 30.60500
C  36.13300 5.33100 27.13900
O  36.29700 5.74200 25.99400
C  34.97600 4.45800 27.44100
N  40.97000 7.89500 27.30100
C  40.02600 7.51000 26.38700
C  40.67000 7.25800 24.92800
C  41.98300 8.09600 25.07200
C  42.07700 8.29300 26.63000
C  40.88300 5.79900 24.39000
C  41.87700 9.46800 24.30000
C  41.07300 10.61300 25.00600
N  42.41600 8.95200 29.44000
C  43.44000 9.10600 28.61800
C  44.54500 9.76900 29.23600
C  44.11900 9.98900 30.53200
C  42.79300 9.37700 30.64000
C  45.84500 9.99700 28.55700
C  44.41200 10.49300 31.87000
O  45.43300 11.01600 32.19100
C  43.22100 10.24300 32.80200
C  43.72200 9.45300 34.00200
O  44.03800 8.26500 34.04100
O  43.71000 10.27200 35.09400
C  43.88700 9.52500 36.30000
H  37.78900 6.18600 32.29200
H  38.42400 6.41600 25.86000
H  44.11100 8.95100 26.63300
H  41.16800 8.54800 34.52900
H  38.41400 8.03600 33.92400
H  38.99700 6.07000 35.17400
H  40.69700 6.51900 34.91100
H  39.89200 5.58600 33.64700
H  38.79900 10.19000 34.01900
H  40.31400 11.02300 33.65000
H  39.74300 9.45300 36.22500
H  38.87300 10.86400 35.96900
H  36.21400 5.16500 31.64500
H  36.33100 3.83100 30.59900
H  34.98900 4.87100 30.35500
H  35.27900 3.76500 28.22500
H  34.67600 4.00900 26.49500
H  34.15200 5.08300 27.78600
H  40.11700 7.86000 24.20700
H  42.79600 7.49700 24.66200
H  41.04100 5.07000 25.18500
H  41.72600 5.75600 23.70100
H  39.97000 5.43700 23.91800
H  41.44600 9.25800 23.32100
H  42.88400 9.84600 24.12300
H  40.21100 10.95600 24.43500
H  41.78100 11.43600 25.10200
H  40.59200 10.35600 25.95000
H  45.81800 10.99800 28.12700
H  46.09800 9.28700 27.77000
H  46.58100 9.87000 29.35100
H  42.79100 11.18600 33.13900
H  43.53800 10.12500 37.14100
H  44.94500 9.27500 36.37500
H  43.15800 8.71500 36.31900
Mg 41.47600 41.29700 26.56900
C  40.82300 43.71400 29.11700
C  42.31800 39.27000 29.16700
C  42.46300 39.13700 24.26400
C  40.97900 43.73300 24.15800
N  41.69000 41.51500 28.85100
C  41.24800 42.53100 29.68600
C  41.60200 42.22000 31.15400
C  42.05300 40.76500 31.12000
C  41.98200 40.51400 29.59600
C  43.48100 40.53700 31.84100
C  40.32300 42.32000 32.09200
C  40.22200 41.53600 33.47700
H  39.46700 42.18100 34.66900
N  42.31000 39.47500 26.63400
C  42.51300 38.80000 27.83400
C  42.97900 37.44500 27.52500
C  43.07100 37.39100 26.13700
C  42.64000 38.69100 25.63600
C  43.39800 36.36100 28.61100
C  43.63200 36.24500 25.23000
O  43.71500 36.31300 23.98800
C  44.15200 35.07900 25.91500
N  41.86500 41.43600 24.49300
C  42.17300 40.35400 23.67600
C  42.06200 40.67600 22.14700
C  41.36400 42.07700 22.21900
C  41.44800 42.44600 23.71300
C  43.45800 40.65300 21.42000
C  39.86500 42.08600 21.86900
C  38.84000 41.11100 22.58300
N  41.08600 43.28000 26.56600
C  40.85600 44.10900 25.52800
C  40.65300 45.49800 26.04300
C  40.52600 45.32400 27.43600
C  40.78600 43.97200 27.72100
C  40.47600 46.80300 25.31900
C  40.14100 46.02000 28.64700
O  39.86100 47.18400 28.86700
C  40.38400 44.96400 29.74500
C  41.26600 45.43400 30.83400
O  42.48800 45.50500 30.85200
O  40.47000 45.90700 31.82800
C  41.15900 46.67900 32.96900
H  42.49200 38.59700 30.00900
H  43.01000 38.51000 23.55700
H  40.95400 44.50100 23.38200
H  42.37900 42.91300 31.47800
H  41.30400 40.17400 31.64600
H  44.26900 40.49700 31.08900
H  43.49300 39.75600 32.60100
H  43.71600 41.40100 32.46300
H  39.56000 41.93900 31.41400
H  40.14200 43.38100 32.26600
H  41.23600 41.27600 33.77800
H  39.71900 40.61500 33.17900
H  43.28700 36.78300 29.61000
H  44.44100 36.06100 28.51000
H  42.80400 35.44800 28.57400
H  44.86800 35.42800 26.65900
H  44.71000 34.46500 25.20800
H  43.31700 34.60300 26.42800
H  41.45800 39.94200 21.61400
H  41.88800 42.83500 21.63700
H  44.30900 40.34700 22.02900
H  43.64800 41.67800 21.10300
H  43.28000 39.90800 20.64400
H  39.85400 41.80700 20.81600
H  39.39300 43.06700 21.93300
H  37.79700 41.39500 22.72700
H  39.28100 40.62500 23.45300
H  38.78200 40.26600 21.89600
H  39.51800 47.27900 25.52800
H  40.49000 46.72300 24.23200
H  41.32600 47.42800 25.59100
H  39.37800 44.87200 30.15400
H  42.21000 46.93000 32.82900
H  41.13300 45.95200 33.78100
H  40.57700 47.55500 33.25400

