158

Mg 17.02100 -1.86100 28.42500
C  16.13900 0.05000 31.16100
C  19.08900 -3.80500 30.51700
C  18.25500 -3.52700 25.74100
C  15.22800 0.17900 26.44900
N  17.52200 -1.85000 30.68100
C  16.99100 -1.00900 31.61200
C  17.48200 -1.38100 33.00000
C  18.59900 -2.51400 32.71700
C  18.38700 -2.74800 31.18900
C  20.00600 -2.11400 33.12200
C  16.30800 -1.82500 33.83500
C  16.38800 -1.73000 35.38400
H  17.77800 -1.84500 36.09500
N  18.27200 -3.58300 28.18500
C  19.10300 -4.13500 29.21600
C  19.89400 -5.16100 28.63200
C  19.61500 -5.22400 27.21300
C  18.69800 -4.08800 26.99600
C  20.76900 -6.05700 29.42100
C  20.20900 -6.05300 26.08900
O  19.91200 -5.86300 24.90100
C  21.12200 -7.16600 26.46400
N  16.90200 -1.63200 26.47200
C  17.38600 -2.48600 25.53100
C  17.17700 -1.87400 24.15300
C  16.00600 -0.84900 24.42500
C  16.01500 -0.78700 25.86900
C  18.47600 -1.33800 23.45000
C  14.56300 -1.13800 23.75600
C  14.28800 -0.11200 22.64700
N  15.92800 -0.18000 28.73200
C  15.21600 0.52600 27.77300
C  14.48500 1.53300 28.43800
C  14.77900 1.37000 29.80100
C  15.70500 0.31000 29.86500
C  13.72800 2.57600 27.71800
C  14.62700 1.96000 31.09600
O  13.88900 2.81600 31.52400
C  15.56600 1.16200 32.05200
C  16.57100 1.97400 32.66700
O  17.50400 2.49400 32.12900
O  16.40000 1.92200 34.04200
C  17.35100 2.59800 34.93300
H  19.74500 -4.25100 31.26700
H  18.64300 -4.05000 24.86400
H  14.51500 0.70800 25.81300
H  17.89900 -0.51100 33.50700
H  18.41000 -3.40600 33.31400
H  20.31000 -2.70100 33.98900
H  20.12600 -1.07100 33.41400
H  20.68000 -2.37800 32.30700
H  16.13300 -2.86800 33.57200
H  15.46600 -1.31300 33.37000
H  15.77200 -2.51700 35.81900
H  15.87100 -0.81700 35.68100
H  21.07900 -5.54100 30.33000
H  21.72200 -6.29100 28.94800
H  20.28700 -6.98300 29.73500
H  22.06300 -6.79900 26.87300
H  21.41600 -7.80000 25.62800
H  20.69200 -7.80000 27.23900
H  16.84600 -2.68600 23.50600
H  16.40200 0.09200 24.04100
H  19.35400 -1.39700 24.09300
H  18.29500 -0.27900 23.26500
H  18.70500 -1.90000 22.54500
H  13.68500 -1.15500 24.40200
H  14.60400 -2.15100 23.35400
H  14.96100 -0.33200 21.81900
H  14.45400 0.92400 22.94500
H  13.24900 -0.24400 22.34700
H  12.98000 2.04100 27.13200
H  14.27600 3.24000 27.05100
H  13.28100 3.08500 28.57200
H  14.89400 0.72400 32.79000
H  16.71600 2.89500 35.76800
H  17.79300 3.41100 34.35600
H  18.12900 1.90000 35.24100
Mg 36.80600 49.42900 24.75400
C  36.91700 47.37500 27.66800
C  35.78900 52.06200 26.75500
C  36.36400 51.05500 22.04600
C  37.26200 46.46500 22.83400
N  36.33700 49.67400 26.97300
C  36.54900 48.75200 27.98800
C  36.27800 49.36600 29.39200
C  35.76000 50.80800 29.02200
C  36.01700 50.87600 27.46900
C  34.24300 51.08600 29.33400
C  37.57000 49.33500 30.17600
C  37.50100 49.06000 31.67500
H  36.17700 49.01900 32.34600
N  36.22500 51.31000 24.46500
C  35.81700 52.30300 25.36800
C  35.47200 53.44600 24.66800
C  35.70800 53.21600 23.25800
C  36.09700 51.79900 23.22400
C  34.96500 54.73500 25.32100
C  35.40200 54.18400 22.09300
O  35.37900 53.86900 20.90200
C  35.03500 55.63400 22.32600
N  36.83800 48.81900 22.69400
C  36.62500 49.67200 21.78500
C  36.84100 49.16400 20.33200
C  37.19600 47.67600 20.67000
C  37.16700 47.62800 22.14900
C  35.59100 49.39700 19.41800
C  38.62300 47.21300 20.10300
C  39.87100 47.19700 20.94400
N  37.11900 47.37900 25.13600
C  37.30100 46.31900 24.25900
C  37.51300 45.08500 24.99600
C  37.34000 45.44800 26.34900
C  37.06100 46.84100 26.40000
C  37.72700 43.67200 24.40300
C  37.26600 44.94300 27.71600
O  37.28200 43.79400 28.12300
C  37.03400 46.18300 28.58800
C  35.84100 45.91300 29.31900
O  34.73200 46.12300 28.92400
O  36.17100 45.40900 30.52400
C  35.19100 45.04600 31.42800
H  35.52200 52.95600 27.32200
H  36.29800 51.66500 21.14300
H  37.45200 45.51700 22.32800
H  35.44100 48.83600 29.84500
H  36.38700 51.56100 29.49900
H  33.80300 50.37500 30.03300
H  33.77500 51.13300 28.35100
H  34.15800 52.08200 29.76900
H  38.23500 50.15800 29.91600
H  38.16400 48.51500 29.77200
H  38.02300 49.90900 32.11700
H  38.06200 48.14000 31.84000
H  34.19700 55.02500 24.60400
H  35.76400 55.46900 25.41500
H  34.53400 54.61400 26.31500
H  35.73100 56.08800 23.03300
H  33.96900 55.73800 22.52500
H  35.02100 56.12000 21.35100
H  37.66400 49.64600 19.80500
H  36.34600 47.04800 20.40500
H  34.69600 49.52500 20.02700
H  35.43600 48.57200 18.72200
H  35.83100 50.29400 18.84800
H  38.83900 47.95000 19.33000
H  38.52400 46.30200 19.51300
H  39.61100 47.29900 21.99800
H  40.41000 48.10800 20.68800
H  40.40900 46.27400 20.72600
H  36.82100 43.08700 24.24000
H  38.30900 43.13800 25.15400
H  38.47200 43.76100 23.61200
H  37.80600 46.39600 29.32800
H  35.48100 45.69500 32.25300
H  35.17800 43.97100 31.61200
H  34.18300 45.34100 31.13500

