158

Mg 36.32900 49.30200 26.43900
C  36.34700 46.94700 29.03800
C  35.47300 51.74300 28.62900
C  35.98300 51.34500 23.84600
C  36.85900 46.62800 24.19700
N  36.07600 49.37900 28.62400
C  36.12800 48.30300 29.47300
C  35.88000 48.73400 30.87700
C  35.48500 50.18600 30.63000
C  35.60100 50.49000 29.20300
C  34.17800 50.51700 31.26300
C  37.09700 48.61100 31.88800
C  36.63000 48.26400 33.33700
H  36.64100 49.39600 34.39700
N  35.77100 51.25000 26.29900
C  35.45600 52.13600 27.29000
C  35.35600 53.47000 26.75300
C  35.63100 53.46000 25.35500
C  35.83600 51.96900 25.14000
C  35.14500 54.56300 27.72300
C  35.60200 54.62200 24.38100
O  36.03800 54.39300 23.25100
C  35.37900 56.10400 24.76500
N  36.31600 48.95800 24.29000
C  36.08600 50.01700 23.45800
C  36.34300 49.64900 21.92400
C  37.03700 48.22600 22.16500
C  36.71800 47.91300 23.62500
C  35.16400 49.59200 20.91000
C  38.57300 48.09700 21.71000
C  38.90800 47.37800 20.39900
N  36.58500 47.22100 26.50500
C  36.85700 46.25900 25.53000
C  37.23600 45.09000 26.21600
C  36.98000 45.26400 27.57600
C  36.55600 46.59900 27.72100
C  37.85900 43.90700 25.54400
C  36.98900 44.61800 28.88100
O  37.38100 43.48300 29.17200
C  36.50600 45.64500 29.92700
C  35.23500 45.25100 30.65800
O  34.21900 44.85500 30.10400
O  35.40300 45.60400 31.96500
C  34.36900 45.09300 32.82400
H  35.18100 52.59200 29.25000
H  35.91300 52.03800 23.00500
H  37.11000 45.79100 23.54200
H  34.98800 48.22900 31.24800
H  36.24700 50.89300 30.95800
H  33.30200 50.20600 30.69300
H  33.96900 51.58700 31.28800
H  34.24500 50.25700 32.31900
H  37.55300 49.58300 32.07600
H  37.87900 47.89000 31.65000
H  37.14700 47.35400 33.64200
H  35.56500 48.03200 33.33600
H  36.07800 54.74400 28.25800
H  34.43300 54.22400 28.47600
H  34.78800 55.51600 27.33400
H  36.22000 56.66000 25.18100
H  34.53500 56.12100 25.45500
H  34.93200 56.57300 23.88900
H  37.08000 50.30100 21.45700
H  36.48600 47.44900 21.63500
H  35.07200 48.68600 20.31200
H  35.21500 50.39800 20.17800
H  34.30200 49.65100 21.57500
H  39.15500 47.69200 22.53700
H  39.01300 49.09000 21.61200
H  38.06200 47.43200 19.71400
H  39.11100 46.33300 20.63300
H  39.79900 47.91300 20.07000
H  38.86200 44.30700 25.39200
H  37.41900 43.62200 24.58900
H  37.85200 43.00500 26.15600
H  37.27300 45.87600 30.66600
H  34.61600 44.04400 32.98900
H  33.43500 45.23100 32.28000
H  34.37800 45.63000 33.77300
Mg 27.15300 50.47800 26.66200
C  24.94000 51.62700 29.23700
C  29.49600 49.87200 29.06700
C  29.19200 49.82600 24.22400
C  25.09700 52.19700 24.39300
N  27.13500 50.79500 28.97800
C  26.14100 51.09400 29.76200
C  26.58400 50.84600 31.19900
C  28.13900 50.64500 31.12400
C  28.34700 50.43800 29.65000
C  28.96400 51.77000 31.80400
C  25.86900 49.68200 31.85800
C  25.49900 49.73700 33.36200
H  26.34000 50.48100 34.40700
N  28.95600 49.76100 26.67000
C  29.80300 49.52000 27.70800
C  31.00000 48.90100 27.25900
C  30.90700 48.85500 25.86300
C  29.64300 49.52700 25.48400
C  32.08400 48.28200 28.22500
C  31.92500 48.32800 24.87900
O  31.75000 48.34800 23.64600
C  33.36700 47.99600 25.41500
N  27.14700 50.98300 24.56700
C  28.03700 50.43800 23.73900
C  27.76800 50.82100 22.25500
C  26.40900 51.48200 22.37300
C  26.14900 51.56000 23.85200
C  28.85400 51.69100 21.55400
C  25.29500 50.62600 21.80900
C  24.87200 49.33100 22.53600
N  25.42700 51.67300 26.67100
C  24.73300 52.34100 25.71300
C  23.55400 53.09500 26.25300
C  23.64900 52.81200 27.68100
C  24.78500 51.94000 27.86400
C  22.38400 53.63300 25.47200
C  22.82900 52.91800 28.87900
O  21.79400 53.53300 29.05200
C  23.66900 52.19900 29.95100
C  23.97700 53.04400 31.11700
O  24.55800 54.11100 31.10200
O  23.45000 52.55700 32.27700
C  23.43400 53.37900 33.46500
H  30.32500 49.63100 29.73700
H  29.84600 49.56000 23.39000
H  24.54400 52.80300 23.67200
H  26.39800 51.72800 31.81000
H  28.45800 49.68500 31.53000
H  29.84600 51.81100 31.16500
H  29.36700 51.60000 32.80200
H  28.53900 52.77400 31.79800
H  26.58900 48.88100 31.69200
H  24.96200 49.59500 31.26100
H  25.40200 48.71300 33.72200
H  24.51700 50.20500 33.43500
H  32.25100 47.20500 28.19600
H  31.94000 48.55300 29.27200
H  33.06100 48.68600 27.96000
H  33.80400 48.84000 25.94900
H  33.85700 47.71500 24.48200
H  33.26100 47.11700 26.05000
H  27.72600 49.95500 21.59400
H  26.50100 52.49400 21.97800
H  28.49500 52.63500 21.14300
H  29.12400 51.01300 20.74400
H  29.71800 51.91300 22.18100
H  25.60200 50.33900 20.80300
H  24.46200 51.32900 21.78700
H  25.45600 49.08800 23.42300
H  24.97500 48.49500 21.84400
H  23.80200 49.39500 22.73500
H  21.51400 53.92700 26.06000
H  22.07300 53.06000 24.59900
H  22.53100 54.58600 24.96500
H  23.04400 51.40200 30.35500
H  22.39100 53.45200 33.77200
H  23.70300 54.39600 33.18100
H  24.10200 53.05100 34.26200

