158

Mg 1.53500 8.68200 27.25900
C  2.20000 10.51100 30.21000
C  1.19100 5.82400 29.07100
C  1.10700 7.10400 24.39900
C  1.75900 11.81900 25.56100
N  1.86100 8.19400 29.38800
C  1.97600 9.11300 30.50000
C  1.85400 8.38400 31.84900
C  1.69800 6.92400 31.38900
C  1.60400 6.90600 29.85500
C  2.87800 5.92200 31.78100
C  0.69600 8.99900 32.75300
C  1.20100 9.27800 34.23700
H  2.15800 8.22200 34.82600
N  1.20800 6.77300 26.80000
C  1.00100 5.68100 27.65400
C  0.60600 4.51800 26.90000
C  0.62000 4.86400 25.55300
C  1.00700 6.30900 25.51300
C  0.35700 3.18500 27.60000
C  0.32100 4.03700 24.27300
O  0.28000 4.52000 23.13200
C  0.13900 2.52600 24.42300
N  1.44900 9.40500 25.36200
C  1.29500 8.50000 24.33300
C  1.21700 9.16500 22.94400
C  1.07100 10.65600 23.35000
C  1.51500 10.64800 24.86500
C  2.52100 8.83600 22.20800
C  -0.30000 11.25700 23.11500
C  -0.46500 12.22300 21.90500
N  1.94000 10.80600 27.74300
C  2.05100 11.93500 26.95900
C  2.31700 13.08100 27.80800
C  2.54500 12.57200 29.04400
C  2.20600 11.19600 28.97700
C  2.38400 14.53700 27.36000
C  2.90400 12.87900 30.39900
O  3.26700 13.97200 30.86300
C  2.56700 11.59400 31.21500
C  3.65100 11.29100 32.17100
O  4.58900 10.51100 31.98300
O  3.34100 11.99900 33.36700
C  4.32000 11.93100 34.46700
H  1.12700 4.94000 29.70900
H  1.06400 6.60900 23.42700
H  1.62200 12.75700 25.01800
H  2.82300 8.41100 32.34700
H  0.74700 6.49300 31.70200
H  3.71500 5.91800 31.08300
H  2.45600 4.91700 31.75000
H  3.22500 6.07700 32.80200
H  -0.07600 8.23100 32.80500
H  0.38900 9.91200 32.24300
H  0.37900 9.35800 34.94800
H  1.78700 10.19100 34.33800
H  0.74600 2.28900 27.11500
H  -0.70600 3.12300 27.83200
H  0.88500 3.16500 28.55300
H  1.17100 2.21100 24.57400
H  -0.25200 2.12400 23.48800
H  -0.66700 2.40700 25.14700
H  0.34100 8.90400 22.35000
H  1.80800 11.19500 22.75400
H  2.30700 8.29400 21.28700
H  3.21800 8.23200 22.78900
H  3.11500 9.73600 22.04500
H  -0.48400 11.85900 24.00500
H  -1.17900 10.61600 23.05600
H  -1.21300 11.89600 21.18300
H  0.43800 12.25400 21.29600
H  -0.72100 13.22000 22.26400
H  1.77300 15.19400 27.97800
H  2.01200 14.52000 26.33500
H  3.36900 14.96800 27.17400
H  1.61900 11.84600 31.68800
H  3.72300 11.75700 35.36200
H  4.86100 12.87700 34.46400
H  4.94100 11.04200 34.35200
Mg 17.05000 -0.63800 28.13500
C  16.01900 1.35200 30.83000
C  19.15700 -2.49100 30.15000
C  18.40000 -2.05800 25.40000
C  15.30300 1.62600 25.99800
N  17.48300 -0.62500 30.20000
C  16.95700 0.32200 31.13900
C  17.47400 -0.08500 32.56500
C  18.48300 -1.22300 32.29200
C  18.39200 -1.47100 30.78000
C  19.90000 -0.99300 32.82800
C  16.25900 -0.54500 33.42300
C  16.14500 -0.07100 34.86400
H  17.44300 0.43900 35.54800
N  18.37300 -2.21100 27.85900
C  19.20400 -2.86600 28.80300
C  19.92700 -3.98300 28.17500
C  19.74100 -3.87200 26.81400
C  18.80900 -2.65600 26.64300
C  20.69900 -4.99200 28.94000
C  20.32900 -4.70600 25.79900
O  19.96600 -4.57800 24.59100
C  21.28200 -5.88300 26.05300
N  16.87400 -0.29900 25.96700
C  17.63800 -0.97500 25.09900
C  17.26900 -0.67400 23.65000
C  16.18600 0.44100 23.83400
C  16.08900 0.61100 25.32500
C  18.43200 -0.18600 22.82600
C  14.76400 0.20100 23.15000
C  13.62500 -0.44800 23.92900
N  15.77700 1.02100 28.29200
C  15.23100 1.91500 27.39800
C  14.52100 2.94800 28.04100
C  14.78700 2.74900 29.41100
C  15.60800 1.63100 29.47600
C  13.84700 4.15800 27.37100
C  14.57500 3.34300 30.77900
O  13.96400 4.38400 31.10400
C  15.38000 2.43400 31.74600
C  16.37900 3.27200 32.35900
O  17.48900 3.49200 31.90900
O  15.98300 3.58700 33.66100
C  17.04800 4.22300 34.54000
H  19.90800 -2.91700 30.81800
H  18.84400 -2.58400 24.55200
H  14.83300 2.28400 25.26400
H  17.95500 0.81300 32.95200
H  18.09500 -2.12100 32.77200
H  20.73600 -1.19700 32.16000
H  20.09100 -1.75700 33.58100
H  20.03400 -0.04700 33.35300
H  16.17200 -1.63000 33.36700
H  15.38900 -0.14900 32.89900
H  15.77300 -0.78200 35.60100
H  15.42300 0.74600 34.88700
H  20.64400 -4.79600 30.01100
H  21.72200 -5.10400 28.58300
H  20.24900 -5.97000 28.77000
H  20.79800 -6.55300 26.76300
H  22.15500 -5.46900 26.55700
H  21.54900 -6.41900 25.14300
H  16.86400 -1.57300 23.18600
H  16.62300 1.41100 23.59800
H  18.11500 0.72800 22.32400
H  18.67300 -1.00600 22.14900
H  19.34200 0.08500 23.36100
H  15.04300 -0.31700 22.23300
H  14.43800 1.22100 22.94600
H  13.85100 -1.40500 24.40000
H  12.79100 -0.62000 23.24900
H  13.25400 0.22600 24.70100
H  14.31000 4.34900 26.40200
H  13.92300 4.99700 28.06300
H  12.79800 4.00400 27.12100
H  14.70400 1.93800 32.44100
H  16.65100 4.03400 35.53700
H  17.06700 5.29700 34.35200
H  18.02700 3.75800 34.42200

