158

Mg 17.23500 -2.15500 27.58800
C  16.26300 0.13300 29.96600
C  19.53800 -3.51500 29.72100
C  18.51500 -3.94600 24.98400
C  15.46000 -0.17500 25.21400
N  17.79300 -1.74900 29.59600
C  17.16100 -0.83400 30.42500
C  17.58300 -0.97900 31.94600
C  18.69700 -2.09600 31.85400
C  18.73000 -2.49600 30.33800
C  20.12900 -1.71300 32.34000
C  16.35700 -1.41600 32.80800
C  16.24400 -0.66900 34.11800
H  17.52700 -0.32000 34.81800
N  18.71000 -3.65400 27.46100
C  19.57900 -4.07900 28.43200
C  20.32200 -5.15200 27.88900
C  19.93900 -5.37300 26.54900
C  19.00300 -4.30400 26.26300
C  21.46000 -5.91400 28.65800
C  20.33000 -6.52400 25.61500
O  19.92100 -6.55300 24.44300
C  21.29100 -7.71600 26.09000
N  17.15300 -1.92500 25.35600
C  17.75000 -2.85500 24.55000
C  17.29600 -2.59100 23.08900
C  16.24300 -1.43800 23.17700
C  16.23500 -1.14800 24.67500
C  18.47800 -2.34800 22.12900
C  14.78800 -1.79800 22.66800
C  14.34600 -1.27000 21.34500
N  16.07900 -0.36300 27.55900
C  15.40400 0.26400 26.56200
C  14.65600 1.39800 27.02800
C  14.98000 1.44500 28.36400
C  15.82900 0.33800 28.67600
C  13.66500 2.25400 26.19700
C  14.89100 2.09800 29.55600
O  14.35400 3.12500 29.81300
C  15.57000 1.32300 30.68800
C  16.44300 2.24700 31.44700
O  17.53500 2.68000 31.10900
O  15.75300 2.59200 32.59400
C  16.39800 3.50100 33.60200
H  20.21700 -4.07200 30.37100
H  18.87900 -4.57200 24.16700
H  14.95500 0.40600 24.43900
H  17.90100 0.05200 32.10300
H  18.42300 -2.95800 32.46200
H  20.12000 -0.68800 32.71100
H  20.79300 -1.61100 31.48200
H  20.59700 -2.42800 33.01600
H  16.41000 -2.48600 33.00700
H  15.38500 -1.21500 32.35800
H  15.58500 -1.16500 34.83100
H  15.66100 0.23000 33.91700
H  22.34400 -5.90300 28.02000
H  21.21200 -6.93400 28.94900
H  21.95200 -5.27600 29.39200
H  21.04600 -8.15000 27.06000
H  22.28100 -7.26100 26.13300
H  21.23500 -8.46900 25.30400
H  16.79300 -3.51100 22.79100
H  16.62300 -0.56100 22.65400
H  18.16400 -1.65800 21.34700
H  18.91800 -3.23600 21.67400
H  19.32600 -1.87300 22.62400
H  13.99600 -1.50700 23.35700
H  14.69200 -2.87200 22.50600
H  13.56400 -1.84700 20.85000
H  15.17600 -1.07900 20.66500
H  13.88500 -0.33400 21.65900
H  12.81100 1.66600 25.86300
H  14.09600 2.54900 25.24100
H  13.32800 3.12500 26.75900
H  14.85900 0.91500 31.40600
H  17.13700 4.15900 33.14500
H  16.81500 2.95700 34.44900
H  15.62600 4.17200 33.97800
Mg 5.83900 54.62000 40.64400
C  5.73800 51.03600 40.43900
C  9.19500 54.29800 39.62800
C  5.85700 57.86500 40.10400
C  2.50600 54.69000 41.29400
N  7.26600 52.81800 40.00500
C  6.99200 51.50100 39.97600
C  8.22500 50.67400 39.51900
C  9.38200 51.72400 39.60900
C  8.57500 53.04700 39.70100
C  10.32000 51.62700 40.92900
C  8.16700 49.88700 38.15800
C  7.99400 50.72800 36.83200
H  6.72300 50.58200 36.02000
N  7.30200 55.90800 40.05400
C  8.63600 55.61900 39.82100
C  9.42800 56.83700 39.64100
C  8.52600 57.84700 39.84500
C  7.15300 57.27800 39.96000
C  10.83800 56.93100 39.14100
C  8.86800 59.29400 39.97500
O  10.06400 59.56200 39.94200
C  7.82900 60.31600 40.22300
N  4.24000 56.06500 40.32800
C  4.58500 57.34800 40.36300
C  3.35900 58.25000 40.69400
C  2.24900 57.16200 40.79100
C  3.02700 55.89200 40.89500
C  3.67800 59.00400 42.11000
C  1.26300 57.11900 39.56900
C  -0.16300 57.61600 39.87000
N  4.33400 53.17100 40.88900
C  3.03500 53.38500 41.26100
C  2.44800 52.04900 41.50600
C  3.49600 51.14700 41.25100
C  4.61800 51.83800 40.83700
C  1.19000 51.58400 42.09300
C  3.90300 49.70200 41.26200
O  3.23800 48.71200 41.64500
C  5.34300 49.57700 40.64700
C  5.00100 48.88500 39.34200
O  4.58100 49.39000 38.28300
O  5.29000 47.54500 39.50400
C  4.81700 46.64300 38.37400
H  10.18700 54.34900 39.17400
H  5.83000 58.95200 40.00000
H  1.49000 54.72000 41.69400
H  8.37800 49.93100 40.30200
H  10.02000 51.73500 38.72600
H  11.33100 51.51100 40.53800
H  10.06700 50.79400 41.58500
H  10.31700 52.51400 41.56200
H  7.39600 49.12200 38.24200
H  9.09600 49.33100 38.02700
H  8.90300 50.53000 36.26300
H  7.95800 51.79200 37.06400
H  10.97500 57.70300 38.38300
H  11.35000 56.00100 38.89200
H  11.49300 57.23500 39.95800
H  8.29900 61.26800 40.47000
H  7.22200 60.01400 41.07700
H  7.19800 60.39800 39.33800
H  3.18300 58.89600 39.83400
H  1.62800 57.36300 41.66500
H  2.92900 59.79500 42.13400
H  4.69600 59.38500 42.19500
H  3.42500 58.44600 43.01100
H  1.10900 56.07600 39.29400
H  1.80000 57.69000 38.81100
H  -0.85400 56.83700 39.54700
H  -0.37500 58.55300 39.35500
H  -0.23900 57.82300 40.93800
H  0.62400 52.50400 42.24400
H  1.36700 51.06600 43.03600
H  0.84700 50.92500 41.29600
H  6.06200 48.98100 41.20900
H  3.73900 46.64300 38.21600
H  5.04500 45.60400 38.61100
H  5.27000 47.06100 37.47400

