158

Mg 1.42100 -1.87000 44.36100
C  4.54000 -0.80600 43.60500
C  0.13700 0.72600 42.34900
C  -1.73900 -3.33000 44.42600
C  2.77000 -4.77900 45.82300
N  2.33100 -0.21900 43.15500
C  3.59400 0.03400 42.99800
C  3.82900 1.25400 42.11500
C  2.39800 1.88000 42.02000
C  1.52900 0.72000 42.47900
C  2.13300 3.26800 42.65200
C  4.50700 0.95000 40.71900
C  5.72200 1.77500 40.38300
H  5.91000 2.27000 38.89800
N  -0.53800 -1.23900 43.65100
C  -0.82400 -0.14800 42.89500
C  -2.25700 -0.05400 42.72600
C  -2.83200 -1.15300 43.49600
C  -1.71900 -2.00300 43.91600
C  -2.86800 1.11700 41.83600
C  -4.34600 -1.40100 43.59700
O  -5.14100 -0.61800 43.10000
C  -4.90700 -2.57600 44.27100
N  0.61400 -3.82400 45.13300
C  -0.68500 -4.16100 44.97300
C  -0.93400 -5.61300 45.52200
C  0.52600 -6.10300 45.79800
C  1.35600 -4.88300 45.57100
C  -1.92400 -5.77800 46.67000
C  0.96300 -7.34000 44.93800
C  1.19800 -8.64400 45.64400
N  3.26800 -2.56600 44.91300
C  3.66000 -3.72100 45.56000
C  5.09300 -3.77400 45.58800
C  5.54700 -2.67100 44.83200
C  4.34400 -1.95900 44.43300
C  5.99800 -4.91500 46.01700
C  6.63300 -1.97500 44.20500
O  7.84200 -2.11700 44.18100
C  6.01300 -0.64700 43.56400
C  6.55100 0.57800 44.25400
O  6.29500 1.00300 45.37100
O  7.42100 1.15900 43.42200
C  8.12500 2.33600 43.92700
H  -0.01900 1.67300 41.82900
H  -2.69300 -3.86200 44.42300
H  3.25300 -5.68400 46.19600
H  4.53700 1.82900 42.71200
H  2.18900 2.02000 40.95900
H  3.00800 3.69000 43.14700
H  1.27900 3.23200 43.32800
H  1.92200 3.93800 41.81900
H  3.89600 1.16500 39.84200
H  4.71700 -0.11700 40.64300
H  6.58100 1.12300 40.54300
H  5.72100 2.65300 41.02900
H  -3.35200 0.78000 40.91900
H  -2.12600 1.80900 41.43600
H  -3.66300 1.68600 42.31500
H  -4.98600 -3.43200 43.60000
H  -5.83300 -2.24200 44.73900
H  -4.34400 -2.85700 45.16100
H  -1.34900 -6.13000 44.65700
H  0.52800 -6.48800 46.81800
H  -2.48700 -4.85200 46.78000
H  -1.34700 -5.83100 47.59400
H  -2.60300 -6.62700 46.58500
H  1.92700 -7.12700 44.47700
H  0.22000 -7.51000 44.16000
H  2.25400 -8.91300 45.68100
H  0.76000 -9.33400 44.92200
H  0.68500 -8.66400 46.60500
H  6.26400 -5.41800 45.08700
H  5.34300 -5.60900 46.54500
H  6.89000 -4.49800 46.48400
H  6.41800 -0.65500 42.55200
H  7.42700 3.16700 44.03200
H  8.83200 2.72600 43.19500
H  8.62700 2.18000 44.88200
Mg 35.47400 2.94100 30.49000
C  33.00400 3.92100 32.86600
C  37.85800 2.92600 32.82000
C  37.49500 2.43200 27.99300
C  32.80300 3.46000 27.99400
N  35.42400 3.42800 32.62900
C  34.29400 3.68800 33.39000
C  34.70600 3.64400 34.89200
C  36.28600 3.46500 34.85400
C  36.58200 3.30000 33.31600
C  37.04600 4.48200 35.61700
C  34.09200 2.33700 35.51600
C  33.37300 2.59100 36.85600
H  34.18400 3.45700 37.83700
N  37.47100 2.62300 30.40400
C  38.34800 2.53600 31.47300
C  39.59500 2.10000 31.02500
C  39.55400 2.06200 29.63200
C  38.14300 2.35000 29.26000
C  40.76700 1.99400 32.05600
C  40.57200 1.76000 28.57300
O  40.43200 1.82100 27.34500
C  41.90100 1.34100 29.06100
N  35.23000 3.02900 28.31500
C  36.20600 2.64100 27.56400
C  35.90300 2.74600 26.04600
C  34.30000 2.91500 26.04300
C  34.06700 3.12900 27.56500
C  36.60900 3.99100 25.40400
C  33.61700 1.61900 25.51000
C  32.27500 1.79800 24.81200
N  33.37100 3.51800 30.43700
C  32.43300 3.74300 29.37400
C  31.10200 4.20500 29.76700
C  31.29600 4.24000 31.19700
C  32.66800 3.86900 31.50400
C  29.90700 4.57600 28.96900
C  30.62000 4.44200 32.43300
O  29.41100 4.70200 32.60000
C  31.68900 4.17300 33.58600
C  31.75500 5.28100 34.56400
O  32.38100 6.35700 34.44100
O  30.94900 4.93000 35.62300
C  30.84600 5.91900 36.76200
H  38.58100 2.88700 33.63700
H  38.26200 2.17700 27.25800
H  32.04000 3.73800 27.26500
H  34.32800 4.50700 35.44100
H  36.57200 2.55700 35.38500
H  36.40600 5.12100 36.22600
H  37.64200 5.06100 34.91200
H  37.65500 3.91200 36.31800
H  34.83200 1.57400 35.75600
H  33.42200 1.88100 34.78700
H  33.01900 1.70100 37.37700
H  32.49900 3.19600 36.61200
H  40.47800 2.52600 32.96300
H  41.71600 2.43200 31.74700
H  40.88600 0.91300 32.13700
H  42.29600 2.22100 29.56800
H  42.54700 0.87200 28.32000
H  41.75500 0.60600 29.85300
H  36.19900 1.79600 25.60100
H  34.00300 3.76400 25.42500
H  36.46800 4.93800 25.92700
H  36.35400 4.11900 24.35200
H  37.67400 3.80000 25.53400
H  33.33700 0.97800 26.34700
H  34.17900 1.05600 24.76500
H  32.28100 2.71800 24.22800
H  31.39800 1.73900 25.45600
H  32.27600 1.10700 23.96900
H  29.35100 3.67000 28.72900
H  30.32200 5.08900 28.10100
H  29.33900 5.28800 29.56900
H  31.46700 3.28000 34.17000
H  30.37000 5.28400 37.51000
H  30.32200 6.86400 36.61700
H  31.89400 6.01700 37.04400

