158

Mg 42.40300 41.85500 26.41700
C  41.57800 44.24800 28.85000
C  43.85100 39.90700 28.85300
C  43.43800 39.97700 23.98400
C  41.60300 44.40600 23.92600
N  42.84900 42.22900 28.59500
C  42.22600 43.14400 29.41500
C  42.28400 42.70500 30.87600
C  43.27400 41.46800 30.85800
C  43.40300 41.19000 29.36000
C  44.66600 41.80200 31.43900
C  40.84700 42.39300 31.60800
C  40.56000 43.31600 32.86300
H  41.40300 43.07500 34.10700
N  43.21100 40.03600 26.42700
C  43.79700 39.36600 27.51700
C  44.22400 38.04300 26.96400
C  43.84800 38.04900 25.58700
C  43.44000 39.40900 25.26300
C  44.78600 36.96200 27.80500
C  43.96800 36.83600 24.65100
O  43.60200 36.92900 23.45400
C  44.67100 35.57900 25.05500
N  42.61000 42.27000 24.29500
C  42.98600 41.21500 23.51700
C  42.73500 41.46600 22.00100
C  41.86800 42.73500 22.00100
C  42.05700 43.19800 23.46900
C  44.05200 41.67300 21.11200
C  40.31600 42.45300 21.63500
C  39.55100 41.56900 22.66100
N  41.83000 43.96400 26.36600
C  41.48000 44.81700 25.29100
C  40.91400 46.06600 25.84200
C  40.91800 45.83000 27.28600
C  41.53000 44.64800 27.53600
C  40.32300 47.21300 25.05500
C  40.49400 46.43800 28.48900
O  39.92900 47.51600 28.70600
C  40.94800 45.41900 29.60700
C  41.92000 46.18900 30.44900
O  43.09000 46.29400 30.21300
O  41.23400 46.57100 31.60000
C  41.89200 47.12500 32.73400
H  44.08800 39.23800 29.68300
H  43.64900 39.25800 23.19000
H  41.08900 45.04600 23.20500
H  42.73700 43.53600 31.41700
H  42.92700 40.60000 31.41900
H  45.45600 41.24900 30.93000
H  44.75800 41.25800 32.37900
H  44.94300 42.83400 31.65600
H  40.96200 41.40400 32.05200
H  40.04300 42.53100 30.88500
H  39.50600 43.37000 33.13500
H  40.81300 44.30400 32.47700
H  45.08700 37.34500 28.78000
H  45.74400 36.60000 27.43100
H  44.00100 36.24000 28.03100
H  45.71300 35.89600 25.09300
H  44.59900 34.85400 24.24400
H  44.32200 35.13200 25.98600
H  42.20500 40.62700 21.54800
H  42.20100 43.57400 21.39000
H  44.40000 42.69700 20.97400
H  43.74200 41.31100 20.13100
H  44.81900 40.93800 21.35400
H  40.23400 41.97100 20.66100
H  39.76000 43.38900 21.60000
H  38.88300 42.28300 23.14200
H  40.15100 41.22200 23.50200
H  38.98000 40.83700 22.08900
H  41.08900 47.75600 24.50100
H  39.80200 47.86600 25.75500
H  39.59200 46.79100 24.36600
H  40.06500 45.01300 30.10000
H  41.52100 46.68400 33.66000
H  41.62400 48.18100 32.76800
H  42.97100 47.06600 32.58700
Mg 16.77700 52.67400 26.73600
C  18.65000 51.22800 29.32200
C  14.28500 53.37100 28.98100
C  15.06800 53.92600 24.15000
C  19.11200 51.26000 24.50600
N  16.48000 52.23400 28.88900
C  17.50100 51.85400 29.78200
C  17.05100 52.07500 31.24300
C  15.46900 52.26500 31.01700
C  15.35600 52.69300 29.53900
C  14.65000 51.05000 31.44800
C  17.94500 53.13000 31.96600
C  18.10000 53.22200 33.50400
H  17.27500 52.17100 34.41800
N  14.91400 53.59700 26.57900
C  14.03000 53.81300 27.65100
C  12.86800 54.54900 27.08800
C  13.10100 54.69000 25.67500
C  14.37600 54.05600 25.40300
C  11.69200 55.05600 27.94200
C  12.13900 55.32800 24.66700
O  12.39500 55.31400 23.42900
C  10.80300 55.78600 25.10500
N  17.02600 52.51700 24.64700
C  16.27500 53.30000 23.83900
C  16.80800 53.31300 22.35000
C  18.20700 52.55800 22.54700
C  18.12100 52.04800 23.99400
C  15.84000 52.61800 21.37600
C  19.46600 53.56900 22.37200
C  20.17400 53.50200 21.02200
N  18.46400 51.38700 26.80000
C  19.30500 50.93100 25.87200
C  20.34400 50.14300 26.42100
C  20.20900 50.34100 27.80800
C  19.01600 51.05700 28.00900
C  21.39400 49.42900 25.66900
C  20.82600 50.16100 29.13400
O  21.95300 49.79300 29.41100
C  19.74700 50.64700 30.14400
C  19.36900 49.54000 31.07900
O  18.60400 48.58900 30.82700
O  19.96100 49.83200 32.35200
C  19.98800 48.61300 33.23100
H  13.49300 53.58500 29.70200
H  14.56900 54.46700 23.34300
H  19.84800 50.91500 23.77700
H  17.15900 51.16900 31.84000
H  15.05200 53.11000 31.56600
H  15.21300 50.51200 32.21100
H  14.38500 50.31300 30.69100
H  13.71200 51.24800 31.96700
H  17.47000 54.04700 31.62000
H  18.91700 53.19600 31.47600
H  17.78400 54.20300 33.85900
H  19.14600 53.25400 33.80700
H  10.70100 54.68100 27.68600
H  11.70600 56.13900 28.06500
H  11.81700 54.76500 28.98500
H  10.20300 54.97100 25.51200
H  10.22700 55.93200 24.19100
H  10.85200 56.62700 25.79700
H  16.89600 54.37300 22.11100
H  18.37100 51.76100 21.82200
H  15.50400 53.37400 20.66700
H  14.98700 52.13400 21.85300
H  16.18900 51.76300 20.79600
H  20.23900 53.44500 23.13000
H  19.09300 54.58900 22.46500
H  19.82700 52.64500 20.44600
H  21.21500 53.35800 21.31100
H  20.05000 54.42800 20.46000
H  22.21900 49.29700 26.36800
H  21.75800 50.03300 24.83800
H  21.10800 48.51300 25.15100
H  20.15100 51.44500 30.76800
H  18.96300 48.57300 33.60000
H  20.74100 48.70500 34.01300
H  20.22700 47.69900 32.68600

