158

Mg 8.59800 3.89000 27.73500
C  9.90900 2.22100 30.53700
C  6.91400 5.98100 29.78100
C  7.08900 5.04300 25.09400
C  10.24800 1.44800 25.77300
N  8.30900 4.02500 29.88700
C  9.06000 3.31000 30.82800
C  8.76300 3.76500 32.29500
C  7.70500 4.90600 32.08500
C  7.54400 4.94400 30.54700
C  6.35200 4.90500 32.84100
C  10.06000 4.05800 33.20400
C  9.85700 5.15900 34.30300
H  10.19200 4.78800 35.74500
N  7.20700 5.31400 27.46300
C  6.62900 6.11600 28.43500
C  5.58200 6.95600 27.82200
C  5.60700 6.68800 26.43400
C  6.64100 5.63600 26.28000
C  4.84900 7.95500 28.58100
C  4.74300 7.23200 25.37200
O  4.60800 6.77400 24.24100
C  3.90300 8.39900 25.60400
N  8.75800 3.29300 25.68400
C  8.05200 4.06200 24.76200
C  8.36700 3.59600 23.30900
C  9.23800 2.20700 23.60200
C  9.45700 2.34400 25.10300
C  7.17400 3.38500 22.37200
C  10.55800 2.10500 22.81300
C  10.73800 0.66200 22.16800
N  9.82000 2.10700 28.07500
C  10.47900 1.31600 27.16700
C  11.36700 0.43700 27.93000
C  11.07700 0.68900 29.26400
C  10.23300 1.80400 29.28100
C  12.32400 -0.56500 27.36600
C  11.38000 0.31700 30.62900
O  12.17700 -0.44700 31.08700
C  10.59400 1.30300 31.57100
C  9.74900 0.38100 32.34500
O  9.02400 -0.50800 31.83800
O  9.81300 0.60900 33.69600
C  8.85100 -0.27300 34.49100
H  6.46900 6.69800 30.47400
H  6.55800 5.44900 24.23000
H  10.91400 0.78600 25.21700
H  8.23100 2.95600 32.79700
H  8.19600 5.86300 32.26000
H  6.29200 5.84600 33.38900
H  6.19600 4.08000 33.53600
H  5.61400 5.05800 32.05400
H  10.84500 4.44900 32.55700
H  10.45700 3.18600 33.72400
H  8.78500 5.35500 34.30500
H  10.42900 6.02900 33.98100
H  4.80000 7.59400 29.60800
H  3.82000 7.80900 28.25200
H  5.27300 8.95700 28.52200
H  4.40700 8.89700 26.43200
H  2.90400 8.03600 25.84700
H  3.87600 9.00200 24.69600
H  8.98600 4.35000 22.82400
H  8.57400 1.36500 23.40900
H  6.22600 3.44100 22.90800
H  7.24900 2.40300 21.90500
H  7.23900 4.09700 21.54900
H  11.37000 2.23200 23.52900
H  10.58400 2.89400 22.06300
H  11.16800 0.70500 21.16800
H  9.75500 0.19700 22.09100
H  11.37600 0.20400 22.92400
H  11.88500 -1.53500 27.13300
H  13.14300 -0.71200 28.07000
H  12.68100 -0.12200 26.43700
H  11.33700 1.88100 32.11900
H  8.88400 -1.29500 34.11200
H  7.84700 0.14300 34.41000
H  9.20900 -0.18100 35.51600
Mg 8.51100 48.98400 26.00800
C  6.23000 49.26200 28.68000
C  10.91100 50.34500 28.11000
C  10.64100 48.66800 23.55300
C  5.77400 48.42900 23.75800
N  8.50600 49.62700 28.12000
C  7.53400 49.58400 29.07500
C  8.11500 49.79400 30.50700
C  9.51800 50.38500 30.24100
C  9.62400 50.16500 28.69000
C  9.70800 51.81300 30.75100
C  8.09100 48.53700 31.34500
C  7.69500 48.68200 32.85300
H  7.83500 47.46200 33.77100
N  10.51000 49.47700 25.82200
C  11.32000 49.95000 26.83200
C  12.68200 49.93300 26.35600
C  12.66900 49.36600 24.99200
C  11.22200 49.17200 24.74800
C  13.83100 50.57500 27.07000
C  13.85900 49.15700 23.94700
O  13.63500 49.04900 22.73900
C  15.24900 49.22500 24.40300
N  8.22400 48.67300 23.91600
C  9.35700 48.50900 23.17600
C  8.98900 48.04400 21.74500
C  7.44700 47.93000 21.82600
C  7.08100 48.35300 23.24900
C  9.49200 48.89600 20.56500
C  6.88900 46.48200 21.47000
C  5.65300 46.36700 20.49500
N  6.40400 48.82500 26.14700
C  5.42000 48.68600 25.15000
C  4.10200 48.76500 25.77700
C  4.36500 48.98400 27.15200
C  5.80100 49.04000 27.37100
C  2.69300 48.52300 25.23800
C  3.75700 49.13300 28.41400
O  2.61400 49.13000 28.77800
C  4.89900 49.46800 29.43900
C  4.64200 48.74900 30.69100
O  4.87300 47.55500 30.86900
O  4.14700 49.62800 31.66500
C  3.78700 49.14200 33.00100
H  11.68400 50.66300 28.81200
H  11.33600 48.45900 22.73600
H  4.86200 48.26500 23.18000
H  7.53600 50.47900 31.12600
H  10.24800 49.74000 30.73000
H  8.85700 52.04000 31.39300
H  9.74500 52.59900 29.99600
H  10.72000 51.88400 31.15000
H  9.04200 48.01500 31.23800
H  7.50400 47.73100 30.90400
H  6.63000 48.90600 32.80600
H  8.21700 49.59500 33.14000
H  14.14900 51.30400 26.32500
H  14.68100 49.91700 27.24800
H  13.53500 51.01000 28.02500
H  15.94300 48.78500 23.68700
H  15.46500 48.63500 25.29400
H  15.56700 50.24600 24.61500
H  9.35400 47.03400 21.55600
H  6.90000 48.53300 21.10200
H  10.36400 49.49400 20.83200
H  8.79900 49.64400 20.18100
H  9.72100 48.44900 19.59800
H  6.71500 45.77000 22.27800
H  7.57500 45.78800 20.98400
H  6.10900 46.05600 19.55600
H  5.15600 47.32100 20.32300
H  5.02700 45.53100 20.81000
H  2.03400 49.39100 25.24500
H  2.06400 47.86600 25.83800
H  2.76000 48.19300 24.20100
H  4.86600 50.51300 29.74800
H  2.79800 49.57000 33.16600
H  4.39400 49.51200 33.82800
H  3.92000 48.07000 33.14700

