158

Mg 35.61200 0.82800 29.73500
C  33.42100 2.54400 31.97400
C  38.05600 1.20900 32.32900
C  37.90200 -0.17900 27.56600
C  33.25500 1.29900 27.32700
N  35.72300 1.71600 31.90400
C  34.63700 2.26900 32.55700
C  34.88900 2.34500 34.03900
C  36.46600 2.26400 34.10100
C  36.77200 1.62500 32.74900
C  37.25000 3.71600 34.31300
C  34.14300 1.11100 34.78600
C  33.67500 1.41700 36.24100
H  34.15400 2.65500 36.96700
N  37.69100 0.39100 29.95700
C  38.49100 0.63500 31.07800
C  39.86800 0.18000 30.78400
C  39.79200 -0.23600 29.41900
C  38.40700 -0.00000 28.94000
C  40.83900 0.02600 31.90100
C  40.81600 -0.79200 28.49200
O  40.61600 -1.12600 27.33900
C  42.08300 -1.16800 29.08600
N  35.57800 0.64800 27.73300
C  36.64500 0.14200 27.07500
C  36.35400 0.19300 25.54700
C  34.80000 0.47600 25.56600
C  34.48500 0.77700 26.96100
C  37.05600 1.28800 24.71700
C  33.95000 -0.66300 24.92500
C  32.85000 -0.14800 23.87400
N  33.67400 1.67000 29.64800
C  32.82400 1.72200 28.62300
C  31.49100 2.25300 29.01500
C  31.70300 2.66000 30.31000
C  33.02700 2.22400 30.63300
C  30.20900 2.16500 28.22200
C  31.07600 3.25000 31.46000
O  29.92200 3.64400 31.60900
C  32.20600 3.20900 32.63300
C  32.41500 4.61600 32.94700
O  33.24700 5.35400 32.52700
O  31.59200 4.89600 34.02400
C  31.68000 6.25400 34.60500
H  38.81500 1.27700 33.11100
H  38.60500 -0.50400 26.79600
H  32.58400 1.29100 26.46500
H  34.54900 3.33300 34.34900
H  36.82300 1.56900 34.86100
H  36.54200 4.47900 34.63300
H  37.61900 4.07300 33.35100
H  38.01400 3.67500 35.08900
H  34.76800 0.21800 34.75000
H  33.21500 0.84000 34.28100
H  33.94300 0.48800 36.74400
H  32.59100 1.52900 36.26900
H  41.64000 0.75600 32.01800
H  41.48900 -0.83000 31.72000
H  40.52100 -0.11800 32.93400
H  41.95900 -2.08200 29.66800
H  42.57700 -0.39200 29.67100
H  42.73500 -1.49300 28.27500
H  36.48500 -0.80700 25.13400
H  34.53100 1.39600 25.04800
H  37.90800 1.75400 25.21200
H  36.37300 2.12100 24.55200
H  37.27000 0.71200 23.81700
H  33.52500 -1.34200 25.66500
H  34.66300 -1.24200 24.33800
H  33.25900 -0.34000 22.88200
H  32.55700 0.89700 23.97000
H  31.87100 -0.57300 24.09500
H  30.38300 1.26200 27.63700
H  30.03100 3.03000 27.58300
H  29.36100 2.16500 28.90700
H  31.76400 2.59000 33.41400
H  32.13000 6.17800 35.59500
H  30.65900 6.63200 34.65500
H  32.33900 6.94100 34.07400
Mg 41.01800 7.91500 29.63100
C  42.73600 9.29200 32.39600
C  38.51800 6.95300 31.82700
C  39.74200 6.20200 27.12900
C  43.98300 8.38700 27.80500
N  40.76500 8.15100 31.92500
C  41.51400 8.77600 32.81600
C  40.89000 8.83700 34.21900
C  39.51000 8.14800 33.94500
C  39.59200 7.65500 32.50500
C  39.08900 7.05800 34.92000
C  40.86100 10.27900 34.88200
C  39.85100 10.41900 36.10200
H  40.31100 11.30700 37.27000
N  39.25100 6.88800 29.49400
C  38.36900 6.52800 30.47300
C  37.27100 5.86900 29.83000
C  37.53500 5.76100 28.46900
C  38.91200 6.27500 28.31200
C  36.07300 5.40000 30.64300
C  36.72000 5.18800 27.34000
O  37.11300 5.19800 26.19100
C  35.29900 4.61900 27.65000
N  41.76300 7.44100 27.69300
C  41.01800 6.72800 26.79300
C  41.74000 6.55600 25.39700
C  43.16300 7.32400 25.65000
C  43.00900 7.69300 27.15900
C  41.90400 5.04400 24.87800
C  43.38700 8.57500 24.75400
C  42.51300 9.80600 24.97100
N  42.87000 8.70900 29.95700
C  43.99300 8.84300 29.11400
C  45.07000 9.51800 29.74000
C  44.58900 9.77700 31.07800
C  43.29600 9.13800 31.16300
C  46.42900 9.75000 29.13000
C  44.95200 10.30300 32.33700
O  46.00100 10.76700 32.72500
C  43.78900 9.96400 33.30600
C  44.44800 9.05300 34.35600
O  44.71200 7.87500 34.07300
O  44.59900 9.66500 35.54600
C  44.98800 8.69000 36.61800
H  37.58400 6.77700 32.36600
H  39.36100 5.67600 26.25100
H  44.88500 8.32100 27.19300
H  41.57200 8.20900 34.79200
H  38.71400 8.89100 34.00200
H  38.31500 7.34000 35.63500
H  40.02400 6.83900 35.43500
H  38.66500 6.20000 34.39800
H  40.43600 11.01900 34.20400
H  41.82200 10.50700 35.34200
H  39.63800 9.48300 36.61900
H  38.92600 10.82500 35.69300
H  36.26100 5.45100 31.71500
H  35.77000 4.35800 30.53700
H  35.22600 6.04800 30.41500
H  35.36200 3.90600 28.47200
H  34.80800 4.26300 26.74400
H  34.67500 5.42900 28.02700
H  41.14900 7.07100 24.64000
H  43.97700 6.62500 25.46000
H  42.93900 4.70300 24.84000
H  41.47900 4.92800 23.88200
H  41.32000 4.39000 25.52500
H  43.11200 8.15900 23.78500
H  44.44600 8.82500 24.82500
H  41.71200 9.65200 25.69400
H  42.01800 9.98800 24.01700
H  43.05100 10.70400 25.27500
H  46.46100 9.65400 28.04500
H  47.04800 9.09200 29.74000
H  46.73100 10.78100 29.31200
H  43.40600 10.89100 33.73100
H  44.74900 9.13100 37.58600
H  46.06100 8.50100 36.60000
H  44.59900 7.67400 36.55200

