158

Mg 47.72500 16.09700 27.28500
C  45.90600 16.48400 30.22700
C  50.22800 17.85500 28.97200
C  49.23200 16.50800 24.42900
C  44.72400 15.00900 25.71500
N  47.98900 17.24100 29.38500
C  47.12600 17.04700 30.40800
C  47.69800 17.64900 31.73900
C  49.02200 18.31800 31.19800
C  49.08200 17.79900 29.76200
C  49.20100 19.78500 31.43100
C  48.01700 16.50300 32.78300
C  48.18500 16.99400 34.26400
H  47.83000 18.46800 34.62600
N  49.62600 16.88800 26.78500
C  50.51900 17.53400 27.58000
C  51.68400 17.88500 26.80800
C  51.40800 17.56200 25.46100
C  50.02900 16.96100 25.48800
C  52.86900 18.56200 27.38600
C  52.16300 17.73600 24.07000
O  51.75100 17.31100 22.97700
C  53.39300 18.55600 24.01100
N  47.02000 15.74800 25.31700
C  47.91800 15.96400 24.33600
C  47.29000 15.57700 22.96600
C  45.84200 14.99400 23.34200
C  45.84500 15.18500 24.86700
C  47.20700 16.76000 21.98800
C  45.55000 13.59100 22.80600
C  45.90300 12.34100 23.69400
N  45.80000 15.74300 27.78600
C  44.65300 15.27300 27.09500
C  43.56000 14.99800 27.98100
C  44.03200 15.44000 29.17500
C  45.37100 15.95200 29.02900
C  42.13700 14.48500 27.66000
C  43.63000 15.62800 30.56500
O  42.53500 15.42900 31.09300
C  44.89500 16.27900 31.38100
C  44.32300 17.36300 32.20300
O  44.26300 18.50200 31.83300
O  43.97700 16.95000 33.48700
C  43.47100 18.04200 34.29600
H  51.09100 18.25700 29.50700
H  49.74600 16.46700 23.46700
H  43.83800 14.54600 25.27700
H  47.00000 18.41200 32.08000
H  49.88700 17.91300 31.72400
H  48.20800 20.16400 31.67100
H  49.61700 20.39100 30.62600
H  49.80100 20.05900 32.29800
H  48.93600 15.98200 32.51700
H  47.22600 15.75300 32.79400
H  49.16600 16.80400 34.69900
H  47.59900 16.28300 34.84600
H  52.97000 19.60500 27.08600
H  53.77000 17.98700 27.17000
H  52.94700 18.70100 28.46500
H  53.95400 18.43300 23.08500
H  54.09500 18.43700 24.83600
H  53.03500 19.57900 23.89000
H  47.99000 14.85900 22.53800
H  45.12500 15.74700 23.01400
H  47.63900 17.63100 22.48000
H  46.22500 16.90100 21.53800
H  47.95300 16.47600 21.24500
H  46.06800 13.59900 21.84700
H  44.49500 13.50700 22.54500
H  46.37300 11.62300 23.02200
H  44.93500 11.94000 23.99500
H  46.52500 12.63900 24.53900
H  41.41000 15.21800 27.30800
H  41.76500 14.03300 28.58000
H  42.09400 13.64500 26.96700
H  45.01300 15.40900 32.02700
H  42.66100 18.65100 33.89500
H  44.19500 18.78300 34.63400
H  43.18600 17.55900 35.23100
Mg -6.00400 25.27300 26.58600
C  -4.53400 26.77200 29.38900
C  -8.02500 23.52500 28.56700
C  -6.93700 23.73700 23.82900
C  -3.36800 26.87200 24.62500
N  -6.12300 24.99900 28.75500
C  -5.53600 25.84500 29.67200
C  -6.09400 25.53000 31.05600
C  -7.20900 24.45500 30.82100
C  -7.12500 24.31700 29.30400
C  -6.96800 23.16700 31.53800
C  -6.64000 26.79500 31.74100
C  -6.54600 26.91900 33.25900
H  -5.89300 25.82700 34.13100
N  -7.47300 24.02300 26.19200
C  -8.21000 23.37200 27.15700
C  -9.22200 22.60300 26.52000
C  -8.87600 22.44600 25.15500
C  -7.73400 23.42000 24.94100
C  -10.47000 22.07700 27.29300
C  -9.45800 21.42300 24.18300
O  -9.02400 21.33000 23.04400
C  -10.48000 20.30500 24.63600
N  -5.19800 25.20900 24.52200
C  -5.81000 24.45700 23.60800
C  -5.19500 24.65300 22.17400
C  -4.07200 25.76200 22.42800
C  -4.24400 26.04500 23.99700
C  -4.73200 23.35100 21.51200
C  -4.16200 27.04700 21.45000
C  -3.11300 27.10200 20.35900
N  -4.25800 26.56600 26.88900
C  -3.33100 27.16400 26.01800
C  -2.43300 28.00600 26.75200
C  -2.92600 27.90800 28.07200
C  -3.97600 27.01500 28.09300
C  -1.41700 28.87900 26.20400
C  -2.65400 28.38600 29.49300
O  -1.76900 29.09900 29.99500
C  -3.71000 27.63300 30.35700
C  -2.96300 26.88300 31.36400
O  -2.24200 25.95900 31.11700
O  -3.00100 27.53400 32.55600
C  -2.11200 27.04400 33.61600
H  -8.82900 23.09200 29.16600
H  -7.46200 23.44800 22.91600
H  -2.63600 27.32500 23.95200
H  -5.29000 25.15700 31.69000
H  -8.20200 24.77500 31.13400
H  -7.83700 22.62000 31.90400
H  -6.29400 23.33600 32.37800
H  -6.38800 22.50700 30.89200
H  -7.70100 26.91900 31.52400
H  -6.22100 27.66500 31.23500
H  -7.48300 27.16500 33.75800
H  -5.87600 27.74400 33.50100
H  -11.36500 22.36400 26.74100
H  -10.61000 22.47400 28.29800
H  -10.48000 20.99200 27.40200
H  -9.93200 19.78900 25.42400
H  -10.61800 19.65100 23.77500
H  -11.48000 20.63400 24.91800
H  -5.87500 25.08800 21.44200
H  -3.12500 25.24000 22.29100
H  -3.65500 23.21200 21.59900
H  -5.07900 23.18100 20.49300
H  -5.08900 22.52600 22.12900
H  -4.16100 27.90600 22.12200
H  -5.15700 27.07500 21.00600
H  -2.31900 26.40000 20.61500
H  -2.81400 28.14000 20.21400
H  -3.63900 26.70900 19.48900
H  -1.27500 28.62100 25.15400
H  -0.51600 28.79400 26.81200
H  -1.82800 29.88800 26.20200
H  -4.31100 28.40000 30.84500
H  -1.87800 25.98700 33.49000
H  -2.52100 27.22300 34.61000
H  -1.12800 27.51300 33.58400

