158

Mg 35.59200 2.20900 29.75100
C  33.64200 3.45800 32.35400
C  38.39900 2.31900 31.78300
C  37.36400 1.18400 27.13500
C  32.91500 2.81700 27.55000
N  35.98800 3.05200 31.74000
C  34.99300 3.22300 32.72200
C  35.65600 3.37100 34.13600
C  37.17900 3.14100 33.87700
C  37.22000 2.89200 32.37100
C  38.18100 4.17800 34.33300
C  34.92400 2.33900 35.06900
C  34.69800 2.73300 36.56200
H  35.49800 4.02000 37.04600
N  37.59900 1.71400 29.50100
C  38.60900 1.81300 30.46600
C  39.89400 1.17500 30.02900
C  39.56300 0.99500 28.61000
C  38.14100 1.34500 28.35900
C  41.07200 0.91500 30.98800
C  40.50000 0.42200 27.60400
O  40.15200 0.24300 26.43000
C  41.89900 -0.00600 27.93000
N  35.25300 2.12600 27.62000
C  36.10000 1.63100 26.78100
C  35.56100 1.54900 25.30900
C  34.07400 1.91900 25.58900
C  34.05200 2.31600 27.00000
C  36.24400 2.53400 24.39300
C  33.19000 0.62500 25.38200
C  32.29200 0.66300 24.22600
N  33.69900 2.94100 29.86700
C  32.72000 3.12300 28.91100
C  31.52700 3.58300 29.56400
C  31.81500 3.69000 30.88200
C  33.16500 3.33800 31.01600
C  30.16900 3.94300 28.99800
C  31.26000 4.04900 32.13900
O  30.09600 4.40000 32.39000
C  32.48000 3.87900 33.15200
C  32.66100 5.16400 33.85800
O  32.94900 6.22100 33.32400
O  32.41800 4.97800 35.21400
C  32.42000 6.14200 36.07200
H  39.27800 2.26200 32.42900
H  37.98100 0.80200 26.31900
H  31.97500 2.90500 27.00200
H  35.52900 4.39900 34.47500
H  37.42100 2.19300 34.35800
H  37.62000 4.98600 34.80300
H  38.66200 4.54700 33.42700
H  38.88600 3.78700 35.06600
H  35.46900 1.39500 35.05200
H  34.00000 1.94900 34.64400
H  35.15500 1.89900 37.09500
H  33.65000 2.82400 36.85000
H  41.70800 0.11900 30.59900
H  40.51600 0.63500 31.88200
H  41.61000 1.85500 31.11400
H  42.50800 0.87300 28.13900
H  42.32900 -0.42200 27.01900
H  41.76300 -0.77600 28.68900
H  35.70600 0.51400 24.99900
H  33.62400 2.73500 25.02300
H  36.65400 3.38200 24.94200
H  35.72900 2.84000 23.48200
H  37.17800 2.02500 24.15600
H  32.65300 0.40000 26.30300
H  33.80300 -0.27100 25.28000
H  32.47100 -0.19500 23.57800
H  32.06300 1.63700 23.79200
H  31.39400 0.26900 24.70000
H  29.60400 3.07700 28.65100
H  30.22400 4.64100 28.16300
H  29.52400 4.37900 29.76100
H  32.18500 3.11900 33.87600
H  32.62700 5.85300 37.10200
H  31.36200 6.40700 36.08900
H  33.16600 6.86500 35.74400
Mg -5.99000 25.29600 26.42800
C  -4.51500 26.41500 29.33300
C  -7.90400 23.12400 28.35100
C  -6.83300 23.57600 23.66400
C  -3.56200 27.03500 24.62600
N  -6.26400 24.89100 28.56400
C  -5.58900 25.53300 29.61600
C  -6.14700 25.08400 30.99900
C  -6.98400 23.81200 30.65700
C  -7.13500 23.90700 29.11900
C  -6.38900 22.44100 31.21000
C  -6.83900 26.19900 31.80400
C  -6.59400 26.21100 33.32900
H  -5.82400 24.97500 33.91300
N  -7.28400 23.63200 26.04900
C  -7.93200 22.89300 26.97400
C  -8.79800 21.95200 26.29200
C  -8.60900 22.07300 24.87700
C  -7.51400 23.10500 24.81200
C  -9.72100 21.05700 27.00000
C  -9.26200 21.31800 23.77100
O  -8.97900 21.70300 22.62400
C  -10.32600 20.28600 23.96600
N  -5.29000 25.30000 24.45000
C  -5.89100 24.56600 23.44400
C  -5.18600 24.77900 22.15200
C  -4.33700 26.07600 22.37300
C  -4.36100 26.17600 23.90900
C  -4.24600 23.63400 21.72000
C  -5.01800 27.39700 21.84700
C  -4.35100 27.96100 20.60300
N  -4.45300 26.61800 26.82800
C  -3.64900 27.34500 26.00200
C  -2.75700 28.16300 26.79800
C  -3.12900 27.89200 28.11800
C  -4.10000 26.87300 28.05600
C  -1.75300 29.08100 26.27100
C  -2.76000 28.16800 29.48200
O  -1.84200 28.81600 29.97100
C  -3.62500 27.20400 30.32500
C  -2.57500 26.33000 30.95400
O  -1.81100 25.47600 30.49000
O  -2.55300 26.72700 32.30200
C  -1.33200 26.25200 32.97000
H  -8.65100 22.55800 28.91200
H  -7.06200 23.06600 22.72600
H  -2.81200 27.64700 24.12000
H  -5.19400 24.87300 31.48400
H  -7.98500 23.88800 31.08100
H  -7.08500 21.91700 31.86600
H  -5.44600 22.60200 31.73300
H  -6.17300 21.82300 30.33800
H  -7.91300 26.12000 31.63900
H  -6.35800 27.09500 31.40900
H  -7.53200 26.40700 33.84900
H  -5.99700 27.10400 33.51100
H  -9.47100 20.02900 26.74000
H  -10.76300 21.32200 26.81800
H  -9.70000 20.99200 28.08700
H  -10.61100 19.86600 24.93100
H  -10.15000 19.60400 23.13500
H  -11.28200 20.75400 23.73000
H  -5.91900 24.87400 21.35100
H  -3.34700 26.06000 21.91600
H  -3.19800 23.91700 21.81900
H  -4.32500 23.46500 20.64600
H  -4.27100 22.68900 22.26300
H  -5.02100 28.20600 22.57800
H  -6.09900 27.31200 21.73700
H  -4.15800 29.03100 20.67800
H  -4.92400 27.66000 19.72500
H  -3.35100 27.53500 20.51200
H  -1.02700 28.76600 25.52100
H  -1.05500 29.14200 27.10600
H  -1.90900 30.13800 26.05300
H  -4.04800 27.88000 31.06800
H  -1.56200 25.24400 33.31600
H  -1.10800 26.89600 33.82000
H  -0.47100 26.27700 32.30200

