158

Mg 44.07000 4.08400 48.21900
C  41.79300 6.85000 48.25800
C  41.20600 2.16400 47.97100
C  46.00500 1.49900 47.69400
C  46.69500 6.30400 47.67500
N  41.79700 4.52300 48.20300
C  41.10500 5.64000 48.17200
C  39.52900 5.50100 48.08600
C  39.44300 3.97000 48.32400
C  40.93100 3.51300 48.24000
C  38.81000 3.49000 49.68800
C  38.81600 6.04600 46.83500
C  39.39000 5.45600 45.47700
H  38.59000 5.78700 44.21200
N  43.64500 2.08900 47.76800
C  42.42200 1.47200 47.74300
C  42.69900 0.01800 47.55800
C  44.06400 -0.18200 47.46600
C  44.61400 1.14400 47.61500
C  41.49300 -0.95200 47.48200
C  44.79800 -1.50200 47.16800
O  44.21500 -2.56700 47.06900
C  46.31500 -1.56000 46.98500
N  46.11300 3.96000 47.55100
C  46.69400 2.73000 47.67300
C  48.23300 2.89200 47.88000
C  48.47200 4.45300 47.70700
C  47.03700 4.98100 47.70200
C  48.85200 2.33200 49.16400
C  49.20600 4.77900 46.40000
C  50.64400 5.10600 46.49400
N  44.21200 6.13800 48.16700
C  45.37100 6.87800 47.92900
C  45.07100 8.33400 48.10900
C  43.62300 8.33800 48.21500
C  43.20600 7.00700 48.22100
C  45.99700 9.51400 47.96700
C  42.43300 9.14300 48.31100
O  42.31600 10.31600 48.42300
C  41.18200 8.18200 48.20200
C  40.44400 8.33600 49.43100
O  40.66900 7.71800 50.44800
O  39.24600 8.90600 49.14000
C  38.23200 8.73800 50.22800
H  40.30900 1.54300 48.01400
H  46.81400 0.78200 47.85300
H  47.50800 7.03300 47.68200
H  39.02800 6.01800 48.90500
H  38.84900 3.54400 47.51600
H  38.50200 4.42800 50.15100
H  39.49600 3.01500 50.38900
H  37.89400 2.92300 49.52400
H  38.59100 7.11200 46.85000
H  37.88000 5.48700 46.81600
H  39.26900 4.37300 45.50600
H  40.43200 5.75800 45.37700
H  40.69600 -0.47100 48.04900
H  41.71100 -1.95400 47.85300
H  41.23100 -1.06000 46.43000
H  46.81800 -1.65300 47.94800
H  46.64700 -0.68700 46.42400
H  46.68100 -2.40900 46.40700
H  48.63400 2.30900 47.05000
H  48.96900 4.98000 48.52200
H  47.97500 1.93300 49.67300
H  49.30900 3.11000 49.77600
H  49.61000 1.57200 48.97700
H  48.64100 5.60100 45.95900
H  49.03900 3.96600 45.69300
H  50.85900 5.99500 45.90100
H  51.36000 4.36000 46.15100
H  50.86200 5.20100 47.55800
H  46.36500 9.67400 48.98000
H  45.53000 10.48300 47.79400
H  46.77900 9.21000 47.27000
H  40.54800 8.30900 47.32400
H  37.30700 9.28300 50.03900
H  38.57200 9.20000 51.15500
H  38.00000 7.70200 50.47500
Mg 10.20300 47.11700 26.04400
C  8.09000 47.33700 28.65300
C  12.74400 48.59300 27.85300
C  12.34200 47.10900 23.23700
C  7.57400 46.72400 23.87800
N  10.42300 47.77600 28.04000
C  9.46800 47.67400 29.00000
C  10.00200 48.19600 30.36500
C  11.27900 48.97200 29.86600
C  11.51000 48.44000 28.49300
C  10.90700 50.47800 29.67000
C  10.25000 47.13400 31.44300
C  9.81800 47.35600 32.91100
H  9.76400 46.01100 33.64500
N  12.26800 47.59900 25.66100
C  13.13500 48.04200 26.61700
C  14.47600 48.09400 26.06400
C  14.42500 47.63700 24.71900
C  12.97400 47.40800 24.48500
C  15.69100 48.41900 26.80000
C  15.55700 47.39900 23.68400
O  15.33700 47.10900 22.50900
C  16.97900 47.68700 24.08200
N  10.00200 46.86000 23.90200
C  10.98700 46.80200 23.01500
C  10.48900 46.42700 21.64000
C  8.94900 46.33600 21.78800
C  8.83200 46.61800 23.28100
C  10.91600 47.24500 20.41200
C  8.29200 44.97800 21.23300
C  6.82000 45.07000 20.82100
N  8.14800 46.96300 26.21800
C  7.17700 46.77500 25.23000
C  5.87000 46.70000 25.90100
C  6.14200 46.97100 27.22200
C  7.54700 47.09200 27.37300
C  4.56600 46.32200 25.31700
C  5.61500 46.99800 28.56900
O  4.48900 46.84600 28.92900
C  6.80400 47.25300 29.54000
C  6.92300 46.03800 30.39700
O  7.44000 44.97700 30.05200
O  6.43000 46.32600 31.66700
C  6.54800 45.26600 32.68400
H  13.48600 49.15900 28.42000
H  12.83400 47.17100 22.26500
H  6.61700 46.68400 23.35400
H  9.27700 48.90800 30.75900
H  12.16300 48.71700 30.45100
H  11.32400 51.06200 30.49000
H  9.83400 50.66800 29.64400
H  11.28900 50.83100 28.71100
H  11.32100 46.99600 31.59000
H  9.86000 46.20500 31.02700
H  8.82500 47.80600 32.92600
H  10.55000 47.97500 33.43000
H  15.51100 48.39400 27.87400
H  16.21000 49.33600 26.52000
H  16.42600 47.61700 26.72200
H  17.16900 47.00300 24.91000
H  17.05300 48.70800 24.45600
H  17.59100 47.51300 23.19700
H  10.84100 45.45600 21.29200
H  8.47800 47.17000 21.26800
H  11.07800 48.20000 20.91100
H  10.07800 47.21600 19.71500
H  11.82200 46.95600 19.87800
H  8.42900 44.27500 22.05400
H  8.86200 44.66600 20.35800
H  6.34300 44.36100 21.49800
H  6.51300 44.67700 19.85200
H  6.36400 46.05400 20.93500
H  4.75600 46.06400 24.27500
H  3.94400 47.19300 25.52000
H  4.25700 45.40900 25.82700
H  6.60000 48.19000 30.05900
H  6.89200 45.93300 33.47500
H  7.23800 44.43900 32.51400
H  5.60700 44.77500 32.93200

