158

Mg 41.53000 40.70700 26.67800
C  40.99300 43.11100 29.29600
C  42.62600 38.63800 29.07000
C  42.28700 38.53600 24.10500
C  40.84900 43.11000 24.32600
N  41.81400 40.88200 28.89100
C  41.40600 41.89500 29.77500
C  41.52700 41.51400 31.19800
C  42.35500 40.19700 31.08200
C  42.17100 39.83100 29.62000
C  43.88600 40.29000 31.62300
C  40.20600 41.46900 32.04900
C  40.21700 42.28600 33.39100
H  39.54500 41.62800 34.56000
N  42.26900 38.85900 26.57100
C  42.61600 38.14200 27.68900
C  43.22900 36.86200 27.27000
C  43.12700 36.81900 25.83000
C  42.54200 38.09800 25.40400
C  43.82600 35.79100 28.20400
C  43.59100 35.71700 24.85100
O  43.55700 35.90200 23.61000
C  44.17500 34.36100 25.34900
N  41.51900 40.80200 24.48000
C  41.87700 39.80500 23.64800
C  41.70900 40.18200 22.14300
C  41.18200 41.63900 22.28500
C  41.18800 41.88700 23.79700
C  42.98400 39.99600 21.32200
C  39.74600 41.93700 21.62400
C  39.75800 43.03900 20.52600
N  40.98300 42.64500 26.68500
C  40.76900 43.54100 25.72200
C  40.42400 44.84200 26.23700
C  40.39500 44.71500 27.66400
C  40.83300 43.37300 27.90800
C  40.08900 46.06300 25.42800
C  40.05100 45.35100 28.94500
O  39.50100 46.41700 29.09600
C  40.50700 44.36200 30.06100
C  41.69000 45.13100 30.69300
O  42.77400 45.31000 30.10800
O  41.33000 45.46000 31.95100
C  42.45900 46.02500 32.81300
H  43.00800 37.92400 29.80300
H  42.51300 38.04500 23.15600
H  40.49500 43.91200 23.67500
H  42.13500 42.32000 31.61100
H  41.73600 39.56000 31.71400
H  44.09000 41.13300 32.28400
H  44.53400 40.22000 30.74900
H  44.04100 39.35700 32.16400
H  39.91100 40.44500 32.27400
H  39.38900 41.81000 31.41300
H  39.59100 43.11400 33.06100
H  41.18700 42.75300 33.56000
H  43.93200 36.13700 29.23200
H  44.87200 35.61900 27.94800
H  43.19000 34.90600 28.20900
H  44.52600 33.75000 24.51700
H  43.38100 33.90900 25.94500
H  45.07300 34.41500 25.96300
H  40.97900 39.46200 21.77500
H  41.96800 42.22400 21.80700
H  43.80400 39.77000 22.00300
H  43.26000 40.83500 20.68400
H  42.97500 39.21300 20.56300
H  38.99800 42.18000 22.37900
H  39.31600 41.06300 21.13400
H  39.76100 42.46300 19.60100
H  40.72500 43.53600 20.60900
H  38.94700 43.76600 20.56600
H  39.02300 46.28800 25.45100
H  40.36200 46.00200 24.37500
H  40.64900 46.86500 25.90900
H  39.69300 44.26000 30.77800
H  41.95800 46.89800 33.23200
H  43.35900 46.32200 32.27400
H  42.69100 45.24100 33.53400
Mg 16.55700 52.35000 26.53900
C  18.45700 50.93300 28.99200
C  14.18800 53.15900 28.80400
C  14.37500 53.30600 23.91600
C  18.71900 51.07700 24.19900
N  16.29400 51.89100 28.61700
C  17.23200 51.43600 29.46400
C  16.90600 51.76300 31.04000
C  15.34100 52.09200 30.88600
C  15.22600 52.40500 29.28500
C  14.38900 51.01300 31.46100
C  17.70700 52.97000 31.57800
C  17.89400 53.11700 33.14500
H  16.98500 52.18000 33.99100
N  14.70200 53.33400 26.40600
C  13.88900 53.58300 27.48400
C  12.82900 54.39300 27.03700
C  12.91000 54.59000 25.65100
C  14.04500 53.73000 25.21100
C  11.94200 54.99700 28.10200
C  12.07500 55.43000 24.68900
O  12.31200 55.49100 23.52400
C  11.03700 56.42500 25.21000
N  16.47200 51.87200 24.32400
C  15.51200 52.45700 23.51700
C  15.84600 52.25800 22.03800
C  17.29000 51.65800 22.13100
C  17.58000 51.60500 23.61900
C  14.80200 51.48700 21.36600
C  18.37900 52.43000 21.34000
C  19.44000 51.71700 20.59600
N  18.23900 51.16500 26.51800
C  19.03400 50.72800 25.49000
C  20.17800 49.91100 26.00800
C  19.94400 49.98400 27.42500
C  18.81600 50.79900 27.66000
C  21.27900 49.08100 25.35600
C  20.42700 49.56800 28.62000
O  21.35200 48.80100 28.89500
C  19.52900 50.29600 29.77100
C  19.03500 49.18400 30.64600
O  18.57500 48.11900 30.16300
O  19.23200 49.44600 31.92300
C  19.07000 48.41300 32.91700
H  13.51500 53.40800 29.62700
H  13.93300 53.70100 23.00000
H  19.53000 50.80300 23.52100
H  17.05500 50.85100 31.61800
H  15.07800 52.93800 31.52100
H  13.71800 51.54100 32.13900
H  14.98400 50.19100 31.85900
H  13.81800 50.51300 30.67900
H  17.27800 53.90300 31.21300
H  18.72500 52.90200 31.19500
H  17.66700 54.12100 33.50200
H  18.94000 53.01100 33.43300
H  11.23600 55.72000 27.69400
H  12.45200 55.54100 28.89700
H  11.45000 54.16500 28.60700
H  11.56600 57.07900 25.90300
H  10.34000 55.89500 25.85900
H  10.55500 57.00100 24.41900
H  15.84800 53.16200 21.42900
H  17.31700 50.64200 21.73700
H  15.23000 50.62700 20.85100
H  14.28000 52.08600 20.61900
H  14.02100 51.17300 22.05900
H  18.94200 53.09400 21.99700
H  17.94900 53.16600 20.66100
H  20.45600 51.86000 20.96500
H  19.33900 51.94800 19.53600
H  19.36800 50.63900 20.74300
H  21.44100 49.43600 24.33800
H  21.16900 47.99700 25.36300
H  22.23700 49.23000 25.85400
H  20.13700 50.97000 30.37300
H  17.99400 48.46300 33.08500
H  19.59800 48.67600 33.83400
H  19.17500 47.37600 32.59800

