158

Mg 3.67700 0.40500 44.14900
C  6.33500 2.54100 44.10300
C  1.75300 2.89800 42.48800
C  1.32900 -2.03300 43.31200
C  5.55100 -1.95900 45.66200
N  4.01600 2.43600 43.36600
C  5.20700 3.12200 43.41100
C  5.13600 4.55600 42.75200
C  3.61800 4.61200 42.43600
C  3.06200 3.21900 42.75900
C  2.88800 5.69200 43.22900
C  6.11800 4.77900 41.61200
C  6.52800 3.63600 40.67700
H  7.35800 3.92200 39.44600
N  1.73200 0.41300 43.06400
C  1.09700 1.60200 42.63100
C  -0.23100 1.24400 42.24600
C  -0.40800 -0.20500 42.52300
C  0.95200 -0.70400 42.97300
C  -1.21200 2.23300 41.70300
C  -1.69500 -0.91600 42.14700
O  -2.66000 -0.25400 41.75800
C  -1.94000 -2.40400 42.16000
N  3.57400 -1.75600 44.15900
C  2.50400 -2.49900 43.94600
C  2.74200 -3.99500 44.16400
C  4.09000 -3.91700 44.97100
C  4.41400 -2.42500 44.95500
C  1.65300 -4.70000 44.94600
C  5.18700 -4.82400 44.31900
C  5.94500 -5.61000 45.39700
N  5.55900 0.29900 44.76000
C  6.19200 -0.75200 45.40200
C  7.44600 -0.27000 45.83100
C  7.61200 1.01700 45.29800
C  6.38700 1.29100 44.67600
C  8.40000 -0.98900 46.73900
C  8.51900 2.18800 45.12700
O  9.69800 2.29000 45.45700
C  7.70800 3.26300 44.40700
C  7.46400 4.39300 45.44700
O  8.36000 5.03900 45.97200
O  6.15500 4.54500 45.77800
C  5.76500 5.70900 46.59600
H  1.18400 3.65000 41.93800
H  0.50100 -2.73400 43.18800
H  6.10600 -2.66700 46.28000
H  5.56900 5.23400 43.48800
H  3.42800 4.63800 41.36300
H  3.54800 6.52100 43.48200
H  2.29100 5.28900 44.04600
H  2.20800 6.07300 42.46700
H  6.96900 5.16400 42.17400
H  5.75100 5.59700 40.99300
H  5.63700 3.13500 40.29900
H  7.06100 2.97400 41.35900
H  -1.20100 2.02400 40.63400
H  -0.93100 3.27200 41.87600
H  -2.22300 2.13200 42.09900
H  -2.10500 -2.88200 43.12600
H  -1.07400 -2.92600 41.75200
H  -2.77000 -2.51900 41.46200
H  2.85100 -4.52700 43.21900
H  3.83600 -4.26600 45.97200
H  1.16600 -3.87200 45.46100
H  1.92800 -5.45300 45.68500
H  0.94400 -5.19300 44.28100
H  5.94100 -4.14300 43.92400
H  4.78600 -5.39300 43.48000
H  7.01600 -5.59100 45.19700
H  5.71000 -6.67000 45.30600
H  5.78200 -5.13700 46.36600
H  9.16400 -0.32500 47.14400
H  9.07000 -1.72400 46.29200
H  7.87900 -1.57000 47.50000
H  8.27900 3.53400 43.51900
H  4.70000 5.93800 46.55900
H  6.24200 6.66200 46.36800
H  5.94000 5.50400 47.65200
Mg 7.96100 49.10200 24.95100
C  6.04600 48.90800 28.07800
C  10.62800 50.30500 26.76900
C  9.70700 48.84800 22.25300
C  4.98800 48.32400 23.16900
N  8.24800 49.48500 27.15500
C  7.42000 49.31300 28.24600
C  8.15000 49.78600 29.53100
C  9.50300 50.42400 28.98700
C  9.47200 50.02600 27.51700
C  9.39700 51.98200 29.13600
C  8.38500 48.64500 30.61700
C  8.03800 49.11500 32.10500
H  8.37200 48.23600 33.24900
N  9.92400 49.59500 24.51600
C  10.88200 50.01100 25.40300
C  12.13300 50.18800 24.72000
C  11.95300 49.60300 23.38800
C  10.49200 49.33800 23.32100
C  13.44900 50.59500 25.46300
C  12.94100 49.28100 22.31200
O  12.70800 48.75900 21.24300
C  14.44500 49.59400 22.55300
N  7.49200 48.42400 23.03500
C  8.36600 48.56100 22.05600
C  7.78900 48.04000 20.69000
C  6.22900 48.16600 20.99400
C  6.19200 48.37900 22.49600
C  8.21300 48.73400 19.39800
C  5.50300 46.85800 20.55500
C  4.48800 47.09700 19.52600
N  5.98500 48.64400 25.45300
C  4.90900 48.32800 24.60100
C  3.67800 48.08900 25.45000
C  4.16400 48.27300 26.82300
C  5.49200 48.66800 26.78700
C  2.35200 47.86000 25.05600
C  3.70300 48.15200 28.16600
O  2.58800 47.84400 28.60200
C  4.93900 48.66700 29.07800
C  5.18700 47.50000 30.04200
O  5.59100 46.39300 29.73900
O  4.73900 47.80400 31.26300
C  4.82000 46.79700 32.36200
H  11.42000 50.64600 27.44000
H  10.25500 48.57800 21.34700
H  4.11900 48.13900 22.53500
H  7.57600 50.57600 30.01600
H  10.35900 49.96700 29.48200
H  9.60900 52.43400 28.16700
H  10.19700 52.23100 29.83300
H  8.46300 52.37400 29.53900
H  9.40900 48.27400 30.57900
H  7.73600 47.79100 30.42800
H  6.95100 49.04200 32.09700
H  8.31500 50.15900 32.24900
H  13.94600 49.63200 25.35100
H  13.25700 50.70600 26.53000
H  14.09700 51.38500 25.08400
H  14.66800 50.64500 22.73800
H  14.98600 49.38900 21.63000
H  14.72400 48.92900 23.37000
H  8.10200 46.99800 20.75800
H  5.80100 49.02500 20.47600
H  8.97300 49.50600 19.51700
H  7.33200 49.22100 18.97800
H  8.50000 47.90100 18.75600
H  5.02800 46.31900 21.37500
H  6.17400 46.15500 20.06200
H  3.52700 47.44500 19.90400
H  4.33300 46.14000 19.02800
H  4.72500 47.90600 18.83500
H  2.48700 47.49700 24.03700
H  1.83700 48.82000 25.08200
H  1.91200 47.13700 25.74400
H  4.72300 49.59400 29.60900
H  5.01000 47.37400 33.26700
H  5.71200 46.17400 32.30500
H  3.86600 46.29800 32.53200

