158

Mg 53.51400 23.76700 43.51500
C  51.02500 26.12900 42.83300
C  51.65200 21.32300 41.79500
C  56.22600 21.69400 43.60000
C  55.42300 26.34600 44.81300
N  51.63500 23.76800 42.40000
C  50.74000 24.82400 42.25400
C  49.52500 24.33000 41.43700
C  49.58600 22.75900 41.56200
C  51.10100 22.56800 41.90100
C  48.59100 22.24600 42.61100
C  49.49400 25.05700 40.08500
C  49.83800 24.25600 38.89900
H  50.03500 24.95700 37.49400
N  53.90800 21.78800 42.79600
C  52.97100 20.95700 42.21000
C  53.52800 19.68900 42.12700
C  54.87300 19.65000 42.64700
C  55.11800 21.13000 43.04500
C  52.76400 18.46700 41.54800
C  55.83300 18.47900 42.74400
O  55.56000 17.34400 42.32800
C  57.24700 18.57500 43.29200
N  55.56200 24.02000 43.93800
C  56.46400 23.01000 43.97900
C  57.90200 23.49900 44.42900
C  57.69300 25.08100 44.49400
C  56.14500 25.16500 44.44400
C  58.37000 22.94100 45.77300
C  58.34400 25.78200 43.26100
C  57.89800 27.19500 42.95400
N  53.26700 25.86000 43.82700
C  54.07500 26.72600 44.46800
C  53.35200 27.98900 44.72100
C  52.12600 27.80700 44.11200
C  52.14800 26.47100 43.60400
C  53.71000 29.14000 45.54900
C  50.84100 28.36900 43.80300
O  50.30700 29.40600 44.16900
C  50.01800 27.28300 42.99600
C  49.62100 27.87700 41.66400
O  50.40400 28.31300 40.85700
O  48.23200 27.91700 41.55300
C  47.73600 28.54400 40.35600
H  51.05900 20.51600 41.36000
H  57.07200 21.00600 43.65100
H  55.97100 27.21600 45.18100
H  48.66400 24.75000 41.95600
H  49.35700 22.25900 40.62100
H  48.14500 23.05500 43.19000
H  48.96100 21.47800 43.29000
H  47.79900 21.78700 42.02000
H  50.15300 25.92400 40.03600
H  48.49600 25.49500 40.07800
H  49.09000 23.49000 38.69300
H  50.72900 23.65100 39.06800
H  53.37600 17.72000 41.04100
H  52.07700 18.76900 40.75800
H  52.12400 18.01400 42.30500
H  57.25700 18.92400 44.32500
H  57.74900 19.22300 42.57300
H  57.81700 17.66600 43.09800
H  58.66000 23.24900 43.68700
H  58.06600 25.52800 45.41600
H  59.39900 22.70500 45.50000
H  57.86300 22.10100 46.24900
H  58.37500 23.74200 46.51200
H  57.94800 25.24800 42.39700
H  59.42800 25.85600 43.34200
H  57.01600 27.18900 42.31400
H  58.65400 27.77000 42.41900
H  57.65400 27.76900 43.84800
H  52.81000 29.38500 46.11300
H  53.91100 30.03800 44.96500
H  54.52200 28.90500 46.23700
H  49.09600 26.90100 43.43400
H  48.33100 28.43300 39.44900
H  47.51200 29.60100 40.49800
H  46.77400 28.09600 40.10900
Mg 47.09000 15.82500 28.70700
C  44.57700 15.75900 31.33100
C  49.30000 16.95400 30.96700
C  48.88100 16.93200 26.12400
C  44.59300 14.79900 26.53700
N  46.85700 16.47400 30.89900
C  45.87600 16.23700 31.82900
C  46.42600 16.31600 33.32600
C  47.75700 17.00000 33.05600
C  48.00400 16.78300 31.53300
C  47.88900 18.45300 33.42400
C  46.40200 14.98400 34.23100
C  45.92400 15.09600 35.74100
H  45.64000 16.44800 36.38100
N  48.92800 16.64000 28.54000
C  49.71400 16.99900 29.62900
C  50.95700 17.33400 29.16100
C  50.93900 17.33500 27.74500
C  49.54700 17.00900 27.36200
C  52.10700 17.73000 30.11500
C  52.02300 17.60500 26.82700
O  51.89000 17.60500 25.60600
C  53.42400 17.85400 27.33000
N  46.71800 15.92600 26.69300
C  47.65400 16.34600 25.76700
C  47.34900 15.92700 24.35900
C  46.16500 15.00400 24.53000
C  45.77800 15.21800 26.00600
C  47.23600 17.05500 23.25900
C  46.26500 13.48300 24.15800
C  45.40600 12.85100 23.05900
N  44.97500 15.28700 28.87700
C  44.13600 14.93400 27.92700
C  42.89200 14.60200 28.41800
C  43.04100 14.90400 29.76900
C  44.29700 15.34500 30.00800
C  41.78500 14.02100 27.69900
C  42.29300 14.87400 30.97800
O  41.15300 14.49900 31.20400
C  43.36000 15.38600 32.05900
C  42.71800 16.55700 32.75700
O  42.36900 17.62300 32.22900
O  42.55600 16.34300 34.06700
C  41.84800 17.39800 34.81100
H  50.02900 17.14000 31.75900
H  49.56000 17.28400 25.34400
H  43.81800 14.39400 25.88300
H  45.81300 16.95000 33.96700
H  48.46400 16.32600 33.54100
H  47.30200 18.87200 34.24100
H  47.66400 19.04200 32.53600
H  48.94200 18.64100 33.63300
H  47.32500 14.41700 34.11200
H  45.63800 14.46600 33.65100
H  46.62700 14.46800 36.28700
H  45.01600 14.49400 35.77200
H  52.90200 16.98500 30.08300
H  51.75100 17.70400 31.14500
H  52.39000 18.77100 29.96100
H  53.34100 18.68600 28.02900
H  53.99700 18.11100 26.43900
H  53.79500 16.97800 27.86400
H  48.17000 15.23800 24.16100
H  45.29400 15.29300 23.94100
H  46.44100 16.79300 22.56200
H  48.24500 17.19200 22.87000
H  46.84300 17.97200 23.70000
H  46.17000 12.78700 24.99000
H  47.29000 13.37800 23.80200
H  45.00300 11.87400 23.32500
H  45.92500 12.71700 22.11000
H  44.56300 13.52100 22.89000
H  41.92600 13.09000 27.15100
H  41.24100 14.69400 27.03700
H  41.09000 13.67500 28.46400
H  43.44900 14.55900 32.76300
H  41.35400 18.08600 34.12600
H  42.49200 17.95600 35.49100
H  41.09900 16.93500 35.45400

