158

Mg 36.27700 1.98600 30.72100
C  33.91700 2.83300 33.20100
C  38.73900 2.17300 33.11000
C  38.60200 1.44200 28.32000
C  33.92600 2.37200 28.28500
N  36.26800 2.46400 32.95400
C  35.14400 2.66600 33.75200
C  35.56400 2.78500 35.22400
C  37.14200 2.67400 35.12100
C  37.42400 2.41200 33.66500
C  37.94200 3.89000 35.73300
C  34.98200 1.60500 36.08700
C  34.41400 2.13500 37.44200
H  35.30600 3.17800 38.17300
N  38.40200 1.86000 30.69900
C  39.22700 1.95400 31.76000
C  40.58300 1.74300 31.33600
C  40.62000 1.45700 29.95100
C  39.18200 1.51900 29.64300
C  41.71100 1.90700 32.36100
C  41.74700 1.08900 28.94200
O  41.63300 0.87600 27.74800
C  43.21900 0.93500 29.44100
N  36.30800 1.94600 28.54200
C  37.36800 1.68300 27.81200
C  37.05700 1.78000 26.32300
C  35.47500 1.92000 26.31800
C  35.18900 2.02400 27.81300
C  37.87600 2.87300 25.66100
C  34.66200 0.78000 25.54100
C  33.35300 1.11600 24.85200
N  34.27600 2.50700 30.63500
C  33.44600 2.66900 29.58200
C  32.10200 3.04100 30.07300
C  32.21300 3.17700 31.48900
C  33.59000 2.82000 31.80000
C  30.85500 3.18300 29.24200
C  31.54600 3.35800 32.69400
O  30.37700 3.64200 32.93600
C  32.60900 3.15300 33.82400
C  32.62100 4.41900 34.65600
O  33.03200 5.49800 34.28300
O  32.03600 4.25200 35.90000
C  31.97700 5.43100 36.82300
H  39.51900 2.13600 33.87200
H  39.34800 1.30900 27.53400
H  33.13800 2.31800 27.53100
H  35.26200 3.78000 35.54900
H  37.46500 1.79300 35.67500
H  37.32000 4.45000 36.43100
H  38.33200 4.49400 34.91400
H  38.84200 3.59600 36.27400
H  35.71100 0.81400 36.26300
H  34.06300 1.20700 35.65600
H  34.30300 1.32400 38.16200
H  33.36700 2.41700 37.32800
H  41.30600 2.71100 32.97500
H  42.57600 2.22000 31.77700
H  42.03500 1.00700 32.88400
H  43.14000 0.29700 30.32100
H  43.56600 1.95800 29.58200
H  43.98800 0.63100 28.73100
H  37.34400 0.78000 25.99700
H  35.13700 2.82300 25.80900
H  37.32300 3.62400 25.09700
H  38.64100 2.42000 25.03100
H  38.39200 3.52300 26.36800
H  34.39900 0.14200 26.38500
H  35.42800 0.31000 24.92400
H  32.81800 0.18500 24.66100
H  33.49800 1.58800 23.88100
H  32.66600 1.75800 25.40400
H  30.34600 2.22700 29.37000
H  31.10700 3.57800 28.25800
H  30.16700 3.90300 29.68600
H  32.23700 2.38400 34.50100
H  30.92800 5.72600 36.84900
H  32.65500 6.25700 36.60700
H  32.26900 5.12800 37.82800
Mg 48.65400 45.15800 43.70100
C  45.60700 46.18500 42.19300
C  48.54600 42.26500 41.96500
C  51.83300 44.95900 44.33300
C  48.80900 48.60200 44.86000
N  47.13800 44.37500 42.37000
C  46.04100 44.91700 41.85800
C  45.40600 44.00000 40.90000
C  46.27000 42.69800 41.00800
C  47.44200 43.11900 41.87000
C  45.51100 41.41500 41.59100
C  45.35100 44.46600 39.39600
C  44.00200 44.19600 38.65600
H  44.07600 43.06700 37.60200
N  49.93200 43.71900 43.30300
C  49.70300 42.55200 42.59900
C  50.91600 41.82200 42.48600
C  51.93000 42.55100 43.20800
C  51.25300 43.87200 43.62100
C  51.03800 40.64100 41.61500
C  53.33300 42.03700 43.49400
O  53.72300 40.95800 43.06300
C  54.42200 42.77500 44.14100
N  50.17300 46.60800 44.53400
C  51.44800 46.23200 44.65900
C  52.38600 47.39300 45.03300
C  51.39400 48.59100 45.36200
C  50.02600 47.92400 44.83400
C  53.47600 47.11300 46.19200
C  51.67200 49.99800 44.68200
C  51.41400 51.17500 45.68700
N  47.44300 46.93300 43.75800
C  47.65600 48.19100 44.26600
C  46.51700 49.04700 44.03200
C  45.68900 48.25100 43.25400
C  46.25400 46.99400 43.11600
C  46.27300 50.45400 44.48000
C  44.41300 48.24200 42.54800
O  43.60600 49.20000 42.51600
C  44.36400 46.95500 41.73100
C  43.01900 46.31200 42.04900
O  42.79700 45.53200 42.91800
O  42.12900 46.59800 41.02800
C  40.92300 45.75800 41.06500
H  48.51800 41.31000 41.43600
H  52.91700 44.90800 44.45400
H  48.76800 49.62500 45.23900
H  44.38000 43.90800 41.25600
H  46.62600 42.48400 40.00100
H  44.43200 41.41100 41.43400
H  45.72600 41.36200 42.65800
H  45.71300 40.47300 41.08200
H  46.16600 44.07100 38.78900
H  45.44500 45.55200 39.37900
H  43.69600 45.14500 38.21500
H  43.10700 43.92200 39.21500
H  51.11100 40.93900 40.56900
H  50.13500 40.03900 41.70500
H  51.77600 39.85200 41.76100
H  54.14400 43.08500 45.14800
H  54.49300 43.68600 43.54700
H  55.38200 42.26100 44.09600
H  52.96500 47.67900 44.15500
H  51.28200 48.62900 46.44600
H  54.52000 47.16600 45.88000
H  53.20000 46.12500 46.56100
H  53.37200 47.80800 47.02500
H  51.02000 50.27300 43.85300
H  52.69100 49.99400 44.29400
H  52.34100 51.74000 45.78500
H  51.25700 50.73600 46.67200
H  50.61900 51.83000 45.33100
H  46.47400 51.18600 43.69800
H  46.90900 50.60300 45.35400
H  45.21800 50.55200 44.73600
H  44.40300 47.31100 40.70200
H  40.38900 45.70200 42.01400
H  41.14600 44.70000 40.93000
H  40.20700 45.89800 40.25600

