158

Mg 17.42300 -1.38600 27.93500
C  16.44700 0.48300 30.70700
C  19.57400 -3.23900 29.92300
C  18.60000 -2.72500 25.08600
C  15.40100 0.68600 25.94400
N  18.10600 -1.23400 30.02600
C  17.47000 -0.43800 30.98600
C  17.97700 -0.83500 32.36400
C  19.21500 -1.79900 32.10400
C  19.00000 -2.07800 30.55900
C  20.66300 -1.26500 32.34500
C  16.80300 -1.57600 33.08000
C  16.38800 -1.25300 34.51600
H  17.31100 -0.46700 35.38200
N  18.79400 -2.84500 27.61200
C  19.61200 -3.49700 28.51500
C  20.48000 -4.37700 27.83400
C  20.18400 -4.27200 26.37800
C  19.16200 -3.22800 26.29300
C  21.43200 -5.37300 28.51700
C  20.68500 -5.15900 25.28300
O  20.21500 -5.08300 24.18700
C  21.80100 -6.14400 25.48000
N  17.01900 -1.03000 25.85000
C  17.70400 -1.69000 24.89700
C  17.33900 -1.15700 23.50500
C  16.14500 -0.26100 23.79800
C  16.17600 -0.22000 25.29000
C  18.57500 -0.47100 22.76600
C  14.76700 -0.87500 23.20900
C  14.10700 -0.10100 22.04700
N  16.21400 0.21900 28.17200
C  15.40500 0.87300 27.32700
C  14.60000 1.84000 28.07100
C  14.92800 1.71400 29.40200
C  15.92700 0.74600 29.38800
C  13.58400 2.81700 27.52800
C  14.70900 2.23700 30.72100
O  13.97800 3.15600 31.05400
C  15.62000 1.37700 31.60500
C  16.56300 2.20500 32.27300
O  17.68700 2.48800 31.87900
O  15.92500 2.71100 33.35200
C  16.70100 3.65800 34.23500
H  20.32500 -3.75400 30.52700
H  19.07800 -3.08000 24.17100
H  14.76500 1.38200 25.39300
H  18.45900 -0.03100 32.92000
H  19.09700 -2.74900 32.62400
H  20.47600 -0.54300 33.14000
H  21.09200 -0.80400 31.45600
H  21.39600 -1.97600 32.72600
H  17.11400 -2.61400 33.19700
H  15.90700 -1.57000 32.45900
H  16.13600 -2.10600 35.14600
H  15.46800 -0.67100 34.47700
H  21.02700 -6.38200 28.43500
H  21.47200 -5.17600 29.58900
H  22.38200 -5.26500 27.99400
H  21.32200 -6.91000 26.09000
H  22.60400 -5.63500 26.01400
H  22.05300 -6.62900 24.53800
H  16.99600 -2.05800 22.99500
H  16.11500 0.78800 23.50000
H  18.25700 0.55200 22.56200
H  18.84500 -0.93500 21.81800
H  19.42900 -0.37800 23.43600
H  14.05800 -0.93900 24.03400
H  14.93200 -1.88300 22.82900
H  13.19700 -0.63100 21.76900
H  14.72400 -0.19900 21.15300
H  13.80800 0.92600 22.25800
H  13.09400 2.28800 26.71000
H  14.16200 3.64800 27.12400
H  13.01300 3.24400 28.35200
H  14.96600 0.77300 32.23400
H  16.49500 4.70000 33.99000
H  17.76300 3.47100 34.08000
H  16.44700 3.42500 35.26900
Mg 45.03800 5.38300 47.89400
C  43.17600 8.32700 47.28900
C  42.23500 3.58800 46.72700
C  46.93800 2.61700 47.64100
C  47.84700 7.40700 48.28400
N  42.94700 5.92300 47.22300
C  42.48300 7.17100 46.98600
C  41.03200 7.09000 46.42300
C  40.63400 5.57200 46.50600
C  42.04000 4.98900 46.84200
C  39.55700 5.25000 47.58800
C  41.04400 7.50900 44.94700
C  40.12200 8.66900 44.61000
H  39.20700 8.37600 43.37300
N  44.64300 3.31000 47.39200
C  43.39300 2.81500 46.95500
C  43.53900 1.42700 46.82900
C  44.92200 1.05300 47.00500
C  45.59300 2.31100 47.34300
C  42.40400 0.44400 46.43800
C  45.48600 -0.31100 46.65400
O  44.69900 -1.22500 46.30700
C  46.96500 -0.67300 46.67700
N  47.09100 5.06600 48.08700
C  47.62100 3.76100 48.00600
C  49.13500 3.79500 48.23900
C  49.48700 5.33800 48.11800
C  48.11900 6.00000 48.23800
C  49.55000 3.13400 49.59400
C  50.18800 5.75300 46.78100
C  51.59400 6.27500 46.86300
N  45.32700 7.48000 48.16400
C  46.61100 8.09800 48.18200
C  46.37700 9.48900 48.06900
C  45.06100 9.64200 47.65500
C  44.54100 8.35100 47.69400
C  47.38200 10.57900 48.19000
C  44.04000 10.68000 47.23100
O  44.16100 11.89900 47.01500
C  42.68000 9.73300 47.17900
C  41.63700 10.06800 48.16900
O  41.41000 9.44200 49.18300
O  40.79800 10.99900 47.69400
C  39.59100 11.27400 48.54000
H  41.36600 3.11500 46.26500
H  47.48100 1.67400 47.73300
H  48.68200 8.11000 48.27500
H  40.35200 7.65800 47.05600
H  40.20900 5.28500 45.54400
H  39.12800 6.13400 48.06100
H  39.93600 4.89800 48.54700
H  38.66200 4.78700 47.17200
H  40.70400 6.75800 44.23300
H  42.08100 7.75000 44.71200
H  40.75800 9.53700 44.43600
H  39.54500 9.00800 45.47000
H  42.29600 -0.32700 47.20100
H  42.57300 0.02000 45.44900
H  41.48300 1.02600 46.39600
H  47.53000 -0.04600 45.98600
H  47.10100 -1.73100 46.45500
H  47.41900 -0.43400 47.63800
H  49.67900 3.23300 47.48000
H  50.11100 5.64800 48.95600
H  48.61700 3.04700 50.15000
H  50.33600 3.69600 50.09800
H  49.88800 2.11200 49.42400
H  49.52100 6.44200 46.26200
H  50.27100 4.83200 46.20500
H  51.52300 7.36000 46.78200
H  52.26100 5.87300 46.10100
H  52.02900 6.08000 47.84300
H  48.10100 10.58300 47.37100
H  48.00600 10.51300 49.08200
H  46.75100 11.45900 48.06500
H  42.25400 9.75200 46.17600
H  39.20200 12.27200 48.33800
H  39.67100 11.01600 49.59600
H  38.77000 10.62700 48.23100

