158

Mg 26.28600 -0.49800 30.26000
C  28.32600 -0.51100 32.95700
C  23.53400 0.00000 32.34500
C  24.36200 0.01100 27.53300
C  28.96600 -1.27700 28.11700
N  25.97000 -0.48700 32.46300
C  27.00100 -0.25300 33.30700
C  26.39800 0.04800 34.76600
C  24.85200 0.06300 34.52500
C  24.74700 -0.21600 33.03000
C  23.96600 -0.86800 35.41200
C  27.07500 1.31000 35.38000
C  27.68300 1.23000 36.75600
H  27.24300 2.18700 37.86600
N  24.27500 -0.05900 30.03900
C  23.29600 0.02700 30.94800
C  22.10200 0.37300 30.40200
C  22.22600 0.36500 28.98400
C  23.66900 0.06100 28.78000
C  20.76200 0.42300 31.19400
C  21.23900 0.65600 27.87200
O  21.47300 0.66000 26.66000
C  19.75500 0.92500 28.18100
N  26.63500 -0.67200 28.14500
C  25.63100 -0.34900 27.25300
C  26.16200 -0.28700 25.83300
C  27.61400 -0.86000 26.02100
C  27.80600 -0.83200 27.52700
C  25.33500 -1.01300 24.75900
C  28.69000 0.00900 25.24800
C  29.69000 -0.77100 24.32900
N  28.19200 -0.96900 30.41400
C  29.22100 -1.20300 29.46200
C  30.44300 -1.39600 30.16100
C  30.15900 -1.20100 31.47600
C  28.75500 -0.88600 31.59300
C  31.75600 -1.58300 29.42200
C  30.71900 -1.21100 32.80200
O  31.87600 -1.31900 33.16800
C  29.53500 -0.71600 33.84500
C  29.35400 -1.73900 34.88300
O  28.77800 -2.82700 34.73400
O  29.97500 -1.34200 35.96700
C  29.83300 -2.21900 37.12400
H  22.73900 0.14900 33.07900
H  23.70400 0.27000 26.70100
H  29.81400 -1.50400 27.46700
H  26.73700 -0.79000 35.37600
H  24.47100 1.08300 34.56600
H  22.89800 -0.69200 35.27800
H  24.27500 -0.64500 36.43300
H  24.20700 -1.89200 35.12600
H  26.41300 2.15500 35.19200
H  27.94300 1.43900 34.73300
H  28.73400 1.50100 36.65100
H  27.82700 0.21500 37.12700
H  20.11400 -0.37900 30.84100
H  20.34500 1.41700 31.02800
H  20.88500 0.24100 32.26200
H  19.69600 1.80800 28.81700
H  19.50800 0.07300 28.81500
H  19.23300 1.04700 27.23200
H  26.21900 0.75000 25.50000
H  27.67000 -1.93600 25.85300
H  24.34500 -1.22000 25.16500
H  25.71700 -2.02500 24.62600
H  25.31900 -0.45700 23.82200
H  29.32500 0.44900 26.01700
H  28.38300 0.81400 24.58000
H  30.51400 -1.02300 24.99700
H  30.12700 -0.17400 23.53000
H  29.30600 -1.70500 23.91800
H  32.43800 -1.30900 30.22600
H  31.83900 -0.99300 28.50900
H  31.85200 -2.64700 29.20700
H  29.85300 0.25300 34.23200
H  28.96800 -1.81300 37.64800
H  30.72600 -2.12100 37.74100
H  29.79900 -3.28400 36.89300
Mg 46.42600 34.34700 28.18000
C  44.87000 32.30100 30.45500
C  46.42900 36.93100 30.30300
C  47.35300 36.52500 25.58800
C  46.08200 31.91300 25.71800
N  45.79900 34.49200 30.14300
C  45.33100 33.53800 30.98000
C  45.25600 33.95800 32.44000
C  45.60400 35.53600 32.33800
C  45.89200 35.70000 30.82100
C  44.66500 36.55600 32.90800
C  46.39100 33.25300 33.34200
C  46.21800 33.35000 34.86000
H  45.23800 34.27500 35.56600
N  47.06200 36.38700 28.09400
C  46.94500 37.27800 29.09400
C  47.37800 38.59000 28.69100
C  47.75200 38.54200 27.30400
C  47.39400 37.08600 26.93100
C  47.38400 39.88000 29.56100
C  48.39100 39.59900 26.33500
O  48.83100 39.30400 25.23300
C  48.71100 41.01200 26.76000
N  46.83300 34.16100 26.04500
C  47.02000 35.24900 25.18100
C  47.10000 34.90900 23.74200
C  46.84600 33.35500 23.80600
C  46.52900 33.10300 25.34200
C  46.24600 35.72200 22.78200
C  47.98000 32.47500 23.24900
C  49.24100 32.38100 24.17500
N  45.68000 32.46000 28.06000
C  45.56700 31.58800 26.95000
C  44.89800 30.34700 27.40300
C  44.49200 30.63000 28.73600
C  45.08600 31.88600 29.11100
C  44.62900 29.07800 26.51900
C  43.84200 30.09400 29.83600
O  43.26800 29.07200 30.02900
C  43.87600 31.28600 30.94700
C  44.09600 30.91300 32.42900
O  45.00800 30.27500 32.87000
O  42.96200 31.34700 33.12800
C  43.03900 31.08300 34.57900
H  46.53200 37.71500 31.05700
H  47.46200 37.32300 24.85100
H  45.88800 31.18600 24.92700
H  44.28200 33.74300 32.87900
H  46.53500 35.70300 32.87900
H  44.40800 37.36200 32.21900
H  45.00400 36.91700 33.87900
H  43.77900 35.94400 33.07500
H  47.32700 33.77900 33.15600
H  46.48900 32.20600 33.05700
H  47.23400 33.63900 35.13100
H  45.85800 32.35200 35.11000
H  48.37100 40.32300 29.42500
H  47.18800 39.65400 30.60900
H  46.69000 40.64700 29.21800
H  47.81100 41.31800 27.29400
H  48.83800 41.67100 25.90200
H  49.67300 41.00100 27.27300
H  48.07700 34.94100 23.26000
H  45.90800 33.06600 23.33200
H  46.81400 36.54100 22.34000
H  45.29100 36.02600 23.21100
H  46.09200 35.00200 21.97900
H  48.25300 32.90600 22.28500
H  47.60900 31.46200 23.09700
H  50.15400 32.79200 23.74400
H  49.55600 31.38700 24.49300
H  49.05600 32.92500 25.10100
H  45.60400 28.82000 26.10400
H  44.01400 29.45200 25.70000
H  44.31900 28.23400 27.13500
H  42.96200 31.86000 30.79300
H  42.37400 31.82400 35.02400
H  44.03000 31.25800 34.99700
H  42.78200 30.09400 34.95900

