158

Mg 48.39200 25.59500 27.62200
C  49.15200 27.71400 30.26200
C  47.32600 23.39500 29.96300
C  48.08200 23.46300 25.09300
C  50.50700 27.73600 25.52100
N  48.32200 25.53000 29.83800
C  48.54300 26.55700 30.73900
C  48.25100 26.22800 32.21500
C  47.59500 24.82900 32.05900
C  47.82100 24.51900 30.51600
C  48.14600 23.67600 32.91100
C  47.21100 27.16800 32.93300
C  46.48400 26.76700 34.19100
H  46.50100 27.75800 35.30900
N  47.66500 23.75300 27.52600
C  47.29100 23.00900 28.57700
C  46.61400 21.81300 28.03400
C  47.01500 21.75800 26.68000
C  47.58800 23.03400 26.36800
C  45.83500 20.88100 28.90500
C  46.85400 20.58200 25.77000
O  47.41600 20.54100 24.69300
C  45.95700 19.47700 26.12100
N  49.26000 25.60600 25.51400
C  48.94300 24.54300 24.69300
C  49.31100 24.89600 23.22800
C  50.14900 26.22300 23.38200
C  49.94800 26.58900 24.85300
C  50.09000 23.73300 22.63000
C  49.65500 27.38600 22.38900
C  50.75300 27.96800 21.43100
N  49.49900 27.34900 27.75000
C  50.33800 28.05700 26.90200
C  50.77700 29.33100 27.51000
C  50.25800 29.26700 28.84900
C  49.60200 27.97700 28.97100
C  51.45700 30.43900 26.94400
C  50.26800 29.91900 30.13700
O  50.62100 30.96900 30.57000
C  49.46700 28.97600 31.08400
C  50.41500 28.66300 32.16700
O  51.47300 28.03100 32.07300
O  49.88500 29.05800 33.43100
C  50.80100 28.65000 34.51000
H  46.99600 22.73600 30.76900
H  47.96300 22.76700 24.26000
H  51.04200 28.41800 24.85600
H  49.24100 26.17900 32.66800
H  46.52200 24.88300 32.24000
H  47.33500 23.15900 33.42400
H  48.91300 23.99300 33.61800
H  48.77700 22.91600 32.45000
H  46.39300 27.37200 32.24200
H  47.69800 28.10900 33.19200
H  46.81800 25.82100 34.61700
H  45.44200 26.61200 33.90900
H  46.38100 19.94000 28.96300
H  44.94500 20.48600 28.41500
H  45.56500 21.16200 29.92400
H  46.42000 19.00800 26.98900
H  45.83400 18.73200 25.33500
H  45.01500 20.00900 26.25500
H  48.34900 24.97800 22.72200
H  51.20600 25.95800 23.36800
H  50.32800 22.99800 23.39800
H  51.05800 24.07500 22.26300
H  49.49100 23.30800 21.82500
H  49.51400 28.28500 22.98900
H  48.75400 27.06500 21.86700
H  50.77300 29.04700 21.58500
H  50.36500 27.71500 20.44400
H  51.76600 27.58600 21.55500
H  51.53000 31.21200 27.70900
H  50.81900 30.93300 26.21100
H  52.39800 30.14500 26.48000
H  48.58300 29.53100 31.40000
H  50.50400 27.64500 34.80900
H  50.57200 29.39100 35.27600
H  51.86400 28.52000 34.30700
Mg 49.41100 36.19600 27.46800
C  47.78800 34.18300 29.75700
C  49.58900 38.66000 29.83800
C  50.96500 38.01600 25.16500
C  48.78400 33.66400 25.09000
N  48.77000 36.34500 29.60500
C  48.15800 35.38600 30.36000
C  48.16300 35.83300 31.83300
C  48.15200 37.36600 31.61700
C  48.90200 37.48600 30.26700
C  46.78700 37.98000 31.63500
C  49.48600 35.39800 32.63800
C  49.35400 35.21200 34.14800
H  48.45300 36.15200 35.06200
N  50.20100 38.05200 27.53400
C  50.11700 38.99400 28.51800
C  50.69500 40.21200 28.07600
C  51.14200 40.06000 26.76000
C  50.81800 38.65900 26.44900
C  50.73600 41.48300 29.03800
C  51.82800 40.98400 25.78200
O  52.13800 40.64800 24.63300
C  52.10000 42.38500 26.21600
N  49.79900 35.81100 25.42800
C  50.43100 36.76200 24.75400
C  50.78900 36.33300 23.32000
C  50.31400 34.80100 23.37800
C  49.58900 34.74400 24.63300
C  50.19900 37.18200 22.17000
C  51.46500 33.76600 23.39800
C  51.20900 32.51400 22.64800
N  48.48500 34.29300 27.38200
C  48.35300 33.31600 26.36900
C  47.82500 32.10300 26.94600
C  47.56800 32.39900 28.29800
C  47.92400 33.75600 28.49200
C  47.39400 30.87400 26.15600
C  47.06400 31.83100 29.55400
O  46.60500 30.70700 29.79300
C  46.98800 33.09400 30.48000
C  47.31800 32.75800 31.88100
O  48.29400 32.12000 32.27000
O  46.36600 33.21900 32.67900
C  46.32200 32.89800 34.15000
H  49.46300 39.51900 30.50000
H  51.37800 38.58000 24.32600
H  48.61000 32.87200 24.35900
H  47.26700 35.51900 32.36900
H  48.72700 37.76700 32.45200
H  46.01300 37.30200 31.99600
H  46.52600 38.20400 30.60100
H  46.87000 38.92400 32.17300
H  50.30700 36.06800 32.38400
H  49.78100 34.51700 32.06700
H  50.34100 35.31700 34.59900
H  49.13000 34.14600 34.19400
H  51.51400 42.20700 28.79600
H  50.95400 41.15100 30.05300
H  49.73300 41.90100 29.11500
H  52.35600 43.13700 25.46900
H  52.84800 42.44300 27.00700
H  51.28800 42.99800 26.60700
H  51.86500 36.44500 23.18800
H  49.54000 34.63100 22.63000
H  49.77400 38.03600 22.69700
H  49.39200 36.66300 21.65400
H  50.92100 37.44500 21.39700
H  51.62100 33.46900 24.43500
H  52.39300 34.12400 22.95300
H  52.01000 32.31300 21.93600
H  50.44100 32.59500 21.87800
H  50.90500 31.65200 23.24200
H  48.26000 30.21500 26.08900
H  47.07400 31.18400 25.16100
H  46.57600 30.39600 26.69500
H  45.95200 33.42800 30.41800
H  45.67700 32.05100 34.38500
H  45.79500 33.75900 34.56000
H  47.28400 32.82000 34.65600

