158

Mg 2.38000 -0.67400 43.28800
C  5.78700 0.06300 42.85500
C  1.75900 2.25200 41.52700
C  -0.78100 -1.55300 42.95600
C  3.26900 -3.75900 44.69700
N  3.65300 0.99700 42.16500
C  4.98900 1.10400 42.18800
C  5.49800 2.24900 41.33600
C  4.21300 3.07600 41.13800
C  3.12200 2.07500 41.66600
C  4.17600 4.50700 41.78300
C  6.10600 1.63800 40.02900
C  7.15100 2.47700 39.28900
H  6.74800 3.02800 37.89400
N  0.74600 0.15900 42.33600
C  0.67900 1.43200 41.75800
C  -0.62600 1.67100 41.38500
C  -1.38900 0.50200 41.61500
C  -0.46100 -0.34800 42.34300
C  -1.10700 2.90900 40.67300
C  -2.87500 0.21600 41.16800
O  -3.45000 1.09700 40.51600
C  -3.59300 -1.11800 41.34900
N  1.34700 -2.39400 43.81000
C  0.02700 -2.49900 43.60100
C  -0.50700 -3.83500 44.15100
C  0.79400 -4.64600 44.46700
C  1.88300 -3.54600 44.32100
C  -1.48300 -3.58700 45.32600
C  1.13900 -5.82400 43.48400
C  1.63700 -7.17100 44.02400
N  4.13300 -1.61000 43.87900
C  4.38300 -2.86100 44.45900
C  5.82100 -3.01200 44.72000
C  6.38800 -1.82400 44.21600
C  5.33600 -1.06100 43.57600
C  6.50500 -4.16900 45.44600
C  7.65700 -1.08300 44.05400
O  8.78800 -1.29400 44.37000
C  7.34000 0.14000 43.18200
C  7.42300 1.24700 44.12800
O  6.65300 1.40700 45.07400
O  8.40800 2.12700 43.79200
C  8.65900 3.23400 44.75700
H  1.40300 3.19100 41.09800
H  -1.85800 -1.72200 43.01000
H  3.44800 -4.70200 45.22000
H  6.30500 2.78200 41.84000
H  4.13600 3.33100 40.08100
H  5.11900 4.59700 42.32300
H  3.33200 4.71600 42.44100
H  4.26700 5.33300 41.07800
H  5.22700 1.36200 39.44600
H  6.61400 0.68900 40.20300
H  7.99600 1.82600 39.06200
H  7.52900 3.30700 39.88500
H  -1.88200 2.78900 39.91600
H  -0.28100 3.33200 40.10100
H  -1.49700 3.62000 41.40100
H  -4.55500 -1.14200 40.83700
H  -3.77500 -1.23500 42.41700
H  -2.96600 -1.89800 40.91700
H  -1.06300 -4.30500 43.33900
H  0.80700 -5.04900 45.48000
H  -1.24500 -4.10900 46.25300
H  -2.49600 -3.85600 45.02700
H  -1.50200 -2.50700 45.47300
H  1.95300 -5.44200 42.86700
H  0.32000 -6.07300 42.80900
H  1.14100 -8.03300 43.57800
H  1.65600 -7.24000 45.11200
H  2.68100 -7.29900 43.74100
H  6.14100 -4.28400 46.46700
H  7.58400 -4.03100 45.36500
H  6.35400 -5.00700 44.76500
H  7.95600 0.18700 42.28300
H  7.69100 3.67100 45.00200
H  9.40000 3.95800 44.41600
H  8.94800 2.76500 45.69700
Mg 7.31500 53.39400 41.04800
C  6.99700 49.78500 40.72700
C  10.55500 53.03800 40.44200
C  7.41300 56.62400 40.95600
C  3.72100 53.52500 41.20900
N  8.54100 51.47900 40.65500
C  8.28000 50.16400 40.55000
C  9.58400 49.34700 40.49100
C  10.76200 50.42000 40.67700
C  9.93500 51.77500 40.59100
C  11.68800 50.15500 41.96200
C  9.68800 48.39300 39.22800
C  9.64100 49.13200 37.84600
H  8.39800 48.80600 36.99200
N  8.81300 54.68300 40.69200
C  10.10400 54.36400 40.35200
C  10.84200 55.54900 40.08500
C  9.99400 56.63100 40.38800
C  8.67700 56.06100 40.70300
C  12.29700 55.63600 39.71900
C  10.34400 58.16900 40.32500
O  11.47800 58.52300 39.92200
C  9.47400 59.21100 41.05200
N  5.79400 54.87200 41.00000
C  6.08300 56.13100 41.04500
C  4.79500 57.04300 41.20100
C  3.63100 56.03500 41.24900
C  4.41600 54.73300 41.10000
C  4.86700 57.99600 42.41100
C  2.54400 56.26500 40.25100
C  1.46500 57.28500 40.60200
N  5.68100 52.00200 41.03300
C  4.29500 52.20700 41.21200
C  3.64400 50.92500 41.41000
C  4.67800 50.01200 41.25400
C  5.88600 50.67000 40.91500
C  2.22300 50.74300 41.62100
C  4.93900 48.63000 41.34100
O  4.19600 47.74000 41.76500
C  6.41100 48.41700 40.87500
C  6.29600 47.62600 39.68200
O  5.97100 48.02900 38.57100
O  6.52700 46.32400 40.08900
C  6.37100 45.34000 38.99600
H  11.62300 52.85000 40.31700
H  7.31300 57.71200 40.94500
H  2.64400 53.51000 41.38700
H  9.51800 48.61900 41.29900
H  11.44800 50.36400 39.83200
H  11.27000 49.36800 42.58900
H  11.40000 51.00800 42.57600
H  12.74400 50.01400 41.73100
H  8.76600 47.81100 39.19700
H  10.54400 47.75900 39.45600
H  10.52400 48.74400 37.33800
H  9.84000 50.20300 37.81700
H  12.71200 54.63500 39.83600
H  12.83300 56.39700 40.28500
H  12.35900 55.86700 38.65500
H  8.62800 59.43700 40.40300
H  10.08500 60.10600 41.17500
H  9.31300 58.84300 42.06600
H  4.90600 57.54400 40.23900
H  3.24500 56.06600 42.26800
H  5.46600 57.56000 43.21000
H  3.85500 58.19200 42.76700
H  5.26500 58.93100 42.01700
H  2.13100 55.31200 39.91900
H  2.88300 56.72100 39.32100
H  2.03400 57.98500 41.21400
H  0.69900 56.81100 41.21700
H  1.04700 57.81500 39.74600
H  1.71200 51.67300 41.87400
H  1.92400 49.88600 42.22400
H  1.89500 50.50200 40.61000
H  6.86500 47.87800 41.70700
H  6.65900 44.38500 39.43700
H  7.12100 45.63600 38.26200
H  5.38900 45.22700 38.53800

