158

Mg 45.14400 4.90500 47.64800
C  42.84800 7.57300 47.26000
C  42.41200 2.76400 47.05200
C  47.25200 2.52200 47.54600
C  47.73600 7.31100 47.86300
N  42.81800 5.19200 47.08400
C  42.14100 6.38400 47.04000
C  40.60000 6.14900 46.96200
C  40.43600 4.57300 47.02200
C  41.97800 4.10600 47.08200
C  39.53000 4.09300 48.19700
C  39.99400 6.80000 45.66800
C  40.91000 6.90900 44.40600
H  40.22100 6.90600 43.05800
N  44.90000 2.98600 47.18000
C  43.72900 2.23200 46.97200
C  44.02400 0.85300 46.85200
C  45.45400 0.77300 46.85600
C  45.94200 2.13000 47.22300
C  43.07100 -0.13400 46.36200
C  46.30400 -0.44700 46.53800
O  45.79500 -1.47900 46.20900
C  47.75400 -0.57100 46.56300
N  47.27800 4.90600 47.49700
C  47.88800 3.77600 47.72700
C  49.40200 3.92500 48.06600
C  49.57800 5.47300 48.07000
C  48.16400 5.94600 47.73700
C  49.74000 3.30900 49.43200
C  50.60600 5.98200 47.00700
C  51.95700 6.43400 47.53800
N  45.31700 7.05000 47.60000
C  46.43400 7.84400 47.73800
C  46.03700 9.24200 47.75800
C  44.58300 9.17100 47.62700
C  44.25500 7.79200 47.45700
C  46.83200 10.44600 47.77400
C  43.46400 9.94000 47.72800
O  43.29200 11.17800 47.81800
C  42.31400 8.91300 47.44800
C  41.36000 8.93100 48.61200
O  41.52800 8.41600 49.73700
O  40.28700 9.64900 48.32500
C  39.40500 9.96800 49.50400
H  41.54900 2.09700 47.01800
H  47.87100 1.62300 47.57400
H  48.62300 7.85700 48.19300
H  40.17400 6.54600 47.88400
H  40.11100 4.17100 46.06200
H  39.05300 3.16800 47.87400
H  38.83300 4.84900 48.55900
H  40.10600 3.86400 49.09400
H  39.69100 7.81800 45.91500
H  39.10500 6.26200 45.34000
H  41.69200 6.15300 44.33100
H  41.49000 7.83200 44.37500
H  43.19700 -1.01000 46.99700
H  43.42700 -0.39800 45.36600
H  42.03600 0.20600 46.33100
H  47.93200 -1.47300 45.97900
H  48.22600 -0.58300 47.54500
H  48.16700 0.27400 46.01200
H  50.08700 3.51600 47.32300
H  49.83500 5.92400 49.02800
H  48.87100 3.55300 50.04200
H  50.71800 3.45700 49.89100
H  49.73600 2.24600 49.19100
H  50.25600 6.83000 46.41800
H  50.82800 5.20700 46.27400
H  52.77700 5.99500 46.97000
H  52.17100 6.03600 48.53000
H  52.01500 7.52300 47.54100
H  47.75600 10.13300 48.26100
H  46.39800 11.37000 48.15500
H  47.09300 10.63300 46.73300
H  41.66200 9.11200 46.59700
H  39.24300 9.03300 50.04000
H  38.46500 10.34100 49.09700
H  39.89700 10.70900 50.13300
Mg 0.45400 42.07700 26.13600
C  1.57500 42.50900 29.40300
C  -2.56900 40.90800 27.29300
C  -0.28100 41.40300 22.91100
C  3.61600 43.09500 25.02900
N  -0.36900 41.72700 28.06400
C  0.22800 42.19200 29.26900
C  -0.77700 42.03200 30.46400
C  -2.02200 41.32200 29.76700
C  -1.65300 41.25600 28.27700
C  -2.47900 40.04300 30.41100
C  -1.08300 43.16100 31.55300
C  -0.35900 43.13500 32.93300
H  -1.17400 43.12500 34.17100
N  -1.21500 41.47500 25.26700
C  -2.37000 40.95400 25.86300
C  -3.40300 40.65700 24.86200
C  -2.73300 40.74000 23.65200
C  -1.35900 41.25300 23.88100
C  -4.74700 40.05600 25.10900
C  -3.37200 40.63600 22.26300
O  -2.68200 40.87300 21.25900
C  -4.84400 40.33300 22.00100
N  1.47900 42.26900 24.22500
C  0.99300 41.90000 23.08300
C  1.97800 42.06500 21.91900
C  3.11600 42.87800 22.56600
C  2.74800 42.75900 24.08500
C  2.39000 40.84000 21.19800
C  3.10100 44.38000 22.13900
C  3.62000 44.61200 20.67700
N  2.30600 42.54200 26.99600
C  3.51900 42.98000 26.43300
C  4.50700 43.26500 27.44500
C  3.78300 43.02700 28.64400
C  2.46100 42.65700 28.31700
C  5.90800 43.67600 27.27900
C  3.84100 43.09600 30.09300
O  4.69800 43.35000 30.95800
C  2.38500 42.64100 30.61500
C  2.68300 41.37700 31.40500
O  2.93700 40.29300 30.88100
O  2.64200 41.69400 32.73500
C  2.77300 40.69700 33.75000
H  -3.52600 40.62600 27.73800
H  -0.44000 41.12200 21.86800
H  4.63800 43.35900 24.75100
H  -0.24900 41.28600 31.05800
H  -2.84100 42.02300 29.93000
H  -2.36500 39.31400 29.60900
H  -3.44600 40.18000 30.89600
H  -1.76200 39.69500 31.15400
H  -2.15200 43.20200 31.76000
H  -0.65800 44.06500 31.11600
H  0.32600 43.97300 33.05900
H  0.24500 42.22800 32.94200
H  -5.65300 40.59600 24.83400
H  -4.79800 40.05800 26.19800
H  -4.86200 39.03200 24.75400
H  -5.33600 41.24800 22.32800
H  -5.26600 39.46400 22.50600
H  -4.98000 40.20000 20.92800
H  1.44900 42.70400 21.21100
H  4.15900 42.56600 22.51500
H  1.59300 40.10000 21.12400
H  3.39600 40.48200 21.41700
H  2.42000 41.22700 20.18000
H  3.62700 45.09900 22.76800
H  2.09800 44.78600 22.26800
H  4.27300 43.78400 20.40200
H  4.21500 45.52300 20.75200
H  2.89900 44.74800 19.87100
H  6.55300 42.83500 27.53300
H  6.23000 44.49500 27.92300
H  6.06200 44.05000 26.26700
H  2.03800 43.38100 31.33600
H  3.45000 39.90300 33.43300
H  1.76800 40.48800 34.11600
H  3.12300 41.24500 34.62500

