158

Mg 54.74100 24.49400 44.03400
C  52.35400 26.96300 43.41700
C  52.62300 22.15200 43.18300
C  57.46500 22.50400 43.84400
C  57.03000 27.27500 44.43900
N  52.75400 24.56100 43.26600
C  51.93500 25.65900 43.15300
C  50.54000 25.21200 42.76300
C  50.58500 23.69500 43.19300
C  52.07800 23.39800 43.13200
C  49.90300 23.28700 44.56300
C  50.26600 25.42600 41.28500
C  48.82200 25.74000 40.88000
H  48.23300 25.27200 39.51800
N  55.01400 22.57400 43.50700
C  53.97300 21.71000 43.36300
C  54.57100 20.33700 43.35900
C  55.94600 20.42500 43.66600
C  56.18800 21.85400 43.76900
C  53.81900 19.08000 42.98000
C  56.86800 19.15800 43.82200
O  56.50800 17.97900 43.65500
C  58.30200 19.38600 43.96100
N  57.04500 24.86300 43.91100
C  57.91500 23.81000 43.88300
C  59.36900 24.29600 44.10800
C  59.14500 25.80300 44.55900
C  57.61900 26.06700 44.28400
C  60.39300 23.47400 44.91100
C  60.00000 26.92900 43.94500
C  60.68400 27.96700 44.83200
N  54.74400 26.66000 44.05300
C  55.70900 27.60500 44.36900
C  55.07300 28.91300 44.68900
C  53.78600 28.68600 44.14900
C  53.65100 27.34600 43.87800
C  55.81000 30.09600 45.02900
C  52.50700 29.31100 43.87400
O  52.14800 30.45900 43.93300
C  51.58200 28.27200 43.19800
C  51.55500 28.75200 41.83900
O  52.44300 28.86500 41.03300
O  50.31000 29.25000 41.60100
C  49.93200 29.76400 40.24000
H  51.85600 21.37500 43.19000
H  58.33400 21.84600 43.90900
H  57.71800 28.10000 44.63200
H  49.84800 25.68300 43.46100
H  50.14200 23.09500 42.39800
H  49.20200 22.47100 44.38500
H  49.45400 24.15200 45.05200
H  50.68300 23.00600 45.27000
H  50.60100 24.56300 40.70900
H  50.78600 26.32200 40.94700
H  48.60500 26.79200 41.06900
H  48.21900 25.20900 41.61700
H  52.79000 19.40300 42.82500
H  53.82900 18.58600 43.95100
H  54.18700 18.60200 42.07200
H  58.71900 19.67800 42.99700
H  58.66200 18.41600 44.30400
H  58.63300 20.11200 44.70300
H  59.66800 24.26100 43.06100
H  59.39400 25.81500 45.62000
H  61.23200 23.00400 44.39800
H  59.83700 22.68000 45.41000
H  60.86800 24.11200 45.65500
H  59.55200 27.48600 43.12100
H  60.79800 26.36600 43.46100
H  61.57700 28.20100 44.25200
H  60.93100 27.69000 45.85700
H  59.96300 28.78400 44.86600
H  56.81500 29.85300 45.37300
H  55.14900 30.38800 45.84500
H  55.75700 30.77400 44.17700
H  50.59900 28.25000 43.66800
H  50.85900 29.97800 39.70900
H  49.34200 30.67600 40.32900
H  49.24600 29.06200 39.76500
Mg 48.66800 35.41000 26.77000
C  46.56100 33.79300 29.23400
C  49.12100 38.01700 28.96100
C  50.08200 36.99700 24.29600
C  48.00600 32.73700 24.64400
N  48.00100 35.75400 28.85300
C  47.17000 35.00600 29.70500
C  47.46100 35.55200 31.12900
C  47.77000 37.06100 30.84000
C  48.31600 36.90800 29.39400
C  46.46900 37.97700 30.96600
C  48.67500 34.86100 31.91600
C  48.75500 34.68400 33.39600
H  48.05700 35.68100 34.40400
N  49.48600 37.25700 26.64700
C  49.64100 38.14500 27.65200
C  50.41000 39.29000 27.14500
C  50.74000 39.02100 25.82700
C  50.04500 37.73200 25.52500
C  50.71100 40.55300 27.91000
C  51.59100 39.81700 24.81800
O  51.67700 39.45100 23.63800
C  52.21000 41.08200 25.32200
N  48.91800 34.95100 24.69700
C  49.53400 35.80800 23.87300
C  49.51700 35.25500 22.45400
C  49.15300 33.80800 22.70000
C  48.65800 33.81000 24.14500
C  48.53300 36.04500 21.46900
C  50.38400 32.82700 22.53600
C  50.04400 31.39100 22.04200
N  47.60100 33.53400 26.90200
C  47.43300 32.54500 25.89900
C  46.72300 31.44100 26.44900
C  46.34000 31.87700 27.70800
C  46.90900 33.13600 27.98800
C  46.34000 30.11700 25.76500
C  45.52900 31.55700 28.85800
O  44.94000 30.49800 29.15000
C  45.51100 32.88200 29.80200
C  45.71000 32.37100 31.20900
O  46.64600 31.65900 31.59500
O  44.69800 32.88000 32.08000
C  44.89400 32.57700 33.52300
H  49.16000 38.82900 29.69000
H  50.59800 37.47100 23.45800
H  48.09900 31.83000 24.04200
H  46.56400 35.38000 31.72300
H  48.57600 37.50500 31.42500
H  46.65600 38.89100 30.40200
H  46.36600 38.19300 32.03000
H  45.52600 37.52600 30.65800
H  49.61800 35.29800 31.58800
H  48.82000 33.83900 31.56500
H  49.82200 34.71100 33.61400
H  48.42200 33.74200 33.83100
H  51.76800 40.60100 28.17100
H  50.11200 40.55600 28.82000
H  50.36400 41.38900 27.30300
H  52.86800 40.94300 26.18000
H  51.50000 41.89200 25.48200
H  52.97700 41.23800 24.56300
H  50.51500 35.28100 22.01500
H  48.34100 33.55200 22.02000
H  48.11700 36.86100 22.05900
H  47.73200 35.43200 21.05500
H  49.09900 36.49600 20.65400
H  50.84800 32.77200 23.52100
H  51.03100 33.20200 21.74200
H  49.05500 31.34000 21.58700
H  50.11400 30.69000 22.87400
H  50.83900 31.04900 21.37900
H  45.88300 30.27300 24.78700
H  45.67700 29.46800 26.33800
H  47.21800 29.49900 25.57900
H  44.54100 33.37500 29.73800
H  44.22200 31.79900 33.88600
H  44.65100 33.49600 34.05700
H  45.91300 32.29100 33.78400

