158

Mg 16.86000 -2.49500 28.22500
C  16.04900 -0.29800 30.96200
C  18.71700 -4.21100 30.44500
C  18.04600 -4.05900 25.62600
C  15.17100 -0.30800 26.22100
N  17.16400 -2.34000 30.47900
C  16.84600 -1.34500 31.34100
C  17.21200 -1.66000 32.76300
C  18.11700 -2.92300 32.64500
C  17.99500 -3.21200 31.13800
C  19.54300 -2.87900 33.28500
C  15.91900 -1.83600 33.65100
C  15.95800 -1.22800 35.09300
H  17.35700 -0.77500 35.61500
N  18.15900 -4.05100 28.06200
C  18.80900 -4.64300 29.10100
C  19.56200 -5.70700 28.52400
C  19.31100 -5.70600 27.14900
C  18.47200 -4.58400 26.88900
C  20.33000 -6.79100 29.36400
C  19.78400 -6.67900 26.05000
O  19.43200 -6.59300 24.86800
C  20.83700 -7.73800 26.49200
N  16.61000 -2.30500 26.23700
C  17.28600 -2.99400 25.32700
C  17.13500 -2.47500 23.90600
C  16.04900 -1.30300 24.07100
C  15.84100 -1.34300 25.63200
C  18.42800 -2.10800 23.11100
C  14.66800 -1.51300 23.28800
C  13.57000 -2.33700 24.03100
N  15.73800 -0.80800 28.49300
C  15.05300 -0.03200 27.57100
C  14.35500 1.07100 28.18500
C  14.76900 1.03200 29.49600
C  15.58100 -0.12800 29.62800
C  13.47200 2.03100 27.47800
C  14.59300 1.69400 30.70200
O  13.97200 2.71300 30.99000
C  15.39900 0.87100 31.70700
C  16.50300 1.73300 32.30500
O  17.55100 2.01100 31.77800
O  16.02700 2.39200 33.45000
C  16.75600 3.41800 34.15500
H  19.40400 -4.74300 31.10700
H  18.47100 -4.60900 24.78400
H  14.72000 0.41500 25.53900
H  17.78300 -0.80500 33.12600
H  17.66200 -3.77400 33.15100
H  20.28100 -3.34100 32.62900
H  19.49400 -3.56500 34.13000
H  19.84600 -1.88400 33.61100
H  15.77000 -2.90800 33.77900
H  15.03300 -1.48300 33.12300
H  15.73200 -2.01900 35.80800
H  15.23500 -0.41400 35.15700
H  21.38200 -6.52300 29.45700
H  19.97200 -7.74800 28.98600
H  19.87800 -6.84700 30.35500
H  20.37000 -8.56400 27.02800
H  21.57000 -7.27700 27.15300
H  21.25800 -8.14400 25.57200
H  16.70300 -3.23500 23.25500
H  16.47100 -0.31100 23.91100
H  18.36200 -1.09800 22.70700
H  18.79200 -2.83800 22.38700
H  19.21200 -1.99600 23.86000
H  14.77400 -2.11200 22.38400
H  14.28500 -0.52400 23.04000
H  12.95500 -1.61600 24.57000
H  14.09500 -2.99600 24.72200
H  12.97400 -2.81400 23.25300
H  13.03000 1.45800 26.66300
H  14.02000 2.78300 26.91100
H  12.75000 2.55300 28.10600
H  14.71400 0.69900 32.53700
H  17.00300 4.24500 33.49000
H  17.51700 2.95300 34.78200
H  16.12100 3.90600 34.89400
Mg 0.86800 43.53800 25.38000
C  3.11300 43.43600 28.22900
C  -1.78900 43.18000 27.39100
C  -0.91700 42.79800 22.61400
C  3.83300 43.50600 23.40600
N  0.66100 43.46600 27.55600
C  1.70200 43.34900 28.50300
C  1.04200 43.30900 29.85000
C  -0.52300 43.09600 29.60000
C  -0.57200 43.25200 28.09400
C  -1.09000 41.81600 30.10800
C  1.38100 44.54800 30.75900
C  0.78300 44.65400 32.21300
H  0.32500 43.36500 32.76900
N  -1.08300 43.09500 25.07000
C  -2.05000 43.07300 26.00400
C  -3.32500 42.84600 25.34900
C  -3.09500 42.55600 24.03700
C  -1.59200 42.90300 23.85400
C  -4.63700 42.74500 26.09200
C  -4.02900 41.88300 22.98700
O  -3.71200 41.77400 21.79700
C  -5.35300 41.36700 23.42800
N  1.47400 43.02100 23.32900
C  0.47600 42.90700 22.39900
C  1.04200 42.74800 21.04000
C  2.54000 43.25600 21.18300
C  2.65000 43.30800 22.74200
C  0.94400 41.29300 20.57100
C  2.87400 44.57000 20.39800
C  2.36200 45.87300 20.91300
N  3.07400 43.59900 25.70600
C  4.13700 43.56700 24.80000
C  5.35100 43.57500 25.47500
C  5.06600 43.46800 26.77600
C  3.66600 43.55100 26.92800
C  6.75100 43.68300 24.82200
C  5.55700 43.33500 28.15200
O  6.72100 43.26200 28.53300
C  4.30700 43.35600 29.19500
C  4.31300 42.03000 29.97400
O  3.92700 40.93700 29.51000
O  4.84600 42.25700 31.24200
C  4.66000 41.22800 32.34100
H  -2.64000 42.94800 28.03400
H  -1.46400 42.66000 21.67900
H  4.72100 43.49800 22.77100
H  1.54900 42.51300 30.39600
H  -1.02800 43.97300 30.00500
H  -1.69700 42.08100 30.97300
H  -0.37600 41.10100 30.51700
H  -1.67700 41.36300 29.30900
H  1.22300 45.45300 30.17300
H  2.45100 44.43800 30.93400
H  -0.06000 45.34200 32.14900
H  1.55800 45.15100 32.79600
H  -4.83600 41.69200 26.29100
H  -5.48300 43.26800 25.64600
H  -4.41100 43.24700 27.03300
H  -5.33100 40.62700 24.22800
H  -5.79800 40.84800 22.57900
H  -5.94500 42.24300 23.69400
H  0.40500 43.35200 20.39300
H  3.20500 42.45200 20.86900
H  0.42800 40.68900 21.31700
H  1.89100 40.76100 20.48300
H  0.38400 41.24600 19.63700
H  2.39400 44.48200 19.42300
H  3.95300 44.59100 20.24200
H  1.65100 46.36000 20.24600
H  3.27100 46.41500 21.17100
H  1.92600 45.70600 21.89700
H  7.54700 43.48700 25.53900
H  6.77200 44.73400 24.53400
H  6.71600 43.04800 23.93600
H  4.45200 44.22500 29.83600
H  3.74400 41.43700 32.89400
H  5.49700 41.33200 33.03200
H  4.55700 40.28900 31.79800

