158

Mg 48.01900 15.69900 28.33500
C  46.12500 15.55700 31.28500
C  50.27400 17.79700 30.00800
C  49.63700 16.18000 25.50300
C  45.24900 14.34300 26.61800
N  48.11600 16.61700 30.32800
C  47.40300 16.21900 31.36500
C  47.96300 16.72900 32.71100
C  49.11500 17.69600 32.31500
C  49.21800 17.28100 30.81000
C  48.79000 19.21400 32.47500
C  48.40100 15.60400 33.59600
C  48.34700 15.76200 35.10400
H  48.39300 17.11400 35.82200
N  49.73900 16.78500 27.84900
C  50.55200 17.58900 28.62100
C  51.69600 18.04900 27.89000
C  51.61900 17.37600 26.66300
C  50.29500 16.74400 26.63800
C  52.75600 18.99000 28.54100
C  52.53300 17.45100 25.46400
O  52.33600 16.82300 24.51800
C  53.78700 18.32100 25.48600
N  47.45100 15.37300 26.35900
C  48.38600 15.51100 25.41100
C  47.88400 15.01800 24.08800
C  46.69400 14.19000 24.52600
C  46.45500 14.59400 25.91900
C  47.49000 16.21900 23.18900
C  46.77700 12.70100 24.33000
C  45.75000 12.01300 23.44400
N  46.03600 15.06500 28.80200
C  45.01500 14.49900 28.04700
C  43.82200 14.31100 28.82700
C  44.25500 14.64300 30.10100
C  45.58500 15.06000 30.05800
C  42.47800 13.83400 28.37800
C  43.80100 14.81000 31.54300
O  42.73500 14.55800 32.00800
C  45.04700 15.24400 32.34900
C  44.56700 16.41600 33.13000
O  44.27200 17.50200 32.67000
O  44.24100 16.07700 34.39700
C  43.31600 16.97300 35.14300
H  51.04600 18.39200 30.50100
H  50.15200 16.10700 24.54300
H  44.36000 14.00000 26.08500
H  47.15200 17.18600 33.27800
H  50.02200 17.53200 32.89700
H  48.94300 19.73900 31.53100
H  49.63300 19.46300 33.12000
H  47.88900 19.52100 33.00600
H  49.45600 15.38000 33.43600
H  47.87000 14.70800 33.27400
H  49.17500 15.18500 35.51600
H  47.44800 15.18400 35.32100
H  53.35600 19.57600 27.84500
H  53.46100 18.25600 28.93100
H  52.35800 19.63300 29.32600
H  54.28800 18.00300 26.40000
H  53.51600 19.37700 25.48600
H  54.49600 18.21400 24.66500
H  48.60200 14.44700 23.49900
H  45.78500 14.53700 24.03400
H  47.68700 17.08700 23.81800
H  46.44200 16.39200 22.94300
H  48.07900 16.22400 22.27200
H  46.61400 12.20900 25.28900
H  47.74000 12.39000 23.92600
H  46.30900 11.66500 22.57500
H  44.95100 12.73200 23.26300
H  45.36000 11.11400 23.92200
H  42.33000 14.30000 27.40400
H  41.85900 14.27100 29.16200
H  42.31500 12.75800 28.32700
H  45.29800 14.41200 33.00700
H  42.45100 17.29600 34.56500
H  43.90500 17.76000 35.61500
H  42.95200 16.40900 36.00200
Mg 48.58000 34.97400 26.82400
C  46.97700 33.43500 29.45300
C  49.41100 37.68400 28.69100
C  49.77500 36.51400 24.00900
C  47.62000 32.20800 24.78300
N  48.23900 35.50200 28.83700
C  47.59600 34.70200 29.76500
C  47.85300 35.34800 31.20500
C  48.24600 36.81500 30.79700
C  48.79300 36.63900 29.34800
C  47.15400 37.94000 31.02300
C  49.00800 34.52800 31.94700
C  48.70100 34.22200 33.37600
H  47.65400 34.97800 34.22400
N  49.52000 36.77300 26.35600
C  49.76500 37.77700 27.34600
C  50.26600 38.96100 26.68500
C  50.50900 38.65000 25.31100
C  49.93000 37.25000 25.17800
C  50.61400 40.25100 27.37700
C  51.07200 39.50200 24.17800
O  51.18000 39.03300 23.06300
C  51.52200 40.91100 24.50200
N  48.42700 34.59900 24.76900
C  49.05100 35.29600 23.82300
C  48.97500 34.66500 22.44100
C  48.71000 33.16300 22.73900
C  48.15100 33.31200 24.14000
C  48.09700 35.52600 21.46500
C  49.88000 32.14400 22.79500
C  49.94600 30.95200 21.71800
N  47.50700 33.14600 26.96600
C  47.27300 32.08100 26.11500
C  46.43500 31.04200 26.81000
C  46.32300 31.57900 28.12200
C  46.96000 32.77900 28.19300
C  45.90800 29.70300 26.27300
C  45.68100 31.33200 29.40100
O  45.08200 30.37400 29.71700
C  46.08200 32.56800 30.27600
C  46.50600 32.00300 31.57800
O  47.54500 31.42100 31.83000
O  45.38500 32.03300 32.42300
C  45.55400 31.14700 33.61300
H  49.50900 38.58900 29.29500
H  50.19200 36.85700 23.06000
H  47.46900 31.41900 24.04300
H  46.98300 35.34300 31.86100
H  49.02500 37.15300 31.48100
H  46.98000 38.52400 30.11900
H  47.47800 38.76000 31.66400
H  46.24700 37.57800 31.50900
H  49.94600 35.08300 31.91500
H  49.20100 33.53900 31.53200
H  49.68500 34.29400 33.84100
H  48.39500 33.19400 33.57200
H  50.12000 41.05600 26.83300
H  51.68200 40.37100 27.55400
H  50.15400 40.22200 28.36500
H  50.69200 41.57300 24.75000
H  51.99700 41.43500 23.67200
H  52.27300 40.87600 25.29100
H  49.96600 34.56600 21.99800
H  47.94700 32.73100 22.09000
H  48.62600 35.86600 20.57500
H  47.80100 36.45200 21.95900
H  47.27500 34.88700 21.14400
H  49.94700 31.56000 23.71300
H  50.80500 32.70300 22.65300
H  49.10300 31.04000 21.03300
H  49.93600 30.01800 22.28000
H  50.89100 30.99600 21.17600
H  46.79100 29.34700 25.74100
H  45.05900 29.68600 25.59000
H  45.71600 29.02500 27.10500
H  45.20800 33.20700 30.40400
H  46.30100 31.52400 34.31100
H  45.77400 30.11300 33.34500
H  44.60400 31.15100 34.14800

