158

Mg 44.67800 4.34500 47.20600
C  42.82400 7.33600 47.30300
C  41.63500 2.67400 47.36300
C  46.33400 1.50700 46.55300
C  47.56400 6.25000 46.45400
N  42.48800 4.97300 47.12800
C  41.95600 6.25000 47.24300
C  40.47400 6.21500 47.15700
C  40.08900 4.70500 47.39700
C  41.47600 4.02800 47.27400
C  39.34700 4.37300 48.79200
C  39.79600 6.83700 45.86600
C  40.44400 6.89400 44.52400
H  39.80100 6.09800 43.37600
N  44.09000 2.36700 47.08200
C  42.77500 1.89200 47.23100
C  42.83500 0.49700 47.05100
C  44.10300 0.13800 46.53700
C  44.91300 1.35200 46.69600
C  41.58300 -0.45800 47.31600
C  44.47800 -1.19300 45.98100
O  43.70900 -2.14000 46.11800
C  45.82200 -1.54400 45.34300
N  46.69900 3.91200 46.53600
C  47.16100 2.64500 46.48000
C  48.67800 2.65900 46.32800
C  49.14500 4.18400 46.35400
C  47.67500 4.84700 46.46000
C  49.50900 1.82300 47.33500
C  50.04700 4.61500 45.16900
C  51.44700 3.94100 45.07000
N  45.19200 6.37400 47.01800
C  46.38200 7.00800 46.76000
C  46.14100 8.49200 46.59300
C  44.78500 8.60700 46.81500
C  44.26200 7.27300 47.08000
C  47.20300 9.55900 46.31200
C  43.74700 9.53800 46.92100
O  43.77400 10.77100 46.86500
C  42.43200 8.80200 47.24600
C  41.78400 9.20800 48.53400
O  41.88800 8.66500 49.60200
O  40.85400 10.20300 48.34300
C  40.11400 10.67100 49.49500
H  40.68400 2.13800 47.33300
H  46.79100 0.51500 46.56300
H  48.37600 6.97700 46.39000
H  40.13700 6.70100 48.07300
H  39.42800 4.34800 46.60800
H  39.04400 5.29100 49.29600
H  39.97600 3.86000 49.51900
H  38.43500 3.84500 48.51500
H  39.61600 7.89500 46.05500
H  38.85200 6.29800 45.78800
H  41.41200 6.46700 44.78600
H  40.71500 7.88600 44.16200
H  41.15200 -0.89400 46.41500
H  40.88700 0.12700 47.91600
H  41.88800 -1.34600 47.86900
H  46.51800 -1.77000 46.15100
H  46.05300 -0.73600 44.64900
H  45.83500 -2.44800 44.73500
H  48.98400 2.25000 45.36500
H  49.66900 4.45100 47.27100
H  48.97200 1.46900 48.21500
H  50.38700 2.30000 47.77100
H  49.95000 0.99900 46.77400
H  50.11400 5.70300 45.15700
H  49.44600 4.57500 44.26000
H  51.56200 3.32400 45.96100
H  52.33500 4.57000 45.11500
H  51.49100 3.31600 44.17800
H  46.79300 10.56800 46.26900
H  47.49400 9.32900 45.28700
H  47.94900 9.58900 47.10700
H  41.72900 9.02600 46.44300
H  40.14700 11.76100 49.49700
H  40.58700 10.50800 50.46300
H  39.05500 10.41800 49.44300
Mg 26.73000 49.16700 27.37000
C  24.54500 50.62700 29.75500
C  28.76900 48.12900 29.93700
C  28.76700 48.03100 25.02600
C  24.66300 50.39300 24.85800
N  26.75500 49.47300 29.65100
C  25.62400 49.91300 30.35900
C  25.78800 49.56500 31.85200
C  27.27300 48.94900 31.89600
C  27.60900 48.79700 30.40400
C  28.41100 49.80900 32.50500
C  24.62800 48.59800 32.21500
C  23.78500 48.78200 33.51400
H  23.85600 47.74500 34.57200
N  28.47000 48.20100 27.46700
C  29.13900 47.86400 28.60000
C  30.43000 47.41100 28.13900
C  30.55500 47.43800 26.72500
C  29.18600 47.86200 26.35300
C  31.47400 46.98000 29.19200
C  31.71000 46.97800 25.73600
O  31.69700 47.14900 24.52600
C  33.02000 46.47000 26.39900
N  26.80200 49.40600 25.25000
C  27.67200 48.65600 24.51000
C  27.34100 48.77200 22.96600
C  26.17300 49.71600 22.90600
C  25.84400 49.78800 24.41200
C  28.63800 49.20600 22.12700
C  25.14500 49.38500 21.88400
C  24.20900 48.18600 22.28900
N  25.01100 50.34100 27.27700
C  24.28800 50.72200 26.16300
C  23.25700 51.63900 26.58000
C  23.26600 51.57400 27.97200
C  24.34900 50.80900 28.35600
C  22.24900 52.23100 25.64500
C  22.60100 52.01000 29.19000
O  21.63100 52.71800 29.37700
C  23.42500 51.29600 30.39600
C  23.85400 52.38600 31.35100
O  24.88700 53.04800 31.32400
O  23.03400 52.29800 32.48300
C  23.35500 52.96400 33.78600
H  29.36000 47.71700 30.75900
H  29.41700 47.49400 24.33100
H  23.98000 50.79100 24.10500
H  25.67700 50.44100 32.49200
H  27.30900 47.93100 32.28500
H  29.18300 50.08300 31.78600
H  28.98400 49.17100 33.17800
H  28.02100 50.69800 33.00200
H  24.98800 47.56900 32.23700
H  23.84400 48.59200 31.45900
H  22.72000 48.88400 33.30300
H  24.06200 49.73300 33.96800
H  31.97900 46.02400 29.05500
H  31.18600 46.92900 30.24200
H  32.26600 47.72900 29.17400
H  33.48600 47.26000 26.98800
H  33.63400 46.19900 25.54100
H  32.90700 45.54300 26.96100
H  26.98600 47.77400 22.70900
H  26.53200 50.73000 22.72900
H  29.49000 49.53900 22.72000
H  28.43900 50.02800 21.43900
H  28.93200 48.32900 21.55100
H  25.59500 49.22600 20.90400
H  24.45600 50.22800 21.82600
H  24.29800 47.98900 23.35700
H  24.55500 47.40200 21.61600
H  23.21500 48.59700 22.11100
H  21.99300 51.40900 24.97600
H  22.80900 53.08100 25.25600
H  21.34300 52.51900 26.17800
H  22.79900 50.59100 30.94300
H  22.36700 53.03900 34.23900
H  23.86600 53.91900 33.67000
H  23.87500 52.28200 34.46000

