158

Mg 44.94000 5.50300 48.03000
C  43.05100 8.47900 47.57800
C  42.29900 3.68000 47.12800
C  47.02600 2.92000 47.96200
C  47.79200 7.59600 48.55500
N  42.98700 6.04000 47.31000
C  42.44200 7.28000 47.12300
C  41.14900 7.18200 46.52000
C  40.69300 5.71700 46.75700
C  41.96300 5.05200 47.20300
C  39.49300 5.46700 47.76300
C  41.13300 7.69300 45.03100
C  40.00100 8.63000 44.73200
H  39.19000 8.24300 43.49300
N  44.67700 3.51000 47.74500
C  43.45800 2.94100 47.32600
C  43.66300 1.51400 47.41000
C  45.06500 1.25100 47.62700
C  45.67300 2.57600 47.79600
C  42.45700 0.63900 47.16900
C  45.60500 -0.13300 47.67900
O  44.92300 -1.08500 47.39500
C  47.01100 -0.31200 48.21100
N  47.11100 5.35000 48.22800
C  47.71700 4.07400 48.19200
C  49.28800 4.21100 48.16700
C  49.48100 5.65600 48.64800
C  48.09100 6.28500 48.36700
C  50.07700 3.14000 49.01300
C  50.65100 6.46100 47.97400
C  51.46800 7.29600 48.93900
N  45.41300 7.62500 48.01900
C  46.58800 8.28500 48.32800
C  46.32600 9.70000 48.34700
C  44.93000 9.88000 48.03700
C  44.47400 8.55500 47.93900
C  47.30200 10.75400 48.64900
C  43.79400 10.77600 47.89100
O  43.66100 11.97400 48.13300
C  42.59900 9.93200 47.45100
C  41.44400 10.12200 48.43800
O  41.19000 9.49400 49.44000
O  40.57400 11.03800 47.87900
C  39.40700 11.33000 48.68700
H  41.33400 3.22500 46.89700
H  47.78400 2.15900 47.76600
H  48.57900 8.26200 48.91600
H  40.44000 7.85100 47.00900
H  40.50600 5.28800 45.77200
H  39.15900 6.44700 48.10400
H  39.83100 4.87000 48.61000
H  38.70700 4.92400 47.23900
H  41.15600 6.90600 44.27800
H  42.02700 8.30300 44.89900
H  40.42700 9.59900 44.47100
H  39.29100 8.75800 45.55000
H  42.40900 -0.21400 47.84600
H  42.51600 0.37900 46.11200
H  41.52800 1.18200 47.34300
H  46.95500 -1.16200 48.89100
H  47.24600 0.50300 48.89500
H  47.79100 -0.32100 47.45000
H  49.62900 4.17200 47.13200
H  49.66200 5.61400 49.72300
H  49.34400 2.53100 49.54100
H  50.76600 3.58500 49.73200
H  50.71300 2.55600 48.34700
H  50.16900 7.20200 47.33700
H  51.34800 5.81700 47.43800
H  51.09100 7.32800 49.96100
H  51.55900 8.32300 48.58500
H  52.46100 6.87200 49.08600
H  46.91300 11.77100 48.60000
H  48.15200 10.63800 47.97600
H  47.54000 10.70600 49.71100
H  42.18900 10.29500 46.50900
H  39.19900 12.35000 49.01000
H  39.34000 10.77700 49.62400
H  38.58300 11.00500 48.05200
Mg -1.30200 34.36500 27.73200
C  -3.14000 32.29800 29.98300
C  0.18200 35.72900 30.49300
C  0.00600 36.55300 25.65300
C  -3.07800 32.79000 25.13600
N  -1.56300 34.07400 29.94600
C  -2.34800 33.21300 30.64400
C  -2.11100 33.25600 32.13500
C  -1.21800 34.55100 32.33200
C  -0.88500 34.90300 30.84900
C  -1.85100 35.72700 33.07400
C  -1.45800 31.96300 32.73300
C  -1.95200 31.48000 34.11300
H  -1.30500 31.91100 35.41400
N  0.07600 35.85100 27.99400
C  0.60900 36.24600 29.25600
C  1.66400 37.16000 28.97900
C  1.60800 37.38200 27.55200
C  0.54500 36.57000 26.97400
C  2.51600 37.80200 30.08400
C  2.39700 38.43500 26.75900
O  2.12300 38.71800 25.63900
C  3.47900 39.21500 27.40800
N  -1.55500 34.61200 25.70800
C  -0.99100 35.71600 25.10000
C  -1.59100 35.95900 23.73300
C  -2.28500 34.61700 23.41400
C  -2.39800 33.93400 24.80700
C  -2.50600 37.21300 23.58700
C  -1.59500 33.73500 22.30200
C  -2.18700 34.03100 20.85200
N  -2.74500 32.81900 27.46200
C  -3.33400 32.17200 26.39000
C  -4.18800 31.12400 26.78500
C  -4.21200 31.17500 28.19900
C  -3.29300 32.17900 28.57600
C  -4.92700 30.17900 25.87100
C  -4.75600 30.51900 29.30400
O  -5.55400 29.59100 29.27600
C  -4.04000 31.18000 30.58100
C  -5.25600 31.70800 31.29500
O  -6.11000 32.51000 30.89200
O  -5.27800 31.15300 32.56300
C  -6.18800 31.78500 33.52400
H  0.56300 36.24400 31.37800
H  0.24700 37.35800 24.95500
H  -3.56900 32.37700 24.25200
H  -3.05100 33.43600 32.65800
H  -0.28500 34.35800 32.86100
H  -2.92700 35.55700 33.12100
H  -1.66500 36.65400 32.53300
H  -1.47400 35.77900 34.09600
H  -0.42800 32.27500 32.90500
H  -1.48000 31.13900 32.01900
H  -2.17100 30.41500 34.04500
H  -2.96600 31.85100 34.25900
H  3.52700 37.64700 29.70600
H  2.53800 37.21900 31.00400
H  2.27400 38.85300 30.24200
H  3.05500 39.83700 28.19600
H  4.03800 39.85800 26.72700
H  4.20300 38.53600 27.85800
H  -0.74700 35.96600 23.04300
H  -3.31700 34.84300 23.14600
H  -2.80400 37.58400 24.56800
H  -3.45600 37.03300 23.08400
H  -2.02500 38.01600 23.02900
H  -1.65200 32.67800 22.56300
H  -0.51800 33.87200 22.40300
H  -2.98500 34.77300 20.85800
H  -2.59600 33.10200 20.45700
H  -1.41500 34.46500 20.21700
H  -4.32300 30.00300 24.98100
H  -5.94300 30.48600 25.62200
H  -5.06300 29.21100 26.35500
H  -3.47300 30.55200 31.26800
H  -5.68500 32.20800 34.39400
H  -6.74400 30.98700 34.01600
H  -6.88600 32.51200 33.11100

