158

Mg 1.58100 -1.47400 45.78200
C  4.93400 -0.97500 45.17100
C  0.71300 0.94200 43.49300
C  -1.81400 -2.42700 45.71900
C  2.40200 -4.39200 47.48500
N  2.62900 -0.17800 44.60900
C  4.04700 -0.10900 44.48700
C  4.46500 1.06900 43.58000
C  3.05900 1.79800 43.30600
C  2.06300 0.77100 43.84700
C  2.87700 3.23300 43.86600
C  5.20800 0.62300 42.27100
C  6.44000 1.44600 42.04100
H  6.54800 2.08200 40.63700
N  -0.33300 -0.82000 44.69700
C  -0.37600 0.17700 43.83400
C  -1.74600 0.37800 43.36500
C  -2.50800 -0.56500 44.07700
C  -1.60000 -1.32100 44.90100
C  -2.14000 1.28000 42.36300
C  -4.06200 -0.76200 44.00500
O  -4.69200 -0.10600 43.16400
C  -4.88500 -1.74800 44.87200
N  0.44900 -3.16900 46.44300
C  -0.88600 -3.26300 46.44300
C  -1.38800 -4.48300 47.13000
C  -0.04400 -5.11900 47.63300
C  1.05800 -4.20600 47.15800
C  -2.58900 -4.35800 48.19000
C  0.18100 -6.65800 47.28500
C  -0.10400 -7.65100 48.39800
N  3.26700 -2.41100 46.40300
C  3.43300 -3.55400 47.09400
C  4.85800 -3.86800 47.22900
C  5.46300 -2.89100 46.46600
C  4.45300 -1.98400 46.04800
C  5.55400 -4.96300 48.10000
C  6.71800 -2.36000 45.91600
O  7.83900 -2.77500 46.14700
C  6.44700 -1.05900 45.19500
C  7.09100 0.11600 45.90500
O  7.40300 0.13000 47.06900
O  7.43100 1.07100 45.05600
C  8.18700 2.23700 45.53400
H  0.56100 1.75100 42.77500
H  -2.84400 -2.73500 45.91300
H  2.77000 -5.20800 48.11000
H  5.07500 1.77200 44.14700
H  2.91900 1.89300 42.22900
H  3.82000 3.61800 44.25500
H  2.23500 3.28100 44.74600
H  2.50300 3.90100 43.09000
H  4.70100 0.61500 41.30700
H  5.52800 -0.41400 42.37600
H  7.24700 0.71800 42.13000
H  6.61200 2.22900 42.77900
H  -2.46100 2.16500 42.91200
H  -2.92600 0.77800 41.79900
H  -1.27900 1.57200 41.76100
H  -4.86600 -1.54900 45.94400
H  -4.51500 -2.77200 44.82300
H  -5.89000 -1.61700 44.47100
H  -1.71900 -5.16000 46.34200
H  -0.04300 -4.99800 48.71600
H  -2.26200 -4.73000 49.16100
H  -3.42500 -4.92200 47.77600
H  -2.89100 -3.31600 48.29800
H  1.21100 -6.76500 46.94200
H  -0.57000 -6.96400 46.55700
H  -1.14600 -7.95200 48.29300
H  0.14300 -7.13900 49.32700
H  0.53500 -8.53000 48.30900
H  5.62100 -4.50900 49.08800
H  6.55100 -5.13500 47.69300
H  5.00800 -5.89700 48.23100
H  6.82600 -1.08900 44.17300
H  8.74300 2.65000 44.69300
H  8.83900 2.06900 46.39100
H  7.50300 3.00800 45.88800
Mg 40.83100 9.36800 29.07500
C  42.47300 10.53100 32.00300
C  38.50400 7.75900 31.27900
C  39.45800 8.05000 26.41300
C  43.40900 10.73600 27.17700
N  40.52700 9.15100 31.47800
C  41.26000 9.88200 32.39700
C  40.65700 9.73100 33.76900
C  39.56200 8.63500 33.60000
C  39.50900 8.48600 32.04400
C  39.76200 7.28100 34.42000
C  40.15500 11.01700 34.48000
C  39.68500 11.02600 36.09400
H  40.48100 11.97300 37.02600
N  39.23500 8.08600 28.83900
C  38.40000 7.59500 29.83000
C  37.34600 6.85500 29.21500
C  37.44600 7.04300 27.82900
C  38.76700 7.73400 27.61600
C  36.37000 5.95700 29.92000
C  36.58800 6.59700 26.64000
O  36.85100 6.90900 25.49400
C  35.32400 5.88900 26.93300
N  41.32500 9.41900 27.10100
C  40.53400 8.81800 26.17500
C  41.22000 8.91700 24.81900
C  42.37600 10.04600 24.98900
C  42.38000 10.13700 26.49200
C  41.58600 7.53700 24.08600
C  42.03900 11.41600 24.36500
C  40.86200 12.22600 24.83300
N  42.59000 10.42100 29.49700
C  43.55100 10.86200 28.59000
C  44.63600 11.48700 29.32500
C  44.15700 11.48700 30.64800
C  42.95100 10.72200 30.69500
C  45.89300 12.04800 28.69600
C  44.53300 11.86700 31.99400
O  45.44700 12.60500 32.36300
C  43.33200 11.40600 32.87400
C  43.84600 10.75200 34.11400
O  44.53200 9.73000 34.04200
O  43.34900 11.43600 35.24300
C  43.71300 10.72900 36.48500
H  37.70800 7.40000 31.93500
H  39.09100 7.73000 25.43600
H  44.22300 11.04600 26.51900
H  41.41200 9.24300 34.38600
H  38.56800 8.99300 33.86900
H  38.91600 7.08200 35.07800
H  40.50800 7.39700 35.20600
H  39.96700 6.32100 33.94800
H  39.27200 11.36000 33.94100
H  40.99900 11.69400 34.35200
H  39.72900 10.05800 36.59200
H  38.62000 11.25700 36.11800
H  35.34300 6.32100 29.93500
H  36.55000 5.82700 30.98700
H  36.23200 5.00500 29.40700
H  34.71400 6.43100 27.65500
H  35.59000 4.87500 27.23100
H  34.72300 5.88300 26.02400
H  40.46300 9.40700 24.20700
H  43.25800 9.55400 24.57800
H  41.70500 6.78800 24.86800
H  42.45900 7.48100 23.43600
H  40.72500 7.14700 23.54400
H  41.94800 11.19600 23.30200
H  42.92400 12.02300 24.55500
H  40.11200 12.22300 24.04200
H  41.24300 13.23300 25.00000
H  40.40800 11.87300 25.75900
H  46.25400 11.39000 27.90500
H  46.63400 12.08600 29.49400
H  45.87400 13.07200 28.32300
H  42.80500 12.32100 33.14600
H  43.76700 11.49800 37.25500
H  44.58900 10.09100 36.36400
H  42.88400 10.06200 36.71900

