158

Mg -0.15100 6.74300 26.06100
C  1.00800 9.08500 28.53600
C  -0.36100 4.31700 28.56100
C  -1.41900 4.65100 23.82800
C  0.70900 8.97500 23.52500
N  0.12800 6.80400 28.31100
C  0.68000 7.82700 29.12200
C  0.84200 7.39500 30.60600
C  0.73100 5.80600 30.44000
C  0.18300 5.55700 28.98000
C  2.10500 5.06400 30.73800
C  -0.18900 8.28700 31.52600
C  -0.60300 7.53000 32.83800
H  0.34600 7.61700 34.02500
N  -0.98200 4.77700 26.24300
C  -0.89600 3.96200 27.27600
C  -1.70200 2.81100 27.02800
C  -2.06600 2.83800 25.70400
C  -1.47300 4.09400 25.19000
C  -1.95400 1.73300 28.05900
C  -3.04900 1.91100 25.04500
O  -3.40500 2.08300 23.87100
C  -3.55400 0.66700 25.62400
N  -0.15500 6.71900 23.96000
C  -0.86900 5.79700 23.28000
C  -1.04300 6.16700 21.81600
C  -0.27700 7.54500 21.72300
C  0.15000 7.77500 23.14700
C  -0.48700 5.00400 20.90800
C  -1.16600 8.81100 21.18800
C  -0.45400 9.67500 20.14200
N  0.72700 8.57600 26.01400
C  0.91000 9.40700 24.91000
C  1.27100 10.73700 25.40000
C  1.44800 10.62800 26.76100
C  1.01600 9.30400 27.12000
C  1.54500 11.98400 24.47900
C  1.83600 11.31200 28.00200
O  2.28400 12.43600 28.17600
C  1.49600 10.31400 29.19900
C  2.78700 10.13500 29.87300
O  3.69200 9.39400 29.51800
O  2.81300 10.99000 30.97000
C  4.13000 11.23100 31.48500
H  -0.41700 3.53000 29.31600
H  -1.99400 4.04700 23.12400
H  0.90000 9.74000 22.77000
H  1.88100 7.67400 30.77800
H  -0.03300 5.42600 31.11800
H  2.10100 4.62400 31.73500
H  2.95400 5.74500 30.67800
H  2.29800 4.26000 30.02800
H  -1.00800 8.65600 30.90800
H  0.41500 9.14100 31.83300
H  -0.81500 6.46700 32.72300
H  -1.58100 7.94400 33.08600
H  -1.09200 1.59600 28.71100
H  -2.04600 0.75500 27.58700
H  -2.80200 1.93300 28.71300
H  -4.24400 0.21300 24.91300
H  -4.05800 0.79000 26.58300
H  -2.78400 -0.10300 25.67600
H  -2.08700 6.22300 21.50600
H  0.65000 7.42000 21.16400
H  -0.27700 4.10000 21.48000
H  0.45000 5.37000 20.48900
H  -1.12200 4.79800 20.04600
H  -1.46100 9.41300 22.04800
H  -2.02600 8.33500 20.71600
H  -0.98000 9.65600 19.18800
H  0.59700 9.39900 20.05800
H  -0.33500 10.67800 20.55200
H  0.72200 12.46000 23.94600
H  2.20900 11.62800 23.69100
H  2.10800 12.68900 25.09100
H  0.82100 10.86900 29.85100
H  4.92300 10.60900 31.07000
H  4.13000 11.06800 32.56200
H  4.31500 12.26800 31.20400
Mg 46.18300 45.88900 43.96400
C  42.85800 44.74600 43.34500
C  47.22800 42.85200 42.94600
C  49.09600 47.30500 43.18100
C  44.73000 49.16800 44.08100
N  45.19000 44.05800 43.21200
C  43.84400 43.81400 42.98200
C  43.62500 42.37800 42.55500
C  44.94600 41.68000 42.94400
C  45.89100 42.90400 43.12900
C  44.82700 40.85900 44.37200
C  43.24400 42.56100 41.10400
C  41.88600 41.98100 40.70500
H  41.81900 41.16200 39.43100
N  48.01900 45.15800 43.27500
C  48.22300 43.89600 42.94200
C  49.65500 43.68600 42.53000
C  50.25700 45.02700 42.49500
C  49.14600 45.92500 42.99300
C  50.26200 42.34700 42.12700
C  51.62700 45.38800 41.94600
O  52.39800 44.44600 41.71100
C  52.10400 46.73000 41.66800
N  46.83500 47.94400 43.53500
C  48.13200 48.25800 43.40500
C  48.45500 49.74300 43.70600
C  47.03200 50.32800 43.93600
C  46.11900 49.05300 43.82400
C  49.44300 49.77600 44.89300
C  46.38300 51.50900 43.15400
C  47.23200 52.64600 42.46100
N  44.17500 46.75600 44.08600
C  43.77000 48.07900 44.09600
C  42.29800 48.11500 44.12600
C  41.90800 46.79200 43.80700
C  43.09500 46.05100 43.74800
C  41.40100 49.30700 44.24800
C  40.78300 45.93600 43.53800
O  39.60200 46.21700 43.35200
C  41.37900 44.57500 43.22600
C  40.81000 43.74300 44.29600
O  40.18300 42.69400 44.12300
O  41.30900 44.18500 45.48100
C  40.93300 43.39300 46.66500
H  47.61600 41.85000 42.75000
H  50.06900 47.78200 43.04800
H  44.27500 50.13400 44.30500
H  42.77400 41.87800 43.01800
H  45.27600 41.06600 42.10700
H  45.08900 39.84100 44.08700
H  43.76900 40.94600 44.62000
H  45.39300 41.27700 45.20500
H  43.95300 41.97200 40.52100
H  43.24200 43.58100 40.71900
H  41.14400 42.74800 40.48100
H  41.58300 41.31800 41.51500
H  50.55100 42.44000 41.08100
H  49.46900 41.59900 42.11100
H  51.12400 42.00700 42.70100
H  51.38700 47.25000 41.03300
H  53.07000 46.67100 41.16600
H  52.28400 47.28300 42.59000
H  48.99100 50.07100 42.81500
H  46.99400 50.55300 45.00100
H  50.42500 49.46700 44.53300
H  48.94200 49.05400 45.53800
H  49.30300 50.71600 45.42500
H  45.65100 51.91400 43.85300
H  45.97600 51.03100 42.26200
H  47.47200 53.28500 43.31100
H  46.76500 53.10500 41.59000
H  48.22400 52.36500 42.10700
H  41.29900 49.53400 45.30900
H  40.39600 49.05700 43.90900
H  41.75800 50.21700 43.76400
H  41.02300 44.24300 42.25100
H  41.08000 43.99000 47.56500
H  41.56900 42.51100 46.73600
H  39.86300 43.21200 46.56100

