158

Mg 41.70000 40.97200 26.86000
C  41.03300 43.43100 29.36500
C  42.84400 39.01700 29.33600
C  42.66200 38.90400 24.39300
C  40.91600 43.45700 24.45400
N  41.95000 41.23500 29.13300
C  41.47100 42.25400 29.90700
C  41.43300 41.93200 31.44400
C  42.08000 40.47400 31.42300
C  42.38400 40.20800 29.88300
C  43.40400 40.22200 32.16300
C  40.00600 41.95000 32.08100
C  39.90300 42.80800 33.34800
H  38.95400 42.52600 34.50900
N  42.59800 39.17200 26.89400
C  43.00900 38.57400 27.99500
C  43.47400 37.24600 27.65300
C  43.43000 37.10300 26.23900
C  42.95400 38.42800 25.75900
C  43.78400 36.11200 28.70200
C  43.65700 35.94000 25.35000
O  43.44100 36.03100 24.12200
C  44.17700 34.63300 25.92200
N  41.81800 41.16900 24.82200
C  42.16500 40.13600 23.98400
C  41.97600 40.49000 22.50300
C  41.20000 41.81100 22.57300
C  41.33300 42.24300 24.05400
C  43.33000 40.75800 21.77600
C  39.73800 41.75000 22.08700
C  38.70700 41.04000 23.02200
N  41.05900 42.96900 26.73600
C  40.88700 43.88800 25.76200
C  40.49700 45.16500 26.30500
C  40.51400 44.98900 27.65800
C  40.91200 43.66400 27.93400
C  39.99900 46.29700 25.59100
C  40.27000 45.68200 28.95800
O  39.99800 46.81000 29.18000
C  40.59700 44.69900 30.03100
C  41.60000 45.27500 31.06600
O  42.78600 45.22100 31.09700
O  40.89800 45.80800 32.15500
C  41.81200 46.55600 33.05700
H  43.06500 38.27000 30.10200
H  42.87500 38.21000 23.57700
H  40.54500 44.06800 23.62800
H  42.13700 42.63300 31.89400
H  41.37600 39.73200 31.80100
H  44.20000 40.02200 31.44600
H  43.21900 39.46900 32.93000
H  43.77000 41.12700 32.64700
H  39.64200 40.94700 32.30700
H  39.29200 42.30800 31.34000
H  39.61700 43.84700 33.18200
H  40.92100 42.86100 33.73600
H  42.80500 35.68500 28.91900
H  44.08000 36.61100 29.62400
H  44.50100 35.33600 28.43200
H  45.24100 34.75400 26.12600
H  44.01700 33.99500 25.05200
H  43.57300 34.28100 26.75900
H  41.40500 39.70600 22.00500
H  41.59400 42.68700 22.05700
H  44.16300 40.63400 22.46800
H  43.41700 41.79800 21.46100
H  43.50200 40.00400 21.00800
H  39.64700 41.24000 21.12800
H  39.46900 42.80400 22.02500
H  39.04200 40.85000 24.04200
H  38.34600 40.06200 22.70400
H  37.81900 41.66300 22.91200
H  39.52200 45.91500 24.68900
H  40.74900 47.06400 25.40000
H  39.31000 46.73000 26.31600
H  39.71800 44.70200 30.67500
H  42.58100 47.09500 32.50400
H  42.39300 45.91800 33.72300
H  41.22900 47.30300 33.59700
Mg 8.61100 48.31400 26.12200
C  6.43900 48.75200 28.86600
C  11.25800 49.20900 28.14100
C  10.60100 47.91900 23.52200
C  5.79500 47.66500 24.06300
N  8.83300 48.75800 28.26600
C  7.77000 48.91900 29.18400
C  8.36000 49.37100 30.54200
C  9.89400 49.60400 30.28600
C  10.02200 49.16300 28.77700
C  10.44400 51.06600 30.48700
C  7.90200 48.47300 31.76100
C  8.90800 48.40600 32.96200
H  8.31200 47.75800 34.23300
N  10.65300 48.74400 25.84000
C  11.62000 49.04300 26.80600
C  12.91100 49.05600 26.14700
C  12.69100 48.74600 24.77900
C  11.24400 48.42300 24.68200
C  14.18500 49.41400 26.90100
C  13.71400 48.60100 23.68300
O  13.38200 48.25100 22.58400
C  15.20000 48.73300 24.02800
N  8.15600 48.11300 23.92400
C  9.22700 47.76600 23.13400
C  8.76800 47.14900 21.82000
C  7.23800 47.03000 22.03300
C  7.03200 47.72900 23.37700
C  9.15600 48.02000 20.56400
C  6.76600 45.60600 21.97600
C  7.32100 44.62600 23.04000
N  6.55200 48.13600 26.36600
C  5.55700 47.86800 25.48000
C  4.30100 47.87200 26.16700
C  4.57000 48.27100 27.46300
C  5.97300 48.44900 27.53400
C  2.88500 47.43500 25.55100
C  3.97700 48.58600 28.71900
O  2.85000 48.56300 29.10500
C  5.16000 49.00200 29.65900
C  4.87200 48.28800 30.93800
O  4.74300 47.10700 31.13600
O  4.41900 49.20600 31.84300
C  4.16400 48.66800 33.17000
H  12.10700 49.61900 28.69200
H  11.25100 47.60600 22.70200
H  5.04200 47.06300 23.55000
H  7.78100 50.28900 30.44400
H  10.48000 48.91200 30.89000
H  9.74900 51.63000 31.10900
H  10.54900 51.57800 29.53100
H  11.39000 51.08600 31.02800
H  7.87800 47.43700 31.42500
H  6.93500 48.63100 32.23900
H  9.34600 49.31600 33.37100
H  9.71900 47.73500 32.67900
H  14.02400 49.57900 27.96600
H  14.52700 50.37900 26.52700
H  14.97300 48.66600 26.81700
H  15.54400 47.82700 24.52600
H  15.23900 49.62300 24.65700
H  15.87500 48.83500 23.17800
H  9.23500 46.18100 21.63900
H  6.70300 47.59700 21.27200
H  8.30600 48.43100 20.02000
H  9.72100 47.43500 19.83800
H  9.75500 48.89900 20.80000
H  6.83600 45.21000 20.96300
H  5.69000 45.58800 22.15300
H  6.56300 43.89200 23.31500
H  7.56000 45.12500 23.97900
H  8.16300 44.12000 22.56800
H  3.15400 46.71300 24.78000
H  2.34100 48.36600 25.38900
H  2.41300 46.85500 26.34400
H  4.99000 50.07400 29.75000
H  4.18800 49.56900 33.78300
H  4.87200 47.88800 33.45100
H  3.15200 48.26200 33.16600

