158

Mg 51.55400 45.77200 42.02300
C  48.64900 47.42100 40.98800
C  50.13600 42.89000 41.07900
C  54.64900 44.53200 42.13000
C  52.90300 48.91200 42.94200
N  49.58800 45.25600 41.12900
C  48.49200 46.04700 40.91500
C  47.29800 45.27400 40.45100
C  47.73100 43.83400 40.86100
C  49.25000 43.97500 40.89200
C  47.29000 43.27700 42.22700
C  46.83600 45.39600 38.98900
C  45.25300 45.24600 38.73800
H  44.77900 44.07500 37.89800
N  52.34000 43.94700 41.56100
C  51.58800 42.84600 41.29000
C  52.39500 41.69000 41.37200
C  53.75300 42.18300 41.36700
C  53.67000 43.64500 41.67200
C  51.84300 40.34600 41.06600
C  54.92100 41.32800 41.07100
O  54.85900 40.08900 40.79400
C  56.41200 41.95700 41.07200
N  53.56900 46.71400 42.45100
C  54.67000 45.85300 42.52700
C  55.98800 46.66600 42.93200
C  55.41800 47.99400 43.23900
C  53.86800 47.89100 42.99100
C  56.79500 45.91900 44.05400
C  55.95500 49.15800 42.22300
C  56.37500 50.41200 42.93800
N  50.96300 47.77500 42.10500
C  51.63200 48.94900 42.40600
C  50.78300 50.05200 42.34600
C  49.67400 49.48000 41.65800
C  49.81600 48.12100 41.56200
C  50.92000 51.48900 42.76400
C  48.33500 49.84300 41.15300
O  47.77800 50.94400 41.23600
C  47.69200 48.54300 40.59300
C  46.31000 48.32100 41.01000
O  45.42400 48.52300 40.26100
O  46.20800 48.02700 42.36000
C  44.84200 47.99000 42.84600
H  49.61900 41.93000 41.02100
H  55.66300 44.12800 42.16300
H  53.29200 49.90000 43.19600
H  46.47200 45.51500 41.12000
H  47.34400 43.09600 40.15800
H  46.71900 43.97800 42.83600
H  48.15300 43.13300 42.87700
H  46.76100 42.32400 42.23800
H  47.36600 44.72700 38.31100
H  47.06600 46.38900 38.60300
H  44.83400 46.09200 38.19300
H  44.73500 45.13600 39.69000
H  50.88300 40.16200 41.54900
H  52.55900 39.63300 41.47400
H  51.74800 40.23600 39.98500
H  56.68100 42.27800 42.07900
H  56.40300 42.85900 40.45900
H  57.11400 41.28000 40.58500
H  56.68900 46.62300 42.09900
H  55.67500 48.27500 44.26000
H  56.56300 46.34700 45.02900
H  57.87800 46.02400 43.98900
H  56.58900 44.85500 44.16700
H  55.21900 49.46600 41.48000
H  56.70200 48.74700 41.54400
H  56.25600 50.38400 44.02100
H  55.76300 51.28200 42.69900
H  57.39800 50.62700 42.62900
H  49.99600 51.74400 43.28300
H  51.11700 52.06600 41.86000
H  51.82100 51.58100 43.37100
H  47.71100 48.65300 39.50800
H  44.16000 47.28500 42.37000
H  44.37300 48.96800 42.74700
H  44.85700 47.67100 43.88800
Mg 16.05100 52.23300 26.17400
C  18.06400 51.02100 29.06100
C  13.77200 53.23600 28.63500
C  14.49200 53.63600 23.71100
C  18.75300 51.32700 24.14100
N  15.84900 51.97700 28.47900
C  16.84100 51.59000 29.47900
C  16.37400 51.82200 30.89400
C  14.90400 52.30600 30.72500
C  14.81700 52.54600 29.21200
C  13.82000 51.41600 31.35000
C  17.26800 52.87300 31.66000
C  17.37000 52.86200 33.16300
H  16.44000 51.90700 33.92300
N  14.18500 53.13200 26.14800
C  13.43300 53.50400 27.24100
C  12.28300 54.26900 26.66700
C  12.49100 54.43800 25.27200
C  13.76100 53.75700 24.99700
C  11.07000 54.70100 27.46600
C  11.71400 55.19400 24.22400
O  12.02500 55.27900 23.07400
C  10.34200 55.84800 24.58800
N  16.51300 52.36700 24.29100
C  15.72100 53.04800 23.37600
C  16.39500 53.31700 22.00700
C  17.81700 52.71600 22.22100
C  17.73400 52.13800 23.66700
C  15.72000 52.62200 20.77700
C  18.99000 53.77200 22.11200
C  20.32700 53.44900 21.43800
N  17.89700 51.17100 26.42500
C  18.86800 50.89900 25.49100
C  19.92800 50.18800 26.12700
C  19.70600 50.28400 27.52800
C  18.43400 50.84100 27.66000
C  21.15500 49.70900 25.33900
C  20.26600 49.88000 28.82000
O  21.23400 49.22900 29.13400
C  19.26500 50.54800 29.88200
C  19.14300 49.52400 30.98200
O  18.57000 48.44900 30.92400
O  19.65100 50.14400 32.07700
C  19.54900 49.25800 33.25500
H  13.04200 53.74700 29.26700
H  14.06200 54.16200 22.85600
H  19.56700 51.16100 23.43300
H  16.46000 50.81600 31.30400
H  14.69800 53.29800 31.12600
H  13.51700 50.66200 30.62300
H  13.01000 52.02100 31.75800
H  14.23700 50.89400 32.21200
H  17.14900 53.90900 31.34300
H  18.28800 52.68000 31.32600
H  17.10600 53.89100 33.41000
H  18.37300 52.59100 33.49100
H  11.11900 55.78600 27.55400
H  11.10700 54.32500 28.48800
H  10.13200 54.36500 27.02300
H  9.90500 56.12300 23.62800
H  10.48100 56.71900 25.22800
H  9.64000 55.05700 24.85000
H  16.35600 54.40000 21.88400
H  17.85900 51.88300 21.51900
H  16.44200 52.02400 20.22100
H  15.37400 53.32200 20.01700
H  14.93400 51.99900 21.20300
H  19.21300 54.16100 23.10500
H  18.57000 54.62300 21.57700
H  20.38400 52.37500 21.26400
H  21.11800 53.67700 22.15300
H  20.42900 53.99400 20.50000
H  21.90100 49.79400 26.12900
H  21.29400 50.31600 24.44500
H  20.99400 48.67300 25.04200
H  19.78200 51.45100 30.20800
H  20.32300 48.49400 33.17500
H  18.62400 48.68700 33.33800
H  19.63400 49.78800 34.20400

