158

Mg 2.10500 -1.28000 44.05100
C  5.37200 -0.08600 43.63400
C  0.96300 1.49900 42.25300
C  -0.91800 -2.72200 43.52900
C  3.27200 -4.23700 45.14100
N  3.07200 0.40400 42.90200
C  4.40300 0.81900 43.03700
C  4.66100 2.14400 42.29600
C  3.24800 2.64500 42.01600
C  2.33400 1.43400 42.33100
C  2.90900 3.95900 42.84800
C  5.55100 2.00700 41.09000
C  5.31100 0.81000 40.10100
H  5.77900 0.88500 38.68200
N  0.20100 -0.63600 43.23800
C  -0.04400 0.54200 42.56500
C  -1.47300 0.69100 42.36700
C  -2.05300 -0.56000 42.66300
C  -0.90700 -1.37700 43.14900
C  -2.06000 2.00100 41.82700
C  -3.47000 -0.91200 42.40200
O  -4.21500 -0.00400 42.02500
C  -4.03500 -2.26600 42.56700
N  1.31000 -3.24000 44.25200
C  0.01900 -3.57100 44.09500
C  -0.38800 -4.92900 44.66100
C  0.92900 -5.34100 45.32100
C  1.94600 -4.22800 44.88800
C  -1.64800 -4.84900 45.61200
C  1.33500 -6.73000 44.93100
C  1.67000 -7.67100 46.11400
N  3.87400 -2.01500 44.51800
C  4.29100 -3.23100 45.02500
C  5.66800 -3.28700 45.29100
C  6.13400 -2.12000 44.69600
C  5.05500 -1.32000 44.30300
C  6.47500 -4.38300 45.98200
C  7.36100 -1.35500 44.35300
O  8.49600 -1.65000 44.49800
C  6.82900 0.03100 43.72200
C  7.23400 0.99300 44.67800
O  7.23800 0.88300 45.90600
O  7.36300 2.15900 43.95800
C  7.39800 3.46800 44.70700
H  0.62900 2.47800 41.90200
H  -1.86900 -3.21600 43.31800
H  3.61500 -5.17000 45.59300
H  5.10100 2.77100 43.07100
H  3.11800 2.95200 40.97800
H  3.79200 4.51600 43.16300
H  2.39000 3.74500 43.78200
H  2.21700 4.56200 42.26000
H  6.58500 2.01000 41.43500
H  5.27600 2.91500 40.55400
H  4.24500 0.61600 40.22000
H  5.92100 -0.03500 40.41700
H  -2.19400 1.98500 40.74500
H  -1.37000 2.84400 41.81000
H  -3.06200 2.23100 42.19100
H  -5.12000 -2.18800 42.50400
H  -3.77600 -2.51300 43.59600
H  -3.58400 -2.92800 41.82800
H  -0.48300 -5.62500 43.82800
H  0.97000 -5.35400 46.41000
H  -2.36600 -4.12200 45.23300
H  -1.33300 -4.49600 46.59400
H  -2.19800 -5.78600 45.71000
H  2.26200 -6.61500 44.36800
H  0.57500 -7.19300 44.30200
H  2.74900 -7.79100 46.22100
H  1.14000 -8.59300 45.87800
H  1.29100 -7.31100 47.07000
H  7.28800 -3.90400 46.52700
H  6.93000 -5.08000 45.27800
H  5.82000 -4.94600 46.64800
H  7.38700 0.16400 42.79500
H  7.97600 3.39200 45.62700
H  6.41600 3.91400 44.86900
H  7.90500 4.08200 43.96200
Mg 1.81200 42.42100 25.48600
C  3.25000 42.63200 28.69100
C  -1.16600 41.22200 26.96200
C  0.57600 41.66900 22.50500
C  4.99300 43.05500 24.17900
N  1.13100 42.01000 27.56200
C  1.87300 42.18300 28.71400
C  1.03500 41.80300 29.88800
C  -0.25700 41.14100 29.30600
C  -0.06800 41.45700 27.80000
C  -0.42100 39.61900 29.64400
C  0.82300 43.18100 30.68400
C  0.69100 43.12100 32.23500
H  0.26300 41.71800 32.68500
N  -0.06200 41.75400 24.79200
C  -1.19400 41.33600 25.56000
C  -2.32600 41.07400 24.65000
C  -1.90800 41.22900 23.31000
C  -0.41900 41.54500 23.45200
C  -3.86600 40.81900 25.17300
C  -2.58800 41.08800 21.95200
O  -2.05800 41.43000 20.87100
C  -3.94900 40.54500 21.93600
N  2.65100 42.35000 23.68000
C  1.99400 41.93500 22.59700
C  2.88500 42.01200 21.36100
C  4.05900 42.88000 21.83300
C  3.94000 42.78900 23.30700
C  3.30300 40.56000 20.94500
C  4.04700 44.35000 21.38500
C  3.29000 45.44700 22.20700
N  3.73800 42.89000 26.28400
C  4.92500 43.17700 25.61700
C  5.95100 43.40000 26.54700
C  5.34100 43.22600 27.77000
C  4.02300 42.93000 27.56100
C  7.42500 43.75900 26.36200
C  5.61600 43.10300 29.18600
O  6.61400 43.38300 29.80700
C  4.24300 42.69100 29.83100
C  4.40100 41.37700 30.52300
O  4.40900 40.28100 30.02100
O  4.66600 41.63700 31.82700
C  5.37800 40.60100 32.55900
H  -2.04400 40.90000 27.52500
H  0.27900 41.41500 21.48500
H  5.98800 43.19400 23.75000
H  1.56000 41.12600 30.56200
H  -1.12900 41.67500 29.68600
H  -1.45900 39.42800 29.91500
H  0.23900 39.38300 30.47900
H  -0.31500 38.98400 28.76400
H  -0.08900 43.60300 30.26100
H  1.60700 43.91500 30.49200
H  -0.11800 43.77200 32.56900
H  1.57500 43.47300 32.76600
H  -3.81400 40.90500 26.25800
H  -4.21700 39.86500 24.78100
H  -4.51800 41.59000 24.76300
H  -4.52200 41.39200 22.31300
H  -3.91800 39.64900 22.55700
H  -4.26000 40.25200 20.93300
H  2.33100 42.46600 20.54000
H  5.04100 42.47700 21.58300
H  2.71000 39.81700 21.47900
H  4.38900 40.46700 20.93200
H  3.00900 40.35100 19.91700
H  3.74300 44.34700 20.33900
H  5.11800 44.53600 21.45200
H  2.59000 45.03200 22.93200
H  2.64600 46.05300 21.57000
H  3.94400 46.11500 22.76700
H  7.91300 43.77400 27.33600
H  7.41500 44.69300 25.80000
H  7.74200 42.96200 25.69000
H  3.91800 43.46100 30.53000
H  5.90000 39.87600 31.93500
H  4.55800 40.08300 33.05600
H  6.04000 41.04600 33.30300

