158

Mg 16.54900 -2.19100 27.10600
C  15.46900 -0.32000 29.94600
C  18.41300 -4.14200 29.27600
C  17.36900 -4.04900 24.53500
C  14.58000 -0.07500 25.13800
N  16.88200 -2.16300 29.40600
C  16.32300 -1.37200 30.32800
C  16.79800 -1.76200 31.72000
C  17.75900 -3.01800 31.47600
C  17.75300 -3.05200 29.95900
C  19.17800 -2.85600 32.02600
C  15.68500 -2.05200 32.82100
C  16.06800 -1.71700 34.23200
H  17.58000 -1.33200 34.58100
N  17.76200 -3.75300 26.90200
C  18.42200 -4.44900 27.90300
C  19.09000 -5.64700 27.33800
C  18.67400 -5.68100 26.03000
C  17.89300 -4.44500 25.73800
C  19.96300 -6.69500 28.19300
C  19.06600 -6.69200 24.97300
O  18.57800 -6.68900 23.85600
C  19.98900 -7.83100 25.38500
N  16.10600 -2.03100 25.13000
C  16.62600 -2.92100 24.23600
C  16.36500 -2.49600 22.80700
C  15.31900 -1.34900 23.00300
C  15.23800 -1.16000 24.50000
C  17.61400 -2.05700 22.01500
C  13.92900 -1.59400 22.32800
C  12.85200 -2.35100 22.98700
N  15.30100 -0.55600 27.39300
C  14.59000 0.23300 26.51800
C  13.88600 1.29600 27.13600
C  14.14800 1.07800 28.55000
C  15.07300 -0.00400 28.66300
C  12.98100 2.28700 26.45100
C  13.75700 1.55200 29.89500
O  13.05300 2.38100 30.35700
C  14.71400 0.65800 30.85600
C  15.56100 1.62000 31.54400
O  16.23600 2.49600 31.08000
O  15.32200 1.58400 32.88500
C  15.92000 2.61200 33.81400
H  19.02000 -4.80100 29.90100
H  17.57000 -4.66200 23.65400
H  14.01900 0.60900 24.49700
H  17.42400 -0.92000 32.01200
H  17.33700 -3.95100 31.84800
H  19.30200 -3.66300 32.74800
H  19.32100 -1.92100 32.56900
H  19.95100 -2.85800 31.25800
H  15.51400 -3.12800 32.79500
H  14.69200 -1.63800 32.65300
H  15.65200 -2.53900 34.81400
H  15.47400 -0.83500 34.47200
H  20.23000 -6.42600 29.21500
H  20.91700 -6.84800 27.68900
H  19.40700 -7.63200 28.17900
H  19.51000 -8.56000 26.03900
H  20.92200 -7.36000 25.69300
H  20.20800 -8.35000 24.45200
H  15.87900 -3.33700 22.31200
H  15.67100 -0.37700 22.65800
H  17.72500 -2.47600 21.01500
H  18.46600 -2.48600 22.54400
H  17.80600 -0.98700 21.93700
H  14.03900 -2.03800 21.33900
H  13.50300 -0.60800 22.14100
H  12.13900 -1.81200 23.61100
H  13.34500 -3.01800 23.69400
H  12.30700 -3.03300 22.33400
H  12.29600 1.68700 25.85100
H  13.63400 2.92600 25.85800
H  12.27900 2.82600 27.08800
H  14.03800 0.11400 31.51600
H  16.83600 2.19500 34.23200
H  15.15600 2.85800 34.55100
H  16.16100 3.49300 33.21900
Mg -12.95700 15.90900 41.98300
C  -9.82500 14.22000 41.77500
C  -11.40700 18.61400 40.45000
C  -15.95000 17.16900 41.66300
C  -14.24700 12.85800 42.92300
N  -10.83600 16.33400 41.16500
C  -9.77800 15.54400 41.18600
C  -8.57000 16.22900 40.57300
C  -9.03700 17.68900 40.40100
C  -10.53000 17.55900 40.64100
C  -8.42100 18.63400 41.47700
C  -7.96200 15.51400 39.33100
C  -6.46400 15.33800 39.24200
H  -5.71900 16.02500 38.08700
N  -13.59300 17.70000 41.20700
C  -12.82500 18.71500 40.57600
C  -13.69600 19.80700 40.25900
C  -15.03400 19.38200 40.52500
C  -14.92300 18.04000 41.17300
C  -13.12600 21.11500 39.62900
C  -16.31000 20.11700 40.15400
O  -16.19400 21.16700 39.51900
C  -17.69000 19.57300 40.40500
N  -14.81600 15.05500 42.09700
C  -15.92900 15.81800 42.00400
C  -17.24200 15.10400 42.32900
C  -16.72100 13.63900 42.47100
C  -15.14200 13.85900 42.49100
C  -18.03200 15.62700 43.57700
C  -17.13700 12.73300 41.37900
C  -17.08400 11.15600 41.54000
N  -12.26200 13.97200 42.51800
C  -12.88400 12.80400 42.88700
C  -11.94900 11.68600 43.16700
C  -10.73200 12.29500 42.82000
C  -10.97300 13.61100 42.37700
C  -12.17900 10.29400 43.46300
C  -9.28300 11.97300 42.62600
O  -8.59700 11.03000 42.96000
C  -8.73700 13.16600 41.76900
C  -7.58800 13.54700 42.58200
O  -7.67900 13.89800 43.78100
O  -6.46500 13.58700 41.73400
C  -5.19800 13.95400 42.36500
H  -10.96100 19.52700 40.05000
H  -16.93600 17.63200 41.73300
H  -14.70400 11.93500 43.28400
H  -7.90300 16.20300 41.43500
H  -8.73600 18.11700 39.44500
H  -7.73100 19.29200 40.94800
H  -8.02300 18.05900 42.31300
H  -9.17300 19.29500 41.90800
H  -8.10500 16.14000 38.45000
H  -8.52400 14.60500 39.11900
H  -6.24700 14.27000 39.23200
H  -6.08700 15.61900 40.22500
H  -12.52200 20.99800 38.72900
H  -12.60000 21.70700 40.37700
H  -13.83000 21.87200 39.28100
H  -18.45300 20.30600 40.14300
H  -17.85300 19.51900 41.48100
H  -17.88100 18.58800 39.97700
H  -17.87900 15.15700 41.44600
H  -17.04100 13.17300 43.40300
H  -19.05100 15.88600 43.29000
H  -17.53600 16.50300 43.99400
H  -18.02800 14.90400 44.39200
H  -16.41600 13.04400 40.62300
H  -18.13500 13.07400 41.10200
H  -16.21700 10.75700 41.01500
H  -17.95400 10.73000 41.04000
H  -17.05500 10.87300 42.59200
H  -13.11100 10.25400 44.02700
H  -11.43200 9.93800 44.17300
H  -12.32100 9.68500 42.57100
H  -8.39200 12.74700 40.82300
H  -4.52600 14.14500 41.52900
H  -4.79900 13.11000 42.92700
H  -5.36900 14.77800 43.05800

