158

Mg 16.55500 -1.33800 27.93200
C  15.27700 0.54300 30.73600
C  18.61900 -3.02800 29.95400
C  17.60100 -2.81000 25.17500
C  14.53000 0.83800 25.95000
N  16.98100 -1.10100 30.10700
C  16.31200 -0.41100 31.04500
C  16.85100 -0.68900 32.45300
C  17.94100 -1.76800 32.21700
C  17.88500 -1.99900 30.67000
C  19.37900 -1.33800 32.63800
C  15.62000 -1.28500 33.36500
C  15.30900 -0.70400 34.75000
H  16.32500 0.15600 35.46400
N  17.75400 -2.77000 27.64300
C  18.57600 -3.36700 28.56400
C  19.38800 -4.42500 27.97800
C  19.13500 -4.35700 26.60200
C  18.14500 -3.27600 26.42100
C  20.24100 -5.37800 28.83200
C  19.94700 -5.01200 25.46500
O  19.68400 -4.80200 24.29400
C  20.93100 -6.06000 25.85700
N  16.16300 -0.88000 25.84400
C  16.71000 -1.75500 24.95700
C  16.37000 -1.24800 23.53100
C  15.06500 -0.34100 23.79400
C  15.26300 -0.07800 25.26500
C  17.50900 -0.48700 22.79300
C  13.71700 -1.09200 23.51100
C  12.67400 -0.11500 22.91200
N  15.33100 0.45800 28.21400
C  14.55800 1.14500 27.31900
C  13.64000 2.02800 27.98600
C  13.87700 1.86900 29.33500
C  14.92800 0.90300 29.44700
C  12.69400 3.06900 27.40500
C  13.55500 2.30400 30.67400
O  12.82800 3.17500 31.03400
C  14.45400 1.41800 31.63800
C  15.32800 2.42000 32.23700
O  16.43900 2.80900 31.82800
O  14.80300 2.90200 33.39700
C  15.66600 3.88800 34.02900
H  19.22100 -3.65500 30.61500
H  17.86800 -3.42300 24.31100
H  13.84100 1.49500 25.41600
H  17.23100 0.21900 32.92100
H  17.74700 -2.74900 32.65000
H  19.98600 -1.45400 31.74100
H  19.66600 -1.92700 33.50900
H  19.52300 -0.28300 32.87200
H  15.62500 -2.36900 33.48300
H  14.76000 -1.32200 32.69600
H  15.08100 -1.60300 35.32200
H  14.38900 -0.12100 34.80400
H  19.85100 -6.39600 28.84400
H  20.34100 -5.23500 29.90800
H  21.28600 -5.37700 28.52100
H  21.78200 -5.60800 26.36800
H  21.30900 -6.38900 24.88900
H  20.44900 -6.86600 26.41000
H  16.17300 -2.15000 22.95200
H  15.21200 0.54800 23.18100
H  17.06900 0.45100 22.45300
H  17.77100 -1.14200 21.96200
H  18.38700 -0.32100 23.41700
H  13.32200 -1.77600 24.26100
H  13.87300 -1.81400 22.70900
H  11.91400 -0.84900 22.64600
H  12.97400 0.54700 22.09900
H  12.26800 0.47400 23.73500
H  11.86600 2.93300 28.10100
H  12.30400 2.73300 26.44500
H  13.19900 4.03500 27.37000
H  13.82600 0.95500 32.39800
H  16.13400 4.57400 33.32200
H  16.45800 3.39800 34.59400
H  15.05300 4.35300 34.80100
Mg -1.46400 33.78300 26.98000
C  -3.48200 32.65800 29.59100
C  0.03000 35.91700 29.16700
C  -0.02100 35.39000 24.43600
C  -3.50500 32.03700 24.78200
N  -1.64200 34.16800 29.13400
C  -2.59500 33.60900 29.97600
C  -2.31300 33.93900 31.40300
C  -1.24900 35.13800 31.23100
C  -1.01500 35.19600 29.71600
C  -1.60700 36.47800 31.86100
C  -1.76000 32.71800 32.26100
C  -1.19800 33.15300 33.62500
H  -1.73900 32.59800 34.84000
N  -0.01000 35.28500 26.82300
C  0.54100 36.00700 27.83800
C  1.48800 36.89300 27.38500
C  1.47000 36.90600 25.96700
C  0.44600 35.87100 25.65600
C  2.34600 37.75800 28.36400
C  2.29500 37.60400 24.91700
O  2.20400 37.44700 23.75400
C  3.42100 38.48900 25.29700
N  -1.74800 33.70000 24.88400
C  -0.99500 34.45100 24.07300
C  -1.12800 34.05300 22.60100
C  -2.18000 32.89200 22.74200
C  -2.52300 32.85000 24.16100
C  -1.53700 35.20100 21.62300
C  -1.87200 31.51700 21.99700
C  -0.43700 31.08500 21.58900
N  -3.02200 32.52600 27.14800
C  -3.77700 31.92600 26.17500
C  -4.80500 31.07400 26.75200
C  -4.69400 31.36300 28.09400
C  -3.66900 32.26500 28.25900
C  -5.62800 30.05600 26.00000
C  -5.30800 30.93100 29.31600
O  -6.27200 30.18300 29.53500
C  -4.60000 31.85000 30.36200
C  -5.58700 32.69700 31.03900
O  -6.13000 33.70400 30.58900
O  -5.83500 32.20000 32.28800
C  -7.07300 32.68900 32.91000
H  0.48000 36.63900 29.85200
H  0.57600 35.75000 23.59500
H  -4.13900 31.49200 24.08000
H  -3.21500 34.40400 31.80100
H  -0.34000 34.85500 31.76200
H  -2.56100 36.50200 32.38700
H  -1.83200 37.20800 31.08400
H  -0.77500 36.84200 32.46400
H  -0.97100 32.28900 31.64400
H  -2.48200 31.93400 32.49000
H  -1.23000 34.24200 33.60200
H  -0.12200 32.97800 33.60200
H  2.33200 37.22700 29.31600
H  1.86700 38.72600 28.50800
H  3.37200 37.88700 28.02100
H  4.18400 37.89400 25.79900
H  3.01100 39.19600 26.01800
H  3.84400 39.04800 24.46200
H  -0.15200 33.78300 22.19800
H  -3.12000 33.26600 22.33800
H  -0.71100 35.37400 20.93300
H  -1.71300 36.11700 22.18700
H  -2.44100 35.01200 21.04400
H  -2.48300 31.59200 21.09800
H  -2.29800 30.72600 22.61300
H  0.33500 31.78700 21.90300
H  -0.36700 31.13100 20.50200
H  -0.23700 30.06000 21.90200
H  -6.54700 30.32900 25.48100
H  -5.68900 29.25200 26.73400
H  -5.05300 29.68700 25.15100
H  -4.14600 31.14400 31.05600
H  -7.63700 33.46200 32.38800
H  -6.70700 33.16100 33.82200
H  -7.57700 31.78800 33.26200

