158

Mg 25.92300 -0.15400 29.37800
C  27.69900 -0.15400 32.29700
C  23.05600 0.17300 31.19900
C  24.29300 -0.55000 26.44900
C  28.86400 -0.63700 27.56100
N  25.45600 0.15100 31.48500
C  26.37400 0.06700 32.53500
C  25.67500 0.25800 33.90500
C  24.15600 0.24000 33.57200
C  24.19300 0.20100 31.99200
C  23.37100 -0.92800 34.27600
C  26.24400 1.58600 34.54400
C  26.94700 1.50500 35.97700
H  26.69300 2.50900 37.12800
N  23.95200 -0.19200 28.92700
C  22.89900 -0.04500 29.77900
C  21.67300 -0.04000 29.00200
C  22.02000 -0.12300 27.60800
C  23.52100 -0.29800 27.63900
C  20.26500 0.07800 29.62900
C  21.04700 -0.16300 26.43600
O  21.41000 -0.37400 25.29000
C  19.59000 0.08100 26.69100
N  26.45900 -0.51800 27.20200
C  25.59200 -0.59000 26.21300
C  26.22200 -0.67700 24.78100
C  27.73300 -0.74300 25.18200
C  27.70300 -0.65700 26.74600
C  25.69200 -1.85900 23.89600
C  28.72900 0.26000 24.52200
C  28.40300 1.71400 24.71900
N  27.83400 -0.51500 29.84100
C  28.99600 -0.66000 28.99600
C  30.22200 -0.66500 29.79300
C  29.74300 -0.47400 31.09700
C  28.30400 -0.39100 31.06900
C  31.67100 -0.85000 29.22000
C  30.15200 -0.35600 32.48000
O  31.29000 -0.31400 32.94400
C  28.88100 -0.07200 33.26100
C  28.82500 -1.18600 34.25000
O  28.33200 -2.30100 34.03000
O  29.38400 -0.79400 35.44100
C  29.44800 -1.80300 36.48700
H  22.12100 0.36800 31.72900
H  23.64100 -0.84700 25.62500
H  29.79900 -0.74200 27.00700
H  26.00600 -0.62000 34.45900
H  23.69900 1.17800 33.88700
H  22.98100 -1.70800 33.62200
H  22.47700 -0.48100 34.71100
H  23.94000 -1.44400 35.04900
H  25.44000 2.31100 34.67500
H  26.97300 2.02900 33.86600
H  27.96500 1.72500 35.65800
H  26.92700 0.44400 36.22600
H  19.74800 -0.83600 29.33800
H  19.79100 1.04000 29.43100
H  20.29200 -0.08900 30.70600
H  19.06700 0.34800 25.77200
H  19.47600 1.02400 27.22600
H  19.09500 -0.68100 27.29300
H  26.10400 0.22000 24.17300
H  28.06300 -1.75500 24.94500
H  26.54200 -2.49500 23.64700
H  25.19500 -1.59300 22.96300
H  24.98100 -2.37800 24.53800
H  28.64000 0.06000 23.45400
H  29.75900 0.07400 24.82600
H  27.34100 1.93500 24.61600
H  29.05600 2.23400 24.01800
H  28.78700 2.15500 25.63900
H  32.38000 -0.34400 29.87500
H  31.77400 -0.39500 28.23500
H  31.91600 -1.90500 29.10700
H  29.02700 0.88100 33.77200
H  28.96900 -1.43400 37.39300
H  30.50200 -1.93900 36.73200
H  29.00300 -2.76900 36.24900
Mg 35.84400 1.65900 29.13700
C  33.72500 2.79400 31.78700
C  38.37300 1.64400 31.34300
C  37.75200 0.92500 26.51300
C  33.11500 2.26000 26.92800
N  35.95600 1.98400 31.32900
C  34.97700 2.48000 32.18400
C  35.50500 2.56900 33.61700
C  37.04800 2.23400 33.43500
C  37.14300 1.86400 31.97800
C  37.92400 3.53000 33.71600
C  34.75500 1.49300 34.51500
C  34.42800 1.97200 35.93500
H  35.26900 3.01600 36.66800
N  37.82400 1.28800 28.93800
C  38.67300 1.31300 29.99800
C  39.94500 0.87200 29.52700
C  39.89600 0.82600 28.11200
C  38.46100 1.02500 27.73700
C  41.08300 0.68000 30.48100
C  40.96100 0.63100 27.16800
O  40.72400 0.55900 25.98600
C  42.37800 0.50100 27.55000
N  35.42200 1.56700 26.94500
C  36.39500 1.11200 26.07600
C  35.86200 1.27200 24.60900
C  34.34600 1.54400 24.81900
C  34.25400 1.79100 26.35100
C  36.61200 2.30500 23.82700
C  33.38400 0.50000 24.19300
C  32.97400 -0.78200 24.92200
N  33.90500 2.39100 29.29500
C  32.91200 2.56000 28.33200
C  31.68400 2.96500 28.92600
C  31.93900 3.11600 30.32000
C  33.26100 2.73000 30.44400
C  30.33800 3.15300 28.22100
C  31.37900 3.53800 31.63000
O  30.28400 4.04000 31.88600
C  32.55400 3.26100 32.62600
C  32.59400 4.52600 33.46800
O  33.15000 5.59000 33.18400
O  31.80200 4.41600 34.57900
C  31.55100 5.64200 35.33600
H  39.25000 1.73500 31.98700
H  38.31200 0.66400 25.61200
H  32.23300 2.43100 26.30800
H  35.26600 3.57900 33.94900
H  37.49100 1.49500 34.10300
H  38.46900 3.89200 32.84400
H  38.69800 3.20800 34.41300
H  37.44000 4.37600 34.20400
H  35.29000 0.54800 34.61400
H  33.81200 1.26900 34.01600
H  34.39600 1.15300 36.65400
H  33.45300 2.45900 35.92300
H  41.66600 -0.20700 30.23000
H  40.99700 0.70800 31.56700
H  41.68500 1.58600 30.42100
H  43.05500 0.29500 26.72100
H  42.42800 -0.32900 28.25500
H  42.66500 1.41800 28.06400
H  36.01500 0.30900 24.12200
H  34.09200 2.48000 24.32200
H  36.04400 3.20200 23.57600
H  36.97300 1.81500 22.92300
H  37.53800 2.59200 24.32400
H  33.70800 0.21900 23.19000
H  32.43900 1.00300 23.98900
H  33.58400 -0.99800 25.79900
H  33.21000 -1.65500 24.31300
H  31.97500 -0.72700 25.35200
H  30.10100 2.20700 27.73500
H  30.49300 3.81200 27.36600
H  29.62000 3.52400 28.95300
H  32.11300 2.50800 33.27800
H  30.47900 5.73000 35.51000
H  31.87500 6.58000 34.88400
H  32.01400 5.49600 36.31200

