158

Mg 1.70100 8.91600 27.38900
C  2.30000 11.01200 30.00100
C  1.64800 6.36100 29.51300
C  1.21100 6.95600 24.61200
C  1.85500 11.70000 25.16000
N  2.11000 8.74900 29.48900
C  2.01900 9.73300 30.39300
C  1.91000 9.27000 31.82000
C  2.18900 7.71900 31.68700
C  1.94300 7.56200 30.13800
C  3.61600 7.19100 32.02800
C  0.56100 9.67200 32.47000
C  0.64800 9.64000 34.00700
H  1.94100 9.02900 34.75700
N  1.49100 6.94200 27.11800
C  1.45000 5.98700 28.14400
C  1.18600 4.71100 27.62500
C  1.08000 4.84000 26.16700
C  1.25300 6.35300 25.93700
C  1.28600 3.45200 28.54800
C  0.89600 3.74500 25.12100
O  0.76000 4.05200 23.90900
C  1.03300 2.35900 25.44000
N  1.61300 9.27200 25.29700
C  1.47200 8.27800 24.35400
C  1.81600 8.78100 22.95800
C  1.46900 10.31800 23.16700
C  1.73400 10.43700 24.64700
C  3.31600 8.59000 22.46800
C  0.05600 10.69200 22.89500
C  -0.29100 11.58300 21.67800
N  2.21500 10.92400 27.45400
C  2.21100 11.99600 26.54700
C  2.52400 13.20400 27.10700
C  2.58800 12.90800 28.49900
C  2.36900 11.48900 28.69500
C  2.71500 14.66200 26.43600
C  2.81500 13.48900 29.81900
O  3.09200 14.60400 30.22300
C  2.50400 12.27900 30.89700
C  3.61700 12.19500 31.91900
O  4.62600 11.56700 31.80200
O  3.23000 12.84800 33.06200
C  3.99500 12.78000 34.28400
H  1.55500 5.49400 30.17100
H  1.11500 6.22200 23.80900
H  1.83900 12.52200 24.44200
H  2.71500 9.74500 32.38000
H  1.39800 7.04200 32.01000
H  4.05600 7.77100 32.84000
H  4.32500 7.19700 31.20100
H  3.62300 6.14100 32.32100
H  -0.19600 9.00200 32.06300
H  0.43000 10.71600 32.18600
H  -0.26100 9.31400 34.51200
H  0.77100 10.71700 34.12700
H  0.86500 2.56700 28.07100
H  0.74700 3.60500 29.48300
H  2.34200 3.38600 28.80800
H  1.81700 2.18800 26.17600
H  1.23300 1.77500 24.54100
H  0.06900 2.10500 25.88000
H  1.11200 8.25500 22.31200
H  2.16200 10.88000 22.54100
H  3.68100 7.79900 23.12200
H  3.83000 9.53100 22.66600
H  3.30600 8.14100 21.47500
H  -0.30900 11.31900 23.70900
H  -0.57000 9.80300 22.81800
H  0.59600 11.59100 21.04500
H  -0.55800 12.56300 22.07300
H  -1.13700 11.16900 21.12900
H  3.77600 14.90600 26.48500
H  2.22500 15.48500 26.95600
H  2.46900 14.68800 25.37400
H  1.59800 12.64600 31.38000
H  3.33400 12.53500 35.11500
H  4.59100 13.67400 34.46900
H  4.67400 11.93100 34.20300
Mg 46.12400 24.41600 28.58900
C  46.99800 26.71600 31.11600
C  45.83900 22.02400 30.99600
C  45.50500 22.18700 26.07800
C  47.21000 26.74300 26.24000
N  46.19800 24.46200 30.78200
C  46.53500 25.51200 31.56800
C  46.42900 25.12400 33.04300
C  46.52900 23.51700 33.03500
C  46.10600 23.30400 31.51400
C  47.92300 22.92900 33.44700
C  45.12800 25.69100 33.61500
C  45.37700 26.84000 34.64800
H  44.68700 26.75500 35.99000
N  45.58000 22.39800 28.59200
C  45.54300 21.57400 29.72800
C  45.29500 20.18600 29.27100
C  45.33300 20.23100 27.79000
C  45.46200 21.60300 27.40200
C  45.39300 19.00300 30.18500
C  45.38900 18.99600 26.82000
O  45.44600 19.07800 25.59400
C  45.48900 17.65500 27.41200
N  46.38600 24.42300 26.52800
C  45.96200 23.48200 25.69800
C  46.17600 23.80800 24.19300
C  46.49800 25.28700 24.30500
C  46.71100 25.50900 25.74900
C  47.30500 22.83000 23.67600
C  45.37400 26.14300 23.74500
C  45.72400 27.39000 23.00500
N  47.02300 26.25900 28.58900
C  47.34300 27.11300 27.56000
C  47.67600 28.42700 28.04900
C  47.57600 28.30400 29.45600
C  47.18800 26.98600 29.71100
C  48.17500 29.52500 27.25000
C  47.77400 28.96200 30.78700
O  48.30400 30.04500 30.95000
C  47.37400 27.98400 31.91500
C  48.66000 27.74000 32.75100
O  49.60500 27.29700 32.25000
O  48.56400 28.17900 34.05300
C  49.78000 28.07200 34.85500
H  45.82700 21.30100 31.81400
H  45.24600 21.54100 25.23700
H  47.47900 27.42100 25.42700
H  47.29400 25.52300 33.57200
H  45.77200 23.06100 33.67300
H  48.30000 22.34700 32.60600
H  47.69400 22.40500 34.37500
H  48.63300 23.75400 33.51500
H  44.48100 24.94800 34.08200
H  44.54600 26.01700 32.75300
H  44.83400 27.69600 34.24700
H  46.45600 26.94600 34.76900
H  45.49400 19.30600 31.22800
H  46.31500 18.42700 30.11000
H  44.49000 18.39400 30.16400
H  46.46800 17.56400 27.88200
H  45.46800 16.88100 26.64400
H  44.63800 17.43600 28.05700
H  45.17900 23.64800 23.78200
H  47.41800 25.50900 23.76400
H  48.22300 23.41000 23.58900
H  47.04100 22.60000 22.64400
H  47.31700 21.92100 24.27800
H  44.66000 26.34200 24.54400
H  44.90900 25.58500 22.93300
H  45.59500 27.30300 21.92600
H  46.80400 27.52400 23.07500
H  45.20200 28.24900 23.42600
H  47.71300 29.45900 26.26500
H  49.25900 29.50000 27.14200
H  47.82200 30.43100 27.74200
H  46.56800 28.22800 32.60700
H  49.57100 27.56200 35.79500
H  50.02900 29.11800 35.03200
H  50.59800 27.60600 34.30700

