158

Mg 40.55600 9.85100 30.12100
C  42.41000 10.79500 32.95100
C  38.26800 8.20200 32.22000
C  39.03600 8.54100 27.45600
C  43.09700 11.09700 28.13400
N  40.47600 9.47500 32.34900
C  41.24900 10.08500 33.32300
C  40.60200 10.07500 34.74500
C  39.29800 9.10700 34.47900
C  39.36500 8.90300 32.92300
C  39.14400 7.89600 35.34500
C  40.17100 11.54600 35.03800
C  39.49800 11.76000 36.34300
H  40.13400 12.46300 37.52600
N  38.85400 8.49300 29.82000
C  38.04800 8.00300 30.82000
C  36.91500 7.20700 30.21400
C  37.16500 7.19400 28.76100
C  38.36900 8.14000 28.59600
C  35.76200 6.72900 31.08800
C  36.51600 6.49300 27.65300
O  36.81000 6.60900 26.45300
C  35.45200 5.51100 27.91700
N  40.88200 9.96800 28.03300
C  40.11400 9.34100 27.14400
C  40.77100 9.38400 25.76900
C  42.02400 10.25200 25.93900
C  42.03400 10.49300 27.44100
C  41.03400 8.01900 25.16200
C  42.05200 11.58700 25.02800
C  43.15000 11.50700 24.00100
N  42.36400 10.72200 30.42000
C  43.29500 11.21800 29.48800
C  44.42400 11.87300 30.12600
C  44.11900 11.76600 31.50400
C  42.90800 10.99600 31.63900
C  45.60100 12.40100 29.41900
C  44.57500 11.99800 32.89500
O  45.48500 12.69900 33.32500
C  43.38700 11.41900 33.84600
C  44.05900 10.35400 34.76700
O  44.46100 9.25500 34.46600
O  43.87400 10.78500 36.09200
C  44.08800 9.82100 37.20100
H  37.41900 7.92300 32.84700
H  38.49700 8.11500 26.60700
H  43.83400 11.52300 27.45000
H  41.23700 9.67800 35.53700
H  38.41400 9.72700 34.62800
H  38.08200 7.66100 35.41000
H  39.54500 8.30900 36.27100
H  39.61400 7.01700 34.90500
H  39.55100 11.99300 34.26000
H  41.12700 12.06100 35.13000
H  39.19200 10.75400 36.62800
H  38.58600 12.34900 36.25000
H  35.79800 5.64100 31.13600
H  34.85400 7.13000 30.63700
H  35.75200 7.04700 32.13000
H  34.89300 5.10100 27.07600
H  34.77000 5.91800 28.66300
H  35.93700 4.61500 28.30600
H  40.06700 9.92900 25.14000
H  42.88500 9.64700 25.65300
H  40.59600 7.28100 25.83300
H  42.08900 7.75200 25.09700
H  40.58600 7.93300 24.17100
H  42.24600 12.38000 25.75000
H  41.04500 11.69400 24.62300
H  43.03700 10.48900 23.63100
H  44.14700 11.66200 24.41300
H  42.91500 12.30100 23.29200
H  46.45100 12.69300 30.03600
H  45.32200 13.23600 28.77700
H  46.03200 11.64600 28.76100
H  43.10200 12.28100 34.44900
H  43.38900 9.94500 38.02700
H  45.10000 9.99700 37.56800
H  43.99300 8.80100 36.82800
Mg 36.01100 49.90900 24.72400
C  36.18100 48.11200 27.74500
C  34.63000 52.52500 26.40700
C  35.39700 51.44200 21.67500
C  36.71900 46.89400 23.06800
N  35.68800 50.37400 26.87800
C  35.70900 49.47400 27.88400
C  35.40700 50.19500 29.23700
C  34.73800 51.57700 28.77400
C  35.01500 51.49500 27.24200
C  33.25100 51.77000 29.22700
C  36.60200 50.33800 30.13500
C  36.50900 49.90700 31.62200
H  35.07600 49.63100 32.17200
N  35.20200 51.76500 24.15500
C  34.75400 52.69500 24.98500
C  34.43400 53.96600 24.31300
C  34.73800 53.69900 22.96000
C  35.07500 52.25900 22.85300
C  33.82500 55.21300 24.96700
C  34.68300 54.70300 21.84100
O  34.94700 54.42800 20.65600
C  34.40800 56.16200 21.95100
N  36.03900 49.26100 22.74000
C  35.85600 50.11900 21.68500
C  36.19400 49.36900 20.36400
C  36.66700 48.01100 20.84100
C  36.45000 48.00000 22.33500
C  34.96200 49.24400 19.43700
C  38.11000 47.78500 20.46200
C  39.19000 48.76800 20.96200
N  36.43000 47.96100 25.23600
C  36.68800 46.84500 24.50000
C  37.11400 45.70200 25.32900
C  36.94300 46.20700 26.56400
C  36.41600 47.48500 26.45700
C  37.61400 44.29200 25.01000
C  37.04600 45.86800 27.97400
O  37.42200 44.85300 28.52600
C  36.46500 47.09200 28.83200
C  35.36600 46.63400 29.66300
O  34.18800 46.87600 29.42700
O  35.84800 45.84500 30.72800
C  34.92800 45.16100 31.63200
H  34.32900 53.43100 26.93600
H  35.39000 51.99800 20.73600
H  37.00500 45.97800 22.54700
H  34.64200 49.57300 29.70000
H  35.35200 52.39500 29.15100
H  32.74800 51.00900 29.82400
H  32.73700 51.95300 28.28300
H  33.20400 52.70900 29.77800
H  37.00600 51.35100 30.14300
H  37.31800 49.65500 29.67700
H  36.94800 50.62900 32.31000
H  37.11300 49.00100 31.67700
H  34.61700 55.71700 25.52100
H  33.09000 54.88900 25.70400
H  33.28200 55.83700 24.25700
H  34.83400 56.77600 21.15800
H  34.92000 56.56900 22.82300
H  33.35100 56.42500 21.99800
H  36.87900 50.07200 19.88900
H  36.13900 47.14900 20.43100
H  34.32900 50.13100 19.40400
H  34.32000 48.39900 19.68800
H  35.35100 49.13900 18.42400
H  38.04800 47.93700 19.38500
H  38.53200 46.80300 20.67600
H  39.89300 48.25500 21.61900
H  38.78600 49.64400 21.46900
H  39.69900 49.19600 20.09900
H  36.97400 43.61100 25.57100
H  38.65700 44.00700 25.15300
H  37.53100 44.11900 23.93700
H  37.32000 47.43600 29.41400
H  33.99200 44.88100 31.15000
H  34.74900 45.79600 32.49900
H  35.41500 44.24000 31.95400

