158

Mg 1.11300 7.78600 26.54000
C  1.62900 9.70100 29.45100
C  0.83900 4.93300 28.53000
C  0.62600 5.94400 23.79900
C  1.51700 10.66000 24.56700
N  1.39500 7.40700 28.75500
C  1.44400 8.34100 29.77900
C  1.20300 7.65700 31.18200
C  1.40900 6.21200 30.83800
C  1.18800 6.14600 29.24600
C  2.78100 5.59200 31.28700
C  -0.25300 8.07300 31.65300
C  -0.35700 8.43700 33.14000
H  0.92600 8.31900 33.98400
N  0.76500 5.71200 26.25100
C  0.62800 4.67900 27.17700
C  0.02200 3.53600 26.49400
C  -0.15200 3.87200 25.11500
C  0.44500 5.20600 25.00700
C  -0.51100 2.32100 27.20900
C  -0.65500 2.99500 24.00900
O  -0.50200 3.29600 22.86500
C  -1.43900 1.78300 24.34900
N  1.40900 8.21000 24.42200
C  1.06800 7.25300 23.49900
C  1.16300 7.84600 22.10500
C  1.13700 9.32700 22.33500
C  1.36400 9.44600 23.88500
C  2.34300 7.38300 21.25500
C  -0.24100 10.05900 21.95000
C  -0.04100 11.10600 20.91900
N  1.49600 9.77500 26.84200
C  1.70600 10.81900 25.93400
C  2.02200 12.00100 26.69400
C  2.03000 11.61300 28.04100
C  1.67500 10.29100 28.11000
C  2.44100 13.25800 26.08600
C  2.26900 12.03700 29.38100
O  2.75500 13.08200 29.79100
C  1.89000 10.87300 30.32400
C  3.05600 10.71900 31.19200
O  4.05900 10.11000 30.87300
O  2.86200 11.40200 32.37100
C  4.08500 11.42800 33.16000
H  0.53600 4.05800 29.10900
H  0.35600 5.41600 22.88300
H  1.50700 11.58600 23.98900
H  1.97700 8.00100 31.86900
H  0.60600 5.60300 31.25400
H  2.58300 4.68200 31.85400
H  3.34400 6.39000 31.77200
H  3.39700 5.30300 30.43600
H  -0.96700 7.25000 31.64800
H  -0.71900 8.84400 31.03800
H  -1.10700 7.76100 33.55000
H  -0.74400 9.44200 33.30800
H  -0.21400 1.38100 26.74600
H  -1.59400 2.37100 27.09300
H  -0.07700 2.27200 28.20700
H  -1.83700 1.26000 23.48000
H  -2.20500 1.90000 25.11600
H  -0.58200 1.19600 24.67900
H  0.25800 7.46500 21.63100
H  2.04400 9.81700 21.98000
H  2.25900 6.29700 21.20400
H  3.26800 7.69800 21.73700
H  2.31200 7.79000 20.24400
H  -0.55100 10.52300 22.88600
H  -1.04100 9.42500 21.56700
H  0.95300 10.95400 20.49600
H  -0.00600 12.11600 21.32800
H  -0.73700 11.17400 20.08300
H  3.46000 13.24600 25.69800
H  2.32000 14.02100 26.85500
H  1.67900 13.41600 25.32400
H  1.02700 11.35100 30.78800
H  4.21700 10.43900 33.59800
H  3.96900 12.09500 34.01500
H  4.94500 11.73600 32.56300
Mg -10.30400 16.89100 40.95000
C  -6.84400 16.18400 41.05000
C  -9.49900 20.17300 40.33700
C  -13.56300 17.50000 40.32300
C  -10.90500 13.52500 40.70800
N  -8.40400 17.94000 40.68800
C  -7.09200 17.50100 40.86200
C  -6.06400 18.53600 40.36100
C  -6.86500 19.78000 40.64300
C  -8.34500 19.31300 40.54400
C  -6.65200 20.47700 41.93900
C  -5.61000 18.41700 38.79800
C  -4.08400 18.40400 38.33700
H  -3.57600 17.00100 37.79600
N  -11.44600 18.65700 40.62300
C  -10.88400 19.89000 40.32000
C  -12.00300 20.85500 40.20900
C  -13.09900 20.12700 40.28600
C  -12.83500 18.72100 40.47700
C  -11.84800 22.35200 39.73000
C  -14.57500 20.70500 40.10800
O  -14.77900 21.91000 39.97500
C  -15.74600 19.80000 40.17500
N  -12.00100 15.61800 40.59300
C  -13.20000 16.13100 40.30800
C  -14.22100 14.95300 39.97200
C  -13.36900 13.63600 40.07700
C  -12.04700 14.30300 40.52600
C  -15.40200 14.87200 40.92800
C  -13.18000 12.92900 38.67600
C  -13.19800 11.40000 38.68200
N  -9.15600 15.18200 40.97400
C  -9.55200 13.85700 40.96900
C  -8.41100 12.93500 41.06600
C  -7.35900 13.81900 41.09500
C  -7.84900 15.16500 41.05000
C  -8.37400 11.35900 41.16700
C  -5.82700 13.85500 41.25000
O  -4.98600 12.99400 41.39800
C  -5.48300 15.39000 41.19100
C  -4.72700 15.85000 42.35000
O  -3.79800 16.61000 42.38000
O  -5.30000 15.27200 43.42300
C  -4.63200 15.51400 44.69200
H  -9.22600 21.20700 40.11700
H  -14.62900 17.59800 40.10700
H  -11.03200 12.49800 40.36200
H  -5.20700 18.56500 41.03400
H  -6.59300 20.57600 39.95000
H  -5.93100 19.95100 42.56500
H  -7.60900 20.57100 42.45300
H  -6.19700 21.46000 41.81400
H  -6.10500 19.17900 38.19700
H  -5.99800 17.41600 38.61000
H  -3.37800 18.78400 39.07500
H  -4.00400 19.10100 37.50300
H  -10.81300 22.40400 39.39000
H  -11.85400 23.00000 40.60700
H  -12.44200 22.79900 38.93400
H  -15.80800 19.16800 39.28800
H  -16.65100 20.38000 40.35300
H  -15.62800 19.12100 41.02000
H  -14.58400 15.14200 38.96200
H  -13.72800 12.95800 40.85100
H  -15.39000 15.73600 41.59300
H  -15.48000 13.94600 41.49800
H  -16.33400 14.91900 40.36600
H  -12.25800 13.27900 38.21300
H  -14.01100 13.16700 38.01200
H  -14.12200 11.20600 38.13600
H  -13.27400 10.98200 39.68600
H  -12.42900 10.82800 38.16400
H  -7.36700 11.00100 40.95200
H  -9.14400 10.90500 40.54300
H  -8.43400 11.14600 42.23400
H  -4.74400 15.45000 40.39200
H  -5.08400 16.35200 45.22200
H  -3.55300 15.55300 44.54200
H  -4.86200 14.65800 45.32600

