158

Mg 42.76600 41.98100 26.34300
C  41.84000 43.99000 28.81600
C  44.10700 39.74000 28.52800
C  43.95600 40.16500 23.63700
C  41.66200 44.43300 23.93500
N  42.87500 41.85700 28.44900
C  42.26000 42.74600 29.30800
C  42.38600 42.21600 30.78900
C  43.19300 40.91700 30.65800
C  43.34700 40.76800 29.11200
C  44.51500 40.84200 31.42700
C  40.91900 42.22200 31.48800
C  40.76900 41.43600 32.77100
H  39.84300 41.99300 33.86500
N  43.81600 40.23100 26.09600
C  44.35700 39.50800 27.14600
C  44.95400 38.33900 26.56600
C  44.89300 38.34200 25.19100
C  44.21500 39.64400 24.94200
C  45.60000 37.34500 27.44300
C  45.40500 37.39200 24.15800
O  45.18600 37.56600 22.99900
C  46.11000 36.20900 24.62800
N  42.76200 42.23100 24.08600
C  43.32600 41.29600 23.20200
C  42.98100 41.60000 21.72500
C  42.01600 42.86500 21.88500
C  42.08700 43.20200 23.39000
C  44.24000 41.93000 20.88000
C  40.55900 42.68500 21.38400
C  39.51200 42.22700 22.45100
N  41.85700 43.81300 26.36000
C  41.65400 44.76400 25.38200
C  41.19600 45.97800 26.05300
C  41.22400 45.69200 27.44200
C  41.66100 44.37300 27.51800
C  40.70100 47.29400 25.45200
C  40.88800 46.22800 28.74600
O  40.39600 47.30300 29.08900
C  41.44500 45.13300 29.67500
C  42.67800 45.55900 30.48800
O  43.87200 45.51900 30.11300
O  42.29700 45.90000 31.73400
C  43.43100 46.28300 32.59800
H  44.58700 39.07900 29.25300
H  44.37200 39.70700 22.73700
H  41.26800 45.28800 23.38300
H  42.93200 42.95500 31.37600
H  42.53100 40.10200 30.95100
H  44.81000 41.79600 31.86500
H  45.29000 40.56300 30.71200
H  44.64000 40.06300 32.17900
H  40.13100 42.02000 30.76300
H  40.67500 43.22600 31.83500
H  41.74300 41.14700 33.16600
H  40.24400 40.52700 32.47800
H  46.61500 37.11900 27.11500
H  45.08200 36.40400 27.25900
H  45.75900 37.61400 28.48700
H  46.23500 35.55000 23.76900
H  45.46600 35.72300 25.36000
H  47.04600 36.48700 25.11200
H  42.39400 40.73800 21.40900
H  42.55800 43.62100 21.31800
H  45.17700 42.01400 21.43200
H  44.15600 42.77700 20.20000
H  44.23400 41.01400 20.28800
H  40.50700 42.06500 20.48900
H  40.18900 43.64100 21.01500
H  39.04000 43.03800 23.00600
H  39.97900 41.49900 23.11500
H  38.80800 41.50200 22.04400
H  40.65600 47.26300 24.36400
H  41.36300 48.10300 25.76200
H  39.69400 47.53100 25.79500
H  40.61500 44.94300 30.35500
H  43.64200 47.35200 32.61000
H  44.36600 45.74700 32.43300
H  43.23300 46.17900 33.66500
Mg 9.96900 47.78400 26.05000
C  8.20900 47.67400 28.88500
C  12.48400 49.30700 27.76400
C  11.85000 47.74500 23.21100
C  7.30800 46.49300 24.27500
N  10.17000 48.46600 28.04200
C  9.42500 48.21800 29.09200
C  9.92800 48.77200 30.38700
C  11.06500 49.65200 29.87600
C  11.29200 49.08000 28.45000
C  10.82000 51.21100 29.86200
C  10.36700 47.74500 31.49500
C  9.79100 47.72400 32.90900
H  9.77200 46.36800 33.65100
N  11.89500 48.37500 25.55700
C  12.83500 48.85600 26.42500
C  14.07600 48.94500 25.77000
C  13.98000 48.35700 24.45300
C  12.53000 48.13400 24.34700
C  15.38900 49.46800 26.43900
C  15.03300 48.06300 23.28000
O  14.71700 47.74600 22.15100
C  16.45900 48.29400 23.51900
N  9.50400 47.59600 23.96100
C  10.47300 47.46800 23.04700
C  9.94100 47.28400 21.59700
C  8.59600 46.51200 21.93400
C  8.42500 46.82700 23.47700
C  9.77800 48.61500 20.87600
C  8.75400 45.06500 21.50200
C  9.94200 44.34500 22.21100
N  8.07700 47.33700 26.44200
C  7.09400 46.82300 25.64000
C  5.87400 46.66000 26.29700
C  6.24400 46.93300 27.65500
C  7.60300 47.30300 27.65400
C  4.51400 46.24800 25.84400
C  5.79500 47.05300 29.03100
O  4.67100 46.94500 29.53400
C  7.11400 47.35000 29.89200
C  7.39800 46.06100 30.59600
O  8.12600 45.19000 30.16500
O  6.75600 46.01200 31.83700
C  6.89500 44.77300 32.57000
H  13.21500 49.81200 28.39800
H  12.42000 47.69900 22.28100
H  6.50800 45.99800 23.72000
H  9.13700 49.39200 30.81000
H  12.00200 49.44700 30.39300
H  9.89000 51.39600 30.40000
H  10.76900 51.61000 28.84900
H  11.64400 51.72200 30.36000
H  11.45300 47.76200 31.58300
H  10.17000 46.82300 30.94700
H  8.83600 48.25000 32.92700
H  10.48800 48.32200 33.49600
H  15.10600 49.67500 27.47100
H  15.85200 50.31200 25.92800
H  16.11100 48.65200 26.47900
H  17.07100 48.36900 22.62000
H  16.85400 47.54200 24.20200
H  16.47900 49.26800 24.00800
H  10.60300 46.68800 20.97000
H  7.68800 46.93300 21.50100
H  10.29700 49.36700 21.47000
H  8.76000 48.96600 20.70600
H  10.22900 48.52100 19.88800
H  8.98900 45.00300 20.43900
H  7.81900 44.56500 21.75500
H  10.42100 43.62300 21.55000
H  9.50100 43.79200 23.04000
H  10.75000 44.97900 22.57700
H  3.73900 46.76000 26.41400
H  4.37100 45.18100 26.02000
H  4.38000 46.50400 24.79300
H  6.89200 48.14400 30.60600
H  7.01600 45.04100 33.61900
H  7.67000 44.08400 32.23200
H  5.92700 44.32000 32.35500

