158

Mg 35.89600 1.80000 29.32600
C  33.90200 3.15400 31.81200
C  38.64700 1.99600 31.60400
C  38.07500 1.55900 26.72300
C  33.34000 2.36700 27.06000
N  36.18900 2.39600 31.50400
C  35.18100 2.84200 32.27800
C  35.67700 2.89900 33.74800
C  37.26800 2.80800 33.65800
C  37.37800 2.37300 32.16400
C  38.13400 4.03500 33.99700
C  34.99900 1.88600 34.69300
C  34.27300 2.46200 35.89200
H  35.05200 3.49000 36.67000
N  38.00500 1.49800 29.23100
C  38.92800 1.62000 30.24600
C  40.21000 1.21200 29.72600
C  40.10600 1.21800 28.26900
C  38.67200 1.36800 27.96600
C  41.44400 0.85700 30.56200
C  41.17200 1.13300 27.26300
O  40.92800 1.22100 26.09600
C  42.56000 1.29100 27.62400
N  35.70300 1.81200 27.18900
C  36.77300 1.66100 26.35500
C  36.33900 1.58300 24.89000
C  34.78600 1.56400 25.03000
C  34.54400 1.88100 26.50400
C  36.95400 2.72700 23.98600
C  34.14600 0.24300 24.64500
C  33.24600 0.08400 23.33900
N  34.04600 2.56000 29.38000
C  33.08700 2.70600 28.38900
C  31.90200 3.30700 28.93200
C  32.13800 3.42200 30.29100
C  33.48500 2.96500 30.48800
C  30.62800 3.60900 28.14400
C  31.55700 3.79000 31.54600
O  30.45900 4.27200 31.71700
C  32.69400 3.62800 32.55800
C  32.90500 4.95100 33.26300
O  33.62200 5.84300 32.92600
O  32.04200 5.05000 34.32900
C  32.19800 6.13900 35.26300
H  39.41400 1.87500 32.37200
H  38.58900 1.53600 25.76100
H  32.43500 2.34100 26.45000
H  35.39200 3.92800 33.96500
H  37.60100 2.02200 34.33600
H  37.56500 4.68200 34.66500
H  38.65100 4.47500 33.14300
H  39.00400 3.65900 34.53600
H  35.72200 1.27000 35.22800
H  34.34700 1.21700 34.13300
H  33.93600 1.66500 36.55400
H  33.34500 2.93600 35.57100
H  41.74100 -0.19200 30.56100
H  41.23000 0.99700 31.62100
H  42.28800 1.50700 30.33300
H  42.83700 0.43400 28.23800
H  42.81800 2.21800 28.13600
H  43.14300 1.27500 26.70300
H  36.66000 0.59000 24.57300
H  34.31300 2.37800 24.48000
H  37.95900 2.44400 23.67200
H  37.02100 3.65800 24.54800
H  36.36800 2.96200 23.09700
H  33.44900 -0.08900 25.41400
H  34.94300 -0.49500 24.55600
H  32.20500 0.25200 23.61600
H  33.33300 -0.86900 22.81700
H  33.47200 0.99000 22.77600
H  30.05200 2.71800 27.89400
H  30.79200 4.25700 27.28400
H  30.01900 4.09100 28.90800
H  32.35500 2.84200 33.23300
H  31.26500 6.05300 35.82000
H  32.14700 7.12200 34.79400
H  32.97700 6.02600 36.01700
Mg 36.83900 49.72900 24.60600
C  36.87000 48.00200 27.62600
C  35.67600 52.52800 26.27200
C  36.26600 51.26300 21.61400
C  37.14100 46.73000 22.95600
N  36.18800 50.13300 26.78100
C  36.42800 49.36400 27.82300
C  36.20300 50.06300 29.20000
C  35.65800 51.47700 28.71800
C  35.82100 51.42100 27.16900
C  34.42100 51.92600 29.20400
C  37.47100 50.10300 30.05300
C  37.08700 50.28300 31.54900
H  35.74500 50.22800 32.25700
N  36.01700 51.57600 24.01500
C  35.71000 52.62600 24.85400
C  35.58100 53.83300 24.03200
C  35.68700 53.51500 22.70400
C  36.01100 52.08300 22.72800
C  35.33200 55.15400 24.76800
C  35.63800 54.44100 21.48800
O  35.75200 54.07900 20.35900
C  35.43000 55.89300 21.64300
N  36.73800 49.11500 22.60400
C  36.46700 49.91800 21.52300
C  36.60400 49.19000 20.18500
C  36.66900 47.74200 20.68100
C  36.91200 47.86300 22.17600
C  35.50100 49.32000 19.14300
C  37.74900 46.94800 19.86900
C  39.24300 47.36200 20.07000
N  37.20500 47.80800 25.19400
C  37.31900 46.64000 24.40700
C  37.71600 45.50600 25.23900
C  37.43700 45.96500 26.52200
C  37.15400 47.36700 26.45900
C  38.00000 44.14100 24.75600
C  37.43600 45.64300 27.95500
O  37.60300 44.58900 28.55700
C  37.11500 46.90800 28.70800
C  35.90400 46.50700 29.45900
O  34.82300 46.18900 29.02400
O  36.13300 46.78200 30.81000
C  35.14200 46.23900 31.73200
H  35.44100 53.47300 26.76700
H  36.24100 51.74900 20.63600
H  37.18700 45.79800 22.38800
H  35.38800 49.44600 29.57700
H  36.44500 52.15900 29.03800
H  34.10500 51.28700 30.02800
H  33.65700 51.61000 28.49400
H  34.44700 53.00000 29.38500
H  38.09200 50.97100 29.82800
H  38.07900 49.22800 29.82500
H  37.70900 51.11900 31.86800
H  37.48200 49.36700 31.98800
H  35.27600 56.09000 24.21300
H  36.20000 55.37300 25.39000
H  34.47800 55.19000 25.44400
H  34.44500 55.98000 22.10100
H  35.51600 56.43000 20.69900
H  36.22900 56.26300 22.28500
H  37.55800 49.46800 19.73700
H  35.67800 47.28800 20.65500
H  35.09500 50.32000 19.30000
H  34.68900 48.61700 19.32600
H  35.91800 49.30200 18.13600
H  37.51900 46.77800 18.81700
H  37.74500 45.93300 20.26500
H  39.82600 46.57000 20.54000
H  39.33300 48.12700 20.84200
H  39.77200 47.62600 19.15500
H  38.28800 43.59600 25.65500
H  38.82200 44.08300 24.04300
H  37.06300 43.75100 24.35800
H  38.06400 47.10100 29.20800
H  35.53100 45.24900 31.96800
H  34.12700 46.09200 31.36300
H  35.05300 46.95000 32.55300

