158

Mg 17.08100 -1.12700 28.28600
C  15.67500 1.05000 30.76700
C  19.00100 -2.51700 30.60600
C  18.76300 -2.58200 25.82200
C  15.53700 1.02800 25.90100
N  17.18500 -0.71100 30.42800
C  16.52200 0.05300 31.27500
C  16.92900 -0.05200 32.81500
C  18.26500 -0.92800 32.57700
C  18.14600 -1.48200 31.09700
C  19.59400 -0.27000 32.96000
C  15.78100 -0.67700 33.69300
C  16.15200 -0.92200 35.16900
H  17.52700 -0.49100 35.85600
N  18.57600 -2.43800 28.27100
C  19.22500 -2.94900 29.37300
C  20.04300 -4.07100 28.95000
C  19.79100 -4.23200 27.53300
C  19.02100 -3.03000 27.16500
C  20.82700 -4.96800 29.83400
C  20.31200 -5.33300 26.65900
O  19.90400 -5.46000 25.50500
C  21.22500 -6.51900 27.12400
N  17.03500 -0.93300 26.10700
C  17.88400 -1.60400 25.35000
C  17.78600 -1.24900 23.88600
C  16.88400 0.06500 23.93000
C  16.48900 0.10300 25.40400
C  19.15800 -0.90500 23.33000
C  15.69800 0.00200 22.93500
C  14.41000 -0.54300 23.57300
N  15.69500 0.47200 28.29000
C  15.12100 1.23900 27.27200
C  14.20600 2.24600 27.74900
C  14.39300 2.19200 29.13000
C  15.30800 1.14900 29.40700
C  13.38100 3.19500 26.94400
C  14.08200 2.78300 30.43500
O  13.34100 3.70600 30.69200
C  14.88300 2.08600 31.48600
C  15.81500 3.04200 32.25500
O  16.61400 3.80000 31.71200
O  15.65100 2.89200 33.64500
C  16.59200 3.73100 34.46600
H  19.63600 -2.97900 31.36400
H  19.27900 -3.11500 25.02100
H  15.10200 1.69600 25.15400
H  17.11000 0.96000 33.17500
H  18.19400 -1.65200 33.38900
H  19.55800 0.71000 33.43600
H  20.39800 -0.18600 32.22900
H  20.00100 -0.96000 33.70000
H  15.57400 -1.62700 33.20000
H  14.84600 -0.13400 33.56200
H  16.04400 -1.99100 35.35600
H  15.40800 -0.32900 35.70000
H  20.41500 -5.95100 30.06400
H  20.91000 -4.50300 30.81600
H  21.81300 -4.95400 29.37000
H  20.75500 -7.21200 27.82100
H  22.14700 -6.06200 27.48500
H  21.57100 -6.99800 26.20800
H  17.20800 -2.03700 23.40200
H  17.46100 0.96500 23.71800
H  19.69000 -0.36400 24.11200
H  19.10700 -0.23300 22.47400
H  19.82400 -1.74600 23.13500
H  15.88100 -0.54400 22.00900
H  15.62000 1.03300 22.58900
H  13.80000 -0.94500 22.76400
H  13.76000 0.09800 24.16800
H  14.66900 -1.38900 24.21100
H  12.62300 3.63800 27.58900
H  12.81800 2.67100 26.17200
H  13.98200 4.07600 26.71900
H  14.19900 1.60000 32.18200
H  17.61500 3.62600 34.10400
H  16.37900 3.42100 35.48900
H  16.15800 4.73000 34.50500
Mg 49.83200 44.66200 40.37900
C  46.47400 44.91100 39.22700
C  49.86400 41.44600 39.26200
C  53.15500 44.71900 40.58700
C  49.72800 48.24400 40.69100
N  48.31500 43.39000 39.33000
C  47.05000 43.69000 38.92900
C  46.45900 42.67000 38.06800
C  47.35600 41.37400 38.42700
C  48.60100 42.07400 39.11200
C  46.73100 40.23500 39.37200
C  46.32500 43.02300 36.63800
C  44.99600 42.84400 35.99500
H  44.72400 43.52000 34.57900
N  51.29000 43.22100 40.13200
C  51.09100 41.89100 39.72300
C  52.37300 41.17300 39.75100
C  53.35600 42.10500 40.27300
C  52.64700 43.45400 40.35200
C  52.53300 39.75800 39.39400
C  54.78900 41.84200 40.65900
O  55.20900 40.74300 40.50700
C  55.67700 42.93000 41.24700
N  51.28100 46.26200 40.48800
C  52.57300 45.98800 40.72900
C  53.41500 47.24500 41.03000
C  52.28100 48.35500 41.07800
C  50.99900 47.57800 40.73000
C  54.52700 47.26300 42.13600
C  52.49300 49.68100 40.17800
C  52.09200 51.06100 40.86500
N  48.37800 46.28300 40.23800
C  48.50400 47.65500 40.38700
C  47.20500 48.29300 40.20100
C  46.36800 47.24900 39.82100
C  47.09000 46.05400 39.83100
C  46.75700 49.76300 40.27900
C  45.01400 46.96900 39.32900
O  44.05800 47.64500 39.12700
C  45.10200 45.45200 38.85100
C  43.95900 44.71600 39.48100
O  43.10600 44.16500 38.82000
O  43.85000 45.08300 40.86500
C  42.48000 44.88400 41.51400
H  50.03300 40.38100 39.09000
H  54.24600 44.75000 40.55200
H  49.84100 49.32700 40.76900
H  45.47800 42.40700 38.46300
H  47.70900 40.81800 37.55800
H  46.53800 39.31000 38.83000
H  45.72100 40.51500 39.67400
H  47.29100 40.01600 40.28100
H  47.01800 42.37300 36.10400
H  46.68000 44.01000 36.34300
H  44.18800 43.19100 36.63800
H  45.05300 41.75900 35.90600
H  53.24100 39.52400 38.59800
H  51.62800 39.20600 39.14100
H  52.98600 39.35800 40.30100
H  55.23400 43.35100 42.15000
H  55.96500 43.65000 40.48200
H  56.65900 42.59800 41.58400
H  53.98400 47.37300 40.10900
H  52.07600 48.57700 42.12500
H  54.29400 47.99600 42.90800
H  55.56500 47.36500 41.82100
H  54.46200 46.26600 42.57200
H  51.85900 49.50500 39.30900
H  53.51400 49.89900 39.86400
H  51.49700 50.96400 41.77400
H  51.41200 51.56900 40.18100
H  52.96200 51.68700 41.06500
H  45.93600 49.77100 40.99600
H  46.51800 50.12700 39.28000
H  47.55400 50.40500 40.65400
H  44.91300 45.39500 37.78000
H  42.60600 43.90600 41.97800
H  41.65000 45.05200 40.82800
H  42.48200 45.62100 42.31600

