158

Mg 1.43200 -1.71900 43.38000
C  4.73500 -0.91800 42.75600
C  0.40200 0.78600 41.41700
C  -1.77100 -3.02900 43.61000
C  2.60000 -4.72900 44.90900
N  2.44700 -0.29100 42.12900
C  3.85800 -0.08800 42.12200
C  4.22300 1.32900 41.56500
C  2.81100 1.96100 41.47500
C  1.80000 0.76900 41.65500
C  2.50100 3.34400 42.20500
C  5.01400 1.20900 40.15600
C  6.22200 2.14100 39.84700
H  6.19800 2.98700 38.59300
N  -0.43800 -1.11400 42.66600
C  -0.60600 -0.02600 41.95300
C  -2.02200 0.19400 41.80300
C  -2.74800 -0.96500 42.32800
C  -1.66800 -1.78700 42.88100
C  -2.56600 1.47600 41.20400
C  -4.22400 -1.19100 42.30500
O  -4.97000 -0.40400 41.75800
C  -4.81600 -2.34600 42.96200
N  0.54700 -3.66100 44.12100
C  -0.81500 -3.86500 44.10800
C  -1.12500 -5.17400 44.80800
C  0.26700 -5.62000 45.35000
C  1.24400 -4.61100 44.72800
C  -2.21900 -5.16300 45.92000
C  0.66300 -7.12500 45.02700
C  0.70600 -8.00100 46.29500
N  3.27800 -2.63400 43.78700
C  3.61000 -3.81300 44.48300
C  5.01600 -3.94400 44.55100
C  5.53000 -2.82000 43.93000
C  4.41300 -2.08000 43.45200
C  5.77500 -5.00100 45.28600
C  6.67700 -2.10100 43.58300
O  7.90300 -2.32900 43.86400
C  6.26900 -0.88900 42.80800
C  6.82100 0.36900 43.46400
O  6.86500 0.62000 44.72300
O  7.42200 1.18100 42.48700
C  8.32300 2.30500 42.97000
H  0.07600 1.65900 40.84800
H  -2.76000 -3.48900 43.64400
H  2.81100 -5.60800 45.52200
H  4.79200 1.81700 42.35600
H  2.68300 2.37000 40.47200
H  1.49400 3.35600 42.62300
H  2.57200 4.21400 41.55200
H  3.28700 3.42500 42.95600
H  4.36600 1.38900 39.29700
H  5.33800 0.17400 40.04200
H  7.14300 1.57800 39.69500
H  6.34600 2.82000 40.69000
H  -2.91800 1.14900 40.22500
H  -1.83700 2.28600 41.17200
H  -3.28600 1.89400 41.90800
H  -5.85800 -2.06300 42.81000
H  -4.64300 -2.32800 44.03800
H  -4.54800 -3.31900 42.55000
H  -1.51200 -5.81100 44.01300
H  0.30300 -5.46400 46.42800
H  -2.71200 -4.19100 45.90900
H  -1.76500 -5.52000 46.84400
H  -2.94400 -5.96600 45.79000
H  1.61200 -7.19600 44.49600
H  -0.13900 -7.48700 44.38400
H  -0.26800 -8.44600 46.50300
H  1.10900 -7.42300 47.12600
H  1.47500 -8.74300 46.08200
H  5.54100 -5.81900 44.60500
H  5.30600 -5.33900 46.21000
H  6.82200 -4.70500 45.35300
H  6.58800 -0.98000 41.77000
H  9.24700 2.14200 42.41500
H  8.58900 2.22100 44.02300
H  8.01200 3.29900 42.64900
Mg 26.14500 50.69400 27.60000
C  24.05700 52.05800 29.98900
C  28.27900 49.66900 30.00900
C  28.30200 49.79000 25.18800
C  24.04500 52.05000 25.16000
N  26.10200 50.78200 29.70500
C  25.11100 51.29400 30.52700
C  25.40400 51.04600 32.03000
C  26.88800 50.73400 31.97300
C  27.10600 50.27600 30.46900
C  27.91000 51.83200 32.43000
C  24.50900 50.01900 32.65400
C  24.03300 50.19000 34.14500
H  24.83500 50.88500 35.29900
N  27.94800 49.83900 27.62100
C  28.66400 49.34500 28.72200
C  29.93500 48.77500 28.33600
C  30.04300 48.86800 26.87300
C  28.70600 49.49700 26.49300
C  31.01900 48.12200 29.27400
C  31.18800 48.41400 25.98400
O  31.09200 48.41900 24.78600
C  32.50900 47.94500 26.49800
N  26.27500 51.09600 25.47200
C  27.26800 50.53200 24.64100
C  26.92700 50.67200 23.16300
C  25.47700 51.37500 23.13700
C  25.21500 51.46500 24.68600
C  27.99000 51.36700 22.25900
C  24.38800 50.66900 22.35800
C  23.96900 49.23800 22.70100
N  24.35000 51.68500 27.48300
C  23.65800 52.15500 26.48800
C  22.54900 52.98500 26.91100
C  22.73400 53.02200 28.32000
C  23.78900 52.18400 28.60300
C  21.57500 53.72300 26.09700
C  22.19000 53.47900 29.58500
O  21.29500 54.26800 29.84000
C  23.03000 52.83200 30.74200
C  23.70600 53.90800 31.56000
O  24.68700 54.56100 31.25500
O  22.89800 54.23400 32.68000
C  23.52400 54.91800 33.85200
H  28.97400 49.34100 30.78400
H  28.91700 49.46600 24.34500
H  23.40000 52.41600 24.35900
H  25.37100 52.05500 32.44000
H  27.08500 49.82300 32.53700
H  28.59000 52.12300 31.62900
H  28.50500 51.33500 33.19600
H  27.42800 52.71100 32.85800
H  24.92400 49.01700 32.54400
H  23.59000 49.85800 32.08900
H  23.88200 49.14300 34.40900
H  23.12600 50.79400 34.17000
H  30.40100 47.82500 30.12200
H  31.77700 48.84700 29.57200
H  31.53800 47.25300 28.87000
H  32.92000 48.71900 27.14600
H  33.14800 47.88500 25.61700
H  32.47900 46.91400 26.85000
H  26.83300 49.64900 22.79800
H  25.60700 52.42500 22.87200
H  27.51500 52.19700 21.73500
H  28.25000 50.61800 21.51100
H  28.84100 51.82000 22.76700
H  24.67600 50.70000 21.30700
H  23.52900 51.31500 22.54100
H  24.28500 48.62800 21.85400
H  22.88900 49.12400 22.60300
H  24.35000 48.83400 23.63900
H  22.09600 54.59000 25.69200
H  20.68600 54.01000 26.65800
H  21.28900 53.00300 25.33000
H  22.46500 52.18300 31.41200
H  23.75400 55.97300 33.70400
H  24.42400 54.32800 34.02600
H  22.91600 54.80100 34.74900

