158

Mg 1.34200 -1.58900 43.52400
C  4.71700 -0.92700 42.90200
C  0.56500 1.03400 41.58500
C  -1.85800 -2.63500 43.58100
C  2.30300 -4.62000 44.91700
N  2.54100 -0.24500 42.26100
C  3.92400 -0.11100 42.14200
C  4.37900 1.00800 41.17600
C  3.03000 1.77100 41.03000
C  1.92100 0.77500 41.65800
C  2.85800 3.23300 41.69400
C  4.88600 0.41400 39.87200
C  6.27200 0.88500 39.28700
H  6.42000 0.96600 37.78900
N  -0.42800 -0.81200 42.72900
C  -0.56100 0.28400 42.01300
C  -1.94200 0.54100 41.77000
C  -2.67900 -0.48500 42.28800
C  -1.67700 -1.37500 43.02400
C  -2.34400 1.70400 40.86300
C  -4.17800 -0.68100 42.13700
O  -4.88900 -0.01100 41.38500
C  -4.98700 -1.77600 42.89600
N  0.35500 -3.39100 44.14500
C  -0.95700 -3.55600 44.09700
C  -1.37700 -4.98400 44.55300
C  -0.07500 -5.64200 44.92700
C  0.91300 -4.48700 44.61900
C  -2.64200 -5.16500 45.52300
C  0.14600 -7.09800 44.52900
C  -0.67300 -8.17600 45.19200
N  3.10100 -2.54700 44.02500
C  3.34700 -3.78600 44.63900
C  4.78400 -3.99800 44.84500
C  5.36400 -2.87500 44.23800
C  4.31500 -1.99700 43.80100
C  5.47400 -5.18500 45.49200
C  6.65800 -2.20600 43.88600
O  7.79500 -2.45600 44.30700
C  6.27900 -1.00000 42.99300
C  7.10000 0.21900 43.39400
O  7.86700 0.76700 42.61700
O  7.17300 0.42400 44.82300
C  8.11800 1.50500 45.20400
H  0.37200 1.90400 40.95300
H  -2.87400 -3.01600 43.46200
H  2.57800 -5.54900 45.42200
H  5.09700 1.63600 41.70300
H  2.76200 1.87500 39.97800
H  3.61400 3.48400 42.43800
H  1.90500 3.38000 42.20100
H  3.00400 4.05000 40.98700
H  4.17500 0.54200 39.05600
H  5.00100 -0.66000 40.01300
H  7.05600 0.21600 39.64400
H  6.40200 1.91100 39.62900
H  -1.86900 1.50600 39.90200
H  -1.96100 2.61400 41.32400
H  -3.43200 1.77000 40.85400
H  -6.01800 -1.45200 43.04100
H  -4.60000 -2.02600 43.88400
H  -4.86500 -2.71900 42.36400
H  -1.77800 -5.49900 43.68000
H  -0.01300 -5.77500 46.00700
H  -2.92400 -4.15600 45.82300
H  -2.11600 -5.68900 46.32100
H  -3.45600 -5.68900 45.02100
H  1.21400 -7.23500 44.69600
H  0.05500 -7.20800 43.44800
H  -1.24000 -8.72400 44.43800
H  -1.22300 -7.88200 46.08600
H  0.12800 -8.88100 45.41300
H  6.43000 -4.95500 45.96200
H  5.55600 -5.97000 44.74000
H  4.90200 -5.59000 46.32700
H  6.67300 -1.31000 42.02500
H  7.75800 2.51200 44.99600
H  9.06400 1.48200 44.66300
H  8.34100 1.43500 46.26900
Mg -0.19800 6.67800 26.95600
C  0.91100 9.12000 29.15700
C  -0.81600 4.51300 29.48000
C  -1.23000 4.56200 24.58900
C  1.19500 8.67700 24.28500
N  0.20300 6.74300 29.10600
C  0.48600 7.88500 29.82600
C  0.47900 7.67200 31.30400
C  0.33200 6.12100 31.34900
C  -0.18400 5.74900 29.92000
C  1.56000 5.20600 31.70100
C  -0.69900 8.46200 32.04600
C  -0.70000 8.55200 33.66600
H  0.56700 8.19800 34.35000
N  -0.87300 4.76200 27.03900
C  -1.26800 4.07800 28.16700
C  -1.99400 2.83700 27.80600
C  -2.05900 2.83300 26.37800
C  -1.35900 4.09300 25.91900
C  -2.59000 1.92800 28.95800
C  -2.82400 1.85600 25.56100
O  -2.90000 1.96900 24.36700
C  -3.56100 0.63000 26.16400
N  0.12400 6.53500 24.79900
C  -0.56500 5.60700 24.07700
C  -0.66500 6.07100 22.59500
C  0.25300 7.24300 22.47800
C  0.61800 7.48800 23.91200
C  -0.46800 4.94300 21.61500
C  -0.45000 8.45400 21.78700
C  0.42400 9.40400 20.91800
N  0.78200 8.56100 26.71300
C  1.24400 9.27400 25.57300
C  1.66700 10.61200 26.04600
C  1.54800 10.60600 27.40900
C  1.11000 9.33300 27.74400
C  2.08300 11.70200 25.15100
C  1.62000 11.45900 28.59500
O  1.94000 12.62600 28.69400
C  1.17600 10.53700 29.79400
C  2.29500 10.40800 30.78400
O  3.39300 9.93500 30.55100
O  1.96000 10.87100 32.04100
C  3.02400 10.89600 33.05200
H  -1.04300 3.76400 30.24100
H  -1.55200 3.84900 23.82600
H  1.35200 9.41000 23.49100
H  1.40700 8.04300 31.73900
H  -0.50400 5.86600 32.00100
H  1.59900 4.34300 31.03700
H  1.34800 4.78100 32.68200
H  2.51200 5.73600 31.73200
H  -1.58600 7.88400 31.78900
H  -0.79500 9.46600 31.63300
H  -1.45400 7.83600 33.99300
H  -0.93600 9.54200 34.05600
H  -2.11400 0.94900 29.00100
H  -3.67700 1.84900 28.91200
H  -2.40800 2.29200 29.96900
H  -2.79800 -0.01900 26.59300
H  -3.92300 0.12900 25.26600
H  -4.39800 0.74500 26.85300
H  -1.73300 6.23600 22.45200
H  1.11100 7.01100 21.84600
H  -1.22400 4.16800 21.48600
H  0.50400 4.48000 21.78500
H  -0.35100 5.43400 20.64900
H  -0.73300 9.00400 22.68400
H  -1.36500 8.13200 21.29000
H  1.26100 8.79700 20.57200
H  0.60500 10.31600 21.48800
H  -0.21000 9.64800 20.06600
H  3.10400 12.02200 25.35900
H  1.48400 12.59500 25.32500
H  2.07200 11.37400 24.11100
H  0.32000 10.92100 30.34900
H  3.81500 11.51800 32.63300
H  3.38900 9.96700 33.49000
H  2.57800 11.58800 33.76600

