158

Mg 25.66400 0.13000 29.18700
C  27.77700 -0.64700 31.95600
C  23.06800 0.59300 31.24800
C  23.90500 0.45000 26.49900
C  28.50400 -0.87600 27.17200
N  25.51500 0.02400 31.31800
C  26.48900 -0.22300 32.33100
C  25.96600 -0.07600 33.76900
C  24.47500 0.38000 33.43000
C  24.30600 0.30800 31.90100
C  23.39900 -0.27900 34.29000
C  26.77600 1.00700 34.65300
C  27.48100 0.56200 35.85000
H  27.36400 1.45900 37.06900
N  23.78700 0.51200 28.88700
C  22.83200 0.74200 29.84400
C  21.56300 1.05300 29.17900
C  21.88000 1.23200 27.81500
C  23.22800 0.67000 27.65300
C  20.26200 1.31200 30.04000
C  21.06000 1.75900 26.64300
O  21.48000 1.94000 25.50900
C  19.59900 1.94400 26.89800
N  26.19100 -0.06700 27.11200
C  25.22300 0.17300 26.18200
C  25.78000 0.02600 24.71500
C  27.30600 -0.09600 24.99100
C  27.37400 -0.32100 26.51600
C  25.02700 -1.09300 23.95400
C  28.17100 1.12700 24.50200
C  28.07100 2.45900 25.35200
N  27.65400 -0.92500 29.43900
C  28.68700 -1.18500 28.54600
C  29.87000 -1.72200 29.23800
C  29.53600 -1.54000 30.61200
C  28.21900 -0.96000 30.63500
C  31.14000 -2.27100 28.61000
C  30.04100 -1.66200 32.01500
O  31.14800 -1.98200 32.41900
C  28.82800 -1.09000 32.88700
C  28.48700 -2.12100 33.85600
O  27.61600 -2.93300 33.87400
O  29.37600 -1.98500 34.86000
C  29.13900 -2.74400 36.08800
H  22.19700 0.83400 31.86000
H  23.28300 0.73800 25.64800
H  29.32500 -1.19600 26.52700
H  25.82500 -1.01300 34.30600
H  24.33600 1.44400 33.61700
H  22.94100 -1.03000 33.64700
H  22.65200 0.50700 34.40400
H  23.70500 -0.69700 35.24900
H  26.05000 1.72500 35.03400
H  27.42000 1.58900 33.99400
H  28.51300 0.44700 35.51900
H  26.99600 -0.38900 36.06800
H  20.00700 2.37100 30.01100
H  20.33300 0.83500 31.01700
H  19.44000 0.82300 29.51800
H  19.15100 2.12300 25.92000
H  19.67500 2.90600 27.40600
H  19.15500 1.08200 27.39400
H  25.68600 0.95400 24.15100
H  27.60500 -1.05100 24.55900
H  24.09000 -1.12700 24.50900
H  25.54500 -2.05000 24.01200
H  24.66600 -0.92000 22.94000
H  27.93500 1.42700 23.48100
H  29.18400 0.75200 24.65100
H  27.35200 2.40500 26.16900
H  27.70600 3.22600 24.66900
H  29.02200 2.82900 25.73500
H  32.04900 -1.94700 29.11700
H  31.12800 -2.02200 27.54800
H  31.07300 -3.35100 28.47900
H  29.20600 -0.23600 33.45000
H  29.37000 -3.80300 35.97500
H  28.08400 -2.90600 36.30900
H  29.60000 -2.29500 36.96700
Mg -10.28500 40.90600 42.74100
C  -9.39500 37.61500 41.74600
C  -7.38500 42.06300 41.48100
C  -11.42100 43.92600 43.13900
C  -13.43100 39.56300 43.46000
N  -8.62000 39.96300 41.62400
C  -8.41000 38.59300 41.40400
C  -7.15300 38.40000 40.52300
C  -6.48400 39.83000 40.57100
C  -7.51100 40.68200 41.30600
C  -5.18400 39.86000 41.32700
C  -7.31100 37.83400 39.07400
C  -6.55000 36.49900 38.72600
H  -5.37500 36.59300 37.74300
N  -9.52800 42.67000 42.31200
C  -8.28000 42.99200 41.86500
C  -8.07800 44.42400 41.77700
C  -9.22800 44.96500 42.35700
C  -10.10900 43.89400 42.65600
C  -6.77900 45.02000 41.44800
C  -9.37000 46.45200 42.69700
O  -8.64500 47.28100 42.15100
C  -10.37700 46.93600 43.70200
N  -12.23700 41.61700 42.99500
C  -12.34600 42.90500 43.38700
C  -13.69400 43.14200 44.09800
C  -14.42400 41.78300 43.83600
C  -13.28700 40.92200 43.46200
C  -13.64100 43.60900 45.58100
C  -15.48400 41.81800 42.72500
C  -16.90100 41.66700 43.26100
N  -11.21700 38.95300 42.87600
C  -12.51200 38.60600 43.04500
C  -12.72600 37.22700 42.93600
C  -11.42800 36.73200 42.52900
C  -10.60800 37.86200 42.35400
C  -14.06600 36.43500 43.02200
C  -10.71500 35.52400 42.15700
O  -11.00300 34.32300 42.12200
C  -9.35700 36.12800 41.47900
C  -8.28800 35.38000 42.05400
O  -7.84400 35.39300 43.18200
O  -7.78900 34.55800 41.09400
C  -6.80900 33.56700 41.40700
H  -6.45600 42.48800 41.09600
H  -11.88300 44.91300 43.21500
H  -14.45500 39.19600 43.56300
H  -6.55600 37.66500 41.06300
H  -6.39200 40.20500 39.55200
H  -4.81600 38.83400 41.35400
H  -5.36100 40.28200 42.31700
H  -4.44700 40.49400 40.83400
H  -7.00500 38.63300 38.39800
H  -8.37600 37.60800 39.02600
H  -7.31400 35.88600 38.24800
H  -6.25400 35.99400 39.64500
H  -7.07900 45.89700 40.87500
H  -6.20000 44.38900 40.77400
H  -6.16700 45.27300 42.31400
H  -9.88300 47.79800 44.15100
H  -10.48700 46.19700 44.49500
H  -11.26600 47.13800 43.10400
H  -14.22100 43.90300 43.52400
H  -14.82400 41.37800 44.76500
H  -14.25900 44.48400 45.78300
H  -12.60300 43.90000 45.74200
H  -13.79600 42.90700 46.39900
H  -15.21400 40.96500 42.10300
H  -15.44600 42.67100 42.04700
H  -17.47000 42.39700 42.68500
H  -16.92500 41.90100 44.32500
H  -17.28500 40.66700 43.05700
H  -14.86700 36.83900 42.40300
H  -14.28100 36.26000 44.07600
H  -13.80700 35.45800 42.61200
H  -9.54900 35.95200 40.42100
H  -6.48900 33.72200 42.43800
H  -5.95900 33.66400 40.73200
H  -7.31500 32.60200 41.39000

