158

Mg 0.94900 7.68300 25.41200
C  1.37200 9.91700 28.13100
C  1.05400 5.03600 27.52400
C  0.42700 5.88100 22.77800
C  1.36000 10.67100 23.27700
N  1.00300 7.50100 27.60600
C  1.09100 8.56400 28.55000
C  1.17000 7.98700 29.96100
C  1.18900 6.40300 29.74200
C  1.10700 6.28900 28.22400
C  2.46000 5.69600 30.31800
C  0.00300 8.44000 30.85300
C  0.42300 8.81100 32.24200
H  1.54600 7.95500 32.95000
N  0.60800 5.73800 25.19800
C  0.78500 4.76900 26.19100
C  0.61300 3.48800 25.59200
C  0.35300 3.65500 24.20500
C  0.39400 5.14700 23.98300
C  0.64900 2.19800 26.37300
C  0.19200 2.55700 23.14500
O  0.11700 2.87100 21.99800
C  0.19900 1.06200 23.54700
N  1.01400 8.24400 23.27000
C  0.59600 7.26400 22.47000
C  0.60000 7.83200 20.94800
C  0.86200 9.31800 21.16800
C  1.02600 9.43800 22.69400
C  1.65700 7.10100 20.10400
C  -0.21500 10.28400 20.50600
C  -1.56800 10.51900 21.29300
N  1.36300 9.80000 25.58100
C  1.50300 10.87300 24.63900
C  1.64600 12.20900 25.31900
C  1.63000 11.87300 26.71000
C  1.48400 10.40900 26.78200
C  1.92700 13.63100 24.63300
C  1.84500 12.41800 28.05800
O  2.08900 13.57600 28.37700
C  1.64700 11.19900 29.03300
C  2.94400 11.10400 29.78700
O  4.07000 11.29600 29.28100
O  2.73700 11.05300 31.14200
C  3.83200 11.51800 31.99000
H  1.15000 4.12900 28.12400
H  0.23000 5.32400 21.86000
H  1.51000 11.58800 22.70400
H  2.03400 8.42000 30.46500
H  0.27200 5.93200 30.09700
H  2.77500 6.36200 31.12300
H  3.24300 5.69800 29.56000
H  2.19700 4.72700 30.74100
H  -0.73000 7.63800 30.77300
H  -0.33000 9.37300 30.39800
H  -0.44000 8.94800 32.89300
H  0.85700 9.80900 32.29400
H  -0.28800 1.64200 26.31600
H  0.66700 2.29500 27.45900
H  1.38800 1.51300 25.95700
H  -0.55300 0.80000 24.29300
H  1.16100 0.75800 23.95900
H  -0.12200 0.65400 22.58900
H  -0.42200 7.73800 20.58100
H  1.88800 9.50100 20.84900
H  1.04700 6.40100 19.53200
H  2.50200 6.67100 20.64100
H  2.16100 7.79100 19.42600
H  -0.55400 9.75900 19.61200
H  0.39600 11.18000 20.39500
H  -1.70100 11.58500 21.47600
H  -1.55100 10.11700 22.30600
H  -2.42900 10.09600 20.77400
H  0.95700 14.12500 24.58300
H  2.27100 13.55700 23.60100
H  2.56200 14.25400 25.26300
H  0.89200 11.39500 29.79400
H  3.73600 11.09900 32.99100
H  3.82000 12.60800 31.96200
H  4.83000 11.27300 31.62600
Mg 54.06900 23.99500 44.06600
C  51.38400 26.18100 43.25600
C  52.15000 21.39500 42.82900
C  56.77000 22.15800 43.90300
C  55.69400 26.71700 45.45400
N  52.17400 23.92400 42.88000
C  51.25900 24.86700 42.69800
C  50.05100 24.31100 41.92300
C  50.08100 22.77500 42.27700
C  51.53400 22.67500 42.75400
C  49.00700 22.07300 43.10000
C  50.01100 24.67800 40.39500
C  51.35300 24.89500 39.57400
H  51.22900 25.85600 38.42500
N  54.35000 21.99100 43.67700
C  53.43000 21.09100 43.20000
C  54.00200 19.76800 43.21500
C  55.36400 19.94400 43.58500
C  55.57900 21.38800 43.69400
C  53.31200 18.59900 42.63500
C  56.37300 18.83400 43.72200
O  56.06000 17.69700 43.44100
C  57.81700 19.08400 44.20100
N  56.00000 24.42700 44.31900
C  57.08000 23.50900 44.26000
C  58.36000 24.05900 44.89200
C  57.91600 25.39500 45.47200
C  56.42300 25.53200 45.16500
C  59.00400 23.20000 46.02800
C  58.65700 26.70400 44.97000
C  58.13600 27.41500 43.72900
N  53.78600 26.12100 44.23900
C  54.43900 27.05700 44.91600
C  53.65400 28.29300 45.05000
C  52.48000 28.01000 44.36100
C  52.54200 26.68400 43.88700
C  54.07400 29.58000 45.68500
C  51.22700 28.58300 43.92300
O  50.74600 29.66400 44.13200
C  50.46000 27.40300 43.32100
C  49.88800 27.82400 42.03000
O  50.47000 27.78800 40.99100
O  48.65200 28.15600 42.17100
C  47.94200 28.34100 40.92000
H  51.42800 20.59800 42.63800
H  57.71500 21.61700 43.97700
H  56.29400 27.45400 45.99200
H  49.25400 24.91900 42.35100
H  50.09100 22.26400 41.31400
H  48.09200 22.40200 42.61000
H  49.03900 22.46800 44.11600
H  48.99900 20.98400 43.14400
H  49.34900 25.53400 40.26300
H  49.48600 23.88800 39.85800
H  51.83300 23.96300 39.27500
H  52.04300 25.41600 40.23800
H  53.99700 18.11000 41.94200
H  52.51300 18.84200 41.93500
H  52.83000 17.92300 43.34100
H  57.67200 19.55000 45.17600
H  58.34900 19.76800 43.54000
H  58.41200 18.17900 44.32400
H  59.13800 24.18900 44.14000
H  58.02200 25.50200 46.55100
H  58.41600 22.32700 46.31100
H  59.24900 23.78900 46.91200
H  59.89100 22.71800 45.61700
H  59.71000 26.51500 44.76500
H  58.69300 27.43600 45.77700
H  57.94600 28.47400 43.90300
H  57.37200 26.88300 43.16200
H  58.89100 27.48900 42.94600
H  55.03800 29.33100 46.12900
H  53.31500 29.82300 46.42800
H  54.27100 30.37800 44.96900
H  49.70400 27.14900 44.06400
H  48.04900 27.53100 40.19900
H  48.21500 29.30500 40.49200
H  46.88700 28.33500 41.19500

