158

Mg 47.02800 34.44800 27.61000
C  45.18300 32.88800 30.12200
C  47.18100 37.14800 29.82500
C  47.99600 36.31800 25.07200
C  46.24500 31.81300 25.46300
N  46.27800 34.89500 29.68000
C  45.67100 34.08700 30.56800
C  45.71800 34.58900 31.96300
C  45.95800 36.09700 31.73400
C  46.52300 36.04300 30.31700
C  44.78500 37.06400 31.86600
C  46.91700 33.84000 32.61400
C  46.88800 33.55400 34.07200
H  46.07700 34.65000 34.91400
N  47.51600 36.53200 27.43400
C  47.67600 37.36500 28.50900
C  48.31200 38.56700 27.92800
C  48.56000 38.40500 26.58800
C  47.99500 37.06400 26.30100
C  48.46400 39.82900 28.85200
C  49.31400 39.29700 25.62500
O  49.63400 38.84400 24.51700
C  49.77600 40.62900 25.95500
N  47.09000 34.11800 25.49900
C  47.57500 35.05400 24.68400
C  47.64500 34.50100 23.23900
C  47.14800 33.00600 23.36500
C  46.84100 32.91200 24.87300
C  46.70900 35.27900 22.32500
C  48.26900 31.87200 23.01000
C  47.63900 30.60200 22.38200
N  46.13900 32.59900 27.73900
C  45.80300 31.66100 26.81400
C  45.07000 30.59400 27.44200
C  44.88100 31.03200 28.78500
C  45.40700 32.27400 28.88200
C  44.75600 29.29800 26.78500
C  44.16600 30.73600 29.94900
O  43.46000 29.71400 30.18200
C  44.19700 31.91400 30.88600
C  44.47300 31.45100 32.23600
O  45.44000 30.82000 32.67200
O  43.37600 31.66400 32.98700
C  43.33900 31.32100 34.35900
H  47.28800 38.06300 30.41200
H  48.30600 36.97700 24.25800
H  45.99200 30.98100 24.80400
H  44.79300 34.29900 32.46100
H  46.62600 36.64700 32.39800
H  44.77500 37.76300 31.02900
H  44.87600 37.84800 32.61800
H  43.77700 36.66500 31.97600
H  47.78600 34.46000 32.39800
H  47.06900 32.88200 32.11800
H  47.91300 33.37800 34.39700
H  46.49300 32.56100 34.28600
H  47.52900 40.38200 28.94400
H  49.26400 40.47600 28.49100
H  48.71500 39.41000 29.82700
H  49.92700 41.11900 24.99300
H  50.67900 40.59800 26.56500
H  49.03100 41.11300 26.58700
H  48.59300 34.63100 22.71800
H  46.22300 32.86500 22.80400
H  46.19500 36.09200 22.83700
H  45.84500 34.78500 21.88000
H  47.28500 35.71300 21.50700
H  48.82100 31.55400 23.89500
H  49.01200 32.24000 22.30200
H  47.54900 29.89800 23.20900
H  48.34000 30.11400 21.70300
H  46.69000 30.77900 21.87600
H  45.08600 29.27900 25.74700
H  43.66600 29.26700 26.79500
H  45.18200 28.43700 27.30000
H  43.23100 32.41800 30.86400
H  43.98800 32.00600 34.90500
H  43.74200 30.33400 34.58900
H  42.35000 31.51000 34.77500
Mg 40.79500 40.98900 26.69900
C  40.38500 43.38000 29.18100
C  41.58000 38.71900 29.09400
C  41.58000 38.78200 24.32800
C  40.28600 43.43100 24.32900
N  41.09700 41.13400 28.90200
C  40.58300 42.09100 29.74800
C  40.57400 41.70000 31.27600
C  41.06800 40.23700 31.10300
C  41.25100 40.01300 29.56500
C  42.34500 39.96200 31.94100
C  39.11500 41.89600 31.93300
C  39.00000 41.26200 33.31300
H  39.19100 42.22600 34.48900
N  41.59700 39.02000 26.73200
C  41.83100 38.24700 27.80100
C  42.26700 36.95800 27.40200
C  42.35900 36.90700 26.01100
C  41.87100 38.30400 25.62700
C  42.58900 35.89900 28.48500
C  42.86200 35.87400 25.05500
O  42.75900 35.92600 23.77200
C  43.46500 34.66700 25.71200
N  40.85200 41.08500 24.64100
C  41.23200 40.00500 23.82600
C  41.07400 40.34700 22.30100
C  40.47100 41.85100 22.36000
C  40.49500 42.14700 23.83800
C  42.29500 40.17400 21.37400
C  39.12300 42.06100 21.58000
C  39.26400 42.15400 20.04700
N  40.37600 42.98900 26.67600
C  40.19600 43.86700 25.64000
C  40.00400 45.17800 26.12500
C  40.08000 45.03500 27.46400
C  40.28500 43.67800 27.79600
C  40.04300 46.38000 25.29700
C  39.92300 45.76100 28.70900
O  39.65900 46.91200 29.01400
C  40.06100 44.68100 29.87700
C  41.15900 45.19400 30.80800
O  42.32200 45.34400 30.47400
O  40.76600 45.45400 32.10400
C  41.76200 45.98300 33.06400
H  41.55200 38.00900 29.92400
H  41.63300 37.98600 23.58300
H  40.06000 44.15800 23.54600
H  41.26300 42.35900 31.80400
H  40.33100 39.51800 31.46100
H  42.45900 40.64300 32.78400
H  43.24300 40.11800 31.34300
H  42.24700 38.96700 32.37500
H  38.29500 41.54000 31.30900
H  38.99300 42.97200 32.06100
H  39.65100 40.41100 33.51500
H  38.02000 40.80600 33.17700
H  42.05000 35.05700 28.05200
H  42.10900 36.01700 29.45600
H  43.65700 35.68100 28.48600
H  42.69900 34.04400 26.17300
H  44.29900 35.02400 26.31700
H  43.92000 34.03400 24.95100
H  40.25900 39.74700 21.89800
H  41.16700 42.57500 21.93600
H  41.99600 39.48100 20.58800
H  43.02900 39.53800 21.86900
H  42.74400 40.99200 20.81100
H  38.58200 42.95100 21.90400
H  38.57400 41.14200 21.78700
H  38.63000 42.97300 19.70800
H  38.93300 41.23200 19.56900
H  40.25800 42.24900 19.60900
H  40.58000 47.08500 25.93300
H  39.10200 46.84100 24.99800
H  40.68400 46.28900 24.42000
H  39.15600 44.40900 30.42000
H  41.46100 45.44900 33.96500
H  41.71000 47.03800 33.33500
H  42.79600 45.75900 32.80500

