158

Mg 17.67000 -1.49400 28.15200
C  16.29200 0.52700 30.66200
C  19.38800 -3.12700 30.65300
C  19.32700 -3.29900 25.86000
C  15.97300 0.20500 25.74200
N  17.76500 -1.18000 30.43200
C  17.13300 -0.37500 31.25900
C  17.48500 -0.62000 32.77500
C  18.63400 -1.66700 32.68400
C  18.65200 -2.01400 31.18100
C  20.09200 -1.18100 33.07600
C  16.14500 -0.92500 33.51500
C  16.09100 -0.30700 34.93100
H  17.03400 -0.83600 35.99100
N  19.06600 -3.02100 28.27800
C  19.62900 -3.57300 29.38200
C  20.43900 -4.73100 28.97400
C  20.55300 -4.71000 27.53000
C  19.64000 -3.65900 27.15800
C  21.11400 -5.63000 29.99800
C  21.24600 -5.67900 26.63200
O  21.24500 -5.71800 25.39400
C  22.05800 -6.87500 27.21100
N  17.74300 -1.39500 26.07200
C  18.47800 -2.31900 25.39600
C  18.17600 -2.14900 23.85000
C  17.12400 -1.01000 23.75400
C  16.93000 -0.71600 25.26200
C  19.46200 -1.86000 23.06000
C  15.69400 -1.43900 23.08200
C  14.93000 -0.40700 22.15600
N  16.52800 0.10700 28.08300
C  15.84200 0.73200 27.06100
C  15.04700 1.80500 27.59200
C  15.19900 1.71200 28.93300
C  16.09200 0.67200 29.24900
C  14.00100 2.63600 26.87400
C  14.74500 2.38200 30.20500
O  13.93400 3.26400 30.47600
C  15.56500 1.70800 31.31500
C  16.55100 2.72600 31.87100
O  17.53600 3.08800 31.23200
O  16.22800 3.10600 33.14300
C  17.18400 3.95200 33.86300
H  19.88600 -3.63600 31.48100
H  19.91200 -3.82100 25.10000
H  15.34000 0.77600 25.06000
H  17.93700 0.28700 33.17800
H  18.37600 -2.57300 33.23200
H  20.67000 -2.06300 33.35200
H  20.14100 -0.46300 33.89400
H  20.54500 -0.68500 32.21800
H  16.23800 -2.00200 33.65000
H  15.23700 -0.61600 32.99800
H  15.12600 -0.63900 35.31400
H  16.05300 0.77700 34.82500
H  22.11800 -5.70400 29.58100
H  20.54500 -6.55800 30.06500
H  21.32500 -5.26700 31.00300
H  21.36100 -7.19700 27.98500
H  23.00500 -6.58600 27.66700
H  22.06600 -7.67300 26.46900
H  17.80400 -3.12100 23.52400
H  17.63200 -0.17200 23.27800
H  20.18100 -1.35000 23.70100
H  19.26600 -1.21500 22.20400
H  19.96700 -2.78600 22.78300
H  15.01100 -1.55300 23.92400
H  15.79300 -2.37500 22.53300
H  14.56500 -0.86800 21.23800
H  15.48000 0.51900 21.99000
H  14.10400 -0.00300 22.74100
H  14.46800 3.48900 26.38200
H  13.16200 2.93600 27.50200
H  13.62500 1.95700 26.11000
H  14.93200 1.37000 32.13600
H  16.84600 3.60800 34.84100
H  16.85900 4.99000 33.79000
H  18.18700 3.86600 33.44600
Mg 46.42300 16.36900 28.78500
C  44.19500 15.97000 31.48600
C  48.52000 17.96800 30.83100
C  48.23800 17.19200 26.02000
C  43.82000 15.12100 26.60900
N  46.33600 16.72800 30.85400
C  45.37300 16.54800 31.80500
C  45.75900 17.10400 33.21200
C  47.07500 17.90200 32.90300
C  47.34600 17.51800 31.41700
C  47.22900 19.37300 33.42000
C  45.91500 15.88900 34.10100
C  45.48000 16.03000 35.61900
H  45.24600 17.46400 36.23900
N  48.14200 17.39300 28.46700
C  48.98500 17.90900 29.46900
C  50.12900 18.50000 28.85100
C  49.98500 18.38100 27.39500
C  48.77400 17.55800 27.26600
C  51.17000 19.35700 29.52300
C  50.83100 18.94800 26.21200
O  50.46300 18.97500 25.05400
C  52.13800 19.53800 26.56300
N  46.00100 16.33700 26.59900
C  46.97400 16.68700 25.67500
C  46.36100 16.56800 24.24300
C  45.14100 15.57300 24.41100
C  44.99900 15.60200 25.97900
C  46.11600 17.97300 23.55600
C  45.28500 14.03100 23.97400
C  44.34100 13.60000 22.93200
N  44.44400 15.64700 28.93000
C  43.58700 15.11400 28.04100
C  42.32200 14.75700 28.64800
C  42.54500 14.96900 30.07100
C  43.81600 15.59400 30.16700
C  41.02600 14.32900 27.94800
C  41.98400 14.99900 31.38500
O  40.87300 14.69800 31.73200
C  43.07600 15.49400 32.37100
C  42.45000 16.67700 32.94500
O  42.41500 17.76700 32.43600
O  42.06800 16.50500 34.20600
C  41.35700 17.65300 34.86200
H  49.09200 18.56700 31.54200
H  48.85900 17.34400 25.13500
H  43.06400 14.61600 26.00300
H  44.98900 17.77700 33.59200
H  47.84000 17.41100 33.50500
H  47.89500 19.41000 34.28300
H  46.26800 19.86800 33.56500
H  47.88100 19.85100 32.68900
H  46.97300 15.65900 34.22100
H  45.47300 14.99000 33.67000
H  46.25900 15.46000 36.12400
H  44.53000 15.50700 35.73100
H  52.00500 18.65700 29.54700
H  50.91800 19.64600 30.54400
H  51.36700 20.30700 29.02700
H  51.95500 20.43600 27.15400
H  52.62000 19.77300 25.61400
H  52.71700 18.75500 27.05300
H  47.17000 16.02900 23.74900
H  44.29700 16.09700 23.96200
H  46.61400 18.81500 24.03800
H  45.04400 18.16500 23.58800
H  46.37600 17.94000 22.49800
H  45.18400 13.29600 24.77300
H  46.33300 13.94600 23.68800
H  43.70700 12.78400 23.27800
H  44.84000 13.11000 22.09600
H  43.65900 14.36300 22.55800
H  40.73600 15.10000 27.23500
H  40.20000 14.30500 28.65900
H  41.08600 13.31100 27.56300
H  43.28300 14.71500 33.10500
H  40.39300 17.82600 34.38300
H  41.83800 18.63000 34.82000
H  41.10900 17.36700 35.88400

