158

Mg 54.96900 24.84300 45.80500
C  52.19600 26.49900 44.24600
C  53.37300 21.84700 44.67100
C  57.73600 23.37800 46.34400
C  56.14500 27.83000 46.66600
N  53.02400 24.26200 44.46800
C  52.05200 25.09900 44.06900
C  50.78500 24.40500 43.55000
C  51.15600 22.87600 43.84000
C  52.58600 22.98100 44.45200
C  50.13000 22.00400 44.62000
C  50.32700 24.59800 42.11000
C  48.82200 24.67100 41.82600
H  48.29600 23.97400 40.52700
N  55.47900 22.90000 45.61900
C  54.75200 21.80200 45.13400
C  55.59100 20.63600 45.14000
C  56.83800 20.99300 45.53300
C  56.76300 22.47300 45.85400
C  55.10200 19.28300 44.61000
C  58.01700 20.07500 45.51400
O  57.78200 18.91600 45.18800
C  59.43800 20.52600 45.92000
N  56.81100 25.52300 46.23900
C  57.73900 24.74200 46.63600
C  58.86600 25.48900 47.37000
C  58.46400 26.97300 47.16000
C  57.02000 26.77600 46.73500
C  59.26900 25.01700 48.83000
C  59.25400 27.63000 45.97300
C  59.18100 29.17600 45.98900
N  54.35000 26.83800 45.58600
C  54.90500 27.92700 46.06100
C  54.08700 29.08700 45.79300
C  52.92500 28.60200 45.22300
C  53.21300 27.20400 44.96700
C  54.59900 30.46700 46.08400
C  51.65900 28.91600 44.55800
O  51.14200 30.04900 44.41500
C  51.13200 27.57800 43.97800
C  50.97800 27.83600 42.50600
O  51.90600 28.01700 41.67800
O  49.65800 27.92200 42.18900
C  49.30600 28.23800 40.79900
H  52.85600 20.89800 44.51000
H  58.70500 22.92900 46.57000
H  56.60400 28.80200 46.85700
H  49.99600 24.76500 44.21000
H  51.26100 22.38000 42.87500
H  50.60100 21.73600 45.56600
H  49.81700 21.14900 44.02100
H  49.18200 22.51300 44.79600
H  50.65400 23.84900 41.38900
H  50.75000 25.51400 41.69800
H  48.45800 25.69700 41.87400
H  48.32300 24.17400 42.65800
H  54.03000 19.11700 44.50300
H  55.42600 18.49100 45.28600
H  55.61600 18.91900 43.72100
H  59.82300 21.47200 45.54000
H  60.09100 19.66200 45.79300
H  59.44100 20.71600 46.99300
H  59.81300 25.38800 46.83900
H  58.45700 27.53200 48.09500
H  60.34600 24.86100 48.89300
H  58.75100 24.08500 49.05600
H  59.05100 25.77900 49.57800
H  58.91900 27.26000 45.00500
H  60.30600 27.38500 46.11500
H  58.69100 29.56400 45.09700
H  60.15900 29.65900 45.97100
H  58.69700 29.67800 46.82700
H  55.68800 30.52100 46.07500
H  54.34400 30.74200 47.10800
H  54.07500 31.13300 45.39900
H  50.13600 27.34500 44.35600
H  48.45600 28.90800 40.67600
H  48.97900 27.34800 40.26200
H  50.12100 28.68100 40.22600
Mg 35.64300 48.99900 25.72900
C  35.96700 47.05200 28.62700
C  34.42100 51.54400 27.82500
C  35.15300 50.92000 23.18200
C  36.15100 46.21300 23.80100
N  35.03600 49.22500 27.91700
C  35.36000 48.23900 28.86200
C  35.24300 48.90200 30.31000
C  34.43300 50.23200 30.07100
C  34.61100 50.34400 28.52800
C  32.94100 50.28200 30.60300
C  36.71400 49.12800 30.91100
C  36.93100 48.67400 32.35900
H  35.66100 48.49700 33.25200
N  35.08000 50.96900 25.53000
C  34.65700 51.89100 26.50100
C  34.56300 53.17600 25.94100
C  34.80600 53.09900 24.57300
C  35.07400 51.62400 24.33000
C  34.14900 54.41900 26.70900
C  34.74300 54.13800 23.34700
O  34.96400 53.81100 22.18900
C  34.41500 55.60900 23.65000
N  35.40300 48.55500 23.75100
C  35.21400 49.51500 22.90900
C  35.19300 49.00400 21.42300
C  35.66900 47.48100 21.60000
C  35.82800 47.41300 23.18500
C  33.82300 49.09600 20.66800
C  37.00400 47.01500 20.92600
C  36.90000 45.76300 20.04600
N  36.11500 47.02600 26.12400
C  36.26700 46.00900 25.21000
C  36.73000 44.85400 25.97800
C  36.60700 45.18700 27.34500
C  36.19400 46.52000 27.37400
C  37.03200 43.52500 25.36600
C  36.68300 44.63200 28.70100
O  37.04200 43.54600 29.14200
C  36.23100 45.85300 29.59500
C  35.07700 45.45000 30.43700
O  33.89000 45.41400 30.03700
O  35.41800 45.13700 31.69100
C  34.37900 44.54800 32.49300
H  34.11400 52.29100 28.56000
H  34.86400 51.37900 22.23400
H  36.38800 45.35200 23.17200
H  34.61400 48.24900 30.91600
H  34.91200 51.08000 30.55900
H  32.31900 50.63500 29.78000
H  32.80100 50.83800 31.53000
H  32.58100 49.29000 30.87500
H  36.74100 50.21400 30.99300
H  37.42300 48.69800 30.20300
H  37.50600 49.37000 32.96900
H  37.30400 47.65000 32.39300
H  33.10000 54.58600 26.46700
H  34.80000 55.23300 26.38900
H  34.20800 54.25700 27.78500
H  33.38500 55.81000 23.94400
H  34.48300 56.18900 22.73000
H  35.07200 55.91300 24.46400
H  36.03200 49.48000 20.91500
H  34.86700 46.79400 21.32800
H  33.65900 48.20400 20.06200
H  33.82900 49.87600 19.90600
H  33.03600 49.20700 21.41300
H  37.68600 46.61000 21.67400
H  37.37100 47.76100 20.22100
H  37.41200 44.90900 20.48800
H  37.48700 45.92600 19.14200
H  35.83800 45.53100 19.96400
H  36.51700 42.74400 25.92500
H  38.11000 43.40400 25.26400
H  36.71800 43.55700 24.32300
H  37.03000 46.03300 30.31400
H  33.78300 43.85500 31.90000
H  33.67000 45.30300 32.83400
H  34.71100 44.05900 33.40800

