158

Mg 47.00400 34.64300 28.35400
C  45.35600 32.62200 30.57300
C  46.75900 37.24100 30.56900
C  48.08100 36.63900 25.93900
C  46.56200 32.17200 25.94100
N  46.15300 34.86900 30.30700
C  45.54600 33.94800 31.05200
C  45.29700 34.45300 32.55100
C  45.40900 36.02400 32.31200
C  46.18700 36.07400 30.98500
C  44.04500 36.78500 32.22000
C  46.32700 33.76700 33.57500
C  47.46300 34.57700 34.35800
H  47.19600 34.81800 35.86000
N  47.55600 36.62400 28.29200
C  47.45000 37.53100 29.33500
C  48.10200 38.77600 28.93800
C  48.43100 38.62600 27.58100
C  48.01200 37.26600 27.22100
C  48.30500 39.94600 29.88000
C  49.06900 39.61100 26.63000
O  49.40600 39.42300 25.48100
C  49.34400 41.01400 27.18000
N  47.18300 34.47000 26.21000
C  47.64200 35.41000 25.45400
C  47.90200 35.01900 23.98200
C  47.38300 33.55200 23.93600
C  46.87200 33.38000 25.44200
C  47.17700 35.90500 22.96100
C  48.35200 32.42800 23.37900
C  47.77600 31.51300 22.24500
N  46.26600 32.71900 28.27000
C  46.27300 31.77500 27.30900
C  45.77000 30.50800 27.83400
C  45.37600 30.78700 29.10600
C  45.67000 32.16200 29.28400
C  45.82000 29.23800 27.07400
C  44.65500 30.26000 30.29100
O  44.14600 29.20700 30.53600
C  44.60300 31.45000 31.25100
C  45.21000 31.03000 32.53900
O  46.33400 30.46100 32.53000
O  44.43100 31.21500 33.61600
C  45.14300 30.75800 34.82200
H  46.76400 38.11000 31.23000
H  48.40300 37.23100 25.07900
H  46.51700 31.39000 25.18100
H  44.29400 34.17800 32.87700
H  45.97200 36.58700 33.05600
H  44.19300 37.77200 31.78300
H  43.61200 36.90200 33.21300
H  43.45600 36.18600 31.52500
H  46.88400 32.94100 33.13300
H  45.63600 33.53600 34.38700
H  47.85400 35.48600 33.90000
H  48.33600 33.92500 34.32400
H  49.38900 39.95900 29.99000
H  47.83400 39.80800 30.85300
H  48.00900 40.94900 29.57200
H  50.13600 41.01500 27.92900
H  48.41700 41.43400 27.56900
H  49.59800 41.68700 26.36100
H  48.97700 35.08200 23.81400
H  46.44100 33.56000 23.38700
H  46.49500 36.48000 23.58800
H  46.58700 35.40800 22.19000
H  47.75700 36.64200 22.40600
H  48.66800 31.81200 24.22100
H  49.19000 32.94000 22.90500
H  46.85900 31.92600 21.82500
H  47.69800 30.48400 22.59800
H  48.41700 31.44100 21.36700
H  46.73600 29.27900 26.48500
H  44.96000 29.17000 26.40800
H  45.79600 28.31200 27.64700
H  43.62300 31.79900 31.57700
H  44.77200 31.40100 35.62000
H  46.21000 30.97700 34.85900
H  44.97200 29.69700 35.00500
Mg 29.42600 58.22500 40.46800
C  26.42000 56.58400 39.84100
C  31.08400 55.38400 39.98500
C  32.19900 60.02100 40.68300
C  27.50900 61.17100 41.09400
N  28.79000 56.30200 39.84900
C  27.54500 55.82800 39.54300
C  27.68900 54.45900 38.92400
C  29.06100 53.99300 39.44600
C  29.73000 55.29600 39.84900
C  29.10600 52.95000 40.62500
C  27.41600 54.45200 37.38400
C  26.14800 53.74600 36.85900
H  25.62100 54.11200 35.45200
N  31.44200 57.70900 40.29300
C  31.91100 56.47600 40.10800
C  33.41700 56.53800 40.02900
C  33.73600 57.88400 40.23100
C  32.44500 58.64200 40.40000
C  34.31200 55.35500 39.57600
C  35.19000 58.40000 40.14700
O  36.11700 57.56000 40.01200
C  35.41100 59.80600 40.23500
N  29.83300 60.34300 40.72900
C  31.08100 60.79100 40.84600
C  31.09200 62.33300 41.01600
C  29.58900 62.64600 41.18800
C  28.88300 61.32100 40.97600
C  32.01600 62.83700 42.27200
C  28.92400 63.85800 40.50500
C  28.17900 64.86300 41.33900
N  27.36000 58.79400 40.70600
C  26.75000 60.00100 40.97400
C  25.26700 59.83900 41.05500
C  25.12900 58.52300 40.59800
C  26.37100 57.95500 40.35800
C  24.25600 60.85000 41.44900
C  24.14600 57.52400 40.25300
O  22.93500 57.51200 40.32600
C  24.92700 56.26300 39.72900
C  24.41000 55.14500 40.49500
O  24.56500 54.99300 41.69200
O  23.78400 54.25200 39.69600
C  23.81700 52.84700 40.06900
H  31.57700 54.44800 39.71500
H  33.00400 60.75100 40.79300
H  26.90700 62.06900 41.24700
H  27.03400 53.71800 39.38200
H  29.68600 53.70700 38.60100
H  28.37400 52.14500 40.57400
H  29.13700 53.57600 41.51700
H  30.06600 52.43500 40.57800
H  28.23700 53.87400 36.96200
H  27.38800 55.43500 36.91200
H  25.37400 53.86000 37.61700
H  26.38000 52.68100 36.84100
H  35.09300 55.67000 38.88400
H  33.67000 54.56400 39.18800
H  34.75700 54.85100 40.43400
H  34.75800 60.31300 39.52500
H  36.44800 59.92900 39.92200
H  35.33100 60.06500 41.29100
H  31.48400 62.68000 40.05900
H  29.50200 62.77300 42.26700
H  32.70400 62.00500 42.42800
H  31.44800 63.15500 43.14600
H  32.65300 63.64700 41.91800
H  28.31200 63.35800 39.75400
H  29.66700 64.40900 39.92900
H  28.34400 64.77200 42.41200
H  27.14300 64.57200 41.16300
H  28.40700 65.87600 41.00900
H  24.57300 61.47200 42.28600
H  23.22100 60.51100 41.49700
H  24.36900 61.65100 40.71900
H  24.58200 56.06600 38.71400
H  24.46500 52.70600 40.93400
H  24.15500 52.17400 39.28100
H  22.82100 52.63400 40.45600

