158

Mg 23.45600 -4.42700 44.74700
C  25.22100 -1.71100 43.42800
C  20.72500 -3.54100 43.00600
C  22.00400 -7.57500 45.45000
C  26.42800 -5.58600 46.17600
N  23.10700 -2.82500 43.16100
C  23.90700 -1.83400 42.88300
C  23.18700 -0.82200 41.92700
C  21.68100 -1.23200 42.17200
C  21.81800 -2.62300 42.76300
C  20.82200 -0.29000 43.00900
C  23.68700 -1.20200 40.52800
C  23.97000 -0.03900 39.46300
H  24.79800 -0.53100 38.25000
N  21.51500 -5.42400 44.30600
C  20.53400 -4.86200 43.54000
C  19.39800 -5.73900 43.55900
C  19.73000 -6.85300 44.42200
C  21.12800 -6.67700 44.73200
C  18.11100 -5.39100 42.95300
C  18.84100 -8.05500 44.68200
O  17.69300 -8.12700 44.22000
C  19.27300 -9.29400 45.34100
N  24.21400 -6.40600 45.62700
C  23.36800 -7.45700 45.85000
C  24.22000 -8.59900 46.55600
C  25.59100 -7.99000 46.67700
C  25.39500 -6.60300 46.11000
C  23.62200 -9.07600 47.91100
C  26.74200 -8.78200 45.93200
C  28.17000 -8.47200 46.50700
N  25.41800 -3.74200 44.95700
C  26.47800 -4.29300 45.66000
C  27.59900 -3.31300 45.63600
C  27.15100 -2.32900 44.68400
C  25.82100 -2.66200 44.27900
C  28.95200 -3.46900 46.33300
C  27.56500 -1.14400 43.96500
O  28.66200 -0.60700 43.99400
C  26.34200 -0.70100 43.03600
C  26.02300 0.73800 43.22300
O  25.54500 1.36800 44.17600
O  26.60700 1.30900 42.07800
C  26.62800 2.75500 41.91000
H  19.75400 -3.17400 42.66400
H  21.52300 -8.47200 45.84600
H  27.38600 -5.85500 46.62600
H  23.20500 0.26500 42.00300
H  21.09100 -1.37400 41.26600
H  20.43800 0.49500 42.35800
H  21.33700 0.20900 43.83000
H  19.92600 -0.83000 43.31700
H  22.78800 -1.71200 40.18100
H  24.48700 -1.94200 40.55300
H  24.50500 0.67700 40.08600
H  22.97900 0.22600 39.09300
H  17.55500 -6.22300 42.52200
H  18.18800 -4.65400 42.15400
H  17.52200 -4.92300 43.74300
H  18.39700 -9.88800 45.60200
H  19.59900 -9.01900 46.34400
H  20.03200 -9.70900 44.67800
H  24.22100 -9.37700 45.79200
H  25.88900 -7.90800 47.72200
H  24.08000 -8.68300 48.81800
H  23.76400 -10.14600 48.06700
H  22.54500 -8.91400 47.91700
H  26.72300 -8.34500 44.93400
H  26.51100 -9.84300 45.83600
H  28.73700 -9.35600 46.79900
H  28.22100 -7.88600 47.42500
H  28.71100 -7.95400 45.71500
H  28.82000 -3.02300 47.31900
H  29.61200 -2.83600 45.74000
H  29.23800 -4.52000 46.35700
H  26.67300 -1.01200 42.04500
H  25.66900 3.06900 41.49800
H  27.39300 3.05300 41.19300
H  26.84900 3.19000 42.88500
Mg 42.76700 42.15300 25.99100
C  42.17200 44.49900 28.42900
C  43.95700 39.96500 28.44000
C  43.90200 40.08500 23.47900
C  41.95800 44.47700 23.61800
N  42.97600 42.19700 28.21800
C  42.59700 43.25700 29.00900
C  42.74600 42.98200 30.51300
C  43.37600 41.55900 30.48400
C  43.50700 41.24300 28.95500
C  44.65600 41.30700 31.32500
C  41.38800 43.06500 31.32500
C  41.38600 43.82300 32.64400
H  42.31900 43.41300 33.81400
N  43.70500 40.21800 25.96800
C  44.08100 39.45500 27.11900
C  44.64100 38.15600 26.66500
C  44.57400 38.18200 25.18300
C  44.07700 39.53400 24.83300
C  45.13100 37.09600 27.67200
C  44.87500 37.10400 24.23800
O  44.94000 37.18000 22.99200
C  45.14600 35.73100 24.80000
N  43.11200 42.37000 23.80900
C  43.43700 41.32600 23.00500
C  43.27200 41.76100 21.53800
C  42.30000 43.00000 21.64400
C  42.41100 43.29500 23.11200
C  44.54700 42.02400 20.61200
C  40.92700 42.75200 21.08400
C  39.97500 41.86600 21.96400
N  42.15000 44.12300 25.99400
C  41.87200 44.95200 24.98200
C  41.60300 46.30200 25.41700
C  41.72200 46.17000 26.82300
C  42.05400 44.80200 27.08900
C  41.19000 47.46600 24.53200
C  41.59900 46.88700 28.06900
O  41.40900 48.02300 28.35500
C  41.78200 45.79600 29.14100
C  42.70000 46.37300 30.15400
O  43.91500 46.44000 30.02700
O  41.97900 46.94500 31.18700
C  42.66000 47.62400 32.26200
H  44.13500 39.28700 29.27700
H  44.13400 39.37000 22.68800
H  41.56800 45.20800 22.90600
H  43.41100 43.73100 30.94300
H  42.68700 40.79200 30.83900
H  44.81200 42.05900 32.09800
H  45.60800 41.18800 30.80700
H  44.44500 40.35600 31.81400
H  40.99700 42.07000 31.53900
H  40.68700 43.53700 30.63700
H  40.36200 43.94500 33.00000
H  41.71900 44.84700 32.47400
H  44.68500 36.11700 27.50000
H  45.02900 37.35800 28.72500
H  46.20100 37.00500 27.48400
H  44.25700 35.48400 25.38200
H  46.02900 36.01800 25.37100
H  45.40200 34.97600 24.05700
H  42.75100 40.90000 21.12100
H  42.71500 43.80500 21.03800
H  45.40900 42.06100 21.27800
H  44.43800 42.95100 20.04900
H  44.62300 41.16000 19.95200
H  41.01800 42.38100 20.06300
H  40.42000 43.71700 21.06800
H  39.34500 41.19900 21.37500
H  39.40200 42.51800 22.62300
H  40.57400 41.23800 22.62400
H  40.56900 48.10700 25.15800
H  40.64900 47.12800 23.64800
H  42.05700 48.01500 24.16400
H  40.86000 45.63000 29.69800
H  42.98400 46.80100 32.89800
H  41.91300 48.19100 32.81900
H  43.42400 48.34100 31.96000

