158

Mg 34.94800 2.28500 29.24600
C  33.03100 3.41200 32.06200
C  37.74800 2.77300 31.15800
C  36.78700 2.05000 26.43300
C  32.02800 2.57000 27.37100
N  35.29400 3.00300 31.31100
C  34.42100 3.29800 32.30600
C  35.10100 3.54800 33.63700
C  36.62100 3.52200 33.29400
C  36.57700 3.10400 31.85400
C  37.40500 4.85600 33.59900
C  34.72600 2.42700 34.71300
C  34.30000 2.95100 36.08400
H  35.30300 3.97400 36.80100
N  37.00500 2.07900 28.83700
C  38.00400 2.27000 29.78900
C  39.34500 1.96200 29.17000
C  39.06000 1.76700 27.78700
C  37.59200 1.91100 27.59900
C  40.67900 2.09600 29.89600
C  40.07400 1.52800 26.65300
O  39.83400 1.58700 25.44800
C  41.45700 1.26300 26.97500
N  34.46200 2.39400 27.26700
C  35.42800 2.16100 26.32400
C  34.83400 1.97400 24.95100
C  33.32100 1.88100 25.31200
C  33.24500 2.27300 26.76600
C  35.14600 3.21200 24.10000
C  32.74100 0.49500 25.18900
C  31.45000 0.43500 24.30700
N  32.90700 2.85400 29.58100
C  31.85400 2.90400 28.72400
C  30.67200 3.30900 29.44900
C  31.08400 3.54200 30.79700
C  32.45800 3.19800 30.78300
C  29.35500 3.37200 28.85800
C  30.61400 3.83700 32.20400
O  29.54600 4.11500 32.75200
C  31.95600 3.83400 33.01000
C  32.14000 5.16300 33.63200
O  32.41200 6.19200 33.13200
O  31.71600 5.02000 34.94900
C  31.70900 6.23000 35.75200
H  38.67100 2.75000 31.74000
H  37.27000 2.22300 25.46900
H  31.19200 2.47700 26.67500
H  34.86000 4.52900 34.04500
H  37.12000 2.69800 33.80500
H  38.15800 4.68500 34.36800
H  36.71200 5.62300 33.94500
H  37.84700 5.19100 32.66100
H  35.58100 1.90400 35.14200
H  33.97700 1.73300 34.33100
H  34.20300 2.06600 36.71400
H  33.26300 3.25200 35.94200
H  41.14500 3.06200 29.70400
H  41.29100 1.26100 29.55600
H  40.45100 1.96200 30.95400
H  41.96200 0.89600 26.08100
H  41.43200 0.42500 27.67200
H  41.87700 2.12000 27.50100
H  35.12700 1.16500 24.28100
H  32.74100 2.68600 24.86200
H  35.74100 3.90200 24.69900
H  34.23900 3.65900 23.69500
H  35.71800 2.94700 23.21100
H  32.40900 0.15000 26.16800
H  33.48500 -0.25800 24.92700
H  30.58800 0.14700 24.90900
H  31.67100 -0.38800 23.62800
H  31.29400 1.38200 23.78900
H  28.75000 4.10400 29.39300
H  28.92400 2.37100 28.89300
H  29.48500 3.75200 27.84500
H  31.91600 3.12800 33.84000
H  30.86600 6.33400 36.43600
H  31.70700 7.15100 35.17000
H  32.58200 6.15400 36.40000
Mg 9.79300 47.79500 26.32300
C  8.07200 47.72200 29.40300
C  12.42500 49.19600 27.95500
C  11.29700 47.87600 23.30600
C  6.81000 46.74900 24.72200
N  10.19500 48.32200 28.45800
C  9.38000 48.07400 29.61800
C  10.17200 48.34000 30.90300
C  11.32000 49.27500 30.29300
C  11.37500 48.94200 28.77500
C  11.09200 50.83500 30.53200
C  10.70200 46.98800 31.65600
C  10.88300 47.15800 33.14200
H  10.07200 46.07500 33.99200
N  11.63700 48.33000 25.79000
C  12.59600 48.93600 26.53400
C  13.82600 49.14900 25.81900
C  13.52000 48.68600 24.49500
C  12.07700 48.25400 24.45100
C  15.04100 49.66100 26.37500
C  14.38800 48.76800 23.26800
O  14.11900 48.33200 22.12100
C  15.74400 49.38100 23.36500
N  9.19300 47.37700 24.21900
C  9.99500 47.49900 23.16300
C  9.42300 46.96400 21.93700
C  8.05900 46.37500 22.48200
C  7.96100 46.82500 23.91800
C  9.45300 48.03100 20.87800
C  7.89000 44.86800 22.43100
C  9.11300 44.06300 22.84100
N  7.88200 47.38200 26.84700
C  6.73800 47.05000 26.10500
C  5.60800 46.85700 26.92100
C  6.06500 47.12800 28.20600
C  7.47300 47.37500 28.13200
C  4.16900 46.47300 26.45600
C  5.66700 47.15400 29.65900
O  4.58000 46.91900 30.18200
C  6.93400 47.45300 30.52000
C  7.18700 46.32500 31.41100
O  7.70900 45.26000 31.07600
O  6.62600 46.69200 32.65300
C  6.40600 45.58000 33.59100
H  13.25400 49.76200 28.38500
H  11.87200 47.89800 22.37800
H  5.97000 46.40300 24.11700
H  9.54100 48.85000 31.63100
H  12.26000 48.92300 30.71800
H  11.96600 51.20100 31.07200
H  10.18300 50.92800 31.12600
H  11.02200 51.43100 29.62200
H  11.69000 46.81900 31.22600
H  10.19600 46.06100 31.38600
H  10.66300 48.14800 33.53900
H  11.91300 46.93700 33.42500
H  15.16000 50.64300 25.91700
H  15.95900 49.09100 26.23100
H  15.01900 49.65900 27.46500
H  15.56300 50.32700 23.87500
H  16.32600 49.64700 22.48300
H  16.37700 48.67900 23.90800
H  10.01300 46.12400 21.57100
H  7.25000 46.77400 21.87100
H  8.54800 48.02600 20.27200
H  10.33800 47.83100 20.27300
H  9.45200 49.06700 21.21800
H  7.71700 44.74500 21.36200
H  7.03600 44.61900 23.06100
H  8.71500 43.28900 23.49800
H  9.76300 44.64100 23.49800
H  9.72600 43.61700 22.05800
H  3.63700 47.42200 26.51600
H  3.62700 45.70800 27.01100
H  4.14000 46.01900 25.46500
H  6.65300 48.38000 31.02000
H  5.35300 45.35100 33.75900
H  6.92500 45.77500 34.53000
H  6.80500 44.61900 33.26700

