158

Mg 30.28100 60.15400 39.65500
C  27.33200 58.56600 38.42900
C  31.97400 57.31400 38.59100
C  33.22000 61.79700 40.01900
C  28.50300 63.06400 40.12600
N  29.69200 58.19700 38.48900
C  28.50300 57.78100 38.12900
C  28.61800 56.39100 37.41700
C  29.99700 55.85900 37.91000
C  30.63300 57.22400 38.30200
C  30.04700 54.79600 39.10000
C  28.45400 56.52400 35.89100
C  27.34400 55.71300 35.12900
H  26.53000 56.51300 34.08400
N  32.26800 59.61400 39.37400
C  32.75400 58.33300 38.98300
C  34.16200 58.31100 39.16400
C  34.62700 59.64500 39.44400
C  33.37600 60.44200 39.61900
C  34.99100 57.05900 38.86900
C  36.12800 60.03400 39.69100
O  36.97300 59.19900 39.56900
C  36.51200 61.38600 40.14900
N  30.83600 62.21700 39.77600
C  32.05900 62.59600 40.10600
C  32.01200 64.08200 40.34600
C  30.56700 64.42200 40.74700
C  29.88400 63.13600 40.19900
C  33.10700 64.54900 41.43800
C  30.10500 65.69900 40.04300
C  29.67700 66.83700 41.02500
N  28.31500 60.71100 39.60700
C  27.75700 61.94500 39.76500
C  26.34400 61.86100 39.55500
C  26.13100 60.49900 39.11800
C  27.37300 59.88200 39.06500
C  25.34800 62.85700 39.56200
C  25.16200 59.55700 38.57700
O  23.97600 59.67800 38.30900
C  25.84800 58.20600 38.29400
C  25.49000 57.19700 39.33600
O  25.84000 57.29600 40.51100
O  24.55000 56.38500 38.83100
C  23.76900 55.69400 39.79500
H  32.52100 56.43500 38.24400
H  34.12700 62.39900 40.09900
H  27.92800 63.97700 40.29800
H  27.86400 55.74200 37.86200
H  30.55600 55.33400 37.13500
H  29.04200 54.80600 39.52300
H  30.84500 55.09300 39.78000
H  30.27400 53.81300 38.68800
H  29.39300 56.17900 35.45800
H  28.32200 57.52000 35.46700
H  26.68400 55.31100 35.89800
H  27.85500 54.93700 34.55900
H  35.85300 56.84700 39.50100
H  35.39800 57.00000 37.85900
H  34.51800 56.10300 39.09700
H  37.59300 61.47900 40.25700
H  36.07200 61.40400 41.14600
H  36.17800 62.18200 39.48400
H  32.40100 64.55300 39.44300
H  30.38400 64.22800 41.80400
H  32.69700 65.25900 42.15700
H  33.90600 65.09400 40.93400
H  33.50800 63.77400 42.09000
H  29.34700 65.50900 39.28200
H  30.86500 66.24000 39.48000
H  30.06200 67.73700 40.54700
H  30.12700 66.65200 42.00100
H  28.61100 66.87200 41.24800
H  24.82200 62.81300 38.60800
H  25.78200 63.84800 39.69500
H  24.64000 62.80600 40.38900
H  25.49600 57.87000 37.31900
H  24.28500 54.85300 40.25600
H  22.96600 55.27500 39.18900
H  23.32700 56.43900 40.45700
Mg 36.21800 49.85300 25.77600
C  36.26800 47.81200 28.59200
C  35.66200 52.53500 27.75500
C  35.92900 51.66100 22.96000
C  36.61600 46.98300 23.86600
N  36.08400 50.11300 27.98200
C  35.99800 49.18100 28.96100
C  35.84700 49.78400 30.37800
C  35.24900 51.25400 29.99600
C  35.71400 51.30000 28.48800
C  33.73100 51.51700 30.17000
C  37.33300 49.82200 31.02000
C  37.40300 49.52700 32.48400
H  36.11400 49.72300 33.31800
N  36.02700 51.83900 25.42400
C  35.81400 52.76400 26.35900
C  35.69200 54.07800 25.67800
C  35.62200 53.85800 24.28400
C  35.83900 52.40100 24.21400
C  35.86100 55.37200 26.44400
C  35.54900 54.73500 23.14100
O  35.53700 54.41600 21.97500
C  35.47600 56.25300 23.45800
N  36.11700 49.35500 23.64900
C  36.15300 50.29500 22.73500
C  36.13600 49.75200 21.32400
C  36.45100 48.21000 21.54300
C  36.46200 48.16200 23.10500
C  34.75700 50.06900 20.58100
C  37.78400 47.70000 20.80000
C  37.50800 46.66600 19.77400
N  36.33400 47.84400 26.06600
C  36.63900 46.77800 25.22400
C  36.91300 45.51100 25.96600
C  36.82800 45.91600 27.33100
C  36.43100 47.27700 27.30600
C  37.09200 44.13500 25.36200
C  36.82400 45.43900 28.68900
O  37.08800 44.33600 29.04400
C  36.43600 46.65800 29.64100
C  35.11600 46.52000 30.33400
O  34.05000 46.57800 29.79100
O  35.34600 46.34800 31.71600
C  34.14600 46.44200 32.49700
H  35.37400 53.39700 28.36100
H  35.84600 52.25100 22.04500
H  36.82100 46.06100 23.31900
H  35.08100 49.26400 30.95300
H  35.82700 51.99100 30.55400
H  33.28500 51.70500 29.19400
H  33.55900 52.36200 30.83700
H  33.16600 50.63300 30.46700
H  37.85600 50.76200 30.84500
H  37.84500 49.00500 30.51200
H  38.02400 50.28500 32.96200
H  37.85300 48.56600 32.73500
H  34.86100 55.80500 26.43100
H  36.51500 56.16300 26.07600
H  36.08400 55.27800 27.50600
H  35.14700 56.80900 22.58100
H  36.45000 56.61500 23.78800
H  34.74600 56.40100 24.25400
H  36.88600 50.24500 20.70600
H  35.61200 47.67800 21.09500
H  33.98600 50.32700 21.30700
H  34.28700 49.17300 20.17500
H  34.84700 50.77100 19.75200
H  38.38200 47.15500 21.53200
H  38.41700 48.43600 20.30600
H  37.56700 47.03800 18.75100
H  36.53600 46.17900 19.84700
H  38.16100 45.83600 20.04400
H  36.26900 43.73200 24.77300
H  37.46300 43.35800 26.03000
H  37.78600 44.24200 24.52700
H  37.24400 46.79600 30.36000
H  33.31500 45.79500 32.21500
H  33.70400 47.43500 32.42200
H  34.52000 46.19400 33.49000

