158

Mg 47.63500 45.15500 42.71600
C  44.17300 45.10000 42.74200
C  47.65700 41.76600 42.31200
C  51.02700 45.25100 42.22200
C  47.48100 48.63800 42.12100
N  46.10800 43.65700 42.66300
C  44.74900 43.81900 42.64600
C  44.02200 42.54800 42.63000
C  45.09900 41.44200 42.55800
C  46.42600 42.34900 42.41900
C  45.17800 40.34300 43.77100
C  42.88800 42.45500 41.51200
C  43.06600 43.35500 40.21700
H  43.69800 42.66400 38.98500
N  49.16300 43.73700 42.53200
C  48.92500 42.37200 42.32200
C  50.18300 41.65300 42.16100
C  51.20100 42.59200 42.22100
C  50.52900 43.94700 42.35100
C  50.33100 40.24200 41.76900
C  52.68600 42.38500 41.96000
O  53.06100 41.29400 41.64500
C  53.71400 43.48600 42.14200
N  49.07900 46.78500 42.21700
C  50.37200 46.54000 42.25000
C  51.13100 47.85600 42.35000
C  50.08200 48.97600 41.92700
C  48.78200 48.11300 42.12900
C  51.94100 48.11100 43.70200
C  50.08100 49.48400 40.48400
C  50.64900 50.89100 40.25100
N  46.18900 46.60100 42.58800
C  46.28200 47.97700 42.35000
C  44.92700 48.50100 42.31700
C  44.08900 47.39400 42.59900
C  44.93400 46.28400 42.69700
C  44.47400 49.97100 42.13400
C  42.69600 47.02800 42.72700
O  41.67600 47.71000 42.57700
C  42.68600 45.45200 42.89400
C  42.03300 45.06100 44.12700
O  40.94600 44.53100 44.14500
O  42.81800 45.24000 45.23800
C  42.22800 44.50700 46.41000
H  47.54800 40.68700 42.18800
H  52.10100 45.35800 42.05200
H  47.49900 49.72500 42.01600
H  43.62700 42.55000 43.64600
H  44.92900 40.79900 41.69400
H  46.10700 40.54900 44.30200
H  45.17400 39.37200 43.27500
H  44.35000 40.53900 44.45200
H  41.92400 42.76500 41.91500
H  42.74900 41.39800 41.28400
H  43.74000 44.20900 40.29000
H  42.05100 43.66600 39.96800
H  49.43500 40.01300 41.19200
H  50.47300 39.48400 42.54000
H  51.16500 40.04400 41.09600
H  53.71500 44.16100 41.28600
H  54.69400 43.01500 42.22800
H  53.47000 44.00700 43.06800
H  51.84500 47.87600 41.52600
H  49.93200 49.78800 42.63800
H  51.64700 49.00600 44.25000
H  52.99200 48.28100 43.46500
H  51.90600 47.33000 44.46200
H  49.14300 49.47000 39.92900
H  50.77700 48.80000 39.99800
H  51.08400 51.28700 41.16800
H  49.83300 51.47400 39.82200
H  51.40500 50.78300 39.47300
H  45.29200 50.63200 41.84700
H  44.11800 50.26000 43.12200
H  43.71700 50.12000 41.36400
H  42.09200 45.01800 42.08900
H  42.36000 43.43200 46.29000
H  41.20000 44.80700 46.61000
H  42.74000 44.82500 47.31800
Mg 6.49400 54.36100 41.35400
C  6.19800 50.93100 41.20600
C  10.00900 53.90400 40.53800
C  6.86400 57.71800 41.00600
C  3.16500 54.69700 41.74700
N  7.85400 52.60300 40.72900
C  7.47100 51.24900 40.83700
C  8.72300 50.33900 40.63900
C  9.93200 51.34100 40.69500
C  9.22200 52.68700 40.74500
C  10.91900 51.07500 41.88600
C  8.66400 49.61200 39.27800
C  8.45700 50.49500 38.10700
H  7.49200 49.96900 37.04400
N  8.15400 55.61900 40.83900
C  9.46900 55.24500 40.59200
C  10.27900 56.46100 40.32000
C  9.39800 57.53800 40.46800
C  8.04700 56.93900 40.77800
C  11.70100 56.39100 39.86400
C  9.76400 59.03300 40.20300
O  10.90700 59.34400 39.88300
C  8.79300 60.09500 40.17100
N  5.19500 56.00100 41.14700
C  5.53400 57.27600 41.14800
C  4.42700 58.22600 41.56600
C  3.24700 57.24400 41.55200
C  3.89300 55.85900 41.42700
C  4.63100 58.78500 42.99800
C  2.18800 57.51300 40.40500
C  0.78700 57.82500 40.85700
N  4.92600 53.11700 41.49300
C  3.60800 53.34600 41.80000
C  2.98100 52.12700 42.17900
C  3.98100 51.17300 41.99300
C  5.16700 51.80100 41.47300
C  1.63200 51.95300 42.73400
C  4.20700 49.79300 42.02800
O  3.44600 48.87600 42.36100
C  5.62900 49.58300 41.49500
C  5.43200 48.70500 40.35200
O  4.86500 49.04000 39.36400
O  5.78300 47.40100 40.60700
C  5.19800 46.33300 39.75400
H  11.09600 53.84600 40.44700
H  7.04200 58.79400 41.06300
H  2.12300 54.95400 41.94800
H  8.69800 49.59300 41.43400
H  10.47100 51.36100 39.74700
H  11.18200 51.94200 42.49200
H  11.84800 50.67900 41.47500
H  10.58600 50.21900 42.47300
H  8.01700 48.73900 39.20000
H  9.64600 49.17600 39.09000
H  9.41900 50.49700 37.59600
H  8.20400 51.54700 38.23100
H  11.82800 57.01400 38.97900
H  11.88100 55.39000 39.47200
H  12.44900 56.74400 40.57400
H  7.87200 59.76800 39.68900
H  9.22800 60.89400 39.57000
H  8.67400 60.52500 41.16600
H  4.36400 59.07600 40.88700
H  2.68200 57.18100 42.48200
H  3.92300 58.28900 43.66200
H  4.41400 59.85300 43.00400
H  5.63700 58.61600 43.38100
H  2.24200 56.81700 39.56700
H  2.61600 58.40000 39.93900
H  0.63100 58.86300 40.56400
H  0.55300 57.83600 41.92100
H  0.07700 57.31300 40.20700
H  1.04300 51.52100 41.92400
H  1.13300 52.77700 43.24300
H  1.86300 51.14600 43.42900
H  6.34100 49.27200 42.26000
H  4.21000 46.24900 40.20600
H  5.72200 45.37800 39.71400
H  5.10600 46.71800 38.73900

