158

Mg -2.05100 17.58600 27.23100
C  -2.62700 15.33200 29.78300
C  -2.45400 20.21100 29.54900
C  -2.01800 19.72900 24.70200
C  -2.28100 14.86300 24.98500
N  -2.53700 17.65200 29.40300
C  -2.68000 16.66500 30.30500
C  -2.80800 17.13900 31.76700
C  -2.85700 18.71200 31.58100
C  -2.52400 18.90400 30.08600
C  -4.09500 19.53000 32.10600
C  -1.72900 16.64600 32.77200
C  -1.27500 17.54000 33.92900
H  -0.85000 16.69100 35.16200
N  -2.15200 19.67600 27.13100
C  -2.33200 20.53800 28.18100
C  -2.22900 21.91400 27.64300
C  -2.02800 21.76000 26.19700
C  -2.03500 20.38900 25.99200
C  -2.22800 23.15300 28.45400
C  -1.85100 22.87700 25.19100
O  -1.56300 22.65100 24.00200
C  -2.06700 24.30700 25.52300
N  -2.11300 17.37500 25.14800
C  -2.10500 18.42400 24.35700
C  -2.12900 18.01900 22.83300
C  -1.94800 16.43000 22.92900
C  -2.10100 16.16200 24.47300
C  -3.41500 18.38700 22.00100
C  -0.60100 15.95500 22.38300
C  0.61300 16.27300 23.29700
N  -2.37000 15.57800 27.32300
C  -2.36000 14.59400 26.34600
C  -2.53800 13.31700 26.88300
C  -2.66900 13.53600 28.21000
C  -2.54800 14.91000 28.47600
C  -2.86200 11.97900 26.25000
C  -2.88000 12.90600 29.50200
O  -3.14800 11.74600 29.78400
C  -2.79000 13.98700 30.58600
C  -1.53200 13.66600 31.33400
O  -0.34100 13.88900 31.03800
O  -1.90000 13.08200 32.48700
C  -0.86600 12.66400 33.43000
H  -2.41500 21.03000 30.27000
H  -2.00100 20.39000 23.83300
H  -2.36900 13.99900 24.32200
H  -3.67300 16.65400 32.21900
H  -1.95400 19.03500 32.10000
H  -4.87300 18.98800 32.64300
H  -4.49100 20.02500 31.21900
H  -3.81100 20.24800 32.87500
H  -0.84700 16.35400 32.20200
H  -2.08700 15.70600 33.19300
H  -1.98500 18.23600 34.37400
H  -0.47700 18.20600 33.60100
H  -1.28700 23.70400 28.44300
H  -2.29200 22.95300 29.52400
H  -2.95500 23.89500 28.12400
H  -2.08800 25.05300 24.72800
H  -1.39300 24.66500 26.30200
H  -3.07900 24.47800 25.88900
H  -1.22300 18.40900 22.36900
H  -2.81400 15.91400 22.51400
H  -4.18800 18.81600 22.63900
H  -3.92700 17.57700 21.48100
H  -3.19600 19.21500 21.32700
H  -0.53300 16.45800 21.41800
H  -0.64000 14.87000 22.28300
H  0.98300 15.29400 23.60100
H  0.51500 16.76600 24.26400
H  1.30400 16.88900 22.72100
H  -1.98600 11.33300 26.30100
H  -3.10700 12.12900 25.19800
H  -3.67100 11.48700 26.78900
H  -3.55900 13.88600 31.35100
H  -1.42800 12.52300 34.35300
H  -0.11500 13.43000 33.62400
H  -0.39800 11.71000 33.19200
Mg 8.50500 3.15400 27.79900
C  9.82200 1.59300 30.68100
C  6.34300 4.89500 29.85500
C  7.18900 4.58500 25.04200
C  10.21500 0.92500 25.85300
N  8.06500 3.16800 30.00600
C  8.82300 2.58100 30.95900
C  8.45100 3.12100 32.39600
C  7.22600 3.97300 32.08800
C  7.21100 4.06200 30.54900
C  5.94500 3.51000 32.79800
C  9.59400 3.73600 33.17400
C  9.12500 4.39000 34.47300
H  10.03500 4.00500 35.61600
N  7.02700 4.58300 27.45900
C  6.24300 5.18500 28.46600
C  5.34600 6.11400 27.86900
C  5.45700 5.95600 26.44900
C  6.61200 5.03100 26.25900
C  4.35500 6.94700 28.73400
C  4.61000 6.64500 25.37800
O  4.78900 6.32500 24.21400
C  3.43400 7.63600 25.72400
N  8.81900 2.92600 25.68300
C  8.13800 3.50800 24.69900
C  8.57100 3.08500 23.31000
C  9.56600 1.96100 23.61000
C  9.58300 1.93500 25.12900
C  7.33700 2.64400 22.47900
C  10.96400 2.09300 23.06300
C  11.85200 3.28000 23.63500
N  9.60000 1.52100 28.14400
C  10.28000 0.74000 27.20400
C  11.13700 -0.15600 27.93500
C  10.97300 0.15900 29.31300
C  10.05500 1.14400 29.39400
C  12.02900 -1.29800 27.35900
C  11.43300 -0.18500 30.67000
O  12.23400 -1.09300 30.98400
C  10.79200 0.87200 31.63200
C  10.11700 0.00300 32.61000
O  9.06000 -0.58500 32.45300
O  10.83000 0.02900 33.70000
C  10.25500 -0.20200 35.03900
H  5.58100 5.33700 30.50100
H  6.80500 5.03300 24.12300
H  10.73300 0.15200 25.28200
H  8.02700 2.23900 32.87500
H  7.44600 5.01400 32.32600
H  6.22400 2.75900 33.53700
H  5.29200 3.04700 32.05900
H  5.47900 4.29900 33.38800
H  10.00800 4.55700 32.58900
H  10.43500 3.07700 33.39100
H  8.07900 4.12300 34.62300
H  9.19800 5.47400 34.37700
H  4.38400 7.98600 28.40700
H  4.49900 7.08500 29.80600
H  3.44500 6.38100 28.53500
H  2.90700 7.83300 24.79100
H  3.72100 8.61500 26.10900
H  2.71500 7.00400 26.24500
H  9.01000 3.92100 22.76500
H  9.09000 1.02400 23.32300
H  6.45100 2.61100 23.11400
H  7.40200 1.66500 22.00400
H  7.23300 3.45500 21.75900
H  10.89700 2.19500 21.98000
H  11.46100 1.14000 23.24000
H  12.22000 3.85000 22.78200
H  12.74600 2.83000 24.06600
H  11.39100 3.75500 24.50000
H  12.01900 -1.34900 26.27000
H  11.79500 -2.19300 27.93500
H  13.05100 -0.97200 27.55300
H  11.70000 1.30900 32.04700
H  9.18900 -0.42700 35.09200
H  10.39700 0.68000 35.66400
H  10.83500 -0.97500 35.54200

