158

Mg 2.39500 -1.09200 45.00600
C  5.65000 -0.25300 43.86800
C  1.18100 1.73700 43.58400
C  -0.73800 -2.43800 45.16600
C  3.65400 -4.26000 45.95200
N  3.35400 0.45800 43.67600
C  4.70300 0.71400 43.50800
C  4.86700 2.12500 42.76000
C  3.49300 2.81900 43.01900
C  2.57800 1.65300 43.46400
C  3.45100 4.02500 43.95900
C  5.25100 1.77000 41.23100
C  6.64000 2.35300 40.88700
H  6.72600 3.34900 39.73200
N  0.47100 -0.44100 44.50000
C  0.19500 0.69800 43.97600
C  -1.21300 0.84600 43.74000
C  -1.90100 -0.33700 44.11900
C  -0.67800 -1.18300 44.57300
C  -1.87800 2.02300 43.12700
C  -3.37100 -0.63700 44.04600
O  -4.07400 0.19500 43.56700
C  -3.90200 -1.89100 44.60400
N  1.52700 -3.15600 45.61200
C  0.19100 -3.38500 45.69100
C  -0.03500 -4.91400 45.81500
C  1.42200 -5.48800 46.20600
C  2.28500 -4.27000 45.88700
C  -1.08500 -5.24800 46.89600
C  1.76400 -6.78200 45.39300
C  2.62700 -7.77400 46.21100
N  4.23700 -2.03800 44.96800
C  4.55900 -3.27300 45.45800
C  5.98500 -3.43600 45.39700
C  6.49200 -2.23000 44.77700
C  5.35100 -1.45200 44.52500
C  6.74500 -4.62100 45.80700
C  7.73900 -1.48900 44.35300
O  8.88800 -1.81400 44.36800
C  7.16000 -0.21600 43.72200
C  7.77400 0.94700 44.39700
O  8.72500 1.53300 43.95400
O  7.02900 1.31900 45.55800
C  7.52900 2.51100 46.29900
H  0.80900 2.70100 43.23100
H  -1.69500 -2.88300 45.44500
H  4.08400 -5.10400 46.49400
H  5.65200 2.55600 43.38100
H  3.15300 3.13000 42.03100
H  4.22800 3.91300 44.71400
H  2.44000 3.97400 44.36400
H  3.48400 4.99700 43.46600
H  4.48600 2.21000 40.59000
H  5.20900 0.69900 41.03200
H  7.30600 1.52800 40.63500
H  7.07700 2.88600 41.73100
H  -2.72400 2.29700 43.75700
H  -2.18800 1.63100 42.15800
H  -1.16400 2.84400 43.05600
H  -4.98900 -1.87400 44.52600
H  -3.50400 -1.89900 45.61900
H  -3.53500 -2.82200 44.17200
H  -0.34900 -5.17300 44.80400
H  1.39900 -5.69700 47.27500
H  -1.94900 -5.66000 46.37500
H  -1.43300 -4.33300 47.37600
H  -0.83700 -5.93900 47.70100
H  2.31000 -6.60700 44.46600
H  0.82800 -7.29400 45.17200
H  1.97900 -8.53700 46.64200
H  3.09200 -7.30500 47.07800
H  3.40000 -8.30200 45.65300
H  6.50100 -4.95200 46.81600
H  7.82700 -4.48900 45.79800
H  6.51000 -5.36200 45.04300
H  7.38600 -0.19900 42.65600
H  6.54600 2.96900 46.18700
H  8.29900 3.13500 45.84400
H  7.73000 2.35100 47.35900
Mg 5.83600 54.44700 39.88300
C  5.49300 50.96900 40.47700
C  8.90300 53.84900 38.54400
C  5.81600 57.66400 38.89700
C  2.53100 54.84400 41.20200
N  7.06600 52.54900 39.42500
C  6.66800 51.25700 39.72400
C  7.82900 50.32500 39.36300
C  9.03400 51.34100 39.29100
C  8.32400 52.66400 39.01600
C  9.94200 51.39400 40.54300
C  7.58200 49.54000 38.02100
C  6.47300 49.97000 37.08100
H  6.81200 50.47500 35.60900
N  7.14400 55.58800 38.87000
C  8.45900 55.16300 38.46500
C  9.20000 56.35700 38.04500
C  8.23300 57.44900 38.04000
C  6.98600 56.93300 38.61800
C  10.68300 56.29000 37.68000
C  8.52700 58.85800 37.69700
O  9.64100 59.14000 37.29100
C  7.49200 60.01300 37.82600
N  4.20400 55.99000 39.62200
C  4.56400 57.25000 39.45700
C  3.46400 58.20400 39.86000
C  2.62400 57.36800 40.85000
C  3.10800 55.95900 40.48300
C  3.89500 59.50700 40.52700
C  1.10100 57.40000 40.54500
C  0.13900 57.28000 41.79400
N  4.31800 53.19800 40.66800
C  3.04000 53.51500 41.21700
C  2.46200 52.28200 41.78900
C  3.40800 51.29100 41.53100
C  4.46100 51.83000 40.73500
C  1.23000 52.24500 42.59300
C  3.65800 49.88100 41.75300
O  2.99400 49.11300 42.39600
C  4.98500 49.54600 40.94700
C  4.60600 48.66100 39.78400
O  4.11600 49.03500 38.76900
O  4.93000 47.34100 40.06200
C  4.78400 46.37200 38.96500
H  9.90300 53.73700 38.12100
H  5.75100 58.70500 38.57500
H  1.72300 55.14900 41.87000
H  7.91300 49.57500 40.15000
H  9.72500 51.15600 38.46900
H  9.66800 50.74800 41.37600
H  10.09400 52.39100 40.95700
H  10.95300 51.09400 40.26800
H  7.52800 48.47900 38.26600
H  8.48500 49.55500 37.41000
H  5.93500 50.84500 37.44500
H  5.83400 49.09000 37.01700
H  11.31700 55.65300 38.29700
H  11.28600 57.18000 37.85700
H  10.65200 55.94300 36.64800
H  6.58200 59.93100 37.23200
H  7.89200 61.00200 37.59900
H  7.35000 60.12600 38.90100
H  2.82400 58.36000 38.99200
H  2.79600 57.58200 41.90500
H  4.84000 59.32100 41.03900
H  3.17800 59.92800 41.23200
H  4.16300 60.21100 39.73900
H  0.90300 56.51100 39.94700
H  0.82100 58.20600 39.86500
H  -0.44100 58.20200 41.84700
H  0.61000 57.20700 42.77400
H  -0.51400 56.45500 41.51000
H  0.51800 51.66200 42.00900
H  0.84600 53.16600 43.03200
H  1.52300 51.47800 43.30900
H  5.64700 48.91200 41.53600
H  5.09100 46.63300 37.95200
H  3.74000 46.06400 38.89600
H  5.40500 45.53700 39.28900

