158

Mg 7.74900 2.73400 27.44300
C  9.07600 0.90100 30.16400
C  5.86900 4.57700 29.47800
C  6.24100 3.96400 24.73700
C  9.11800 0.26800 25.31300
N  7.53600 2.75800 29.53300
C  8.28100 2.06500 30.48900
C  8.11100 2.73500 31.87700
C  6.94600 3.74400 31.66200
C  6.69100 3.67900 30.12700
C  5.81700 3.65700 32.62900
C  9.39500 3.40800 32.42400
C  9.18600 3.95100 33.82300
H  10.10600 3.51500 34.95700
N  6.21500 4.15400 27.10200
C  5.54500 4.81500 28.12900
C  4.67600 5.81900 27.56400
C  4.78400 5.67900 26.17700
C  5.80300 4.55600 25.95100
C  3.70200 6.62400 28.37600
C  4.00200 6.41500 25.07800
O  4.06200 6.11600 23.88800
C  2.96100 7.45400 25.45000
N  7.55100 2.01600 25.30400
C  6.92100 2.84800 24.44300
C  7.02200 2.29600 23.02500
C  8.01500 1.10100 23.22000
C  8.21700 1.07100 24.71900
C  5.69100 1.70800 22.47000
C  9.32200 1.37900 22.47100
C  9.98000 0.05400 22.13800
N  8.93500 1.07000 27.65600
C  9.41400 0.12300 26.68100
C  10.24800 -0.88600 27.30300
C  10.26600 -0.53200 28.66600
C  9.28100 0.54100 28.85000
C  11.00000 -1.99800 26.63200
C  10.80000 -0.85500 30.00200
O  11.59300 -1.68600 30.44000
C  10.03300 0.15200 31.03400
C  9.33200 -0.67400 32.08100
O  8.44600 -1.44500 31.86100
O  9.84400 -0.34400 33.28900
C  9.49900 -1.19500 34.50000
H  5.34800 5.28700 30.12400
H  5.91600 4.54000 23.86800
H  9.67700 -0.46900 24.73200
H  7.78400 2.01900 32.63100
H  7.41300 4.72100 31.77900
H  4.98200 3.15600 32.14100
H  5.46800 4.68100 32.76400
H  6.10300 3.12100 33.53300
H  9.73500 4.15600 31.70800
H  10.17500 2.64700 32.45600
H  8.15600 3.64000 33.99700
H  9.26100 5.03600 33.74700
H  3.90800 7.69400 28.34500
H  3.75600 6.41600 29.44500
H  2.64500 6.51100 28.13400
H  2.15300 6.93100 25.96200
H  2.58700 8.11600 24.66900
H  3.40000 8.16100 26.15300
H  7.38800 3.08600 22.37000
H  7.53200 0.20000 22.84000
H  4.93400 1.93700 23.22000
H  5.60800 0.64400 22.24900
H  5.39700 2.25800 21.57600
H  9.98000 1.95900 23.11800
H  9.13200 1.94400 21.55800
H  9.34000 -0.79500 22.37900
H  10.95200 0.03500 22.63100
H  10.03100 -0.04400 21.05400
H  11.44500 -1.75600 25.66700
H  10.54700 -2.97700 26.47400
H  11.84900 -2.06000 27.31300
H  10.75500 0.73400 31.60600
H  9.25500 -0.49800 35.30100
H  10.40200 -1.68800 34.85900
H  8.64800 -1.81700 34.22200
Mg 54.14200 24.48300 44.85300
C  51.63900 26.78300 44.03100
C  51.91400 21.90800 44.07200
C  56.72000 22.44400 44.61100
C  56.26100 27.17000 45.41100
N  52.09600 24.44200 43.98200
C  51.23000 25.50300 43.87900
C  49.83000 25.04700 43.50300
C  49.89800 23.53900 44.01400
C  51.38600 23.24700 44.08800
C  49.15000 23.28800 45.34300
C  49.59200 25.15700 41.92400
C  48.09700 25.46800 41.60400
H  47.69300 25.40800 40.10800
N  54.27900 22.43400 44.38700
C  53.24000 21.51400 44.14500
C  53.83600 20.21100 43.89400
C  55.24800 20.35800 43.94500
C  55.48800 21.81000 44.28400
C  53.10800 18.93600 43.75400
C  56.26000 19.18000 43.69200
O  55.88800 18.04600 43.36200
C  57.69500 19.34000 43.90000
N  56.14800 24.76600 44.91000
C  57.02400 23.73900 44.97600
C  58.44500 24.16600 45.21800
C  58.31200 25.70200 45.47400
C  56.83900 25.88600 45.33300
C  59.27700 23.41000 46.33500
C  59.22700 26.59400 44.60000
C  60.05700 27.66100 45.31300
N  53.99100 26.62300 44.96500
C  54.90700 27.58100 45.35800
C  54.22600 28.84700 45.47100
C  52.94100 28.61700 44.86100
C  52.88600 27.20100 44.57100
C  54.68400 30.22200 45.91600
C  51.68300 29.25200 44.39400
O  51.38400 30.45800 44.43400
C  50.78800 28.12300 43.79800
C  50.50300 28.42600 42.35200
O  51.24600 28.11300 41.40700
O  49.23400 28.95600 42.21600
C  48.57200 29.02000 40.86700
H  51.27300 21.02500 44.02800
H  57.57600 21.78800 44.78300
H  56.86000 28.03700 45.69700
H  49.14100 25.55300 44.18100
H  49.39700 22.91900 43.27100
H  48.75900 22.27100 45.35900
H  48.29700 23.94000 45.53400
H  49.87200 23.41300 46.15000
H  49.84500 24.19100 41.48500
H  50.23800 25.90100 41.45800
H  48.03000 26.52100 41.87600
H  47.36300 24.92400 42.19900
H  53.48900 18.08400 43.19200
H  52.21400 19.18500 43.18200
H  52.57900 18.64500 44.66100
H  58.22300 18.48700 43.47300
H  57.87900 19.42600 44.97100
H  58.03100 20.19100 43.30800
H  59.04800 23.92700 44.34300
H  58.54700 25.97500 46.50300
H  58.71400 22.52200 46.62300
H  59.43100 24.09000 47.17200
H  60.22500 22.98900 45.99800
H  58.64500 27.23800 43.94100
H  59.90400 25.96600 44.02100
H  60.53300 28.18600 44.48500
H  60.78100 27.19500 45.98100
H  59.35400 28.25200 45.90200
H  55.24600 30.18600 46.84900
H  53.96200 31.02800 46.05100
H  55.39700 30.55800 45.16300
H  49.86200 27.86100 44.31000
H  47.80500 28.24900 40.93700
H  49.20800 28.66700 40.05500
H  48.17200 30.00400 40.62100

