158

Mg 43.69200 4.38600 46.46600
C  41.96400 7.46000 46.83500
C  40.80900 2.60800 46.34900
C  45.57100 1.70000 45.86600
C  46.65500 6.46400 46.28500
N  41.64300 5.03300 46.56200
C  41.14400 6.27400 46.78100
C  39.61600 6.17800 46.83900
C  39.29200 4.63100 46.86300
C  40.66300 4.01500 46.64600
C  38.60200 4.12300 48.18800
C  38.85300 7.06300 45.78100
C  39.42000 7.40000 44.40600
H  38.76600 6.58000 43.17000
N  43.25700 2.43700 46.14000
C  42.01300 1.87300 46.08400
C  42.05700 0.43200 45.84300
C  43.43800 0.12700 45.81400
C  44.16600 1.44800 45.89200
C  40.79500 -0.35900 45.66300
C  44.03000 -1.31700 45.66200
O  43.22500 -2.27100 45.64300
C  45.46500 -1.52000 45.46300
N  45.81700 4.17600 45.99100
C  46.32000 2.83000 46.00300
C  47.87900 2.83200 46.07300
C  48.17500 4.37700 46.01100
C  46.82100 5.10700 46.11400
C  48.39300 1.91000 47.22900
C  48.88900 4.88000 44.74100
C  50.42000 4.83500 44.95300
N  44.30000 6.53900 46.52300
C  45.46900 7.18400 46.48500
C  45.27200 8.63700 46.67800
C  43.87200 8.68000 46.83100
C  43.33500 7.44400 46.73800
C  46.21800 9.72900 46.75300
C  42.78400 9.58200 47.07700
O  42.82800 10.80500 47.38400
C  41.49100 8.82300 47.06000
C  40.93500 8.93600 48.47600
O  41.24300 8.26800 49.45500
O  40.01700 9.93500 48.38100
C  39.34300 10.37700 49.60900
H  39.78700 2.22200 46.31800
H  46.10800 0.75300 45.77100
H  47.51000 7.13000 46.42100
H  39.40000 6.53300 47.84700
H  38.51800 4.38200 46.13600
H  38.43400 5.00100 48.81100
H  39.30900 3.50800 48.74400
H  37.65800 3.60400 48.02400
H  38.61000 8.04400 46.18900
H  37.89300 6.63800 45.48700
H  40.49700 7.50400 44.27500
H  39.08900 8.41400 44.18300
H  40.56000 -0.66800 46.68100
H  41.05600 -1.17200 44.98500
H  40.00900 0.32300 45.34000
H  45.45200 -2.60500 45.35800
H  46.04100 -1.29900 46.36200
H  45.84200 -1.07400 44.54200
H  48.29100 2.31900 45.20400
H  48.67500 4.73100 46.91300
H  48.96100 1.04400 46.89000
H  47.53200 1.51700 47.77000
H  49.07400 2.45100 47.88700
H  48.50000 5.88300 44.56600
H  48.70600 4.39700 43.78100
H  51.00100 4.60000 44.06000
H  50.61800 4.07000 45.70300
H  50.85900 5.81000 45.16700
H  46.70300 9.78100 47.72800
H  45.57600 10.59100 46.57300
H  46.95000 9.75600 45.94700
H  40.79300 9.25800 46.34400
H  39.73400 10.01500 50.56000
H  38.31100 10.04900 49.48500
H  39.45900 11.45400 49.73200
Mg 4.03900 53.96300 41.45200
C  4.37600 50.66800 40.57500
C  7.18900 54.63600 40.11100
C  3.47800 57.27700 42.02700
C  0.70200 53.23400 42.65800
N  5.50500 52.78100 40.40900
C  5.51900 51.41600 40.23600
C  6.88900 50.88500 39.75100
C  7.70900 52.18400 39.75800
C  6.74200 53.27700 40.16300
C  9.12000 52.13500 40.38400
C  6.87300 50.21900 38.45900
C  5.89200 50.62000 37.31400
H  6.44500 51.32000 36.05000
N  5.13300 55.75500 40.94900
C  6.44300 55.79900 40.51900
C  6.84700 57.16800 40.43200
C  5.79000 57.97600 40.95200
C  4.75500 57.01700 41.35500
C  8.11400 57.63800 39.81800
C  5.81800 59.46800 41.05800
O  6.82900 60.13100 40.71800
C  4.56800 60.18600 41.34300
N  2.33900 55.07800 42.17600
C  2.42000 56.40400 42.41600
C  1.04800 56.91700 42.98800
C  0.10500 55.67500 42.94200
C  1.09100 54.59000 42.59000
C  1.25800 57.45300 44.49900
C  -1.10700 55.71700 41.99800
C  -2.33500 54.98400 42.61800
N  2.83200 52.30100 41.77700
C  1.51000 52.11400 42.27800
C  1.27600 50.68900 42.40800
C  2.39500 50.05500 41.72500
C  3.24500 51.10400 41.29900
C  -0.02000 50.06100 42.97100
C  2.95800 48.81400 41.46100
O  2.47100 47.74600 41.64100
C  4.24100 49.12600 40.62400
C  3.97800 48.50700 39.30200
O  3.06900 48.84100 38.50100
O  4.90300 47.53400 39.11400
C  4.75700 46.52800 38.05600
H  8.27800 54.71500 40.08500
H  3.25100 58.30900 42.30300
H  -0.29600 53.02400 43.05000
H  7.30900 50.14300 40.43000
H  7.85400 52.41600 38.70300
H  9.76700 51.43900 39.85100
H  9.01700 51.86600 41.43500
H  9.64300 53.08200 40.24800
H  6.78200 49.14300 38.60900
H  7.92700 50.29000 38.19000
H  5.05100 51.17900 37.72500
H  5.44600 49.66800 37.02500
H  8.48900 56.78300 39.25400
H  8.81800 57.83600 40.62500
H  8.00200 58.59700 39.31300
H  4.27700 60.12100 42.39200
H  3.78900 59.72100 40.73900
H  4.61700 61.26300 41.18800
H  0.57400 57.64300 42.32700
H  -0.18800 55.41500 43.95900
H  2.24700 57.89200 44.63000
H  1.03100 56.66800 45.22100
H  0.46000 58.16200 44.71500
H  -0.85500 55.45800 40.97000
H  -1.43400 56.75500 41.93600
H  -3.18900 55.65800 42.68300
H  -2.18300 54.60400 43.62800
H  -2.55500 54.12200 41.98700
H  0.11500 48.98100 43.04400
H  -0.85700 50.16600 42.28000
H  -0.14700 50.57200 43.92500
H  5.19000 48.72800 40.98300
H  5.03800 46.85800 37.05600
H  3.79200 46.03700 38.18200
H  5.46200 45.73700 38.31400

