158

Mg 48.11500 16.31100 28.39000
C  45.93900 16.01900 31.01800
C  50.39100 18.10700 30.35500
C  49.74000 17.33100 25.57800
C  45.51900 14.81900 26.29800
N  48.14100 16.90800 30.40100
C  47.15300 16.65100 31.34900
C  47.63200 17.02100 32.78900
C  48.89800 17.86900 32.52400
C  49.23700 17.57700 31.00400
C  48.80500 19.38100 32.85500
C  47.70500 15.74300 33.74600
C  47.45900 16.04600 35.25500
H  47.69100 17.45200 35.79600
N  49.97500 17.33200 28.08300
C  50.76800 17.91200 29.02900
C  52.01700 18.21700 28.41500
C  51.85300 18.09900 26.99800
C  50.42800 17.57700 26.79700
C  53.19500 18.77900 29.15700
C  52.80200 18.24800 25.85400
O  52.45000 17.91000 24.70700
C  54.07800 18.88900 26.07900
N  47.62500 16.14700 26.19100
C  48.53300 16.66700 25.23800
C  48.08600 16.24500 23.78400
C  46.96900 15.21800 24.13000
C  46.64900 15.34500 25.65600
C  47.49600 17.42400 22.97700
C  47.32300 13.77900 23.65200
C  46.61800 13.29400 22.38400
N  46.14800 15.56100 28.56800
C  45.25100 14.96300 27.64100
C  44.06500 14.47900 28.41100
C  44.30400 14.87500 29.75900
C  45.55500 15.58100 29.79200
C  42.86500 13.79700 27.82200
C  43.80200 14.85300 31.13300
O  42.77600 14.26500 31.60500
C  44.76200 15.61200 31.96000
C  43.97900 16.72700 32.59000
O  43.97400 17.86900 32.15400
O  43.48600 16.38700 33.82500
C  43.01200 17.45600 34.67900
H  51.13900 18.57000 31.00200
H  50.15900 17.70300 24.64100
H  44.82000 14.16300 25.77400
H  46.94000 17.75200 33.20700
H  49.80300 17.46100 32.97400
H  49.83000 19.66500 33.09400
H  48.18400 19.59300 33.72500
H  48.49200 20.02500 32.03200
H  48.73600 15.41800 33.60900
H  47.06600 14.90900 33.45600
H  48.20800 15.44600 35.77200
H  46.44800 15.71800 35.49700
H  53.34200 18.61000 30.22400
H  53.42300 19.83400 29.00900
H  54.01000 18.14900 28.80200
H  54.35700 19.10500 25.04800
H  54.74800 18.15000 26.51700
H  53.95400 19.73400 26.75600
H  48.85000 15.76900 23.17000
H  46.03300 15.46600 23.63000
H  48.29600 17.62700 22.26500
H  47.29200 18.28900 23.60700
H  46.51500 17.16800 22.57800
H  47.09700 13.18500 24.53700
H  48.40800 13.87100 23.60900
H  46.45000 14.02100 21.58900
H  45.64800 12.96200 22.75200
H  47.14600 12.45000 21.94000
H  42.21700 13.33800 28.56900
H  43.16200 13.06900 27.06700
H  42.25200 14.55200 27.32900
H  44.97800 15.03000 32.85600
H  42.25800 18.00100 34.11200
H  43.88800 18.06800 34.89800
H  42.62400 17.08600 35.62800
Mg 16.69700 52.21900 25.83300
C  18.38500 51.00600 28.59500
C  13.98600 52.85000 27.95300
C  14.88100 53.35300 23.15800
C  19.06000 51.01800 23.73700
N  16.28500 52.06800 28.00400
C  17.16000 51.69500 28.93700
C  16.65200 51.88800 30.36700
C  15.15600 52.13100 30.13100
C  15.11300 52.44700 28.65800
C  14.31800 50.89600 30.60100
C  17.42300 53.02100 31.12400
C  17.29800 52.95600 32.60400
H  16.18400 52.13000 33.31000
N  14.77100 53.06500 25.57300
C  13.75800 53.19100 26.58700
C  12.49800 53.62300 25.96700
C  12.85300 53.93300 24.61300
C  14.21900 53.42100 24.36300
C  11.23900 53.83100 26.79100
C  11.91700 54.49500 23.49900
O  12.38700 54.80600 22.43800
C  10.51800 54.83600 23.83800
N  16.77600 51.93600 23.66500
C  16.05100 52.64800 22.75700
C  16.65000 52.62600 21.37000
C  18.00300 52.05400 21.64000
C  17.99000 51.65900 23.08700
C  15.77900 51.81500 20.36700
C  19.22200 52.95600 21.38400
C  20.29100 52.21300 20.67600
N  18.38300 51.24600 26.10400
C  19.30200 50.82300 25.07900
C  20.35200 50.03500 25.70400
C  20.09800 50.13900 27.10300
C  18.82700 50.83500 27.25100
C  21.40700 49.28600 24.98300
C  20.56800 49.82400 28.42400
O  21.57800 49.17900 28.71600
C  19.49500 50.31200 29.38800
C  18.85200 49.17500 30.10900
O  18.00300 48.40000 29.63300
O  19.16700 49.21100 31.48100
C  18.37700 48.41000 32.50400
H  13.12200 53.09500 28.57400
H  14.51100 53.97500 22.34000
H  19.88200 50.65300 23.11900
H  16.92100 51.00000 30.94000
H  14.76200 53.01400 30.63500
H  14.80600 49.95700 30.86300
H  13.67400 50.57700 29.78100
H  13.66400 51.22100 31.41000
H  17.03000 53.96700 30.75300
H  18.46900 52.96400 30.82400
H  17.08000 53.94800 32.99900
H  18.26300 52.70200 33.04200
H  10.35000 53.30200 26.44600
H  11.21200 54.92000 26.83500
H  11.43900 53.63000 27.84300
H  10.02800 53.92700 24.18500
H  10.07200 55.14200 22.89100
H  10.50900 55.54800 24.66300
H  16.71600 53.67300 21.07100
H  18.04700 51.13500 21.05600
H  15.30200 51.01900 20.93900
H  16.33800 51.37700 19.53900
H  14.97500 52.37300 19.88600
H  19.77900 53.14800 22.30100
H  19.06300 53.89600 20.85500
H  20.60300 52.76800 19.79100
H  20.03800 51.20400 20.35000
H  21.14100 52.22300 21.35900
H  21.11000 48.91100 24.00400
H  21.65600 48.37800 25.53200
H  22.27100 49.94200 24.87500
H  19.98200 51.03100 30.04600
H  18.53300 47.34700 32.32000
H  17.34200 48.61700 32.23200
H  18.78200 48.67500 33.48000

