158

Mg 35.06500 3.09500 30.20800
C  32.73400 3.94100 32.63800
C  37.40600 2.98200 32.61300
C  37.26100 2.48200 27.74600
C  32.53000 3.52800 27.73200
N  35.06800 3.40400 32.35500
C  33.97800 3.75400 33.14700
C  34.36000 3.75200 34.63100
C  36.00600 3.76200 34.51200
C  36.19500 3.46300 33.04800
C  36.76200 5.02100 35.04200
C  33.80700 2.55700 35.44000
C  33.45600 2.74700 36.92600
H  34.07500 3.90500 37.73000
N  37.13900 2.68200 30.23200
C  37.93000 2.59100 31.32000
C  39.20900 2.12400 30.98700
C  39.14700 1.91900 29.57200
C  37.80300 2.37200 29.10800
C  40.28800 1.72200 31.98100
C  40.23100 1.52400 28.60200
O  40.06500 1.30900 27.38500
C  41.60800 1.14700 29.14900
N  34.94600 3.17900 28.02800
C  35.97600 2.83000 27.26200
C  35.64800 2.76400 25.77700
C  34.12600 2.98900 25.77400
C  33.84700 3.22400 27.23400
C  36.44400 3.72300 24.89600
C  33.29500 1.81900 25.19000
C  32.88100 0.66000 26.18000
N  33.12500 3.76500 30.16000
C  32.20000 3.84900 29.07700
C  30.91300 4.11400 29.60800
C  31.11000 4.16200 30.97900
C  32.41700 3.91800 31.28800
C  29.66000 4.47900 28.77000
C  30.37600 4.48500 32.23200
O  29.24800 4.92000 32.44000
C  31.40500 4.15100 33.37600
C  31.33900 5.35400 34.26100
O  31.88500 6.40900 34.06900
O  30.69700 5.02600 35.50000
C  30.68700 6.22100 36.42000
H  38.19600 2.83400 33.35200
H  37.92600 2.08900 26.97400
H  31.72600 3.46000 26.99600
H  33.97200 4.70300 34.99600
H  36.52000 2.96500 35.04900
H  37.28900 4.77600 35.96400
H  35.97700 5.73800 35.28100
H  37.56600 5.41500 34.42000
H  34.65300 1.87000 35.45600
H  32.98300 2.06000 34.92800
H  33.71500 1.78600 37.37100
H  32.37600 2.81300 37.05500
H  41.21400 2.27300 31.82000
H  40.48200 0.65300 31.88600
H  39.93900 1.90800 32.99700
H  41.90700 2.02200 29.72600
H  42.31000 1.00700 28.32700
H  41.36900 0.22500 29.67900
H  35.86300 1.71100 25.59500
H  33.73800 3.90000 25.31800
H  35.91400 4.41100 24.23700
H  37.13300 3.20700 24.22700
H  37.11600 4.36600 25.46400
H  33.95000 1.52200 24.37000
H  32.34500 2.25100 24.87700
H  31.91900 0.26200 25.85400
H  32.88400 0.82500 27.25700
H  33.59100 -0.14500 25.98800
H  29.72200 5.52100 28.45400
H  28.91900 4.43000 29.56800
H  29.56600 3.69900 28.01400
H  31.11000 3.28100 33.96300
H  30.37800 7.22300 36.12100
H  31.62300 6.19600 36.97700
H  29.82100 6.07900 37.06700
Mg 48.60300 45.10300 42.51600
C  45.24300 44.44200 42.29400
C  49.23900 41.72800 42.19000
C  51.88400 45.79500 42.50600
C  47.86500 48.52700 42.06800
N  47.35100 43.35200 42.46300
C  45.96600 43.28800 42.22100
C  45.50700 41.82700 42.00900
C  46.85100 40.98500 42.35600
C  47.85600 42.12200 42.40300
C  46.82200 40.08000 43.60200
C  44.97300 41.56900 40.53200
C  45.88700 42.21700 39.48000
H  45.69400 41.48800 38.04500
N  50.31900 43.95400 42.20600
C  50.34200 42.57800 42.20600
C  51.70600 42.15100 42.10600
C  52.52700 43.31300 42.23900
C  51.59800 44.42300 42.31900
C  52.15200 40.70900 41.94600
C  53.99300 43.32600 42.27900
O  54.60400 42.26800 42.27600
C  54.86700 44.56400 42.32500
N  49.72700 46.84000 42.04600
C  51.00100 46.89700 42.46000
C  51.52900 48.35900 42.56100
C  50.31000 49.13100 42.04100
C  49.22600 48.13600 42.10000
C  52.10800 48.73600 43.97700
C  50.45100 49.86300 40.69600
C  49.45600 50.96900 40.28900
N  46.96500 46.31800 42.38100
C  46.75400 47.68200 42.25300
C  45.32700 48.00600 42.33700
C  44.68200 46.70900 42.32700
C  45.70400 45.76300 42.36800
C  44.62000 49.34000 42.55500
C  43.43700 46.03500 42.27100
O  42.30800 46.52300 42.27000
C  43.68500 44.50000 42.28100
C  43.08800 43.98500 43.58600
O  42.24300 43.09000 43.55400
O  43.67800 44.61400 44.71400
C  42.99600 44.08200 45.93600
H  49.36300 40.64500 42.12100
H  52.90700 46.10600 42.72700
H  47.57800 49.57300 41.94200
H  44.71100 41.68500 42.74000
H  47.10200 40.33100 41.52100
H  45.80400 39.72300 43.76200
H  47.25100 40.61200 44.45000
H  47.44200 39.19600 43.45300
H  44.05400 42.15100 40.45300
H  44.88200 40.50200 40.32700
H  46.95600 42.14400 39.68000
H  45.64500 43.27200 39.35300
H  52.98900 40.46200 42.60000
H  52.50100 40.54800 40.92700
H  51.27400 40.09400 42.14400
H  54.66700 45.27600 41.52400
H  55.91300 44.31600 42.14700
H  54.69600 45.02700 43.29700
H  52.25000 48.48800 41.75400
H  50.23600 49.92900 42.77900
H  53.15300 49.01500 43.83400
H  52.00300 47.90500 44.67400
H  51.63200 49.55000 44.52200
H  50.50200 48.97800 40.06200
H  51.44200 50.31400 40.65400
H  49.06100 51.37700 41.21900
H  48.60700 50.64800 39.68500
H  49.97000 51.81000 39.82500
H  44.94200 49.67100 43.54200
H  43.53600 49.23900 42.51400
H  44.86400 50.20200 41.93400
H  43.10300 44.01500 41.49700
H  42.84600 43.00400 45.87700
H  42.11100 44.70900 46.04300
H  43.54200 44.20600 46.87200

