158

Mg 48.70700 34.00500 26.57900
C  47.17300 32.69400 29.47200
C  49.13000 36.92500 28.29900
C  49.45500 35.52900 23.60300
C  47.62700 31.09600 24.80900
N  48.29400 34.62100 28.70700
C  47.73000 33.92900 29.71100
C  47.89200 34.71100 31.00500
C  47.97000 36.17700 30.46700
C  48.67400 35.89100 29.06100
C  46.55700 36.83500 30.41100
C  49.03400 34.24400 31.89000
C  48.88800 34.12800 33.47300
H  47.80300 34.91400 34.21000
N  49.34700 35.87000 26.05200
C  49.45100 36.93500 26.90000
C  50.08200 38.09900 26.16900
C  50.18300 37.67900 24.80300
C  49.59400 36.35300 24.71700
C  50.62200 39.31900 26.81000
C  50.76500 38.36200 23.52500
O  50.75600 37.83100 22.37300
C  51.48500 39.73200 23.69400
N  48.59100 33.40400 24.56200
C  48.96500 34.24600 23.52900
C  48.85700 33.48900 22.13000
C  48.29700 32.01800 22.56400
C  48.13300 32.22400 24.07600
C  48.06500 34.24200 20.97900
C  49.28900 30.99100 22.20000
C  50.58500 30.81200 22.97500
N  47.77200 32.18900 26.96000
C  47.41400 31.09900 26.18100
C  46.85800 30.01700 27.03600
C  46.59800 30.63500 28.31300
C  47.16100 31.98300 28.19900
C  46.41400 28.68300 26.58700
C  46.04900 30.44800 29.54400
O  45.40200 29.47600 29.97900
C  46.24600 31.86000 30.28300
C  46.60200 31.48700 31.74000
O  47.76500 31.32200 32.20400
O  45.43000 31.24600 32.41000
C  45.47400 31.12700 33.84500
H  49.22600 37.89400 28.79400
H  49.92300 35.75700 22.64300
H  47.28400 30.24900 24.21100
H  46.96100 34.46800 31.51600
H  48.72600 36.72300 31.03200
H  46.58300 37.75300 30.99800
H  45.82600 36.08300 30.71000
H  46.30400 36.97100 29.36000
H  49.87300 34.90300 31.66700
H  49.40500 33.28500 31.52700
H  49.83600 34.57600 33.77100
H  49.02400 33.09900 33.80600
H  51.70400 39.21500 26.72200
H  50.41800 39.49300 27.86600
H  50.26000 40.22700 26.32900
H  50.76900 40.50800 23.96600
H  51.86700 39.96600 22.70000
H  52.30900 39.64000 24.40100
H  49.86700 33.29500 21.76600
H  47.36000 31.79200 22.05500
H  47.74400 35.24900 21.24800
H  47.19300 33.62600 20.75600
H  48.58700 34.30400 20.02400
H  49.46900 31.12800 21.13300
H  48.70200 30.08100 22.31700
H  50.63200 31.02600 24.04300
H  51.44200 31.29600 22.50700
H  50.83600 29.75100 22.95400
H  45.33600 28.55300 26.48900
H  46.86400 27.94000 27.24500
H  46.64300 28.56600 25.52800
H  45.30800 32.40300 30.39900
H  45.73300 32.11000 34.23800
H  46.18700 30.40000 34.23400
H  44.46100 30.77500 34.04100
Mg 9.42400 47.25700 27.72800
C  7.35100 47.35700 30.45100
C  12.10400 47.97200 29.73800
C  11.42200 47.37700 24.88100
C  6.59800 47.52800 25.56400
N  9.63700 47.55900 29.78700
C  8.69600 47.56800 30.74600
C  9.35100 47.73800 32.14800
C  10.80700 48.23300 31.79100
C  10.86300 47.91400 30.33900
C  10.93900 49.82900 32.11400
C  9.35900 46.41700 32.90900
C  8.75700 46.41800 34.30700
H  8.66600 45.19800 35.30000
N  11.53400 47.49900 27.37400
C  12.49400 47.63700 28.38000
C  13.82600 47.68600 27.68500
C  13.58400 47.51500 26.29200
C  12.13800 47.49200 26.15400
C  15.13500 47.90600 28.41200
C  14.63900 47.40100 25.17800
O  14.43600 47.29700 23.93400
C  16.17700 47.27300 25.54000
N  9.03500 47.43500 25.52000
C  10.04900 47.42300 24.61600
C  9.47100 47.57300 23.16300
C  7.93000 47.54800 23.38200
C  7.81600 47.55600 24.90500
C  10.01000 48.85100 22.50800
C  7.07000 46.36600 22.80000
C  6.28300 46.81600 21.57600
N  7.34700 47.42500 27.88000
C  6.39900 47.47200 26.98200
C  5.09700 47.40700 27.65200
C  5.41500 47.32500 28.99500
C  6.80400 47.32300 29.09800
C  3.71200 47.60800 27.01300
C  4.80300 47.32500 30.39900
O  3.61700 47.55100 30.73700
C  6.09100 47.24500 31.35400
C  5.95400 45.98600 32.10200
O  6.24200 44.89200 31.68700
O  5.44200 46.24600 33.38500
C  5.40800 45.07700 34.23600
H  12.97600 48.23900 30.34000
H  11.99100 47.58300 23.97200
H  5.73000 47.52700 24.90300
H  8.71800 48.51300 32.58100
H  11.62200 47.71400 32.29600
H  11.94400 49.92000 32.52500
H  10.18100 50.22200 32.79200
H  11.05200 50.42300 31.20700
H  10.32900 45.94400 33.05900
H  8.68200 45.73700 32.39200
H  7.75900 46.83900 34.18700
H  9.37700 47.23100 34.68400
H  15.04800 47.80900 29.49400
H  15.51000 48.90100 28.17500
H  15.78900 47.06600 28.18000
H  16.79000 46.96400 24.69300
H  16.30600 46.37500 26.14300
H  16.56000 48.21800 25.92600
H  9.68500 46.65100 22.62300
H  7.64900 48.51100 22.95600
H  9.23500 49.23600 21.84600
H  10.84100 48.45000 21.92900
H  10.33600 49.61900 23.20900
H  6.34000 45.97100 23.50600
H  7.75800 45.58100 22.48600
H  5.24400 46.53600 21.74800
H  6.66200 46.35200 20.66500
H  6.30300 47.90100 21.48400
H  2.89500 47.51400 27.72800
H  3.44000 46.80600 26.32700
H  3.75600 48.60200 26.56700
H  6.13400 48.07200 32.06300
H  5.32700 45.35600 35.28600
H  6.25400 44.39900 34.12400
H  4.52100 44.57200 33.85300

