158

Mg 6.87100 53.84500 41.66900
C  6.73100 50.35800 41.30400
C  10.39400 53.55000 40.88900
C  7.11400 57.19900 41.57100
C  3.54400 53.98200 42.30700
N  8.36800 52.10400 41.08500
C  8.05400 50.79100 40.97800
C  9.29100 49.96300 40.58000
C  10.52500 50.99300 40.78100
C  9.69600 52.29800 40.86700
C  11.55300 50.79700 41.95700
C  9.32800 49.40400 39.13900
C  9.18600 50.49800 38.04200
H  7.94600 50.33600 37.17000
N  8.45000 55.21500 41.25700
C  9.80900 54.89200 41.03800
C  10.52800 56.16400 40.90700
C  9.62200 57.27100 41.11500
C  8.35100 56.55400 41.34600
C  12.07200 56.11200 40.59100
C  10.05200 58.76200 41.08400
O  11.14700 59.08500 40.69100
C  9.21800 59.79900 41.70100
N  5.35500 55.41600 41.50700
C  5.79100 56.63800 41.63700
C  4.66500 57.58100 41.89900
C  3.48100 56.55600 42.19100
C  4.16700 55.18900 42.05400
C  4.81200 58.65500 43.02700
C  2.32700 56.66700 41.21800
C  0.89300 56.63900 41.68700
N  5.40400 52.47100 41.77400
C  4.16700 52.70700 42.21400
C  3.55100 51.42900 42.41100
C  4.52700 50.44200 41.98400
C  5.65200 51.15500 41.71500
C  2.15700 51.19000 42.80700
C  4.75800 49.02700 41.79400
O  4.06700 48.02300 42.08900
C  6.23200 48.94100 41.36100
C  6.15900 48.15600 40.10900
O  5.94600 48.61400 38.98100
O  6.26600 46.80900 40.35300
C  5.60900 45.93400 39.33600
H  11.44500 53.69500 40.63100
H  7.09800 58.28700 41.47300
H  2.60300 53.97400 42.86000
H  9.36200 49.07900 41.21400
H  11.09700 50.90000 39.85800
H  12.56000 50.67800 41.55700
H  11.25900 49.92100 42.53500
H  11.35000 51.64700 42.60900
H  8.72600 48.50300 39.02400
H  10.31000 49.06100 38.81300
H  10.00000 50.44600 37.32000
H  9.28500 51.50300 38.45100
H  12.26500 55.53100 39.68900
H  12.44500 55.59000 41.47200
H  12.55200 57.08500 40.49000
H  9.80800 60.65500 42.02800
H  8.67400 59.31200 42.51100
H  8.52800 60.06700 40.90100
H  4.35600 58.21100 41.06500
H  3.11600 56.62000 43.21600
H  4.80400 59.61200 42.50600
H  5.81600 58.53100 43.43400
H  3.95400 58.45100 43.66700
H  2.48800 55.91000 40.45100
H  2.42800 57.63300 40.72400
H  0.38600 55.93600 41.02600
H  0.46900 57.63900 41.59400
H  0.75700 56.39500 42.74000
H  1.56700 52.10100 42.70600
H  2.11200 50.98900 43.87800
H  1.76300 50.36700 42.21100
H  6.84200 48.31500 42.01200
H  5.98100 46.15000 38.33500
H  4.53400 46.10200 39.26600
H  5.76900 44.91400 39.68500
Mg -0.06200 43.61400 25.51000
C  2.05500 43.12500 28.21100
C  -2.52400 42.37700 27.39300
C  -2.07700 44.07000 22.84300
C  2.68300 44.07200 23.45600
N  -0.24700 42.90200 27.56200
C  0.73100 42.95000 28.55100
C  0.22300 42.56800 29.90500
C  -1.16700 41.97400 29.58900
C  -1.31200 42.41500 28.07100
C  -1.21200 40.42600 29.90500
C  0.13700 43.94600 30.72400
C  0.34000 43.93400 32.26800
H  0.28100 42.48500 32.92600
N  -2.02900 43.24800 25.18500
C  -2.91000 42.70400 26.07400
C  -4.17600 42.58300 25.45200
C  -4.16400 43.27700 24.18900
C  -2.70400 43.58400 24.03000
C  -5.44000 42.00700 26.19100
C  -5.21400 43.80600 23.33000
O  -5.04600 44.54300 22.38300
C  -6.59900 43.26800 23.48500
N  0.24500 43.97200 23.45400
C  -0.77400 44.38100 22.61400
C  -0.24800 44.85200 21.21700
C  1.29700 44.82100 21.49600
C  1.42600 44.21300 22.91400
C  -0.72600 43.88500 20.06300
C  2.16600 46.07800 21.33200
C  2.17000 47.17900 22.45800
N  1.96900 43.62200 25.73500
C  2.99700 43.74400 24.78400
C  4.29600 43.55300 25.47700
C  3.96900 43.28200 26.76400
C  2.53200 43.29300 26.88600
C  5.68700 43.72000 24.86100
C  4.57700 43.00800 28.08300
O  5.75900 42.84500 28.33900
C  3.28500 42.92600 29.05400
C  3.34100 41.64100 29.68000
O  2.70400 40.63100 29.39500
O  4.33600 41.67800 30.58800
C  4.94900 40.44400 30.97000
H  -3.26700 41.84100 27.98700
H  -2.74000 44.16900 21.98100
H  3.55400 44.24600 22.82100
H  0.79500 41.77200 30.38200
H  -1.91900 42.49000 30.18600
H  -2.14700 40.32800 30.45600
H  -0.46000 40.00900 30.57500
H  -1.23900 39.74000 29.05800
H  -0.84700 44.36800 30.52400
H  0.80300 44.67600 30.26400
H  -0.32100 44.57400 32.85200
H  1.36500 44.24000 32.48100
H  -5.10400 41.46900 27.07700
H  -5.78600 41.19500 25.55200
H  -6.28000 42.69800 26.26300
H  -7.06400 43.65100 24.39300
H  -6.53700 42.18300 23.39300
H  -7.23900 43.54500 22.64700
H  -0.50500 45.89300 21.02100
H  1.63700 44.09700 20.75500
H  0.12500 43.48900 19.50800
H  -1.37500 44.53300 19.47500
H  -1.23100 43.00700 20.46500
H  1.80700 46.49400 20.39100
H  3.20300 45.78100 21.18100
H  3.19200 47.37300 22.78100
H  1.50600 47.03500 23.31000
H  1.80200 48.08000 21.96600
H  5.75800 44.59100 24.21000
H  6.04500 42.85700 24.30000
H  6.35500 44.06500 25.65100
H  3.25200 43.66500 29.85500
H  4.81500 39.60000 30.29300
H  4.47800 40.11200 31.89600
H  6.02100 40.59500 31.09400

