158

Mg -11.48700 16.18300 41.36300
C  -8.27600 14.75600 41.28100
C  -10.11000 18.83700 39.59400
C  -14.54400 17.38400 40.85700
C  -12.74300 13.13600 42.51100
N  -9.33400 16.80100 40.71100
C  -8.21800 16.09400 40.73800
C  -7.01000 16.71200 39.96800
C  -7.60600 18.09100 39.51900
C  -9.10400 17.88300 39.89800
C  -6.94800 19.42700 40.11400
C  -6.65900 15.74200 38.78100
C  -5.21800 15.13800 38.78300
H  -4.34900 15.45100 37.62800
N  -12.18700 17.93900 40.47800
C  -11.49300 18.84000 39.75700
C  -12.35800 19.86500 39.30100
C  -13.65800 19.59900 39.69600
C  -13.51800 18.24700 40.37300
C  -11.80800 21.00000 38.41100
C  -14.86900 20.53300 39.44300
O  -14.68000 21.61300 38.93900
C  -16.21100 20.07500 39.86100
N  -13.39600 15.42200 41.68400
C  -14.49800 16.14900 41.46200
C  -15.74800 15.31000 41.75400
C  -15.16200 13.89100 42.10200
C  -13.67800 14.17900 42.15900
C  -16.61800 15.94900 42.89700
C  -15.42800 12.80900 41.02800
C  -16.53600 11.76000 41.33100
N  -10.71300 14.30200 42.00400
C  -11.35300 13.17000 42.37800
C  -10.39500 12.11100 42.53800
C  -9.10900 12.73800 42.18200
C  -9.36700 14.02900 41.90000
C  -10.74000 10.74100 42.99800
C  -7.71500 12.50900 42.09000
O  -7.15300 11.40300 42.14000
C  -7.12500 13.89100 41.64400
C  -6.33100 14.40200 42.71500
O  -6.73800 14.43600 43.85200
O  -5.15500 14.94400 42.32300
C  -4.38600 15.80800 43.18800
H  -9.63800 19.67500 39.07600
H  -15.56300 17.76700 40.77700
H  -13.10600 12.14400 42.78900
H  -6.15600 16.74900 40.64400
H  -7.55000 18.12800 38.43200
H  -5.97300 19.11600 40.49100
H  -7.60300 19.85900 40.87100
H  -6.70400 20.15300 39.33900
H  -6.73900 16.23200 37.81100
H  -7.40100 14.94300 38.76300
H  -5.27700 14.05300 38.86700
H  -4.64100 15.55500 39.60800
H  -11.14800 20.52800 37.68300
H  -11.29800 21.65800 39.11400
H  -12.55200 21.64800 37.94900
H  -16.90400 20.81000 39.45100
H  -16.10700 20.09100 40.94600
H  -16.55700 19.10400 39.50500
H  -16.36500 15.26100 40.85700
H  -15.50800 13.56700 43.08300
H  -17.50600 16.51200 42.61000
H  -15.99300 16.59500 43.51400
H  -16.93200 15.13500 43.55000
H  -14.46200 12.40300 40.72800
H  -15.74000 13.32000 40.11700
H  -16.82400 11.91300 42.37200
H  -16.24200 10.72600 41.15000
H  -17.31000 11.93500 40.58400
H  -11.14000 10.87500 44.00300
H  -9.83700 10.15900 43.18200
H  -11.43300 10.26900 42.30100
H  -6.45200 13.66000 40.81800
H  -3.66000 15.28900 43.81300
H  -5.02800 16.43800 43.80400
H  -3.75500 16.50100 42.63200
Mg -5.27500 25.32600 25.39700
C  -3.67000 26.83300 28.32100
C  -6.96300 23.37000 27.63500
C  -6.72500 23.81400 22.82800
C  -3.24700 27.20800 23.38500
N  -5.14100 25.02200 27.61500
C  -4.51600 25.81900 28.64300
C  -5.06100 25.44700 30.07800
C  -5.91300 24.17100 29.75800
C  -6.04700 24.25700 28.23400
C  -5.34500 22.72600 30.27900
C  -5.85500 26.68900 30.72000
C  -5.68600 27.01600 32.23600
H  -5.36600 25.77000 33.12500
N  -6.65900 23.74700 25.21300
C  -7.27800 23.15900 26.29800
C  -8.14300 22.16700 25.71300
C  -8.00800 22.19600 24.30300
C  -7.11900 23.33100 24.03500
C  -8.93600 21.23700 26.63200
C  -8.71600 21.24100 23.21100
O  -8.59100 21.44300 22.04300
C  -9.59400 20.24500 23.66900
N  -4.93000 25.38900 23.45000
C  -5.81300 24.77200 22.54000
C  -5.46100 25.26000 21.11300
C  -4.52000 26.41500 21.33400
C  -4.09500 26.28100 22.78600
C  -4.81700 24.14100 20.21000
C  -4.86000 27.76200 20.72700
C  -4.45400 27.86600 19.20700
N  -3.69200 26.75200 25.72900
C  -3.02900 27.45900 24.80800
C  -2.21700 28.42800 25.55400
C  -2.41600 28.20300 26.90800
C  -3.36000 27.19400 26.97800
C  -1.30800 29.50600 24.96800
C  -1.98300 28.62800 28.25100
O  -1.05900 29.35600 28.71100
C  -2.83100 27.81600 29.10900
C  -1.96800 27.11700 30.10300
O  -1.02900 26.39300 29.82400
O  -2.25300 27.53100 31.34700
C  -1.51800 26.87600 32.43800
H  -7.48700 22.85200 28.44200
H  -7.22200 23.47500 21.91600
H  -2.70700 27.95300 22.79800
H  -4.18800 25.26100 30.70300
H  -6.92200 24.24700 30.16400
H  -5.48700 21.93600 29.54200
H  -5.95200 22.40200 31.12400
H  -4.31500 22.86600 30.60700
H  -6.90900 26.65500 30.44300
H  -5.38900 27.59000 30.32300
H  -6.62300 27.47000 32.55500
H  -4.85800 27.70900 32.38300
H  -8.60200 21.30100 27.66800
H  -9.08700 20.20300 26.32100
H  -9.90100 21.73600 26.72100
H  -8.96300 19.54400 24.21600
H  -10.13000 19.81500 22.82300
H  -10.28400 20.78000 24.32100
H  -6.38000 25.51800 20.58600
H  -3.58900 26.18400 20.81500
H  -5.19700 23.15100 20.46400
H  -3.75100 24.17800 20.43000
H  -4.97000 24.36400 19.15400
H  -4.52500 28.57600 21.37100
H  -5.94700 27.79100 20.79800
H  -4.42800 26.84700 18.82000
H  -3.48300 28.35700 19.26900
H  -5.11000 28.52800 18.64200
H  -1.89800 30.08900 24.26000
H  -0.45000 29.07700 24.45100
H  -1.00200 30.16600 25.78000
H  -3.51200 28.39100 29.73700
H  -2.01800 27.05500 33.39000
H  -0.54200 27.35400 32.52800
H  -1.47100 25.80300 32.25400

