158

Mg 8.47400 3.29600 27.24400
C  9.97400 1.93200 30.03400
C  6.58100 5.37300 29.21600
C  7.37600 4.85300 24.51800
C  10.03200 0.87700 25.18400
N  8.06400 3.34200 29.46100
C  8.97200 2.90300 30.38400
C  8.69900 3.47600 31.79500
C  7.46800 4.42600 31.48700
C  7.36500 4.42300 29.95900
C  6.12800 3.97800 32.16000
C  9.94000 4.20400 32.47000
C  9.74400 4.79800 33.79300
H  10.74300 4.24200 34.93800
N  7.11700 4.92900 26.92100
C  6.49500 5.68600 27.86400
C  5.68100 6.67700 27.22400
C  6.09500 6.68200 25.81500
C  6.95300 5.46800 25.69400
C  4.78000 7.59600 27.97300
C  5.65700 7.59000 24.59800
O  5.92600 7.33700 23.44100
C  4.70300 8.74700 24.96400
N  8.49400 2.78700 25.14500
C  7.94800 3.62500 24.21100
C  7.92900 2.97600 22.75000
C  8.75000 1.65900 22.97400
C  9.13000 1.76800 24.52400
C  6.44900 2.81000 22.26500
C  10.07400 1.65500 22.26300
C  10.36300 0.42900 21.31700
N  9.67800 1.72600 27.50400
C  10.27000 0.83400 26.59300
C  11.25100 0.00100 27.24200
C  11.23300 0.44800 28.61900
C  10.21100 1.45300 28.68900
C  12.10000 -1.03000 26.56000
C  11.82300 0.30800 29.97200
O  12.67800 -0.50400 30.41300
C  11.00100 1.25000 30.89700
C  10.36000 0.45700 32.03300
O  9.57300 -0.41300 31.86800
O  10.91600 0.77900 33.29500
C  10.49600 0.00200 34.46600
H  6.09100 6.03500 29.93300
H  7.14900 5.34700 23.57100
H  10.60600 0.20500 24.54100
H  8.53400 2.54500 32.33700
H  7.65700 5.45600 31.78800
H  6.42900 3.30500 32.96200
H  5.53100 3.50800 31.37800
H  5.56100 4.86400 32.44500
H  10.42600 4.95000 31.84100
H  10.69600 3.41900 32.50800
H  8.73400 4.66200 34.18200
H  10.02800 5.84400 33.67800
H  5.14300 8.62400 27.99200
H  4.41500 7.23900 28.93600
H  3.87000 7.75800 27.39600
H  3.72300 8.45300 25.34200
H  4.47600 9.30700 24.05700
H  5.23800 9.38300 25.66800
H  8.43400 3.59500 22.00900
H  8.18400 0.74200 22.81300
H  6.47200 1.96700 21.57400
H  5.98900 3.68100 21.79600
H  5.94000 2.50700 23.18000
H  10.89600 1.89400 22.93700
H  10.17600 2.53600 21.62900
H  10.34000 0.64300 20.24800
H  9.65600 -0.35000 21.60300
H  11.32500 -0.01300 21.57800
H  12.90700 -0.72000 25.89600
H  11.45900 -1.74300 26.04200
H  12.56500 -1.68500 27.29800
H  11.78200 1.82200 31.39800
H  9.62900 -0.64400 34.32300
H  10.24800 0.71700 35.25000
H  11.35700 -0.53600 34.86200
Mg 25.64600 1.28100 29.33100
C  27.53900 1.04700 32.23800
C  22.77700 1.84700 31.25700
C  23.86200 1.07500 26.44400
C  28.56400 0.62700 27.41000
N  25.19600 1.27600 31.42400
C  26.12200 1.36000 32.46200
C  25.54200 1.77000 33.78400
C  23.99900 1.67100 33.42600
C  23.99800 1.65300 31.92300
C  23.12200 0.60900 34.16600
C  26.09000 3.05600 34.43100
C  26.56700 2.82700 35.91900
H  26.20500 3.95500 36.95800
N  23.60700 1.44700 28.88100
C  22.56500 1.71800 29.83500
C  21.36700 1.84000 29.12500
C  21.63600 1.62100 27.78700
C  23.11800 1.38100 27.64800
C  20.11000 2.07800 29.77500
C  20.64400 1.65600 26.66300
O  21.01500 1.36700 25.50400
C  19.15300 1.90100 26.87600
N  26.13300 0.87000 27.23100
C  25.20800 0.84300 26.24300
C  25.85700 0.63900 24.83300
C  27.41000 0.51700 25.16700
C  27.37600 0.64000 26.67700
C  25.25400 -0.46000 23.90400
C  28.23100 1.73900 24.51300
C  27.89600 3.19700 24.90300
N  27.63500 1.00600 29.68400
C  28.67200 0.75600 28.85000
C  29.81300 0.40000 29.58900
C  29.45100 0.58800 30.92100
C  28.09900 0.87200 30.94000
C  31.14500 -0.05100 29.10900
C  29.92000 0.58200 32.33200
O  30.99000 0.36500 32.90400
C  28.67100 1.07300 33.18000
C  28.55400 0.16600 34.37000
O  27.88700 -0.87100 34.43000
O  29.48800 0.53300 35.28600
C  29.44600 -0.23600 36.53700
H  21.95400 1.88400 31.97400
H  23.39800 1.03300 25.45700
H  29.51300 0.45600 26.89800
H  25.74400 0.98000 34.50600
H  23.48400 2.61700 33.59500
H  22.10500 0.98600 34.27500
H  23.55300 0.28400 35.11300
H  23.17500 -0.22800 33.46900
H  25.28500 3.79000 34.42000
H  26.88400 3.44200 33.79200
H  27.63800 2.63700 35.83900
H  26.19400 1.90400 36.36300
H  19.52300 1.17600 29.60500
H  19.63100 2.98400 29.40400
H  20.31600 2.25200 30.83100
H  18.89200 2.95400 26.98300
H  18.77000 1.30200 27.70300
H  18.66900 1.67500 25.92600
H  25.75000 1.56900 24.27600
H  27.81800 -0.48600 25.03700
H  24.42600 -1.02300 24.33500
H  26.05500 -1.17700 23.72200
H  24.81300 -0.09500 22.97600
H  28.08000 1.65700 23.43600
H  29.28300 1.48000 24.63000
H  27.09200 3.13800 25.63600
H  27.60100 3.74600 24.00900
H  28.71100 3.75900 25.36100
H  31.30900 0.29500 28.08800
H  31.33600 -1.11300 28.95300
H  31.89100 0.36800 29.78500
H  28.88500 2.09000 33.51000
H  28.52800 -0.13400 37.11500
H  30.20100 -0.01500 37.29200
H  29.52400 -1.29700 36.30200

