158

Mg 24.84800 -6.95200 48.06500
C  27.47300 -4.90400 46.80500
C  22.79200 -5.65900 45.48700
C  22.53800 -9.30700 48.83100
C  27.20200 -8.60300 49.78400
N  25.14900 -5.53100 46.27000
C  26.29900 -4.85300 45.98300
C  26.07800 -3.98300 44.77300
C  24.55000 -4.11600 44.41500
C  24.11000 -5.11600 45.46400
C  23.74600 -2.76100 44.33000
C  27.11500 -4.40700 43.59100
C  27.88700 -3.31000 42.92700
H  27.70100 -2.99100 41.45600
N  22.92700 -7.32100 47.40500
C  22.20400 -6.65600 46.39800
C  20.90200 -7.21100 46.28300
C  20.80400 -8.33900 47.18400
C  22.09300 -8.34500 47.92000
C  19.89600 -6.66100 45.35000
C  19.69400 -9.31600 47.30900
O  18.81800 -9.31200 46.49100
C  19.55100 -10.33000 48.38300
N  24.91500 -8.71000 49.10000
C  23.76400 -9.46700 49.38300
C  24.08700 -10.61500 50.28500
C  25.56400 -10.43700 50.68900
C  25.96100 -9.19400 49.82800
C  23.07900 -10.84000 51.45400
C  26.35400 -11.72200 50.27000
C  27.23200 -12.33900 51.35800
N  26.88400 -6.72600 48.47600
C  27.70300 -7.49500 49.17800
C  28.96900 -6.87000 49.30300
C  28.92600 -5.82600 48.41800
C  27.65300 -5.90600 47.74600
C  30.21900 -7.34100 50.03200
C  29.60400 -4.68400 47.88200
O  30.67900 -4.28800 48.28000
C  28.79300 -4.03900 46.70200
C  28.54500 -2.63400 46.91100
O  28.10000 -2.15100 47.96900
O  28.93600 -1.91500 45.81800
C  28.94200 -0.47200 45.90100
H  22.22800 -5.33000 44.61200
H  21.79900 -10.06800 49.09300
H  27.81500 -9.21500 50.44800
H  26.24700 -2.99100 45.19200
H  24.51900 -4.61900 43.44900
H  24.40100 -1.89200 44.39100
H  22.99400 -2.79900 45.11900
H  23.30500 -2.70700 43.33500
H  26.47200 -4.87000 42.84300
H  27.77300 -5.19300 43.96100
H  28.92600 -3.61400 43.05600
H  27.78900 -2.36400 43.46000
H  19.95300 -7.07900 44.34500
H  20.03400 -5.58000 45.36500
H  18.86200 -6.77300 45.67400
H  20.19000 -11.16900 48.11000
H  18.59800 -10.80300 48.14800
H  19.68800 -9.94800 49.39500
H  23.88300 -11.54700 49.75800
H  25.63000 -10.29600 51.76800
H  22.36700 -11.65800 51.34400
H  22.42000 -9.98100 51.58700
H  23.60900 -10.95500 52.39900
H  27.01500 -11.60200 49.41100
H  25.64100 -12.50700 50.01900
H  28.17800 -12.60900 50.88800
H  26.75900 -13.14300 51.92100
H  27.51000 -11.54100 52.04700
H  30.93600 -7.77800 49.33800
H  30.23000 -8.12600 50.78800
H  30.69900 -6.41300 50.34200
H  29.31900 -4.26500 45.77400
H  29.46800 0.04000 45.09600
H  29.25700 -0.14800 46.89200
H  27.90200 -0.15300 45.83100
Mg 44.23100 2.94800 46.50200
C  42.30800 5.86000 46.25000
C  41.43800 1.08900 46.08700
C  46.25400 0.27300 46.26900
C  47.07900 5.01600 46.40200
N  42.11700 3.44300 46.25900
C  41.56100 4.64800 46.15400
C  40.04000 4.54200 46.17600
C  39.74400 3.01800 46.39900
C  41.15000 2.42900 46.23100
C  39.03700 2.58600 47.71800
C  39.22000 5.28000 45.07100
C  39.56800 4.84500 43.67600
H  40.31100 5.83500 42.82100
N  43.83500 0.88900 46.21200
C  42.60100 0.36200 46.09900
C  42.71900 -1.07700 45.88700
C  44.10500 -1.33700 45.93100
C  44.84700 -0.07300 46.13000
C  41.54400 -1.99200 45.69300
C  44.71900 -2.73300 45.82300
O  43.95800 -3.70000 45.71200
C  46.08700 -3.06000 45.68500
N  46.37200 2.68100 46.35700
C  46.90500 1.47000 46.36200
C  48.40600 1.55300 46.51300
C  48.66700 3.10400 46.21100
C  47.29900 3.64900 46.41000
C  48.80000 0.99500 47.90300
C  49.31900 3.43000 44.83500
C  50.75600 4.03100 44.98500
N  44.67400 5.06300 46.35100
C  45.88800 5.75700 46.42200
C  45.66200 7.20200 46.47800
C  44.27900 7.28400 46.43700
C  43.74100 5.99800 46.38600
C  46.71400 8.36000 46.49900
C  43.21100 8.17500 46.47700
O  43.19200 9.45100 46.63900
C  41.87600 7.28200 46.25200
C  40.87700 7.82000 47.21400
O  40.66300 7.44500 48.37900
O  40.10800 8.77200 46.55600
C  39.01000 9.38100 47.36300
H  40.47600 0.57300 46.08000
H  46.85600 -0.63600 46.21700
H  48.01900 5.56900 46.33900
H  39.82700 5.06400 47.10800
H  39.09600 2.67000 45.59400
H  39.15100 3.30500 48.52900
H  39.54800 1.67700 48.03400
H  37.99700 2.46600 47.41400
H  39.55200 6.30900 45.20800
H  38.15500 5.06000 45.14100
H  38.64400 4.57400 43.16600
H  40.24200 3.99100 43.75200
H  41.81600 -2.70000 44.91000
H  40.54200 -1.58300 45.55800
H  41.52000 -2.42800 46.69100
H  46.57600 -2.61500 44.81900
H  46.22000 -4.13400 45.55100
H  46.59400 -2.84900 46.62700
H  48.98400 0.93200 45.82900
H  49.30000 3.39100 47.05100
H  49.43500 0.11100 47.97200
H  47.94300 0.75300 48.53200
H  49.31200 1.78600 48.45100
H  48.78400 4.13200 44.19600
H  49.43700 2.54200 44.21400
H  50.85600 4.88300 44.31200
H  51.46700 3.22400 44.80600
H  51.05800 4.49200 45.92500
H  46.46900 9.22500 45.88400
H  47.68200 7.97300 46.18100
H  46.83600 8.75600 47.50700
H  41.61800 7.69900 45.27800
H  38.01100 9.00200 47.14800
H  39.00500 10.46100 47.21500
H  39.19800 9.35100 48.43700

