158

Mg 8.57800 3.56100 27.75600
C  10.07100 2.18200 30.65900
C  6.72500 5.61100 29.69000
C  7.29700 4.95300 24.97500
C  10.08700 1.05700 25.86600
N  8.46000 3.89200 29.95800
C  9.23300 3.27100 30.94400
C  8.87100 3.86700 32.34100
C  7.62200 4.71400 31.94300
C  7.58600 4.78000 30.39300
C  6.37700 4.11500 32.61000
C  10.06200 4.73600 33.01300
C  10.88900 4.05600 34.02500
H  11.32900 4.77700 35.30700
N  7.24200 5.07200 27.39300
C  6.55400 5.83800 28.33700
C  5.78000 6.75400 27.67400
C  5.83600 6.51600 26.26000
C  6.78000 5.46600 26.15200
C  4.90700 7.71400 28.43300
C  5.01400 7.12900 25.12800
O  5.16000 6.84200 23.96000
C  4.00000 8.19500 25.47600
N  8.68400 3.08800 25.80600
C  8.16700 3.85500 24.81500
C  8.48300 3.45400 23.42400
C  9.32800 2.12300 23.67700
C  9.45100 2.12600 25.16100
C  7.22700 3.10900 22.65200
C  10.79100 2.11000 23.01800
C  11.18100 0.81500 22.25500
N  9.69400 1.90500 28.16300
C  10.28400 0.99700 27.24800
C  11.16900 0.08900 27.97000
C  11.10300 0.52800 29.35800
C  10.19700 1.60900 29.38600
C  12.05100 -0.99300 27.37500
C  11.69900 0.39200 30.64300
O  12.55500 -0.37200 31.05500
C  11.02700 1.47600 31.52200
C  10.50500 0.87400 32.79600
O  9.34000 0.62800 33.04900
O  11.50800 0.80600 33.68500
C  11.06500 0.30800 35.07600
H  6.22100 6.24500 30.42300
H  6.79100 5.40100 24.11700
H  10.74600 0.34700 25.36200
H  8.69200 2.98600 32.95700
H  7.59700 5.73100 32.33500
H  5.91700 4.92000 33.18400
H  6.55600 3.27200 33.27700
H  5.74900 3.69200 31.82600
H  9.69000 5.67000 33.43300
H  10.74400 5.01100 32.20900
H  11.76800 3.62000 33.55000
H  10.36400 3.15700 34.34900
H  5.22300 8.73900 28.23900
H  5.04900 7.61200 29.50900
H  3.84600 7.51400 28.28700
H  4.39900 9.03400 26.04700
H  3.16900 7.71400 25.99000
H  3.60000 8.61400 24.55300
H  9.05600 4.24300 22.93800
H  8.70900 1.26000 23.43000
H  6.31700 3.44400 23.14900
H  7.06500 2.06000 22.40100
H  7.20800 3.60500 21.68100
H  11.41500 2.19900 23.90700
H  10.90200 2.94200 22.32300
H  12.24200 0.68400 22.46700
H  11.17300 0.97900 21.17800
H  10.79000 -0.16400 22.53300
H  12.85100 -1.22000 28.08000
H  12.65800 -0.68800 26.52300
H  11.51600 -1.91800 27.16000
H  11.79300 2.23900 31.66500
H  10.20400 0.90800 35.37100
H  11.77900 0.29300 35.89900
H  10.77800 -0.73900 34.96900
Mg 40.57700 8.95500 28.80600
C  42.13200 10.07700 31.83000
C  38.23700 7.36600 30.91000
C  39.26000 7.43700 26.11900
C  43.27900 9.91900 26.93500
N  40.21900 8.91500 31.05900
C  40.94400 9.41500 32.13600
C  40.37500 9.06500 33.47700
C  39.21600 8.04500 33.05300
C  39.25100 8.07200 31.58800
C  39.35600 6.64100 33.62900
C  39.90800 10.35600 34.22200
C  40.19700 10.24100 35.72500
H  41.11600 11.28800 36.45300
N  38.90300 7.71400 28.54000
C  38.15500 7.08400 29.51900
C  37.18400 6.25300 28.93300
C  37.40700 6.32300 27.56700
C  38.55500 7.24500 27.32300
C  36.14900 5.33700 29.73600
C  36.59500 5.64600 26.50900
O  36.91000 5.67000 25.32600
C  35.36500 4.94400 26.81300
N  41.27900 8.68600 26.86700
C  40.44900 8.10600 25.94600
C  41.02600 8.21200 24.48600
C  42.30600 9.08700 24.76900
C  42.27400 9.31300 26.26000
C  41.19000 6.90700 23.76400
C  42.58500 10.34900 23.87900
C  41.86700 11.64900 24.42200
N  42.29700 9.80200 29.23900
C  43.34000 10.20400 28.38100
C  44.40800 10.91800 29.13500
C  43.93500 10.86100 30.47800
C  42.69900 10.19700 30.46600
C  45.69400 11.39000 28.55100
C  44.34000 11.14400 31.79100
O  45.39400 11.60900 32.20400
C  43.09900 10.68500 32.74500
C  43.66900 9.61700 33.64200
O  44.09100 8.47600 33.24800
O  43.83900 10.19600 34.87000
C  44.52100 9.40200 35.93200
H  37.51800 6.95200 31.61900
H  38.90100 7.00200 25.18300
H  44.16700 10.29700 26.42500
H  41.11800 8.56700 34.10100
H  38.22000 8.48000 33.13400
H  40.15100 6.56600 34.37200
H  39.61900 5.96700 32.81400
H  38.38600 6.25000 33.93400
H  38.82800 10.50000 34.16800
H  40.43300 11.22600 33.82700
H  40.55600 9.26500 36.05100
H  39.23600 10.28100 36.23800
H  36.55700 5.13000 30.72500
H  36.09100 4.35300 29.27100
H  35.18400 5.84100 29.78900
H  35.54700 3.88800 27.01200
H  34.74600 4.92500 25.91600
H  34.73900 5.28900 27.63500
H  40.34500 8.79900 23.87000
H  43.12500 8.40000 24.55600
H  40.99100 5.98800 24.31600
H  42.23500 6.93800 23.45500
H  40.53300 7.00900 22.90100
H  42.29400 10.19000 22.84100
H  43.66000 10.42300 23.71800
H  42.55900 12.37400 24.85200
H  41.17500 11.38800 25.22300
H  41.41600 12.22800 23.61700
H  45.51400 12.01300 27.67500
H  46.36300 10.57300 28.27900
H  46.04000 12.06000 29.33900
H  42.82900 11.51600 33.39600
H  44.45500 9.95500 36.86900
H  45.56700 9.19100 35.71100
H  43.99200 8.46900 36.12400

