158

Mg 9.06500 2.16200 27.59000
C  10.44500 0.96600 30.63700
C  6.90400 4.13500 29.58000
C  7.50000 2.96500 24.82300
C  10.70600 -0.46500 25.94900
N  8.82600 2.62400 29.91400
C  9.50600 2.02400 30.91200
C  9.13500 2.72600 32.26900
C  8.00900 3.77800 31.92100
C  7.91100 3.53800 30.38100
C  6.74500 3.72200 32.77200
C  10.46700 3.37500 32.81000
C  10.28500 4.46700 33.91600
H  10.96300 4.22600 35.25300
N  7.49300 3.36100 27.26700
C  6.69200 4.06400 28.18100
C  5.79000 4.95200 27.42200
C  6.08300 4.71400 26.04500
C  7.11900 3.67000 26.01600
C  4.76200 5.86900 28.15700
C  5.55100 5.47700 24.86700
O  5.99500 5.47400 23.74500
C  4.38300 6.41900 25.12100
N  9.12600 1.35300 25.66100
C  8.41600 1.91300 24.64700
C  8.84600 1.35800 23.23000
C  9.78500 0.25000 23.62800
C  9.93800 0.37700 25.16400
C  7.70700 1.10000 22.11600
C  11.08100 0.19400 22.96100
C  11.11500 -0.71000 21.67500
N  10.26100 0.54600 28.18800
C  10.91400 -0.34200 27.38800
C  11.86900 -1.13000 28.21600
C  11.64800 -0.71900 29.50900
C  10.73600 0.39300 29.42000
C  12.86700 -2.18600 27.85100
C  12.08400 -0.86200 30.92100
O  12.92600 -1.52800 31.42000
C  11.30800 0.25300 31.69400
C  10.51400 -0.42200 32.70800
O  9.52600 -1.00800 32.47800
O  11.17300 -0.24000 33.93800
C  10.31900 -0.42600 35.10900
H  6.01000 4.49700 30.09200
H  7.04200 3.26400 23.87700
H  11.30200 -1.23300 25.45200
H  8.93800 2.01300 33.07000
H  8.45500 4.77000 31.99100
H  5.85800 3.42300 32.21300
H  6.61500 4.65400 33.32200
H  6.75200 2.96100 33.55300
H  10.99100 3.82900 31.96900
H  11.04300 2.57700 33.27800
H  9.22600 4.61000 34.13200
H  10.70800 5.37900 33.49600
H  4.92600 6.89000 27.81300
H  4.89800 5.97100 29.23400
H  3.69300 5.68600 28.04800
H  4.67800 7.24500 25.76800
H  3.59700 5.83700 25.60100
H  4.14000 6.90400 24.17600
H  9.55100 2.16700 23.03900
H  9.04300 -0.51600 23.40400
H  7.62100 2.02700 21.54900
H  6.72500 0.82600 22.50200
H  7.98300 0.36300 21.36100
H  11.90200 -0.18100 23.57200
H  11.37600 1.18300 22.60800
H  11.17700 -0.11600 20.76400
H  10.29100 -1.40900 21.53200
H  11.98700 -1.34200 21.84700
H  13.61100 -2.32700 28.63500
H  13.40600 -1.82700 26.97400
H  12.35700 -3.11300 27.59000
H  12.02500 1.01200 32.00600
H  10.02000 -1.47200 35.05600
H  9.47400 0.26200 35.13600
H  10.88000 -0.26400 36.03000
Mg 9.12800 48.17400 26.75500
C  6.89200 47.87400 29.48000
C  11.44500 49.22800 28.90900
C  11.05900 48.57700 24.17300
C  6.26400 47.89400 24.56700
N  8.99700 48.83500 28.98500
C  8.12000 48.33000 29.87100
C  8.60200 48.67600 31.32800
C  10.10000 49.04200 31.09900
C  10.18500 49.01500 29.57300
C  10.61100 50.38600 31.71200
C  8.23700 47.57600 32.40200
C  8.93800 47.72900 33.78900
H  8.65500 46.69800 34.92200
N  11.06500 48.69900 26.57500
C  11.84900 49.09600 27.57900
C  13.14300 49.42300 27.02800
C  13.06500 49.16000 25.63200
C  11.71100 48.72300 25.41300
C  14.34400 50.07600 27.81400
C  14.22500 49.19100 24.63600
O  14.12100 48.97900 23.49900
C  15.61000 49.58800 25.19600
N  8.66200 48.12600 24.61500
C  9.71900 48.33900 23.78800
C  9.26800 48.24100 22.29300
C  7.76100 47.86600 22.32700
C  7.51600 47.96200 23.88500
C  9.61900 49.45900 21.31500
C  7.38800 46.40600 21.85900
C  6.70100 46.26700 20.48400
N  7.03600 47.87500 26.91800
C  6.08000 47.76600 25.92600
C  4.85700 47.47800 26.60200
C  5.08500 47.47700 27.92000
C  6.45100 47.75600 28.12700
C  3.57900 47.15000 25.92600
C  4.49700 47.38300 29.21000
O  3.32600 47.29700 29.58700
C  5.63000 47.40300 30.26000
C  5.73200 46.09700 30.87500
O  6.53800 45.23200 30.49600
O  4.97400 46.07300 32.03700
C  5.29200 44.86200 32.93400
H  12.24200 49.30300 29.65200
H  11.74900 48.81400 23.36100
H  5.48800 47.77800 23.80800
H  8.17800 49.64900 31.57800
H  10.73500 48.23600 31.46700
H  10.93200 51.17900 31.03700
H  11.44600 49.99600 32.29500
H  9.95800 50.83100 32.46300
H  8.41100 46.59600 31.95600
H  7.18900 47.79400 32.60800
H  8.62700 48.66700 34.25000
H  10.01100 47.57800 33.66900
H  15.26500 49.51700 27.65000
H  14.09600 50.29000 28.85400
H  14.42000 51.05000 27.33200
H  16.10900 48.94700 25.92200
H  15.60800 50.66600 25.35900
H  16.21700 49.43500 24.30400
H  9.75200 47.33100 21.93800
H  7.04800 48.52300 21.82900
H  8.74600 49.87400 20.81000
H  10.39700 49.17500 20.60700
H  10.01400 50.30700 21.87300
H  6.65100 46.02700 22.56800
H  8.25700 45.74900 21.84600
H  7.22100 45.70000 19.71200
H  6.41100 47.15900 19.92800
H  5.84900 45.63200 20.72900
H  2.92100 47.98900 26.15000
H  3.14500 46.33500 26.50500
H  3.57800 46.89200 24.86700
H  5.49700 48.11100 31.07900
H  5.61500 45.31900 33.87000
H  6.13600 44.22600 32.66800
H  4.37300 44.33700 33.19200

