158

Mg 24.58000 -4.64900 45.58000
C  26.25100 -1.84400 44.16100
C  21.70400 -3.86900 43.84000
C  23.39700 -7.63700 46.48000
C  27.56600 -5.27100 47.27000
N  24.03700 -3.02000 44.16900
C  24.92600 -2.08000 43.67700
C  24.26300 -1.30900 42.57100
C  22.73300 -1.84300 42.53000
C  22.81300 -2.91500 43.66900
C  21.62300 -0.76800 42.78000
C  24.96000 -1.43400 41.18400
C  25.16300 -0.25700 40.32000
H  24.85700 -0.44900 38.83200
N  22.73800 -5.57200 45.28200
C  21.68800 -5.09700 44.53900
C  20.74000 -6.13600 44.32500
C  21.14300 -7.28200 45.05000
C  22.44800 -6.88500 45.69700
C  19.45800 -5.95900 43.46900
C  20.33000 -8.49000 45.17200
O  19.30800 -8.65800 44.61100
C  20.79500 -9.59100 45.96100
N  25.43900 -6.28700 46.65600
C  24.69700 -7.40400 46.88200
C  25.51300 -8.30900 47.78700
C  26.72500 -7.44400 48.24400
C  26.62200 -6.25500 47.29300
C  24.77900 -8.98600 48.97400
C  28.17500 -8.10300 48.06300
C  29.07800 -7.99100 49.27500
N  26.52700 -3.80200 45.70300
C  27.62800 -4.23600 46.40100
C  28.69300 -3.27300 46.29800
C  28.17900 -2.32200 45.41500
C  26.86900 -2.68000 45.08800
C  29.99900 -3.23000 46.95300
C  28.48100 -1.08700 44.80600
O  29.49200 -0.44200 44.96200
C  27.30800 -0.74200 43.76600
C  26.78800 0.60300 44.03900
O  26.20500 0.94300 45.06300
O  26.98300 1.44500 42.98500
C  26.45500 2.75100 42.98600
H  20.81700 -3.60200 43.26300
H  23.07700 -8.66900 46.64400
H  28.44100 -5.47900 47.88900
H  24.23900 -0.26700 42.89000
H  22.50500 -2.46000 41.66100
H  21.95100 0.26900 42.84900
H  20.99000 -1.03600 43.62600
H  20.96200 -0.93800 41.93000
H  24.57000 -2.27800 40.61700
H  25.93800 -1.88800 41.34200
H  26.22100 -0.07900 40.51400
H  24.70200 0.68400 40.61900
H  19.24400 -6.81300 42.82700
H  19.56700 -5.07600 42.83900
H  18.55800 -5.64400 43.99700
H  21.76500 -9.73400 45.48300
H  20.11500 -10.43100 45.82000
H  21.00800 -9.33300 46.99800
H  25.89600 -9.07200 47.11000
H  26.56000 -7.10700 49.26700
H  24.80200 -10.05700 48.76900
H  23.77500 -8.56100 48.99000
H  25.23200 -8.77600 49.94200
H  28.72000 -7.69600 47.21100
H  28.09800 -9.17300 47.87000
H  29.98200 -7.42700 49.04900
H  29.35500 -9.02200 49.49500
H  28.43800 -7.50600 50.01200
H  30.68100 -2.53200 46.46700
H  30.51900 -4.18800 46.91200
H  29.98800 -3.06800 48.03100
H  27.65100 -0.78000 42.73200
H  25.96000 3.02100 43.91800
H  25.77600 2.61200 42.14400
H  27.24100 3.42800 42.65200
Mg 53.80500 25.09300 45.85300
C  51.18400 27.20000 44.68600
C  52.17900 22.39200 44.45900
C  56.78700 23.41500 45.64100
C  55.52200 28.09500 46.45800
N  51.91800 24.93700 44.73700
C  50.97600 25.89000 44.34300
C  49.82600 25.24000 43.62000
C  49.98200 23.72000 44.03000
C  51.54900 23.64700 44.39400
C  49.05900 23.34500 45.14200
C  49.87500 25.44200 42.08300
C  48.50400 25.37100 41.43500
H  48.34300 24.49600 40.13600
N  54.40800 23.12900 45.30500
C  53.51000 22.18600 44.80900
C  54.19800 20.90100 44.71700
C  55.57700 21.18300 44.96600
C  55.66100 22.64900 45.34300
C  53.53600 19.56700 44.33400
C  56.65800 20.05400 44.79200
O  56.28400 18.88000 44.61300
C  58.04600 20.35100 44.96200
N  55.90300 25.70600 45.86700
C  56.92100 24.73200 45.90800
C  58.21900 25.43200 46.35200
C  57.85300 26.96800 46.45700
C  56.34700 26.93900 46.30700
C  58.83500 24.78800 47.66100
C  58.70700 27.92900 45.59800
C  58.92500 29.40600 46.18800
N  53.47000 27.22500 45.80100
C  54.16100 28.33300 46.19400
C  53.30100 29.47700 46.27500
C  52.08100 29.05500 45.75800
C  52.31700 27.74500 45.32600
C  53.64200 30.80900 46.83400
C  50.75600 29.43600 45.40700
O  50.08300 30.44400 45.52700
C  50.15800 28.28000 44.60300
C  49.89500 28.77000 43.27100
O  50.68700 29.24000 42.41400
O  48.54800 28.57000 43.08700
C  47.98100 28.96600 41.77600
H  51.69700 21.53900 43.97700
H  57.76400 22.92700 45.63400
H  56.04200 28.94500 46.90600
H  48.87800 25.63100 43.98700
H  49.80500 23.00600 43.22500
H  49.57100 23.45700 46.09800
H  48.68400 22.32900 45.02100
H  48.17000 23.97300 45.20100
H  50.38800 24.56400 41.69000
H  50.29800 26.43700 41.94800
H  48.36800 26.40700 41.12300
H  47.76800 25.00200 42.14900
H  53.79200 19.06900 43.39800
H  52.44600 19.53500 44.32600
H  53.80900 18.79800 45.05600
H  58.57800 19.42800 44.73200
H  58.13600 20.59700 46.02000
H  58.34000 21.18300 44.32300
H  58.86400 25.34200 45.47800
H  58.16200 27.24600 47.46400
H  58.14800 23.98900 47.94000
H  58.98400 25.44600 48.51700
H  59.77300 24.37900 47.28600
H  58.30100 28.12400 44.60500
H  59.68000 27.52500 45.31900
H  59.11700 30.08500 45.35700
H  59.64700 29.27900 46.99500
H  57.99600 29.70200 46.67500
H  54.30300 30.86300 47.70000
H  52.68200 31.14900 47.22300
H  53.95900 31.46800 46.02600
H  49.17900 28.06200 45.02900
H  48.73300 29.09900 40.99800
H  47.49000 29.93600 41.85600
H  47.31300 28.23600 41.31800

