158

Mg 16.47000 -1.95000 28.30100
C  15.72000 0.14900 30.99900
C  18.54000 -3.79400 30.23400
C  17.86500 -3.55700 25.43300
C  14.99300 0.30900 26.15100
N  17.16900 -1.66700 30.35400
C  16.60700 -0.84800 31.28400
C  17.12200 -1.27500 32.68900
C  18.13300 -2.42600 32.42800
C  17.94800 -2.70900 30.92000
C  19.60900 -2.43300 32.87800
C  16.00700 -1.63600 33.68500
C  16.05400 -1.02800 35.12100
H  17.33200 -0.47900 35.64800
N  17.93900 -3.55300 27.87200
C  18.63900 -4.15500 28.90500
C  19.32800 -5.32500 28.35300
C  19.01100 -5.39500 26.94400
C  18.20300 -4.17000 26.68100
C  20.12200 -6.30700 29.23300
C  19.36200 -6.51600 26.02900
O  18.98500 -6.50800 24.86400
C  20.22700 -7.68000 26.51000
N  16.36000 -1.76000 26.11600
C  17.06900 -2.40700 25.20700
C  16.87500 -1.82400 23.77100
C  15.93100 -0.71100 23.99300
C  15.71100 -0.72400 25.49700
C  18.17900 -1.57700 22.89300
C  14.60100 -0.71000 23.12200
C  13.43000 -1.31700 23.78900
N  15.44100 -0.20800 28.50000
C  14.81100 0.58100 27.53700
C  14.01700 1.58100 28.16900
C  14.37900 1.48100 29.53600
C  15.26400 0.39100 29.68000
C  13.17300 2.65700 27.50400
C  14.15300 1.99100 30.91900
O  13.42200 2.89500 31.30600
C  15.06200 1.17500 31.88000
C  15.99700 2.13400 32.61600
O  16.93900 2.76400 32.20200
O  15.58000 2.15300 33.90900
C  16.16300 3.23700 34.75400
H  19.06700 -4.44400 30.93700
H  18.41100 -3.96900 24.58200
H  14.63000 1.16400 25.57600
H  17.76400 -0.47500 33.05900
H  17.71200 -3.33000 32.86700
H  20.25900 -2.12500 32.05900
H  19.94100 -3.37000 33.32500
H  19.63600 -1.66100 33.64700
H  15.88700 -2.71600 33.76300
H  15.02300 -1.30000 33.35700
H  15.73000 -1.83300 35.78200
H  15.28200 -0.27700 35.28500
H  21.14200 -6.27900 28.85100
H  19.76200 -7.33000 29.12600
H  20.22300 -6.03000 30.28200
H  20.31600 -8.39500 25.69200
H  19.95900 -8.21300 27.42200
H  21.21900 -7.33200 26.80100
H  16.37800 -2.70900 23.37400
H  16.44800 0.23500 23.83200
H  18.30300 -0.52700 22.62800
H  18.12500 -2.16200 21.97400
H  19.11900 -1.81100 23.39300
H  14.84500 -1.19900 22.17900
H  14.41400 0.32400 22.83200
H  13.62500 -2.19600 24.40200
H  12.74400 -1.63400 23.00400
H  12.97600 -0.56800 24.43800
H  12.13500 2.32300 27.47500
H  13.62200 2.82500 26.52500
H  13.22900 3.52400 28.16200
H  14.34700 0.67000 32.52900
H  15.92200 4.16900 34.24300
H  17.22400 3.10800 34.96800
H  15.68200 3.28100 35.73200
Mg -1.16900 33.98600 26.55800
C  -3.11800 32.16500 28.86200
C  0.12500 35.80100 29.16000
C  0.27000 36.05700 24.38500
C  -2.86900 32.41000 23.94000
N  -1.67500 34.08900 28.83800
C  -2.28300 33.10200 29.59500
C  -2.08500 33.29100 31.08500
C  -1.05500 34.46000 31.02900
C  -0.87600 34.86900 29.58200
C  -1.40900 35.67300 31.87300
C  -1.63700 32.02600 31.85500
C  -2.63300 31.59700 33.05300
H  -1.97600 30.95600 34.30000
N  0.26100 35.51800 26.76100
C  0.62700 36.12200 27.89900
C  1.66900 37.08000 27.56300
C  1.58900 37.26100 26.15600
C  0.68800 36.24800 25.68800
C  2.44500 37.96500 28.53800
C  2.36200 38.24700 25.33100
O  2.21700 38.33200 24.13500
C  3.39400 39.14600 25.87800
N  -1.46400 34.32500 24.41700
C  -0.64700 35.18500 23.75800
C  -0.87700 35.10300 22.25300
C  -1.79800 33.86900 22.11500
C  -2.00600 33.45200 23.56400
C  -1.40800 36.37400 21.54500
C  -1.25500 32.80900 21.16800
C  0.09800 32.20000 21.45100
N  -2.73600 32.57300 26.42200
C  -3.30400 32.02800 25.27700
C  -4.23600 30.95300 25.64500
C  -4.18200 30.90500 27.07200
C  -3.25200 31.91500 27.46800
C  -5.04800 30.16700 24.53600
C  -4.71800 30.23100 28.32800
O  -5.44600 29.29000 28.42300
C  -4.09500 31.14600 29.51000
C  -5.28000 31.69200 30.21700
O  -6.02600 32.56800 29.78100
O  -5.40700 31.01600 31.42100
C  -6.45500 31.54400 32.34200
H  0.72100 36.09500 30.02700
H  0.82700 36.62200 23.63400
H  -3.21500 31.86400 23.06000
H  -2.99000 33.73800 31.49800
H  -0.08200 34.09600 31.35900
H  -1.80600 35.48100 32.86900
H  -2.12700 36.24100 31.28200
H  -0.60200 36.40300 31.94300
H  -0.67200 32.29600 32.28300
H  -1.50200 31.19100 31.16700
H  -3.09600 30.72300 32.59600
H  -3.33400 32.37000 33.36900
H  2.39500 37.59500 29.56200
H  2.09800 38.99500 28.46300
H  3.50900 37.90000 28.31200
H  3.94000 39.60400 25.05300
H  4.07900 38.48700 26.41100
H  3.07400 39.94800 26.54200
H  0.02700 34.70800 21.78800
H  -2.82600 34.15600 21.89600
H  -1.37200 36.40500 20.45600
H  -0.79100 37.21300 21.86600
H  -2.38100 36.64900 21.95400
H  -1.20100 33.30200 20.19600
H  -2.01900 32.04700 21.01700
H  -0.03600 31.12400 21.33600
H  0.35000 32.46300 22.47800
H  0.92300 32.57600 20.84500
H  -4.42300 29.51500 23.92600
H  -5.54000 30.86300 23.85600
H  -5.77700 29.47700 24.96100
H  -3.63900 30.50400 30.26300
H  -6.22100 32.58400 32.57000
H  -6.51800 30.94700 33.25200
H  -7.40900 31.58200 31.81700

