158

Mg 48.06100 34.92200 27.49500
C  46.10800 33.30300 29.88900
C  48.11100 37.65100 29.61000
C  49.57800 36.76500 25.07700
C  47.60300 32.32000 25.21600
N  47.31000 35.30600 29.43700
C  46.62100 34.48700 30.36300
C  46.75400 35.01300 31.79100
C  46.95600 36.48800 31.58500
C  47.47600 36.47000 30.07100
C  45.65500 37.29100 31.83000
C  47.89300 34.36600 32.73500
C  47.55800 34.08800 34.23800
H  46.62600 35.01200 34.92700
N  48.74400 36.98500 27.33900
C  48.74500 37.92500 28.37300
C  49.36100 39.11300 27.91100
C  49.76600 38.87400 26.60800
C  49.31900 37.51100 26.24100
C  49.51600 40.36800 28.84800
C  50.53800 39.82500 25.64900
O  50.84900 39.53100 24.48600
C  51.03100 41.15100 26.21200
N  48.52800 34.59100 25.42400
C  49.12200 35.50200 24.64000
C  49.33700 34.91700 23.14600
C  48.92100 33.43700 23.30900
C  48.37100 33.44100 24.76500
C  48.56300 35.66000 22.05100
C  50.11300 32.51900 23.24000
C  50.82000 32.33200 21.92600
N  47.09500 33.13600 27.51800
C  47.03100 32.16200 26.53400
C  46.20200 31.05300 27.05400
C  45.78000 31.51500 28.33400
C  46.35100 32.76300 28.61600
C  45.81800 29.77600 26.25900
C  45.00700 31.11600 29.52000
O  44.44600 30.12400 29.86700
C  45.01200 32.34200 30.50500
C  45.14900 31.86000 31.85800
O  46.05800 31.15000 32.20600
O  44.22600 32.44300 32.63500
C  44.15600 31.94300 34.02600
H  48.08800 38.44100 30.36400
H  50.18500 37.31000 24.35100
H  47.60400 31.50700 24.48800
H  45.79900 34.92000 32.30800
H  47.69500 36.92100 32.25900
H  46.03700 38.17000 32.34700
H  45.01600 36.71100 32.49600
H  45.17100 37.64700 30.92000
H  48.70600 35.09000 32.68400
H  48.23000 33.42200 32.30600
H  48.54700 34.25300 34.66600
H  47.22800 33.05100 34.30500
H  49.40800 40.16800 29.91400
H  48.77800 41.13900 28.62600
H  50.50800 40.82000 28.86100
H  50.14700 41.65200 26.60600
H  51.64200 41.62600 25.44400
H  51.62700 41.00800 27.11300
H  50.40300 34.88100 22.92100
H  48.14200 33.17500 22.59300
H  48.26400 36.66700 22.34100
H  47.66300 35.16000 21.69400
H  49.37200 35.72700 21.32300
H  49.63200 31.55600 23.41400
H  50.77300 32.74800 24.07600
H  50.32600 32.95200 21.17700
H  50.74700 31.31400 21.54300
H  51.89700 32.47300 22.02000
H  46.10300 28.88000 26.81000
H  46.24200 29.76900 25.25500
H  44.73800 29.73700 26.11700
H  44.05700 32.86400 30.45900
H  43.49100 31.08900 34.15500
H  43.72700 32.75100 34.61900
H  45.10200 31.63700 34.47400
Mg 9.68900 48.09100 25.51800
C  7.89800 48.22800 28.57800
C  12.48500 49.29000 27.23900
C  11.40300 47.73500 22.74500
C  6.70000 47.08200 23.82200
N  10.01900 48.91200 27.62500
C  9.24000 48.69000 28.71000
C  9.96700 49.18100 29.98300
C  11.23300 49.92900 29.45700
C  11.29200 49.26200 28.01900
C  11.16400 51.49500 29.35100
C  10.32000 48.00400 30.97400
C  9.76000 48.13800 32.40000
H  10.14700 46.91100 33.34000
N  11.70100 48.44600 25.03800
C  12.69500 48.83200 25.90800
C  13.98200 48.84900 25.26700
C  13.65300 48.47800 23.89400
C  12.16500 48.15600 23.77700
C  15.31700 49.12300 25.83800
C  14.57900 48.29400 22.76300
O  14.26200 47.96100 21.63800
C  16.00100 48.83100 22.90400
N  9.11400 47.56800 23.55300
C  10.03200 47.48300 22.54000
C  9.40200 46.89300 21.27600
C  7.96600 46.50000 21.71900
C  7.91300 47.02500 23.14000
C  9.44700 47.75400 20.05100
C  7.62700 44.93500 21.54300
C  8.31500 44.04200 22.52100
N  7.68700 47.85500 25.98700
C  6.57300 47.48200 25.18600
C  5.42000 47.27100 26.09200
C  5.91800 47.55700 27.40800
C  7.28400 47.96500 27.29200
C  4.10900 46.79800 25.69800
C  5.60900 47.51000 28.85500
O  4.54600 47.13400 29.44500
C  6.85800 47.98400 29.60600
C  7.18500 46.77100 30.44300
O  7.83400 45.79400 30.05800
O  6.58100 46.92900 31.65300
C  6.77900 45.82000 32.53400
H  13.30400 49.80200 27.74900
H  11.95100 47.51500 21.82600
H  5.78500 46.73300 23.33900
H  9.32900 49.90700 30.48700
H  12.08500 49.69300 30.09400
H  12.20300 51.82400 29.38600
H  10.58500 51.98200 30.13600
H  10.70200 51.78300 28.40700
H  11.38300 47.84200 31.15200
H  9.84600 47.08400 30.63200
H  8.67200 48.12200 32.46400
H  10.27600 48.96300 32.89000
H  16.01800 48.30100 25.69400
H  15.24100 49.44700 26.87600
H  15.69000 49.98600 25.28600
H  16.07900 49.91500 22.98900
H  16.54000 48.53300 22.00500
H  16.55300 48.40600 23.74200
H  10.02700 46.00300 21.20500
H  7.17100 47.04100 21.20500
H  9.19500 48.74700 20.42300
H  8.86200 47.37700 19.21200
H  10.47500 47.77600 19.69000
H  7.99400 44.72400 20.53800
H  6.54100 44.88000 21.60800
H  9.32700 44.36800 22.76100
H  8.49800 43.13300 21.94700
H  7.71400 43.90800 23.42100
H  3.89300 47.16300 24.69300
H  3.45000 47.29900 26.40800
H  4.03500 45.71600 25.80100
H  6.62300 48.91400 30.12400
H  7.83700 45.57200 32.44600
H  6.13400 44.97000 32.30900
H  6.63200 46.18500 33.55000

