158

Mg 7.20900 3.12600 27.49800
C  8.32400 1.93400 30.62200
C  5.12400 5.26500 29.21500
C  5.84800 4.13500 24.61800
C  8.96600 0.76900 25.92200
N  6.58000 3.32500 29.71200
C  7.27300 2.83800 30.77900
C  6.68400 3.31000 32.16500
C  5.58100 4.27500 31.59100
C  5.81100 4.37700 30.04700
C  4.05600 3.98800 31.96900
C  7.69600 3.99700 33.13900
C  7.22100 3.88700 34.62700
H  8.17400 3.66100 35.73900
N  5.90900 4.72800 26.96500
C  5.12000 5.43100 27.82000
C  4.29100 6.30900 27.14400
C  4.42100 5.96900 25.81700
C  5.36300 4.87100 25.72600
C  3.22900 7.19700 27.77000
C  3.75300 6.64000 24.59900
O  3.90400 6.26300 23.45500
C  2.88100 7.91700 24.70600
N  7.32700 2.51600 25.52000
C  6.71900 3.11600 24.44400
C  7.22400 2.53700 23.09100
C  8.28700 1.51800 23.57400
C  8.15500 1.55000 25.10700
C  5.98100 1.98000 22.26700
C  9.73000 1.84600 22.98900
C  10.55200 2.87000 23.74000
N  8.31900 1.48300 28.06900
C  9.13600 0.72500 27.32600
C  10.11600 -0.01000 28.16900
C  9.72500 0.38100 29.50200
C  8.72100 1.34500 29.36800
C  11.29100 -0.90100 27.80400
C  10.06900 0.15500 30.83600
O  10.98400 -0.58600 31.28800
C  9.17600 1.19600 31.70500
C  8.38100 0.44400 32.74400
O  7.26600 -0.01500 32.57400
O  8.99400 0.37500 33.99100
C  8.30500 -0.16900 35.12700
H  4.51700 5.96700 29.79100
H  5.37000 4.44600 23.68700
H  9.49700 0.02000 25.33100
H  6.18400 2.48200 32.66700
H  5.68600 5.26200 32.04300
H  3.97800 3.20200 32.72000
H  3.50100 3.84200 31.04100
H  3.59400 4.87300 32.40800
H  7.75600 5.03400 32.80600
H  8.71300 3.63100 32.99600
H  6.41300 3.16200 34.72700
H  6.86200 4.88500 34.87800
H  3.18500 7.25700 28.85800
H  2.19100 7.01800 27.49100
H  3.48000 8.19300 27.40700
H  3.54500 8.63500 25.18700
H  2.08800 7.79900 25.44500
H  2.44300 8.24300 23.76300
H  7.72200 3.28200 22.47000
H  8.02300 0.52200 23.22100
H  5.11300 2.23000 22.87700
H  6.02500 0.89500 22.17200
H  5.88600 2.53300 21.33200
H  9.81200 2.28300 21.99400
H  10.22100 0.88100 22.86400
H  11.40800 2.30500 24.11000
H  9.99600 3.35600 24.54200
H  10.85600 3.70800 23.11400
H  11.85600 -0.53600 26.94600
H  10.87900 -1.88400 27.57600
H  11.97500 -0.90500 28.65300
H  9.84400 1.85700 32.25800
H  8.36800 -1.25000 34.99900
H  7.33900 0.32700 35.22100
H  8.81200 -0.03800 36.08300
Mg -4.93700 25.18200 26.25600
C  -3.58700 26.44300 29.21400
C  -7.01900 23.23600 28.09600
C  -5.79300 23.61200 23.39700
C  -2.44900 27.06400 24.43000
N  -5.25800 24.88000 28.36900
C  -4.64900 25.50500 29.38400
C  -5.24400 25.19100 30.70600
C  -6.24000 24.05400 30.41500
C  -6.19100 24.07100 28.86000
C  -5.78000 22.62000 30.93700
C  -5.88100 26.41300 31.40400
C  -5.42100 26.78500 32.83300
H  -4.79600 25.68100 33.70000
N  -6.21700 23.69400 25.84600
C  -7.04000 23.06700 26.73100
C  -8.02800 22.27900 25.95800
C  -7.70400 22.39000 24.58500
C  -6.48500 23.29600 24.54700
C  -9.01700 21.52400 26.78700
C  -8.37200 21.73800 23.39000
O  -7.87600 21.69000 22.23600
C  -9.75200 21.14700 23.57000
N  -4.18500 25.33600 24.17100
C  -4.71800 24.54600 23.20700
C  -3.82700 24.56300 21.96900
C  -2.81100 25.75200 22.20600
C  -3.11300 26.05200 23.73100
C  -3.17600 23.15200 21.54900
C  -3.07800 27.05200 21.36600
C  -1.93500 28.02100 20.96800
N  -3.22100 26.52300 26.64300
C  -2.43700 27.27800 25.81800
C  -1.68000 28.14500 26.61800
C  -2.00200 27.89000 28.01100
C  -3.03600 26.91600 27.94600
C  -0.65800 29.15900 26.10300
C  -1.74800 28.17200 29.45900
O  -1.02400 28.93100 30.02800
C  -2.72300 27.19300 30.25300
C  -1.79000 26.22300 30.87800
O  -1.19300 25.35200 30.19600
O  -1.55800 26.47700 32.19700
C  -0.48700 25.76700 32.95000
H  -7.59400 22.57200 28.74500
H  -6.10700 23.14200 22.46300
H  -1.81100 27.70000 23.81300
H  -4.38100 24.88500 31.29800
H  -7.27100 24.27600 30.69100
H  -6.16700 22.52600 31.95200
H  -4.70500 22.53500 31.09600
H  -6.13700 21.75800 30.37400
H  -6.95400 26.25900 31.51900
H  -5.63500 27.31900 30.85100
H  -6.35100 27.08900 33.31400
H  -4.72900 27.62600 32.78300
H  -8.56900 20.86700 27.53300
H  -9.65200 20.82400 26.24400
H  -9.69300 22.21400 27.29100
H  -10.25400 21.17500 22.60300
H  -10.32300 21.73700 24.28700
H  -9.60700 20.13200 23.93900
H  -4.50400 24.86000 21.16800
H  -1.79000 25.40500 22.04600
H  -2.12200 23.17700 21.27200
H  -3.83100 22.81200 20.74700
H  -3.30700 22.45700 22.37800
H  -3.73200 27.70900 21.94000
H  -3.68500 26.69100 20.53600
H  -2.10000 28.96500 21.48700
H  -1.85100 28.13100 19.88700
H  -0.96800 27.64500 21.30200
H  -1.21400 30.08800 26.23100
H  -0.34900 28.88700 25.09300
H  0.23100 29.28000 26.72200
H  -3.28200 27.59100 31.10100
H  0.00700 25.14000 32.20800
H  -1.08700 25.12700 33.59600
H  0.20300 26.41700 33.48800

