158

Mg 1.76300 -0.95800 43.97700
C  5.07400 -0.39900 43.12500
C  1.00000 2.00300 42.46300
C  -1.51300 -1.90000 44.08700
C  2.72000 -4.16900 44.87800
N  2.94000 0.50800 42.89500
C  4.24000 0.60700 42.60400
C  4.71600 1.85200 41.88100
C  3.41500 2.66900 42.00100
C  2.41300 1.69000 42.55800
C  3.51800 4.01100 42.74500
C  5.25200 1.54100 40.38400
C  6.47400 2.44200 40.03500
H  6.28500 3.38900 38.87700
N  0.01400 -0.12000 43.34800
C  -0.11800 1.15900 42.77600
C  -1.46200 1.53000 42.61400
C  -2.19000 0.42700 43.09200
C  -1.22500 -0.61500 43.51600
C  -1.96300 2.81600 41.93000
C  -3.71500 0.39100 43.13400
O  -4.43900 1.34900 42.82300
C  -4.50500 -0.86200 43.52600
N  0.77600 -2.76200 44.48000
C  -0.55700 -2.86900 44.49600
C  -1.03200 -4.31400 44.95600
C  0.26800 -5.04500 45.08900
C  1.31100 -3.98700 44.73300
C  -1.92900 -4.29700 46.26000
C  0.30400 -6.39000 44.18600
C  0.60000 -7.68100 44.98900
N  3.57500 -2.04300 44.17800
C  3.75000 -3.30400 44.69000
C  5.17200 -3.62500 44.68000
C  5.76400 -2.48500 44.10700
C  4.74200 -1.60000 43.74700
C  5.83100 -4.99400 45.18500
C  7.00700 -1.86400 43.71800
O  8.19100 -2.12300 43.84800
C  6.61400 -0.44900 43.00500
C  7.33300 0.50600 43.77200
O  7.05200 0.92400 44.87400
O  8.47000 0.75100 43.07100
C  9.20600 1.97900 43.48800
H  0.73500 3.02100 42.16800
H  -2.58200 -2.11600 44.03100
H  2.99000 -5.19600 45.13300
H  5.56300 2.32500 42.37800
H  2.98600 3.01300 41.06000
H  2.91900 4.04400 43.65600
H  3.08600 4.76800 42.09000
H  4.48900 4.22700 43.19000
H  4.48500 1.84300 39.67200
H  5.40700 0.46400 40.32500
H  7.34400 1.81400 39.84000
H  6.70400 3.05300 40.90700
H  -3.00500 3.03600 42.15900
H  -1.89100 2.83900 40.84300
H  -1.29600 3.59200 42.30400
H  -5.56900 -0.65000 43.41900
H  -4.31000 -0.93700 44.59600
H  -4.24700 -1.75400 42.95600
H  -1.69700 -4.70300 44.18400
H  0.35800 -5.19900 46.16400
H  -1.55100 -4.96000 47.03800
H  -2.84100 -4.77600 45.90400
H  -2.18100 -3.30100 46.62400
H  1.02500 -6.17600 43.39700
H  -0.66700 -6.54300 43.71500
H  1.43800 -8.23100 44.56300
H  -0.26300 -8.33300 45.12900
H  0.86700 -7.27500 45.96500
H  6.91400 -4.87500 45.18500
H  5.60700 -5.68200 44.37000
H  5.52700 -5.36000 46.16600
H  6.92700 -0.40900 41.96200
H  10.14100 1.66400 43.95000
H  8.68300 2.47800 44.30500
H  9.47000 2.71800 42.73200
Mg 48.02100 34.62100 27.26800
C  45.87700 33.07200 29.76600
C  48.67100 37.16900 29.52700
C  49.22100 36.32800 24.84900
C  47.10400 31.99400 25.23600
N  47.25700 35.02000 29.26900
C  46.49400 34.24300 30.18700
C  46.77500 34.79600 31.59800
C  47.03900 36.33200 31.35500
C  47.75800 36.15300 29.97400
C  45.85000 37.24300 31.29900
C  47.99400 34.03400 32.39100
C  47.60400 33.54800 33.84000
H  48.07900 34.38600 35.01100
N  48.90200 36.45300 27.16000
C  49.17600 37.29600 28.24700
C  49.81000 38.54300 27.75800
C  50.02700 38.26700 26.34300
C  49.33600 36.99300 26.07800
C  50.24000 39.67400 28.62200
C  50.69300 39.22600 25.45000
O  50.80100 38.98600 24.29200
C  51.03000 40.61700 25.92800
N  48.10300 34.25700 25.29400
C  48.77000 35.12700 24.51000
C  48.78900 34.58600 23.00900
C  48.29400 33.07300 23.21300
C  47.74500 33.11000 24.67700
C  47.94300 35.44100 21.98200
C  49.40800 32.01100 23.10900
C  50.71600 32.00600 23.95900
N  46.82500 32.90400 27.43800
C  46.59400 31.87600 26.57000
C  45.76300 30.85600 27.07700
C  45.47600 31.25400 28.34500
C  46.09400 32.52200 28.49200
C  45.63000 29.55200 26.40900
C  44.82200 30.90800 29.58200
O  44.20300 29.95800 29.95700
C  44.98600 32.12400 30.53100
C  45.49000 31.60500 31.76600
O  46.60700 31.12900 31.86700
O  44.48400 31.56200 32.71200
C  44.84000 30.83700 33.97900
H  48.88700 37.89700 30.31200
H  49.73900 36.81000 24.01700
H  46.86200 31.31500 24.41600
H  45.82500 34.81500 32.13200
H  47.68600 36.80200 32.09600
H  44.98500 36.58300 31.23900
H  45.81800 37.87500 30.41100
H  45.74700 37.84600 32.20200
H  48.87200 34.67500 32.47500
H  48.37300 33.16400 31.85500
H  47.85000 32.50800 34.05400
H  46.53300 33.63400 34.02000
H  51.31800 39.81300 28.69400
H  50.01200 39.41500 29.65600
H  49.68000 40.55000 28.29600
H  50.20200 41.19200 26.34200
H  51.28400 41.28500 25.10600
H  51.86200 40.61800 26.63300
H  49.82800 34.51700 22.68800
H  47.55000 32.81200 22.46100
H  48.55600 36.23300 21.55100
H  47.06900 35.91700 22.42800
H  47.53000 34.77400 21.22500
H  49.81500 32.23200 22.12200
H  49.07100 30.97500 23.08700
H  50.75800 31.01100 24.40100
H  50.69700 32.78300 24.72300
H  51.57500 32.05300 23.28900
H  46.08300 28.83000 27.08900
H  46.28500 29.55000 25.53800
H  44.63000 29.25100 26.09800
H  44.01600 32.60500 30.65000
H  45.19400 31.63400 34.63400
H  45.54400 30.01700 33.83700
H  43.97300 30.37200 34.44700

