158

Mg 47.17000 24.69000 27.62900
C  47.92600 26.92200 30.19000
C  46.15400 22.53500 29.90400
C  46.55700 22.58100 25.06300
C  48.78900 26.82100 25.36600
N  47.25400 24.63300 29.93500
C  47.44300 25.72600 30.71000
C  46.93700 25.44900 32.14000
C  46.35100 23.99800 31.92900
C  46.58000 23.67000 30.53000
C  46.91900 22.91100 32.96800
C  46.10000 26.44700 32.83500
C  45.07100 25.95400 33.84600
H  44.79200 26.97700 34.91000
N  46.34600 22.81200 27.51100
C  46.10200 22.07300 28.56500
C  45.48600 20.82800 28.07800
C  45.54900 20.88600 26.70900
C  46.15800 22.09500 26.32500
C  44.85800 19.77100 29.01000
C  44.97900 19.91400 25.66600
O  44.95700 20.14000 24.42100
C  44.39900 18.61700 26.09500
N  47.70800 24.55700 25.57900
C  47.31600 23.61400 24.66000
C  47.72200 23.91800 23.16700
C  48.12900 25.39600 23.32500
C  48.28900 25.57400 24.85500
C  48.90000 23.08200 22.55200
C  47.04100 26.30600 22.72100
C  47.35100 27.79700 22.63700
N  48.16100 26.43500 27.70100
C  48.73000 27.20300 26.73700
C  49.10600 28.53700 27.30700
C  48.77300 28.46500 28.65500
C  48.25000 27.11500 28.84200
C  49.75600 29.73300 26.60400
C  48.76300 29.19400 29.86800
O  49.15900 30.33800 30.06100
C  48.15500 28.20900 30.95500
C  49.23800 28.16500 32.01200
O  50.38100 27.62800 31.95400
O  48.67200 28.59500 33.19700
C  49.51000 28.63300 34.37700
H  45.62100 21.87300 30.59000
H  46.33600 21.99200 24.17000
H  49.35300 27.47400 24.69700
H  47.85500 25.44500 32.72700
H  45.28900 23.99600 32.17700
H  46.17600 22.55700 33.68300
H  47.79300 23.36500 33.43500
H  47.17400 22.02700 32.38400
H  45.62500 26.94600 31.99000
H  46.80700 27.11800 33.32300
H  45.35400 25.00400 34.29900
H  44.12400 25.92800 33.30600
H  43.78600 19.86400 28.83600
H  45.20900 19.86200 30.03800
H  45.19500 18.77400 28.72700
H  43.56000 18.85900 26.74800
H  45.17500 18.07800 26.63800
H  44.11200 18.09800 25.18000
H  46.80400 23.80400 22.59100
H  49.10900 25.50600 22.86300
H  49.10000 22.16600 23.10800
H  49.86700 23.57600 22.64500
H  48.64900 22.95600 21.49900
H  46.28200 26.37800 23.50100
H  46.64700 25.95700 21.76600
H  47.28500 28.15100 23.66500
H  46.81600 28.37500 21.88300
H  48.43200 27.89100 22.53100
H  49.50900 29.74500 25.54200
H  50.82900 29.68800 26.78800
H  49.27800 30.61200 27.03500
H  47.25400 28.62300 31.40800
H  48.94200 28.07500 35.12100
H  49.69000 29.68700 34.59100
H  50.41400 28.02900 34.29000
Mg 47.78300 34.49200 26.71400
C  45.99000 33.13900 29.40600
C  48.20000 37.20400 28.87500
C  48.96600 36.24600 24.16300
C  47.14500 31.70400 24.83100
N  47.32400 34.96400 28.99600
C  46.59000 34.28400 29.84500
C  46.63000 34.87400 31.25800
C  46.87300 36.38900 30.89500
C  47.59100 36.17600 29.56900
C  45.60800 37.26000 30.85200
C  47.80100 34.35100 32.13000
C  47.93200 34.53400 33.65600
H  46.88900 35.39100 34.46100
N  48.51400 36.48900 26.60600
C  48.73800 37.39700 27.60100
C  49.27500 38.60600 27.04700
C  49.40800 38.38800 25.63200
C  48.97600 36.98000 25.39900
C  49.47300 39.84500 27.99700
C  49.84400 39.31900 24.49200
O  49.98600 38.97500 23.31700
C  50.32900 40.70400 24.93200
N  47.99500 34.03600 24.81000
C  48.46600 34.95500 23.91400
C  48.67100 34.32400 22.51600
C  48.26800 32.83300 22.81300
C  47.77800 32.81500 24.23600
C  47.78400 34.98100 21.30500
C  49.38000 31.80500 22.54000
C  50.60400 31.81000 23.39700
N  46.74700 32.79200 26.94200
C  46.56500 31.73300 26.09400
C  45.82600 30.72100 26.85400
C  45.41900 31.33300 28.06200
C  46.08600 32.49800 28.11700
C  45.30200 29.43400 26.43900
C  44.64500 31.09100 29.25100
O  43.88900 30.22700 29.56300
C  44.92400 32.36900 30.14900
C  45.22100 31.86000 31.51600
O  46.22300 31.20700 31.85100
O  44.22100 32.26800 32.37800
C  44.52200 31.93800 33.80200
H  48.22200 38.04800 29.56700
H  49.43600 36.70500 23.29000
H  47.02600 30.74900 24.31400
H  45.74400 34.81200 31.89000
H  47.47700 36.86000 31.67000
H  45.79900 38.26300 31.23300
H  44.83300 36.73800 31.41300
H  45.19100 37.31800 29.84700
H  48.72500 34.66700 31.64600
H  47.89400 33.29600 31.87100
H  48.96600 34.83500 33.82100
H  47.91900 33.50100 34.00100
H  50.38700 40.36400 27.71000
H  49.63200 39.75500 29.07200
H  48.69600 40.56400 27.73700
H  51.21000 40.61400 25.56800
H  49.47100 41.13400 25.44800
H  50.59200 41.32700 24.07700
H  49.72900 34.50300 22.32300
H  47.41500 32.48400 22.23100
H  48.47800 35.52800 20.66800
H  47.09300 35.65900 21.80500
H  47.20900 34.24300 20.74600
H  49.77700 31.94400 21.53400
H  48.91800 30.82100 22.62300
H  50.96000 30.85300 23.77700
H  50.53400 32.46500 24.26500
H  51.39100 32.21100 22.75800
H  45.49900 29.36400 25.36900
H  44.24200 29.35200 26.67900
H  45.79000 28.56800 26.88600
H  44.04500 33.01300 30.19300
H  44.07700 32.77700 34.33800
H  45.56600 31.92500 34.11400
H  44.04200 31.01100 34.11700

