158

Mg 54.94400 23.68300 44.96700
C  52.61100 26.13600 43.85400
C  52.88400 21.28800 43.67400
C  57.45900 21.54200 45.41300
C  57.06300 26.31500 46.01500
N  53.10800 23.70600 43.68000
C  52.32400 24.83900 43.31200
C  51.14600 24.34600 42.36400
C  51.07800 22.83400 42.83100
C  52.45100 22.56800 43.44200
C  49.96700 22.47200 43.84200
C  51.37300 24.61000 40.79700
C  50.38100 25.61300 40.09800
H  49.57800 25.08400 38.94500
N  55.16200 21.60900 44.56700
C  54.12600 20.73600 44.14300
C  54.58400 19.40700 44.19000
C  55.94600 19.47900 44.58300
C  56.23300 20.93900 44.85300
C  53.72200 18.14100 43.82100
C  56.88100 18.34700 44.75400
O  56.51500 17.20300 44.41700
C  58.26900 18.43500 45.21200
N  57.14900 23.97500 45.49700
C  57.90900 22.90400 45.70000
C  59.24800 23.32500 46.23400
C  59.11600 24.86500 46.58700
C  57.70600 25.08700 45.99700
C  59.72600 22.45600 47.52500
C  60.17500 25.84200 46.01000
C  61.55100 25.88400 46.80500
N  54.82400 25.74000 45.11000
C  55.75300 26.70400 45.51100
C  55.20500 27.96000 45.47600
C  53.91200 27.80700 44.89500
C  53.79700 26.42500 44.55800
C  55.89200 29.18900 46.12800
C  52.71100 28.53000 44.46500
O  52.50500 29.72700 44.60400
C  51.83900 27.46700 43.84000
C  51.39400 27.80700 42.50900
O  52.04000 27.78700 41.47300
O  50.04700 28.18400 42.43300
C  49.62000 28.91600 41.16600
H  52.15600 20.51900 43.40500
H  58.31600 20.90400 45.64100
H  57.71200 27.15400 46.27700
H  50.23700 24.77800 42.78300
H  50.86800 22.17200 41.99100
H  49.81100 21.39900 43.73300
H  49.02100 22.93800 43.56700
H  50.19000 22.87100 44.83100
H  51.29200 23.61400 40.36200
H  52.37800 24.99300 40.62200
H  50.89900 26.54000 39.85100
H  49.62500 25.89000 40.83200
H  54.30300 17.23000 43.67600
H  53.06900 18.25300 42.95600
H  53.16400 17.97000 44.74200
H  58.97100 18.99500 44.59400
H  58.61600 17.40200 45.17000
H  58.44600 18.73000 46.24700
H  59.92200 23.16600 45.39300
H  59.05700 24.93400 47.67400
H  59.74500 23.09900 48.40400
H  60.66200 21.95300 47.27900
H  59.01500 21.63700 47.63600
H  59.88100 26.89200 46.00100
H  60.41800 25.54000 44.99100
H  61.76800 24.99500 47.39800
H  61.47800 26.72400 47.49700
H  62.40700 25.97600 46.13700
H  56.98000 29.23400 46.17900
H  55.43800 29.25000 47.11700
H  55.49100 30.06300 45.61300
H  51.02600 27.23700 44.53000
H  48.91500 29.69800 41.44800
H  49.17900 28.21700 40.45700
H  50.54600 29.25300 40.69900
Mg -1.80100 35.16400 26.27600
C  -3.86500 33.75100 28.91200
C  -0.93100 37.66000 28.59800
C  -0.30500 36.96800 23.81300
C  -3.33500 33.05700 24.05000
N  -2.43000 35.66000 28.53100
C  -3.16500 34.82900 29.40200
C  -3.24200 35.45200 30.73400
C  -2.34100 36.72800 30.71100
C  -1.94400 36.76300 29.16000
C  -3.00200 37.97200 31.31500
C  -3.05700 34.40000 31.90400
C  -2.55300 34.99800 33.23400
H  -3.24800 34.44700 34.51000
N  -0.64900 36.98700 26.20000
C  -0.32300 37.76800 27.29400
C  0.59200 38.83400 26.79600
C  0.75300 38.63500 25.41200
C  -0.07900 37.50100 25.08300
C  1.13200 39.88200 27.77600
C  1.75800 39.34200 24.35300
O  1.66600 39.12500 23.16400
C  2.81000 40.33200 24.82500
N  -1.95400 35.07800 24.18100
C  -1.15500 35.82800 23.41700
C  -1.12400 35.28300 21.98100
C  -1.96000 34.04300 21.96700
C  -2.43400 33.98500 23.48700
C  -1.23500 36.34300 20.84700
C  -1.13200 32.83400 21.53000
C  -1.99200 31.60100 21.13800
N  -3.23600 33.60700 26.41500
C  -3.74600 32.82100 25.38300
C  -4.71400 31.88800 25.94900
C  -4.77700 32.23000 27.34600
C  -3.82200 33.20800 27.58000
C  -5.39600 30.73500 25.28100
C  -5.37300 31.85200 28.55200
O  -6.23400 30.99300 28.77800
C  -4.73900 32.76600 29.63200
C  -5.92100 33.44700 30.28600
O  -6.56300 34.36500 29.83000
O  -6.14800 32.84300 31.54600
C  -7.27400 33.27900 32.36800
H  -0.53000 38.30400 29.38300
H  0.19700 37.34200 22.91900
H  -3.68200 32.27800 23.36700
H  -4.29600 35.72700 30.76100
H  -1.37400 36.54000 31.17800
H  -2.26000 38.46100 31.94600
H  -3.84900 37.73500 31.96000
H  -3.35500 38.66600 30.55200
H  -2.31000 33.66900 31.59400
H  -3.98500 33.88800 32.15900
H  -2.77800 36.06300 33.28100
H  -1.48100 34.80000 33.21400
H  0.82200 40.85400 27.39000
H  2.22000 39.87500 27.71900
H  0.84600 39.93400 28.82600
H  3.48600 40.50800 23.98800
H  3.41600 39.90600 25.62400
H  2.38900 41.31400 25.04000
H  -0.05400 35.09700 21.89600
H  -2.93800 34.04000 21.48500
H  -1.82900 35.93600 20.02900
H  -0.27500 36.71500 20.49000
H  -1.78400 37.19700 21.24300
H  -0.58500 32.43200 22.38300
H  -0.43900 33.09700 20.73000
H  -1.55700 31.19400 20.22500
H  -3.03200 31.91100 21.03600
H  -1.95200 30.85400 21.93100
H  -4.53300 30.39600 24.70700
H  -6.18700 30.98300 24.57200
H  -5.62000 29.97000 26.02400
H  -4.17700 32.18200 30.36100
H  -8.05800 33.57300 31.67100
H  -6.91700 34.14100 32.93200
H  -7.58400 32.43300 32.98100

