158

Mg 44.13000 4.33700 47.36900
C  42.13900 7.08400 47.05000
C  41.47100 2.36000 47.04600
C  46.24000 1.73400 46.89800
C  46.82000 6.57800 47.77400
N  42.02300 4.73900 46.88700
C  41.48200 5.91700 46.85900
C  39.94600 5.78200 46.69500
C  39.71000 4.28500 46.96600
C  41.13900 3.76700 46.98300
C  39.03100 3.81700 48.33100
C  39.39100 6.23800 45.32100
C  40.37500 6.36700 44.21400
H  39.95700 6.26400 42.74200
N  43.87900 2.30500 47.09400
C  42.63800 1.71400 46.92200
C  42.90200 0.30800 46.68700
C  44.30500 0.08600 46.69900
C  44.92600 1.38000 46.88500
C  41.76600 -0.70500 46.72700
C  44.95600 -1.24700 46.62500
O  44.40600 -2.28900 46.35900
C  46.48400 -1.34300 46.83000
N  46.22800 4.18600 47.30000
C  46.84000 2.97200 47.21200
C  48.35200 3.16600 47.23700
C  48.52600 4.64300 47.80100
C  47.12500 5.19600 47.62900
C  48.98700 2.13000 48.14600
C  49.67600 5.43300 47.14700
C  51.03400 4.80500 46.73000
N  44.50600 6.39500 47.29600
C  45.57500 7.15800 47.58500
C  45.25800 8.57200 47.71000
C  43.90000 8.57300 47.52700
C  43.51600 7.25600 47.23200
C  46.12900 9.70400 48.18400
C  42.70100 9.49100 47.32600
O  42.63200 10.73600 47.30900
C  41.57000 8.53900 47.03500
C  40.59000 8.72000 48.12000
O  40.81700 8.30000 49.26200
O  39.41900 9.30700 47.70800
C  38.36200 9.23100 48.62700
H  40.54300 1.79900 46.91900
H  46.99700 0.99900 46.61700
H  47.59100 7.31000 48.02300
H  39.45300 6.36100 47.47600
H  39.24000 3.82700 46.09600
H  38.74500 4.81300 48.66900
H  39.75200 3.44800 49.06000
H  38.15200 3.17500 48.28600
H  38.87900 7.19900 45.36200
H  38.63700 5.56200 44.91600
H  41.08100 5.54900 44.35400
H  40.89900 7.32100 44.27600
H  41.91600 -1.44000 45.93600
H  40.76400 -0.27700 46.75600
H  41.84900 -1.09500 47.74100
H  47.05700 -0.89200 46.02000
H  46.76700 -2.39600 46.86200
H  46.64600 -0.88900 47.80700
H  48.69500 3.02200 46.21300
H  48.57400 4.64800 48.89000
H  48.18800 1.48700 48.51700
H  49.45300 2.69700 48.95200
H  49.69500 1.57100 47.53500
H  49.84900 6.28800 47.80000
H  49.27100 5.85200 46.22600
H  51.35500 5.21900 45.77400
H  50.76400 3.77400 46.50500
H  51.93400 5.00100 47.31400
H  46.73800 9.99500 47.32900
H  46.69800 9.43600 49.07400
H  45.52900 10.58000 48.42900
H  41.11400 8.75100 46.06800
H  37.38400 9.03900 48.18500
H  38.26800 10.23200 49.04800
H  38.55400 8.51600 49.42700
Mg 47.84400 44.41600 43.69400
C  44.30500 43.90400 43.31200
C  48.26300 41.09400 43.07300
C  50.99400 45.07700 43.48500
C  47.09400 47.97100 43.48100
N  46.46400 42.76200 43.05400
C  45.12400 42.77500 43.14200
C  44.56800 41.34600 42.93500
C  45.85200 40.47500 42.81000
C  46.93100 41.53000 42.97800
C  45.93500 39.24500 43.79500
C  43.53800 41.24900 41.77700
C  44.01200 41.78300 40.46300
H  43.80800 41.07800 39.10300
N  49.40800 43.19100 43.47100
C  49.40200 41.87800 43.25200
C  50.77200 41.39800 43.19600
C  51.61700 42.52500 43.36600
C  50.69800 43.63100 43.46600
C  51.16600 39.97600 42.88700
C  53.12100 42.50000 43.39400
O  53.62100 41.38400 43.29600
C  53.97300 43.73600 43.69800
N  48.84700 46.31000 43.43500
C  50.22200 46.23600 43.44200
C  50.77600 47.63200 43.22600
C  49.50100 48.55800 43.17300
C  48.45600 47.54900 43.42000
C  51.58300 48.05800 44.52500
C  49.23400 49.43700 41.91800
C  49.12800 50.95400 42.03000
N  46.11700 45.73500 43.51700
C  45.96500 47.11700 43.42300
C  44.51900 47.48600 43.30800
C  43.86500 46.21500 43.32800
C  44.85700 45.23200 43.34100
C  43.87200 48.88400 43.31100
C  42.57100 45.63000 43.27900
O  41.44900 46.11600 43.17200
C  42.76500 44.07700 43.23400
C  42.00300 43.47100 44.34600
O  41.29400 42.46700 44.24700
O  42.30800 44.14600 45.50600
C  41.56300 43.46000 46.63000
H  48.45300 40.05300 42.80400
H  52.07100 45.25800 43.45900
H  47.11000 49.05200 43.32900
H  43.93300 41.21700 43.81100
H  46.00500 39.98800 41.84700
H  46.73900 39.52300 44.47700
H  46.21100 38.38300 43.18900
H  44.99000 39.21900 44.33800
H  42.58600 41.72800 42.00500
H  43.39000 40.17800 41.63600
H  45.04500 42.12800 40.51000
H  43.47500 42.73100 40.45700
H  51.82100 39.96000 42.01600
H  50.26400 39.38100 42.74200
H  51.76700 39.58200 43.70600
H  53.93700 44.43000 42.85800
H  54.98300 43.45600 43.99700
H  53.51500 44.20700 44.56700
H  51.48700 47.78500 42.41400
H  49.44900 49.23900 44.02300
H  51.25100 49.02100 44.91400
H  52.62100 48.20600 44.22600
H  51.55400 47.32000 45.32600
H  48.34900 49.08100 41.39000
H  50.09700 49.28100 41.27100
H  49.74400 51.40700 41.25300
H  49.49500 51.34600 42.97900
H  48.15100 51.40900 41.87200
H  44.01400 49.32300 42.32400
H  44.40400 49.41500 44.10000
H  42.83800 48.64400 43.56100
H  42.41900 43.80100 42.23700
H  41.70600 44.02400 47.55200
H  41.86300 42.44100 46.87100
H  40.50300 43.35300 46.39700

