158

Mg 46.86400 16.46200 28.73900
C  44.81500 16.04900 31.54900
C  49.32600 17.72500 30.69900
C  48.51800 17.34300 25.90600
C  44.24600 15.17500 26.79300
N  47.01000 16.97600 30.92300
C  46.07800 16.69000 31.92300
C  46.55900 17.09600 33.29000
C  47.90700 17.86000 32.96700
C  48.07600 17.55400 31.44700
C  47.87600 19.36600 33.40200
C  46.66800 15.85300 34.20900
C  46.15700 15.95700 35.66500
H  45.90600 17.34000 36.27100
N  48.63800 17.46900 28.34500
C  49.56000 17.77100 29.29500
C  50.78000 18.11000 28.64600
C  50.47700 18.12800 27.22300
C  49.18400 17.59200 27.08200
C  52.07600 18.40800 29.45600
C  51.34600 18.60400 26.05200
O  50.96100 18.82300 24.86300
C  52.79200 18.97600 26.31100
N  46.48100 16.18700 26.74400
C  47.33300 16.56900 25.74300
C  46.85100 16.21100 24.33900
C  45.65800 15.29000 24.68100
C  45.43300 15.55600 26.16000
C  46.40600 17.52300 23.68600
C  45.93200 13.78800 24.26600
C  45.61400 13.33600 22.84600
N  44.98500 15.57200 29.08400
C  43.98600 15.20600 28.20100
C  42.81500 14.75200 28.90600
C  43.08000 15.11200 30.23200
C  44.39900 15.62900 30.31200
C  41.57600 14.04000 28.35100
C  42.57200 15.14200 31.54700
O  41.45900 14.79500 31.97300
C  43.69000 15.71600 32.52500
C  43.01000 16.80500 33.36300
O  42.82900 18.00400 32.99900
O  42.53200 16.38300 34.48600
C  41.85700 17.29600 35.48000
H  50.20200 17.79700 31.34700
H  48.93800 17.77200 24.99400
H  43.39400 14.61100 26.40800
H  45.72000 17.72400 33.59200
H  48.68700 17.47500 33.62300
H  48.89500 19.60200 33.70600
H  47.14200 19.57800 34.18000
H  47.66300 19.92500 32.49100
H  47.72300 15.63000 34.37200
H  46.18400 14.94300 33.85500
H  46.83400 15.46300 36.36100
H  45.23400 15.38100 35.73800
H  52.91900 17.97200 28.92000
H  52.04800 18.02000 30.47400
H  52.28900 19.46900 29.32500
H  53.33200 18.21100 26.86900
H  52.67300 19.92600 26.83300
H  53.37600 19.13800 25.40500
H  47.61400 15.68500 23.76500
H  44.76900 15.57200 24.11700
H  45.38400 17.64600 23.32800
H  47.05300 17.59200 22.81200
H  46.62500 18.41600 24.27200
H  45.21700 13.28700 24.92000
H  46.92000 13.65800 24.70600
H  45.42500 14.20900 22.22100
H  44.75100 12.67500 22.77200
H  46.41000 12.76300 22.37100
H  41.77600 13.52000 27.41400
H  40.65700 14.62400 28.33700
H  41.39700 13.22700 29.05600
H  43.89000 15.07900 33.38600
H  40.78100 17.20100 35.62700
H  42.05300 18.36200 35.36400
H  42.35400 17.08200 36.42600
Mg -11.66300 38.29800 42.26000
C  -9.43600 35.76800 41.18700
C  -9.74300 40.47800 40.76300
C  -14.30500 40.28300 42.41100
C  -13.69100 35.64500 43.73100
N  -9.90500 38.05000 40.91300
C  -9.14100 36.99800 40.64000
C  -7.93200 37.34100 39.72200
C  -7.90000 38.91000 39.88400
C  -9.24100 39.21700 40.59300
C  -6.69900 39.36100 40.78200
C  -8.11400 36.73100 38.24200
C  -6.96700 35.76300 37.76300
H  -5.88600 36.37000 36.76100
N  -11.96500 40.19300 41.72600
C  -10.96500 40.94500 41.24000
C  -11.47900 42.28400 40.97600
C  -12.88900 42.27800 41.27700
C  -13.15300 40.86100 41.81500
C  -10.66100 43.42300 40.53700
C  -13.82800 43.37200 41.13100
O  -13.44900 44.46600 40.77300
C  -15.26500 43.28600 41.50600
N  -13.86100 37.93700 42.84300
C  -14.66200 38.99300 42.85700
C  -16.02000 38.63200 43.62600
C  -15.83500 37.15700 44.02200
C  -14.39500 36.88500 43.57100
C  -16.37200 39.59200 44.84200
C  -16.91500 36.12900 43.54800
C  -17.22600 34.94200 44.48300
N  -11.62900 36.13300 42.42200
C  -12.39300 35.26400 43.19700
C  -11.77300 33.95200 43.19100
C  -10.60500 34.13900 42.37400
C  -10.55700 35.41300 41.97300
C  -12.16500 32.61600 43.95400
C  -9.45100 33.45600 41.83700
O  -9.09300 32.26300 42.06100
C  -8.65700 34.47400 40.98400
C  -7.25500 34.58800 41.50300
O  -6.80000 35.47800 42.19000
O  -6.56400 33.46700 40.98800
C  -5.12000 33.73900 40.98600
H  -9.07300 41.19400 40.28300
H  -15.12600 40.98800 42.55500
H  -14.27000 34.93100 44.31900
H  -7.03600 36.94200 40.19700
H  -7.83100 39.44500 38.93700
H  -6.29300 40.35400 40.59400
H  -5.85800 38.68200 40.64000
H  -7.03100 39.25500 41.81500
H  -8.03300 37.62000 37.61800
H  -9.09000 36.24700 38.20000
H  -7.36500 34.84700 37.32600
H  -6.42300 35.45900 38.65700
H  -9.61000 43.15600 40.42500
H  -10.81900 44.28000 41.19200
H  -11.00100 43.75500 39.55600
H  -15.73800 42.37500 41.14000
H  -15.80100 44.11600 41.04500
H  -15.34300 43.42100 42.58500
H  -16.79700 38.77600 42.87500
H  -15.76800 37.05100 45.10500
H  -15.39700 39.96400 45.15400
H  -16.91700 38.96000 45.54400
H  -17.03200 40.38900 44.50000
H  -16.53600 35.61700 42.66400
H  -17.85700 36.65800 43.40400
H  -17.02800 34.07200 43.85900
H  -18.26500 34.96800 44.81100
H  -16.66100 34.90700 45.41500
H  -12.93600 32.94000 44.65300
H  -11.30100 32.26800 44.52000
H  -12.53400 31.87900 43.24000
H  -8.67900 34.19800 39.93000
H  -4.80400 34.10200 40.00700
H  -4.59400 32.82000 41.24600
H  -4.86000 34.52900 41.69000

