158

Mg 45.12600 3.48500 47.76300
C  43.03000 6.03100 46.79300
C  42.67300 1.22300 47.11800
C  47.35400 1.03400 48.03700
C  47.73800 5.79800 47.03100
N  43.07600 3.61900 46.86300
C  42.42300 4.78700 46.65900
C  40.92200 4.45900 46.25400
C  40.79900 2.93900 46.71600
C  42.28100 2.55800 46.85700
C  39.95700 2.71400 47.96700
C  40.70400 4.71400 44.78800
C  39.59200 5.75600 44.62500
H  38.56900 5.55200 43.42400
N  45.02600 1.45400 47.68700
C  43.91500 0.70500 47.43600
C  44.15100 -0.75600 47.64100
C  45.50400 -0.88300 48.02200
C  46.03900 0.53000 47.90000
C  43.14200 -1.85000 47.38200
C  46.23800 -2.12300 48.40500
O  45.61300 -3.20500 48.51000
C  47.67800 -2.12700 48.77700
N  47.23600 3.49400 47.66400
C  47.89800 2.31200 47.92100
C  49.46700 2.57100 47.86600
C  49.55500 4.06500 47.41400
C  48.12100 4.47800 47.29800
C  50.11000 2.19000 49.23800
C  50.36400 4.14700 46.06700
C  51.87800 4.43000 46.25300
N  45.42800 5.59900 47.30300
C  46.51700 6.42900 47.12300
C  46.10700 7.83800 46.96800
C  44.69800 7.72300 46.90300
C  44.34600 6.29600 47.03700
C  47.06700 8.99700 46.67400
C  43.54500 8.45400 46.51800
O  43.25600 9.59400 46.18200
C  42.38000 7.41000 46.63500
C  41.38600 7.90000 47.70700
O  41.49400 7.63900 48.85900
O  40.26200 8.37000 47.08900
C  39.13000 8.81600 47.86400
H  41.75900 0.66200 46.91000
H  48.06500 0.23300 48.25000
H  48.58300 6.48500 46.96100
H  40.28000 5.03300 46.92200
H  40.31600 2.32300 45.95700
H  39.59400 3.63100 48.43000
H  40.60400 2.08600 48.58100
H  39.02600 2.22500 47.68100
H  40.39600 3.78400 44.31100
H  41.55100 5.14200 44.25200
H  40.06300 6.73800 44.56400
H  38.89900 5.90000 45.45400
H  42.17100 -1.51400 47.01800
H  42.98200 -2.58300 48.17300
H  43.59400 -2.46800 46.60600
H  48.37600 -1.82200 47.99800
H  47.87300 -3.16900 49.02900
H  47.93000 -1.61700 49.70800
H  49.71600 1.83500 47.10100
H  49.88600 4.63600 48.28100
H  49.49300 1.96300 50.10700
H  50.84900 2.96500 49.44300
H  50.74200 1.30200 49.25300
H  49.88900 4.89700 45.43500
H  50.32000 3.26900 45.42300
H  52.11800 4.75700 47.26500
H  52.03600 5.28100 45.59000
H  52.49900 3.60800 45.89400
H  48.12800 8.76900 46.77200
H  46.80800 9.78600 47.38000
H  46.79000 9.20600 45.64000
H  41.87600 7.37300 45.66900
H  39.52200 9.29900 48.75900
H  38.55600 7.89800 47.98800
H  38.77300 9.41500 47.02600
Mg 40.11600 41.25300 27.49200
C  39.23200 43.65800 29.90800
C  41.12500 39.18000 30.10900
C  41.10200 39.22000 25.18500
C  39.34200 43.74600 25.08400
N  40.12100 41.38000 29.74100
C  39.63800 42.43300 30.47800
C  39.72300 42.13000 32.01600
C  40.37500 40.70100 32.06100
C  40.50000 40.35200 30.56800
C  41.65600 40.75000 32.92200
C  38.36300 42.14900 32.79900
C  38.21700 41.27200 34.02700
H  37.32800 41.86800 35.15100
N  41.00500 39.38600 27.65000
C  41.31300 38.73300 28.77300
C  42.00900 37.46800 28.38700
C  42.00800 37.41800 26.92100
C  41.35100 38.69400 26.50900
C  42.34200 36.42200 29.44700
C  42.63000 36.39200 25.97900
O  42.56500 36.53000 24.73800
C  43.35800 35.22800 26.59400
N  40.16600 41.44100 25.40400
C  40.65600 40.44100 24.66000
C  40.54400 40.76400 23.21300
C  39.62100 42.04000 23.21800
C  39.62200 42.43400 24.67600
C  41.90100 40.93400 22.39200
C  38.20700 41.82400 22.70900
C  37.16500 40.87200 23.49500
N  39.56600 43.27900 27.49000
C  39.43200 44.24900 26.42700
C  39.21300 45.54100 26.95700
C  39.06100 45.28600 28.29300
C  39.26500 43.96900 28.56600
C  38.97300 46.84000 26.20900
C  38.67000 46.06100 29.55000
O  38.35300 47.21700 29.75400
C  38.76600 44.94400 30.67400
C  39.74000 45.38500 31.61700
O  40.95400 45.54500 31.33600
O  39.14400 45.84600 32.78700
C  40.00400 46.69900 33.67800
H  41.36400 38.46400 30.89800
H  41.43400 38.50200 24.43300
H  38.98100 44.32300 24.23000
H  40.37900 42.87300 32.47000
H  39.68500 39.96300 32.47100
H  41.48100 40.20000 33.84700
H  42.00500 41.73400 33.23500
H  42.46200 40.24400 32.39100
H  37.67100 41.89200 31.99800
H  38.10700 43.15300 33.13700
H  39.23700 41.13300 34.38500
H  37.85300 40.30900 33.66700
H  43.41200 36.23600 29.54700
H  41.82400 35.52200 29.11700
H  42.07700 36.59500 30.49000
H  44.26300 35.48200 27.14600
H  43.59000 34.63000 25.71300
H  42.64500 34.62300 27.15500
H  39.94200 39.98000 22.75500
H  40.20100 42.83800 22.75600
H  41.95000 40.17800 21.60900
H  42.66600 40.78900 23.15600
H  42.02600 41.95300 22.02500
H  38.30400 41.44700 21.69100
H  37.72600 42.80200 22.68300
H  36.93100 39.99100 22.89700
H  36.22000 41.40100 23.61700
H  37.69400 40.63000 24.41700
H  39.03500 46.82300 25.12100
H  39.67500 47.59900 26.55500
H  37.96900 47.17000 26.47500
H  37.83100 44.74900 31.20000
H  40.74800 47.32000 33.17800
H  40.57800 46.04500 34.33400
H  39.33700 47.25400 34.33800

