158

Mg 25.23400 -0.42000 29.15700
C  27.30400 -0.40700 32.17100
C  22.53700 -0.33700 31.05800
C  23.70100 -0.72800 26.28400
C  28.48900 -1.10200 27.53200
N  25.00100 -0.36100 31.34700
C  25.90100 -0.26200 32.36800
C  25.19000 -0.05300 33.74600
C  23.69200 -0.39300 33.36500
C  23.73100 -0.41700 31.82800
C  22.88300 -1.54200 34.16500
C  25.49400 1.29200 34.47100
C  26.22300 1.24000 35.84300
H  25.86000 2.22100 36.95800
N  23.37800 -0.31700 28.67700
C  22.35000 -0.38900 29.62500
C  21.09100 -0.37500 28.84100
C  21.38800 -0.34300 27.40900
C  22.86700 -0.42100 27.39100
C  19.73900 -0.28100 29.58100
C  20.37100 -0.20800 26.17500
O  20.78200 -0.20900 25.05800
C  18.87700 -0.25700 26.47700
N  26.03500 -0.87800 27.20200
C  25.10200 -0.87400 26.14400
C  25.76300 -0.84100 24.78400
C  27.27900 -0.94600 25.21200
C  27.31500 -0.94100 26.73600
C  25.29500 -1.92500 23.77900
C  27.97200 0.36300 24.70700
C  27.73700 1.74400 25.47000
N  27.43300 -0.68000 29.72400
C  28.56300 -0.89500 28.92900
C  29.77500 -0.90800 29.76900
C  29.27400 -0.74400 31.01500
C  27.95100 -0.55300 30.94300
C  31.16800 -1.03400 29.26200
C  29.70800 -0.66100 32.44800
O  30.80200 -0.95000 32.95200
C  28.35200 -0.44000 33.26500
C  28.15600 -1.66100 34.16900
O  27.89300 -2.79100 33.80200
O  28.35800 -1.22200 35.47100
C  28.40500 -2.18400 36.57400
H  21.63100 -0.36300 31.66700
H  23.03400 -0.85700 25.42900
H  29.36800 -1.36000 26.93800
H  25.55100 -0.86000 34.38400
H  23.19100 0.56100 33.52900
H  22.27300 -2.19500 33.54000
H  22.11700 -1.08400 34.79000
H  23.61700 -2.05100 34.79000
H  24.50100 1.73100 34.56700
H  26.13500 1.90000 33.83300
H  27.20700 1.57700 35.51700
H  26.26800 0.24600 36.28700
H  19.36100 0.73300 29.45300
H  19.88300 -0.48800 30.64200
H  19.10700 -1.08100 29.19600
H  18.65400 -1.24500 26.88100
H  18.46200 -0.07200 25.48600
H  18.56300 0.57000 27.11400
H  25.48600 0.13100 24.37600
H  27.78400 -1.81800 24.79800
H  25.94000 -2.74500 23.46400
H  24.98400 -1.49000 22.82900
H  24.41500 -2.45500 24.14400
H  27.62900 0.55900 23.69100
H  29.05300 0.22900 24.66800
H  27.56400 1.53900 26.52600
H  26.93900 2.31000 24.98800
H  28.68100 2.27400 25.59700
H  31.19100 -2.02900 28.81700
H  31.83700 -0.82800 30.09700
H  31.44700 -0.29500 28.51100
H  28.41200 0.52700 33.76500
H  29.27800 -1.89400 37.15900
H  28.47000 -3.18500 36.14700
H  27.51800 -2.09700 37.20100
Mg 6.46700 54.48600 40.32400
C  6.66100 50.97200 40.16400
C  9.80200 54.59700 39.55500
C  6.11700 57.81700 39.97600
C  2.94900 54.16300 40.53300
N  7.98700 52.95400 39.95400
C  7.85800 51.59500 39.92500
C  9.24200 50.95500 39.96900
C  10.22200 52.13500 40.14700
C  9.26900 53.30500 39.79700
C  11.00500 52.27200 41.49900
C  9.57900 50.11500 38.72500
C  9.39300 50.88500 37.45300
H  8.03800 50.86600 36.66000
N  7.72800 55.99200 39.86000
C  9.06200 55.79900 39.53900
C  9.62900 57.03700 39.27400
C  8.67800 58.03900 39.50300
C  7.42200 57.34300 39.84900
C  11.10300 57.23900 38.95900
C  8.89500 59.52900 39.29300
O  9.99100 60.03200 39.19400
C  7.70300 60.43000 39.31000
N  4.78200 55.73300 40.05800
C  4.93400 57.09000 40.02100
C  3.53900 57.76400 40.09300
C  2.55600 56.64700 40.39600
C  3.47800 55.40500 40.28200
C  3.40700 58.95500 41.08900
C  1.21800 56.62000 39.62900
C  -0.08200 56.78500 40.41000
N  5.02100 52.93900 40.39000
C  3.67500 52.98300 40.62400
C  3.19300 51.53200 40.81700
C  4.34800 50.73200 40.76200
C  5.37000 51.61300 40.35300
C  1.76300 51.06100 41.06300
C  4.93700 49.36300 41.02000
O  4.33800 48.37400 41.38700
C  6.43200 49.44600 40.48200
C  6.24900 48.71800 39.23500
O  5.72700 49.09500 38.20400
O  6.81500 47.46700 39.44300
C  6.58800 46.56100 38.26500
H  10.87900 54.56600 39.37800
H  5.92800 58.88800 40.08200
H  1.89000 53.97100 40.71500
H  9.20400 50.20800 40.76200
H  10.99300 51.95100 39.39800
H  10.64800 51.52700 42.21100
H  10.87800 53.26600 41.92700
H  12.06600 52.11000 41.30900
H  9.02300 49.17800 38.68600
H  10.61200 49.76900 38.71300
H  10.25100 50.72600 36.79900
H  9.39600 51.95600 37.65500
H  11.64500 56.39100 38.54000
H  11.73600 57.82600 39.62400
H  10.99900 57.86500 38.07200
H  6.79200 60.19100 38.76200
H  8.00500 61.34600 38.80100
H  7.38200 60.76700 40.29500
H  3.40000 58.26200 39.13300
H  2.19400 56.80700 41.41100
H  3.28500 59.85100 40.47900
H  4.32200 59.00900 41.67900
H  2.54800 58.88500 41.75700
H  1.17000 55.71500 39.02300
H  1.27700 57.44700 38.92200
H  -0.77500 55.97300 40.18600
H  -0.75100 57.58300 40.08600
H  0.01700 56.96400 41.48000
H  1.22400 51.77600 41.68500
H  1.75900 50.05000 41.46900
H  1.45700 50.99900 40.01800
H  7.17800 49.03500 41.16100
H  7.00500 47.01000 37.36300
H  5.49900 46.53700 38.31500
H  6.93900 45.53500 38.37600

