158

Mg 24.86100 -5.45300 46.22000
C  27.28900 -3.53500 44.48400
C  22.57700 -4.30000 43.88500
C  23.01800 -8.14000 46.90100
C  27.43500 -6.62000 48.25500
N  24.87000 -3.95300 44.48400
C  26.02400 -3.36800 43.95100
C  25.59700 -2.53500 42.73600
C  24.06700 -2.39400 42.86600
C  23.84100 -3.58300 43.77400
C  23.60900 -1.03800 43.45000
C  26.16700 -3.14700 41.51500
C  26.51900 -2.03100 40.39900
H  26.06800 -2.34100 38.96100
N  23.01900 -6.04300 45.53600
C  22.19300 -5.46500 44.65900
C  20.99400 -6.24900 44.44600
C  21.01600 -7.25400 45.38600
C  22.38100 -7.20300 46.00700
C  19.90900 -5.90000 43.39600
C  19.94500 -8.35400 45.56200
O  18.83000 -8.23800 45.01900
C  20.12300 -9.50600 46.54400
N  25.12400 -7.08000 47.39900
C  24.25900 -8.14300 47.48300
C  24.58400 -9.06000 48.71700
C  26.09000 -8.73800 48.87400
C  26.17600 -7.35700 48.22700
C  23.83900 -8.59600 49.90400
C  26.98400 -9.74700 48.08500
C  27.70800 -10.80100 48.91300
N  27.03500 -5.06500 46.43800
C  27.89400 -5.64800 47.31200
C  29.24600 -5.10000 47.08900
C  29.04000 -4.26400 46.00200
C  27.71000 -4.36100 45.60500
C  30.45900 -5.22800 47.91200
C  29.77100 -3.30700 45.09500
O  30.96400 -3.13600 45.02400
C  28.64400 -2.84400 44.08900
C  28.53200 -1.38500 44.14000
O  28.37000 -0.77600 45.17700
O  28.71300 -0.75100 42.91700
C  28.66900 0.77300 42.95200
H  21.88800 -3.84800 43.16800
H  22.37700 -8.97200 47.19800
H  28.13200 -7.14200 48.91500
H  26.02500 -1.56300 42.98100
H  23.51100 -2.63600 41.96000
H  24.35600 -0.27000 43.65000
H  23.01400 -1.31600 44.32000
H  22.91400 -0.46500 42.83600
H  25.40100 -3.88600 41.27800
H  27.05300 -3.72100 41.78600
H  27.60300 -2.13200 40.44200
H  26.16000 -1.04900 40.70700
H  19.97900 -4.94500 42.87600
H  18.92100 -5.87600 43.85600
H  20.01900 -6.68400 42.64700
H  19.24600 -10.09800 46.80400
H  20.38800 -8.96300 47.45100
H  20.93300 -10.15300 46.20700
H  24.39900 -10.11300 48.50300
H  26.47000 -8.72000 49.89500
H  22.76900 -8.55400 49.70100
H  24.17100 -7.59300 50.17400
H  23.94200 -9.30200 50.72800
H  27.73400 -9.21500 47.50000
H  26.41800 -10.37800 47.40000
H  27.74400 -10.45300 49.94600
H  28.71800 -10.96500 48.53800
H  27.13900 -11.72900 48.86600
H  30.78100 -4.21600 48.15700
H  31.17800 -5.82400 47.35000
H  30.30400 -5.80800 48.82200
H  28.92300 -3.07500 43.06100
H  27.81600 1.03700 43.57700
H  28.51200 1.06300 41.91300
H  29.55400 1.26300 43.35800
Mg 48.12100 34.93400 27.20900
C  46.24800 33.82100 29.98400
C  48.93800 37.85800 29.18800
C  50.06300 36.00600 24.64700
C  47.00000 32.25500 25.39400
N  47.83200 35.58800 29.35800
C  47.00300 34.93700 30.28600
C  47.13600 35.60700 31.67000
C  47.51400 37.09700 31.19700
C  48.05000 36.91900 29.77800
C  46.44000 38.18700 31.37000
C  48.14400 34.99500 32.65300
C  47.68200 34.74100 34.08500
H  47.76200 35.85600 35.08200
N  49.32100 36.68900 26.91100
C  49.46400 37.69000 27.82400
C  50.35400 38.72100 27.18400
C  50.76200 38.16900 25.93400
C  50.00300 36.90500 25.77700
C  50.73300 40.06800 27.76400
C  51.76300 38.81500 24.83300
O  52.01400 38.16200 23.77500
C  52.36200 40.21400 25.00800
N  48.45900 34.26900 25.28800
C  49.37500 34.80400 24.48700
C  49.75400 33.84800 23.36700
C  48.72300 32.68000 23.54400
C  47.98400 33.08100 24.86600
C  49.78400 34.43800 21.87000
C  49.32400 31.29700 23.55000
C  48.71200 30.35700 22.55900
N  46.82700 33.42600 27.49700
C  46.48200 32.37200 26.66900
C  45.50600 31.41800 27.33100
C  45.43400 31.97800 28.61200
C  46.20300 33.15900 28.66700
C  44.80500 30.15800 26.81000
C  44.85000 31.78700 29.89600
O  44.22200 30.83500 30.32400
C  45.26000 32.98200 30.78500
C  45.74600 32.47900 32.07600
O  46.84200 31.96900 32.38500
O  44.71800 32.46500 32.95000
C  45.12000 32.14000 34.41400
H  49.10000 38.81700 29.68500
H  50.67600 36.28100 23.78600
H  46.71000 31.40300 24.77600
H  46.15000 35.55400 32.13100
H  48.35300 37.57200 31.70500
H  45.51900 37.74600 31.75300
H  46.29300 38.72900 30.43600
H  46.86600 38.80300 32.16200
H  48.86900 35.80300 32.75700
H  48.70500 34.15000 32.25400
H  48.19400 33.89000 34.53500
H  46.63500 34.49000 33.91600
H  51.73000 39.97100 28.19400
H  50.05800 40.22100 28.60700
H  50.65300 40.86900 27.03000
H  51.52100 40.90200 24.93200
H  53.08100 40.45800 24.22500
H  52.81500 40.41700 25.97800
H  50.80300 33.55500 23.39600
H  47.93800 32.75100 22.79100
H  49.59100 35.50100 22.01100
H  48.92600 34.18400 21.24800
H  50.72000 34.30800 21.32800
H  49.19100 30.99900 24.58900
H  50.39800 31.31800 23.36500
H  47.80900 29.81800 22.84300
H  49.36900 29.55100 22.23200
H  48.45200 30.91700 21.66100
H  45.14500 29.34500 27.45100
H  45.06500 29.80100 25.81300
H  43.72800 30.26400 26.93900
H  44.36800 33.56300 31.01900
H  46.11200 32.38400 34.79400
H  45.05200 31.06100 34.55200
H  44.50700 32.62600 35.17400

