158

Mg 50.04600 35.44700 26.78200
C  47.57800 34.11900 28.85400
C  49.90100 38.37700 28.64500
C  52.09400 36.84100 24.46000
C  49.82400 32.50600 24.73800
N  48.91100 36.12100 28.56700
C  48.00500 35.37100 29.29300
C  47.64000 35.99600 30.60500
C  48.04500 37.49200 30.29700
C  49.13200 37.32400 29.22800
C  46.86700 38.44000 29.92600
C  48.28900 35.40900 31.85100
C  47.55100 35.12400 33.10600
H  47.77300 36.07300 34.33000
N  50.85300 37.27100 26.61200
C  50.67400 38.33900 27.48200
C  51.37500 39.49500 26.94600
C  52.12700 39.07700 25.79600
C  51.68500 37.69300 25.54100
C  51.41400 40.87000 27.66300
C  53.10100 39.88500 24.92700
O  53.50500 39.43300 23.85900
C  53.61500 41.20700 25.42700
N  50.58100 34.82600 24.69000
C  51.67200 35.47800 24.09300
C  52.22200 34.70800 22.86000
C  51.57600 33.27500 23.02400
C  50.61300 33.53300 24.26500
C  52.02600 35.23300 21.50600
C  52.57700 32.10100 23.35100
C  53.43800 31.62400 22.23700
N  49.04700 33.59800 26.84700
C  49.00000 32.57200 25.90600
C  48.09500 31.57000 26.32800
C  47.44300 32.13700 27.46800
C  48.06100 33.37200 27.69200
C  47.91500 30.20000 25.69600
C  46.51600 31.89700 28.49700
O  45.72700 30.94200 28.77900
C  46.52200 33.12200 29.37900
C  46.76400 32.69600 30.79400
O  47.82900 32.36100 31.18400
O  45.58600 32.65000 31.55400
C  45.63200 31.72300 32.67800
H  49.82000 39.23700 29.31400
H  52.77400 37.23000 23.69900
H  49.95500 31.52900 24.26700
H  46.56700 35.91200 30.77700
H  48.61000 38.03000 31.05800
H  47.04500 38.85700 28.93500
H  46.79900 39.14700 30.75300
H  45.92900 37.88500 29.91100
H  48.98500 36.20400 32.11800
H  48.98100 34.62200 31.55000
H  47.79400 34.10000 33.38900
H  46.49000 35.08000 32.86000
H  51.27300 41.60600 26.87100
H  52.43500 41.13000 27.94200
H  50.74100 41.17600 28.46400
H  52.88400 42.00000 25.27100
H  54.54300 41.49100 24.93200
H  53.78800 41.12600 26.50100
H  53.29200 34.62900 23.05300
H  51.08000 32.89800 22.13000
H  52.98400 35.41800 21.02100
H  51.53800 36.20800 21.48700
H  51.40100 34.59400 20.88200
H  52.08900 31.19400 23.70900
H  53.12900 32.62400 24.13100
H  53.32600 30.54500 22.13000
H  54.49700 31.87600 22.29400
H  53.01000 32.06200 21.33500
H  48.23400 30.21500 24.65400
H  46.87600 29.90100 25.56300
H  48.35700 29.39900 26.28800
H  45.55500 33.62500 29.37200
H  44.99800 32.19800 33.42600
H  46.62800 31.51700 33.07000
H  45.12700 30.79500 32.41200
Mg -5.56500 26.06800 26.57800
C  -4.41600 27.66900 29.48300
C  -7.40900 24.09100 28.46300
C  -6.52500 24.51100 23.67700
C  -3.27600 27.87100 24.69200
N  -5.71000 25.89100 28.63900
C  -5.11700 26.58400 29.71400
C  -5.74700 26.25000 31.03200
C  -6.34100 24.81200 30.66800
C  -6.53300 24.89600 29.20800
C  -5.58600 23.55700 31.16000
C  -6.83200 27.20600 31.67500
C  -6.88500 27.27200 33.24500
H  -6.08300 26.20400 34.01900
N  -6.78800 24.51400 26.13600
C  -7.59100 23.91400 27.10000
C  -8.36000 22.86600 26.47700
C  -8.11200 22.91000 25.08500
C  -7.10600 24.00700 24.88000
C  -9.22200 21.94800 27.24600
C  -8.64900 21.97100 23.89200
O  -8.36900 22.15500 22.72000
C  -9.60200 20.85500 24.22100
N  -5.06900 26.28100 24.47000
C  -5.56300 25.47600 23.49000
C  -4.99600 25.77300 22.15200
C  -3.89800 26.81000 22.42200
C  -4.12000 27.04200 23.94300
C  -4.25800 24.52300 21.53200
C  -4.26800 28.08600 21.68000
C  -3.84500 28.25500 20.19900
N  -4.16900 27.52500 26.91400
C  -3.36200 28.18600 26.06600
C  -2.59000 29.16100 26.84100
C  -3.01900 29.00900 28.20600
C  -4.03200 28.02500 28.20300
C  -1.49400 29.97600 26.22400
C  -2.78400 29.56800 29.48100
O  -2.08400 30.46400 29.93300
C  -3.82300 28.77600 30.36400
C  -3.01400 28.30300 31.52800
O  -2.04300 27.56100 31.44000
O  -3.29900 29.04000 32.63600
C  -2.30200 28.83000 33.76600
H  -7.80600 23.39100 29.20000
H  -6.81000 23.98400 22.76400
H  -2.40700 28.29200 24.18200
H  -4.87900 26.18300 31.68800
H  -7.37300 24.76400 31.01500
H  -6.11300 23.13900 32.01800
H  -4.61400 23.89700 31.52000
H  -5.49300 22.87800 30.31300
H  -7.82900 27.07700 31.25500
H  -6.47100 28.17700 31.33500
H  -7.92100 27.37400 33.56800
H  -6.29200 28.17400 33.40100
H  -10.26700 21.92300 26.93700
H  -9.18900 22.25700 28.29100
H  -8.86400 20.92900 27.10700
H  -9.27300 20.23400 25.05400
H  -9.72900 20.20500 23.35500
H  -10.54400 21.15300 24.68100
H  -5.81700 26.16800 21.55400
H  -2.88400 26.44500 22.25800
H  -4.37500 23.64300 22.16500
H  -3.18500 24.55000 21.34500
H  -4.87100 24.32400 20.65300
H  -3.86300 28.91300 22.26400
H  -5.34000 28.26900 21.76300
H  -3.55300 27.29400 19.77500
H  -2.97800 28.91300 20.14300
H  -4.64700 28.81300 19.71600
H  -1.90100 30.66100 25.48000
H  -0.80500 29.31200 25.70300
H  -0.99000 30.56600 26.98900
H  -4.54200 29.50600 30.73700
H  -1.29400 28.97400 33.37600
H  -2.43600 27.86900 34.26300
H  -2.49300 29.58100 34.53200

