158

Mg 45.01800 4.10900 48.59500
C  43.11900 6.89100 48.01300
C  42.25700 2.11800 47.96500
C  47.06700 1.43000 48.09000
C  47.89000 6.16000 48.37300
N  42.99300 4.51900 47.91200
C  42.36200 5.71700 47.74300
C  40.92800 5.56900 47.29400
C  40.62300 4.04600 47.66800
C  42.07600 3.50900 47.90400
C  39.56400 3.85900 48.88600
C  40.72900 5.95100 45.76300
C  39.53000 6.94700 45.43000
H  38.85800 6.71700 44.23700
N  44.68700 2.04800 48.37300
C  43.44600 1.44000 48.11800
C  43.68500 0.03200 47.95900
C  45.12600 -0.24600 47.99600
C  45.65900 1.12600 48.04100
C  42.58500 -0.91600 47.61800
C  45.80900 -1.58400 47.75800
O  45.05300 -2.55600 47.62000
C  47.33500 -1.81000 47.85100
N  47.19200 3.85900 48.44000
C  47.75500 2.60800 48.28600
C  49.27900 2.68100 48.13500
C  49.58200 4.20600 48.18400
C  48.14400 4.82100 48.33000
C  50.11100 1.98300 49.22500
C  50.32800 4.79300 46.99600
C  51.45000 4.03100 46.22400
N  45.43500 6.10400 48.40000
C  46.64200 6.78400 48.40100
C  46.36200 8.21700 48.35000
C  44.95000 8.27000 48.33900
C  44.50100 6.99200 48.31500
C  47.27700 9.42900 48.34100
C  43.81300 9.23000 48.22800
O  43.84700 10.46900 48.12400
C  42.54700 8.35800 47.94700
C  41.53700 8.63900 49.06700
O  41.32400 7.98200 50.09200
O  40.78600 9.71300 48.62500
C  39.45100 9.88400 49.23500
H  41.34700 1.51600 47.91400
H  47.77900 0.69300 47.71100
H  48.75600 6.81300 48.49900
H  40.39700 6.25100 47.95900
H  40.28300 3.45300 46.81900
H  39.19700 4.80100 49.29400
H  40.15900 3.28400 49.59500
H  38.72100 3.20800 48.65600
H  40.66500 5.12200 45.05900
H  41.53300 6.63400 45.48800
H  39.92200 7.95900 45.53200
H  38.75300 6.77500 46.17500
H  42.74000 -1.14800 46.56400
H  41.55100 -0.60700 47.76700
H  42.61900 -1.77400 48.28900
H  47.68400 -1.67000 46.82800
H  47.56100 -2.85900 48.04400
H  47.79100 -1.12700 48.56800
H  49.49800 2.15000 47.20900
H  50.06500 4.54800 49.09900
H  50.59400 1.06400 48.89200
H  49.43300 1.60900 49.99300
H  50.90200 2.59900 49.65300
H  50.65000 5.77800 47.33500
H  49.55900 4.97300 46.24400
H  51.69300 3.07800 46.69300
H  52.33800 4.66300 46.26600
H  51.11500 3.93200 45.19200
H  46.70200 10.19900 48.85600
H  47.39100 9.54700 47.26300
H  48.25200 9.36900 48.82300
H  42.14700 8.72500 47.00100
H  38.68000 9.58100 48.52600
H  39.14800 10.90100 49.48200
H  39.36400 9.37600 50.19500
Mg 47.21500 45.34300 42.83300
C  43.87400 44.12100 42.55100
C  48.38400 42.20500 42.38200
C  50.42800 46.61200 42.77400
C  45.98600 48.47300 43.07300
N  46.19600 43.41100 42.31600
C  44.85100 43.10400 42.28900
C  44.58900 41.69900 42.02600
C  46.01700 41.05500 42.21500
C  46.96700 42.29600 42.32700
C  46.12100 40.20300 43.49400
C  43.91200 41.47400 40.61800
C  44.10700 42.46800 39.42400
H  43.99400 41.80100 37.96800
N  49.23100 44.47600 42.63600
C  49.43800 43.12700 42.52500
C  50.91300 42.90600 42.49300
C  51.56100 44.17700 42.56400
C  50.41800 45.17100 42.62600
C  51.56200 41.49300 42.48400
C  53.09200 44.47000 42.71000
O  53.92600 43.57000 42.67900
C  53.58600 45.84900 42.91400
N  48.17800 47.32200 42.61300
C  49.46800 47.56300 42.90700
C  49.69800 49.08300 43.04700
C  48.21100 49.58200 43.44100
C  47.40600 48.39600 42.95400
C  50.74300 49.43800 44.20000
C  47.95800 50.90000 42.64000
C  48.03200 52.16100 43.47700
N  45.35500 46.15700 42.63600
C  45.05400 47.47900 42.88200
C  43.64400 47.65200 43.01000
C  43.14600 46.33800 42.91700
C  44.20800 45.45000 42.69700
C  42.97000 48.87000 43.24600
C  41.94300 45.50400 42.95800
O  40.80200 45.69400 43.23900
C  42.38800 44.00500 42.63100
C  41.97400 43.11400 43.83300
O  42.32200 43.30600 44.99300
O  41.05600 42.16300 43.38300
C  40.70100 41.23000 44.48500
H  48.66900 41.15100 42.34500
H  51.39900 47.08700 42.92900
H  45.62800 49.39900 43.52800
H  43.84000 41.40700 42.76200
H  46.38600 40.58900 41.30100
H  45.79900 39.21300 43.17200
H  45.49000 40.43400 44.35300
H  47.12700 40.22300 43.91100
H  42.84200 41.29100 40.70800
H  44.28300 40.54000 40.19500
H  45.10200 42.86200 39.63000
H  43.44300 43.33200 39.43500
H  52.23800 41.37100 41.63700
H  50.79100 40.72900 42.39400
H  52.11200 41.35500 43.41500
H  53.20000 46.60900 42.23400
H  54.63100 45.82900 42.60500
H  53.47300 46.09000 43.97100
H  50.09900 49.53100 42.13800
H  48.10300 49.76900 44.50900
H  51.26000 48.59400 44.65700
H  50.34500 50.03100 45.02300
H  51.56800 49.96400 43.72000
H  46.91800 50.87900 42.31400
H  48.68200 51.10100 41.85000
H  47.21000 52.83200 43.22700
H  48.86900 52.78100 43.15900
H  48.02800 51.98800 44.55400
H  42.53800 48.82700 44.24600
H  42.21600 48.86900 42.45800
H  43.64600 49.71200 43.09500
H  42.01000 43.67100 41.66500
H  41.50300 40.49200 44.50600
H  39.74500 40.79000 44.20000
H  40.66100 41.65700 45.48700

