158

Mg 8.83100 3.23900 27.44600
C  10.13900 1.79300 30.34500
C  6.61900 5.00400 29.46000
C  7.28200 4.48700 24.71600
C  10.54300 0.83100 25.52200
N  8.38600 3.25400 29.64200
C  9.19500 2.77400 30.62800
C  8.81800 3.25400 32.03800
C  7.72500 4.31200 31.67600
C  7.57000 4.21100 30.11000
C  6.39600 3.96600 32.32800
C  10.01800 3.84300 32.82200
C  9.59900 4.61200 34.01300
H  10.05400 4.15300 35.37200
N  7.23000 4.58400 27.20700
C  6.40000 5.19000 28.10900
C  5.51700 6.09800 27.49900
C  5.83300 6.06800 26.10000
C  6.86900 5.01300 25.97900
C  4.55700 7.03000 28.24300
C  5.27800 6.90300 24.97700
O  5.40100 6.71200 23.77300
C  4.52200 8.14300 25.30600
N  8.97700 2.72800 25.34000
C  8.26300 3.42800 24.41000
C  8.74000 2.95700 23.00000
C  9.72900 1.79000 23.29900
C  9.75900 1.80600 24.79600
C  7.53400 2.63000 22.04900
C  11.04300 1.76400 22.51600
C  11.15800 0.65700 21.39900
N  10.19200 1.62400 27.77200
C  10.76300 0.75100 26.91800
C  11.46400 -0.27600 27.63200
C  11.22700 0.11700 28.94600
C  10.50600 1.27800 29.01900
C  12.16400 -1.44300 27.18300
C  11.54100 -0.23100 30.35500
O  12.09000 -1.23800 30.73900
C  10.97100 0.94900 31.26000
C  10.10700 0.26300 32.27400
O  9.11000 -0.45100 32.04800
O  10.58000 0.40000 33.55300
C  9.75900 -0.07500 34.72100
H  6.04300 5.72800 30.03900
H  6.89100 4.98400 23.82600
H  11.17300 0.13500 24.96500
H  8.37900 2.47900 32.66700
H  8.02300 5.33600 31.90400
H  5.95700 3.01200 32.03500
H  5.63800 4.64600 31.93900
H  6.50600 3.99600 33.41200
H  10.63500 4.37400 32.09600
H  10.60400 3.03700 33.26300
H  8.51000 4.59600 33.97200
H  9.84500 5.67000 33.92100
H  3.60100 7.08900 27.72300
H  5.04800 7.97900 28.46000
H  4.20400 6.60000 29.18000
H  3.46500 7.93200 25.47000
H  4.74400 8.85200 24.50800
H  4.92000 8.55100 26.23500
H  9.20100 3.85000 22.57900
H  9.27400 0.81400 23.12700
H  6.63300 2.83000 22.62800
H  7.64200 1.59700 21.71700
H  7.47500 3.32900 21.21600
H  11.86900 1.67500 23.22100
H  11.23300 2.74000 22.07000
H  10.78700 0.94500 20.41600
H  10.61400 -0.26300 21.61300
H  12.22400 0.46900 21.26400
H  12.80500 -1.10400 26.36900
H  11.56500 -2.31700 26.92900
H  12.84500 -1.69000 27.99700
H  11.74700 1.58700 31.68200
H  10.46600 -0.05200 35.55000
H  9.61500 -1.14700 34.58900
H  8.79200 0.41800 34.81900
Mg 48.44300 34.98700 26.23300
C  46.76700 33.48700 28.82900
C  48.76600 37.92000 28.02400
C  49.84400 36.48500 23.59900
C  47.69600 32.13200 24.33100
N  47.89000 35.62600 28.14400
C  47.34900 34.82700 29.12400
C  47.24100 35.51600 30.47900
C  47.55100 36.96900 30.06400
C  48.12100 36.85300 28.63300
C  46.31200 37.96500 30.00800
C  48.25000 34.95100 31.54800
C  47.96800 35.20500 33.06500
H  47.25900 36.49600 33.40600
N  49.42900 36.85800 25.95100
C  49.38900 37.92100 26.80300
C  50.26400 38.98700 26.25800
C  50.56200 38.66500 24.97500
C  49.94400 37.25600 24.76700
C  50.62700 40.10800 27.12300
C  51.19900 39.54900 23.89400
O  51.41900 39.10200 22.76300
C  51.54500 40.99100 24.20700
N  48.61800 34.46900 24.24000
C  49.35900 35.24700 23.33300
C  49.54900 34.46500 22.04700
C  49.06900 33.05700 22.37200
C  48.41900 33.19100 23.75100
C  48.68100 35.07600 20.93500
C  50.22600 31.94900 22.21200
C  50.29600 31.09000 21.03000
N  47.30400 33.21600 26.41400
C  47.15200 32.09000 25.62600
C  46.28800 31.16200 26.33100
C  46.14500 31.64800 27.55800
C  46.77200 32.91400 27.60000
C  45.83000 29.82700 25.80100
C  45.50800 31.40300 28.84400
O  44.79800 30.47600 29.23300
C  45.68500 32.71000 29.65700
C  45.92100 32.34900 31.04100
O  46.85200 31.67400 31.43000
O  44.81500 32.73700 31.79000
C  44.73400 32.56500 33.22900
H  48.65200 38.90100 28.48900
H  50.43800 36.91300 22.78900
H  47.63500 31.32400 23.59900
H  46.29500 35.58200 31.01700
H  48.32600 37.38500 30.70800
H  45.43500 37.69900 30.59900
H  45.88300 38.22300 29.04000
H  46.81800 38.85500 30.38100
H  49.27000 35.23600 31.29000
H  48.14900 33.88300 31.35600
H  48.88100 35.13200 33.65500
H  47.35200 34.41200 33.48800
H  50.03200 40.98900 26.88300
H  51.69700 40.29600 27.03500
H  50.38100 40.02900 28.18100
H  50.79800 41.43900 24.86200
H  51.76400 41.63200 23.35300
H  52.36700 40.91900 24.91900
H  50.56800 34.49600 21.66000
H  48.20600 32.80900 21.75400
H  47.91600 35.80100 21.21400
H  48.25000 34.25200 20.36600
H  49.40300 35.53500 20.26000
H  50.15700 31.23800 23.03500
H  51.20100 32.40700 22.38100
H  49.62200 31.36600 20.21900
H  50.00700 30.11300 21.41500
H  51.30100 30.86400 20.67200
H  44.93400 30.12200 25.25600
H  45.59800 29.06600 26.54600
H  46.52100 29.48400 25.03100
H  44.76800 33.30000 29.63500
H  43.71900 32.95000 33.32800
H  45.53600 33.02200 33.80800
H  44.78700 31.51100 33.50400

