158

Mg 1.70100 8.91600 27.38900
C  2.30000 11.01200 30.00100
C  1.64800 6.36100 29.51300
C  1.21100 6.95600 24.61200
C  1.85500 11.70000 25.16000
N  2.11000 8.74900 29.48900
C  2.01900 9.73300 30.39300
C  1.91000 9.27000 31.82000
C  2.18900 7.71900 31.68700
C  1.94300 7.56200 30.13800
C  3.61600 7.19100 32.02800
C  0.56100 9.67200 32.47000
C  0.64800 9.64000 34.00700
H  1.94100 9.02900 34.75700
N  1.49100 6.94200 27.11800
C  1.45000 5.98700 28.14400
C  1.18600 4.71100 27.62500
C  1.08000 4.84000 26.16700
C  1.25300 6.35300 25.93700
C  1.28600 3.45200 28.54800
C  0.89600 3.74500 25.12100
O  0.76000 4.05200 23.90900
C  1.03300 2.35900 25.44000
N  1.61300 9.27200 25.29700
C  1.47200 8.27800 24.35400
C  1.81600 8.78100 22.95800
C  1.46900 10.31800 23.16700
C  1.73400 10.43700 24.64700
C  3.31600 8.59000 22.46800
C  0.05600 10.69200 22.89500
C  -0.29100 11.58300 21.67800
N  2.21500 10.92400 27.45400
C  2.21100 11.99600 26.54700
C  2.52400 13.20400 27.10700
C  2.58800 12.90800 28.49900
C  2.36900 11.48900 28.69500
C  2.71500 14.66200 26.43600
C  2.81500 13.48900 29.81900
O  3.09200 14.60400 30.22300
C  2.50400 12.27900 30.89700
C  3.61700 12.19500 31.91900
O  4.62600 11.56700 31.80200
O  3.23000 12.84800 33.06200
C  3.99500 12.78000 34.28400
H  1.55500 5.49400 30.17100
H  1.11500 6.22200 23.80900
H  1.83900 12.52200 24.44200
H  2.71500 9.74500 32.38000
H  1.39800 7.04200 32.01000
H  4.05600 7.77100 32.84000
H  4.32500 7.19700 31.20100
H  3.62300 6.14100 32.32100
H  -0.19600 9.00200 32.06300
H  0.43000 10.71600 32.18600
H  -0.26100 9.31400 34.51200
H  0.77100 10.71700 34.12700
H  0.86500 2.56700 28.07100
H  0.74700 3.60500 29.48300
H  2.34200 3.38600 28.80800
H  1.81700 2.18800 26.17600
H  1.23300 1.77500 24.54100
H  0.06900 2.10500 25.88000
H  1.11200 8.25500 22.31200
H  2.16200 10.88000 22.54100
H  3.68100 7.79900 23.12200
H  3.83000 9.53100 22.66600
H  3.30600 8.14100 21.47500
H  -0.30900 11.31900 23.70900
H  -0.57000 9.80300 22.81800
H  0.59600 11.59100 21.04500
H  -0.55800 12.56300 22.07300
H  -1.13700 11.16900 21.12900
H  3.77600 14.90600 26.48500
H  2.22500 15.48500 26.95600
H  2.46900 14.68800 25.37400
H  1.59800 12.64600 31.38000
H  3.33400 12.53500 35.11500
H  4.59100 13.67400 34.46900
H  4.67400 11.93100 34.20300
Mg 26.49000 50.04300 26.93000
C  24.44900 51.49100 29.46300
C  28.46200 48.82300 29.39700
C  28.74200 49.24300 24.54900
C  24.59700 51.84600 24.58600
N  26.41700 50.14600 29.21200
C  25.47100 50.75000 30.01500
C  25.64100 50.30400 31.55500
C  27.07000 49.56700 31.40900
C  27.35600 49.49900 29.94300
C  28.18300 50.17700 32.27000
C  24.43200 49.48700 32.15500
C  24.00600 49.93200 33.62900
H  25.04300 50.55700 34.52200
N  28.27600 49.09000 26.97500
C  28.93200 48.65900 28.09300
C  30.06400 47.93300 27.66300
C  30.15600 47.95000 26.25500
C  29.07200 48.78700 25.78800
C  31.05500 47.33000 28.59100
C  31.14300 47.28700 25.31300
O  31.02300 47.31900 24.13100
C  32.30600 46.54200 25.81800
N  26.60300 50.47500 24.86100
C  27.67000 49.99600 24.09500
C  27.47800 50.23000 22.58100
C  26.14300 51.15100 22.61600
C  25.72300 51.12900 24.09700
C  28.62700 50.92400 21.93600
C  25.02800 50.43500 21.74100
C  23.96400 49.52400 22.38700
N  24.84100 51.30900 26.93800
C  24.09100 51.88800 25.88400
C  22.88000 52.54300 26.41500
C  23.02500 52.40200 27.75200
C  24.23400 51.74600 28.06600
C  21.74100 53.25400 25.71300
C  22.38800 52.75400 29.00500
O  21.31500 53.33100 29.23700
C  23.29600 52.15300 30.16700
C  23.55900 53.26900 31.09900
O  24.23600 54.25100 30.81300
O  22.84700 53.08200 32.20800
C  22.78700 54.05900 33.24800
H  29.11500 48.33900 30.12600
H  29.37000 49.01900 23.68400
H  23.92800 52.37200 23.90100
H  25.79900 51.22700 32.11200
H  27.03400 48.54100 31.77500
H  28.88300 50.80400 31.71800
H  28.81800 49.34900 32.58400
H  27.66800 50.75400 33.03900
H  24.64900 48.42200 32.23000
H  23.57300 49.60300 31.49500
H  23.44300 49.15300 34.14200
H  23.29500 50.73900 33.45200
H  31.32900 46.30300 28.34800
H  30.77300 47.41400 29.64000
H  31.92000 47.97700 28.44300
H  33.05300 46.39400 25.03800
H  31.89800 45.59500 26.17300
H  32.70100 47.21000 26.58300
H  27.37400 49.26500 22.08500
H  26.28900 52.15800 22.22700
H  29.35100 50.23200 21.50700
H  29.14200 51.60800 22.61100
H  28.20000 51.50000 21.11500
H  25.49400 49.84700 20.95000
H  24.50200 51.20900 21.18300
H  24.28900 49.02600 23.30100
H  23.71700 48.76700 21.64300
H  23.03900 50.02600 22.67100
H  20.82000 53.11500 26.27900
H  21.51100 53.03900 24.67000
H  21.94700 54.31700 25.58100
H  22.64200 51.46100 30.69800
H  23.54500 53.66200 33.92300
H  21.80900 54.11200 33.72500
H  23.20500 55.04200 33.03100

