158

Mg 47.93900 16.89700 28.56000
C  45.70600 16.59200 31.36800
C  50.18400 18.16800 30.63700
C  49.53600 17.48800 25.86900
C  45.16500 15.67900 26.55600
N  47.88400 17.43200 30.69900
C  46.95600 17.17600 31.71700
C  47.42300 17.50100 33.13800
C  48.72800 18.25500 32.77300
C  48.97200 17.92500 31.26000
C  48.83400 19.77100 33.10300
C  47.67400 16.18700 33.87500
C  47.44800 16.15700 35.33300
H  47.41900 17.38200 36.25600
N  49.68900 17.63800 28.29800
C  50.50300 18.07200 29.25600
C  51.78200 18.35900 28.68100
C  51.62500 18.10700 27.24600
C  50.27800 17.67100 27.10300
C  53.00700 18.91100 29.49600
C  52.60100 18.10900 26.07000
O  52.26900 17.93000 24.89200
C  54.10000 18.34300 26.26600
N  47.28500 16.90700 26.39700
C  48.25900 17.14900 25.52200
C  47.83900 16.79500 24.06200
C  46.49800 16.04000 24.35200
C  46.23300 16.25800 25.91300
C  47.71700 17.94000 23.09400
C  46.49800 14.53900 24.01800
C  45.25100 14.00400 23.25000
N  45.86800 16.18900 28.85200
C  44.89700 15.72700 27.97600
C  43.71900 15.44200 28.72700
C  43.97800 15.72600 30.09700
C  45.27900 16.24400 30.05800
C  42.56000 14.70200 28.16100
C  43.44800 15.62100 31.41500
O  42.47100 15.14400 31.87300
C  44.59400 16.12900 32.38000
C  43.95400 17.18000 33.21800
O  43.42100 18.18800 32.80100
O  43.89400 16.70100 34.51300
C  43.19100 17.53700 35.43900
H  51.01500 18.38600 31.31000
H  50.06900 17.61400 24.92500
H  44.37500 15.27100 25.92200
H  46.70800 18.16900 33.61900
H  49.53300 17.83900 33.37800
H  47.87200 20.11500 33.48400
H  48.96900 20.34800 32.18800
H  49.65400 20.06200 33.76000
H  48.69000 15.84100 33.68800
H  47.06500 15.42200 33.39400
H  48.22000 15.57300 35.83300
H  46.52300 15.62000 35.54700
H  53.59700 19.60600 28.89900
H  53.40000 17.89600 29.56500
H  52.52200 19.45700 30.30500
H  54.65300 17.60700 25.68300
H  54.31500 18.09300 27.30500
H  54.36100 19.37600 26.03800
H  48.49300 16.00300 23.69800
H  45.56500 16.47700 23.99800
H  46.91000 17.77000 22.38100
H  48.69100 17.95700 22.60500
H  47.56400 18.86200 23.65400
H  46.71500 14.04600 24.96600
H  47.37800 14.30400 23.41800
H  45.70000 13.48400 22.40400
H  44.54600 14.80800 23.03800
H  44.82700 13.23800 23.89900
H  42.13400 15.13100 27.25400
H  41.78000 14.43300 28.87300
H  43.01900 13.75300 27.88600
H  44.86700 15.27900 33.00600
H  42.31200 18.14700 35.22900
H  43.83800 18.14200 36.07400
H  42.70900 16.74200 36.00800
Mg -1.45600 33.85000 26.32600
C  -3.46700 32.21100 28.70300
C  -0.27900 35.77800 28.74500
C  0.21000 35.62800 23.93700
C  -2.87600 31.70800 23.86000
N  -1.88700 33.97400 28.45000
C  -2.73400 33.25500 29.29900
C  -2.52700 33.66100 30.76200
C  -1.63500 34.87000 30.66600
C  -1.25400 34.90600 29.20000
C  -2.27100 36.19600 31.08800
C  -1.92900 32.58500 31.64000
C  -2.80200 32.15700 32.83800
H  -2.28700 32.09900 34.24100
N  -0.20900 35.55100 26.32900
C  0.25300 36.07900 27.45100
C  1.19400 37.22300 27.11600
C  1.22200 37.23900 25.66500
C  0.31900 36.10700 25.20800
C  1.79400 38.08200 28.14100
C  2.03300 38.08400 24.80800
O  1.96900 38.13000 23.57300
C  3.16200 38.94600 25.37800
N  -1.41500 33.77600 24.16700
C  -0.48300 34.48300 23.53700
C  -0.56900 34.13400 22.07600
C  -1.54000 32.92500 22.00700
C  -2.02100 32.78800 23.39900
C  -1.05000 35.33100 21.20500
C  -0.96200 31.67600 21.35100
C  0.03000 30.90900 22.15500
N  -2.72100 32.25700 26.29500
C  -3.24100 31.46900 25.21700
C  -4.24900 30.55100 25.70500
C  -4.27900 30.81200 27.06900
C  -3.37500 31.81900 27.38200
C  -5.04500 29.62900 24.89400
C  -5.05200 30.39000 28.26200
O  -5.94600 29.58400 28.38400
C  -4.43000 31.34600 29.39900
C  -5.50600 32.01300 30.13200
O  -5.87500 33.21100 29.86200
O  -5.74900 31.32400 31.27300
C  -6.63500 31.88400 32.39400
H  0.21000 36.38100 29.51300
H  0.82500 36.11000 23.17400
H  -3.35700 31.10600 23.08700
H  -3.51400 33.92500 31.14200
H  -0.70900 34.85900 31.24000
H  -1.69900 36.73900 31.84000
H  -3.34300 36.18700 31.28700
H  -2.28400 36.85600 30.22100
H  -0.92600 32.78700 32.01500
H  -1.86200 31.72400 30.97500
H  -3.08000 31.11000 32.72200
H  -3.71200 32.75700 32.83800
H  2.79100 37.75100 28.43200
H  1.14600 38.13100 29.01600
H  1.85500 39.11800 27.80500
H  3.80800 38.37500 26.04400
H  2.68800 39.77300 25.90800
H  3.73800 39.32800 24.53500
H  0.43000 33.84800 21.74900
H  -2.44700 33.09900 21.42800
H  -0.30400 36.10100 21.00700
H  -1.72400 35.77700 21.93700
H  -1.61000 34.99900 20.33200
H  -0.32700 31.99300 20.52300
H  -1.83200 31.14500 20.96300
H  -0.62400 30.15400 22.59200
H  0.40700 31.42200 23.03900
H  0.86900 30.52700 21.57300
H  -4.35300 29.20100 24.16900
H  -5.66800 30.23100 24.23200
H  -5.61100 28.97800 25.56000
H  -3.97900 30.62700 30.08200
H  -7.61400 32.21600 32.04700
H  -6.16900 32.82700 32.68100
H  -6.72700 31.23500 33.26500

