158

Mg 43.83800 4.12200 46.71500
C  42.04700 7.07300 46.94800
C  40.82000 2.41500 46.67400
C  45.52900 1.42100 45.75300
C  46.80800 6.00000 46.34400
N  41.65800 4.75800 46.69800
C  41.21400 5.97500 47.00300
C  39.69500 5.89700 47.37100
C  39.38500 4.42600 47.33900
C  40.71700 3.79200 46.86800
C  38.91400 3.87700 48.75800
C  38.87100 6.81300 46.38300
C  39.43000 7.09800 44.96000
H  38.41300 7.10600 43.75500
N  43.27700 2.08300 46.26700
C  41.99800 1.61100 46.26100
C  41.98000 0.25600 45.90600
C  43.33300 -0.12100 45.56200
C  44.13400 1.15100 45.80000
C  40.88300 -0.73700 46.16000
C  43.87500 -1.37900 45.06400
O  43.08000 -2.32400 44.74500
C  45.35000 -1.56300 44.73600
N  45.89200 3.80900 45.88700
C  46.38600 2.57300 45.85800
C  47.91500 2.44400 45.50800
C  48.33200 3.95100 45.84300
C  46.96700 4.67500 46.07400
C  48.60700 1.35600 46.41700
C  49.24400 4.60900 44.79500
C  50.43800 5.42100 45.35100
N  44.35400 6.10400 46.67000
C  45.61100 6.72900 46.49300
C  45.46900 8.18400 46.70800
C  44.05500 8.34000 46.83700
C  43.43300 7.05800 46.80000
C  46.61300 9.15200 46.63300
C  42.99300 9.33100 47.13400
O  43.05000 10.56400 47.22800
C  41.66800 8.50800 47.12200
C  40.99300 8.80100 48.40100
O  41.33000 8.29400 49.44800
O  39.93200 9.70200 48.28600
C  39.14100 10.17700 49.42000
H  39.87400 1.87200 46.62400
H  46.05300 0.46600 45.68300
H  47.75500 6.54400 46.37000
H  39.66100 6.25800 48.39900
H  38.77100 4.19900 46.46800
H  39.73300 3.35900 49.25800
H  38.24600 3.02500 48.63400
H  38.34200 4.55900 49.38700
H  38.56000 7.68300 46.96200
H  37.90000 6.34600 46.22000
H  40.21100 6.37000 44.73800
H  39.70800 8.15000 44.89900
H  40.15300 -0.70600 45.35200
H  40.24100 -0.32400 46.93900
H  41.09100 -1.76700 46.45100
H  45.99700 -1.49300 45.61000
H  45.67400 -0.80200 44.02600
H  45.51400 -2.53900 44.28000
H  48.11700 2.20500 44.46400
H  48.84100 4.13800 46.78800
H  48.76700 0.34500 46.04000
H  47.98900 1.27300 47.31100
H  49.64400 1.61000 46.63500
H  48.58000 5.19600 44.16000
H  49.65400 3.88800 44.08700
H  51.36700 5.07500 44.89700
H  50.51700 5.41000 46.43800
H  50.34800 6.48400 45.12700
H  47.46700 8.53900 46.91900
H  46.39100 9.94800 47.34400
H  46.79300 9.59200 45.65200
H  41.02400 8.74300 46.27500
H  39.10900 11.24300 49.64300
H  39.36300 9.63900 50.34200
H  38.10700 9.89000 49.23100
Mg 47.48000 25.29900 29.16000
C  48.09200 27.55600 31.60500
C  46.20900 23.12400 31.52000
C  46.99800 22.91700 26.68300
C  49.12600 27.31600 26.87700
N  47.23200 25.35400 31.30900
C  47.51300 26.43900 32.16000
C  47.24600 26.17200 33.67300
C  46.79800 24.66500 33.54600
C  46.73000 24.34100 32.02500
C  47.73000 23.66000 34.27600
C  46.10400 27.10400 34.25700
C  46.53000 27.91600 35.45400
H  47.01100 27.00600 36.66700
N  46.64900 23.26600 29.03700
C  46.15000 22.64000 30.13400
C  45.62100 21.36600 29.73100
C  45.75800 21.27900 28.30600
C  46.44600 22.47600 27.91300
C  44.94800 20.47000 30.66200
C  45.26900 20.20300 27.32300
O  45.58600 20.19300 26.14800
C  44.27300 19.20600 27.78400
N  47.81600 25.24600 27.00800
C  47.74500 24.05000 26.33100
C  48.36300 24.18000 24.88800
C  49.01000 25.62000 24.94800
C  48.60700 26.13900 26.37600
C  49.30300 23.00200 24.41800
C  48.59100 26.46100 23.76600
C  49.71400 27.11700 23.00600
N  48.39700 27.13200 29.18600
C  49.02100 27.79200 28.15700
C  49.36500 29.11100 28.58000
C  49.09200 29.10500 29.98600
C  48.49900 27.81600 30.31700
C  50.04800 30.16100 27.73100
C  49.13600 29.84400 31.19700
O  49.51800 30.98200 31.43500
C  48.54900 28.82100 32.33200
C  49.72900 28.47700 33.20600
O  50.52100 27.57100 33.04100
O  49.77500 29.46300 34.16600
C  50.70300 29.13500 35.28200
H  45.82400 22.43900 32.27800
H  46.89100 22.11300 25.95200
H  49.64400 27.95400 26.15700
H  48.19800 26.34300 34.17600
H  45.75200 24.63100 33.85100
H  47.18600 23.17500 35.08700
H  48.65500 24.12000 34.62300
H  48.10400 22.88900 33.60200
H  45.20100 26.51100 34.39800
H  45.93500 27.92800 33.56300
H  45.69100 28.54400 35.75400
H  47.33300 28.60000 35.17700
H  44.88300 20.72200 31.72100
H  45.42800 19.49900 30.54400
H  43.92500 20.46900 30.28800
H  43.41600 19.69100 28.25100
H  44.85100 18.70600 28.56000
H  43.88000 18.49100 27.06000
H  47.55500 24.13300 24.15900
H  50.08400 25.44400 25.00200
H  50.33300 23.35600 24.36500
H  49.03800 22.62200 23.43100
H  49.31700 22.08600 25.00900
H  47.98400 27.33500 24.00400
H  48.01600 25.90800 23.02300
H  50.66500 26.96100 23.51600
H  49.54100 28.15600 22.72500
H  49.89500 26.66600 22.03100
H  49.49600 30.20600 26.79200
H  51.06300 29.88700 27.44400
H  50.05600 31.06100 28.34600
H  47.82400 29.36700 32.93600
H  50.69300 28.04500 35.25800
H  50.26900 29.50700 36.21000
H  51.73100 29.36600 35.00100

