158

Mg 24.00900 -5.60100 45.32800
C  26.42600 -3.40300 43.83400
C  21.69700 -4.40300 43.09200
C  22.09900 -8.13000 46.27500
C  26.61200 -6.70800 47.40200
N  24.12000 -4.14200 43.58100
C  25.20600 -3.36000 43.17700
C  24.78100 -2.36500 42.14400
C  23.18300 -2.53700 42.06600
C  22.92400 -3.77500 42.95600
C  22.41100 -1.29800 42.55200
C  25.52500 -2.68500 40.78800
C  25.99000 -1.46900 39.90000
H  25.54000 -1.55800 38.43500
N  22.15900 -6.14800 44.82900
C  21.39800 -5.55800 43.86300
C  20.14300 -6.18300 43.79800
C  20.06800 -7.17000 44.87400
C  21.45200 -7.17000 45.42500
C  19.01900 -5.76700 42.89100
C  18.92900 -7.95800 45.36500
O  17.79900 -7.69000 44.82400
C  19.03400 -8.95600 46.46600
N  24.28700 -7.22100 46.54400
C  23.34600 -8.11500 46.81600
C  23.85000 -9.26100 47.71100
C  25.24800 -8.64900 48.26300
C  25.45000 -7.49300 47.34400
C  22.88500 -9.83000 48.81800
C  26.45100 -9.63500 48.37600
C  27.34700 -9.60400 49.64800
N  26.08700 -5.08500 45.64700
C  26.93500 -5.62200 46.55100
C  28.23800 -4.92500 46.42100
C  28.07500 -3.97700 45.39700
C  26.77500 -4.15300 44.95700
C  29.47900 -5.09200 47.21700
C  28.71100 -2.85400 44.70000
O  29.79600 -2.31500 44.89400
C  27.74200 -2.52400 43.54600
C  27.58400 -1.08200 43.52400
O  27.20800 -0.40000 44.41500
O  28.05400 -0.62000 42.28100
C  28.06000 0.81200 42.17200
H  20.96600 -4.02300 42.37500
H  21.56300 -9.04000 46.55100
H  27.35300 -7.01000 48.14500
H  24.99400 -1.33300 42.42200
H  22.78000 -2.90600 41.12300
H  22.90900 -0.42700 42.97900
H  21.76200 -1.53500 43.39500
H  21.97600 -1.00700 41.59600
H  24.87500 -3.30900 40.17500
H  26.43900 -3.24500 40.98300
H  27.07600 -1.50900 39.81500
H  25.63100 -0.52400 40.31000
H  18.29300 -6.52700 42.60300
H  19.47900 -5.30200 42.01900
H  18.40300 -5.01000 43.37600
H  19.39700 -8.57100 47.41900
H  19.61400 -9.81400 46.12700
H  18.01100 -9.27500 46.66600
H  24.18800 -10.05400 47.04400
H  25.03100 -8.15100 49.20700
H  21.92400 -9.31600 48.79200
H  23.16300 -9.84400 49.87200
H  22.85500 -10.88300 48.54000
H  27.00900 -9.54100 47.44500
H  26.00000 -10.62700 48.36100
H  28.38200 -9.85600 49.41500
H  27.04400 -10.44300 50.27400
H  27.21800 -8.68400 50.22000
H  29.26200 -5.21400 48.27800
H  30.12300 -4.21300 47.18900
H  29.98400 -5.97800 46.83400
H  28.13600 -2.75000 42.55400
H  28.36300 1.21400 41.20500
H  28.82400 1.27900 42.79300
H  27.11600 1.32400 42.36000
Mg 16.41700 51.97800 26.14800
C  18.36000 51.06600 28.99000
C  13.90200 52.74000 28.34600
C  14.67700 52.90000 23.52600
C  19.01800 50.79700 24.15700
N  16.18300 51.75200 28.44500
C  17.14800 51.65400 29.37800
C  16.76100 51.99200 30.76100
C  15.22300 52.26600 30.47600
C  15.07500 52.28300 28.99400
C  14.28400 51.32200 31.23400
C  17.57700 53.10900 31.41800
C  18.14500 52.84400 32.83600
H  17.39500 52.09900 33.81900
N  14.61300 52.66900 25.94900
C  13.71700 52.98500 26.96800
C  12.52000 53.63200 26.37100
C  12.77400 53.81800 25.01800
C  14.06800 53.05700 24.76600
C  11.36100 54.15600 27.20900
C  11.99500 54.53300 23.95700
O  12.37100 54.61200 22.80400
C  10.72900 55.19000 24.31700
N  16.75900 51.91500 24.08600
C  15.90000 52.34200 23.18500
C  16.40900 52.20500 21.73800
C  17.89500 51.86800 22.06000
C  17.94800 51.47000 23.53500
C  15.68900 51.14600 20.80500
C  18.91700 53.02500 21.77600
C  19.93900 52.76700 20.62700
N  18.24700 51.01400 26.39600
C  19.17200 50.58300 25.45400
C  20.24500 49.88900 26.18100
C  19.96000 50.11600 27.54000
C  18.73900 50.77200 27.64300
C  21.48300 49.24100 25.55100
C  20.44100 49.91600 28.85100
O  21.43900 49.29300 29.23800
C  19.45200 50.50900 29.85300
C  19.01800 49.39300 30.70300
O  18.36000 48.46000 30.36100
O  19.53400 49.54900 31.95200
C  19.11000 48.46200 32.86100
H  13.16600 52.99700 29.11000
H  14.25000 53.37000 22.63800
H  19.85200 50.48600 23.52400
H  16.85000 51.15500 31.45300
H  14.92800 53.23900 30.86800
H  13.89200 50.53000 30.59700
H  13.45500 51.91600 31.61900
H  14.76000 50.77800 32.05000
H  16.98600 54.02200 31.49600
H  18.47300 53.33000 30.83900
H  18.44600 53.81700 33.22500
H  19.10400 52.33500 32.73500
H  11.52900 54.00300 28.27500
H  10.54700 53.47100 26.97300
H  11.02200 55.18600 27.09900
H  10.31700 55.45700 23.34400
H  10.89300 56.06800 24.94200
H  9.99400 54.49300 24.71900
H  16.26600 53.18300 21.27900
H  18.23100 50.99300 21.50300
H  16.41000 50.41300 20.44400
H  15.00700 51.54700 20.05600
H  15.13900 50.51300 21.50200
H  19.54800 53.27800 22.62700
H  18.43200 53.99500 21.67100
H  19.49800 52.47900 19.67300
H  20.54100 51.92000 20.95500
H  20.52800 53.66000 20.41600
H  21.73900 48.36900 26.15300
H  22.25400 50.01000 25.50800
H  21.29800 48.93700 24.52100
H  19.96500 51.26900 30.44300
H  19.45500 47.46400 32.58900
H  18.02500 48.38100 32.79600
H  19.44900 48.75900 33.85300

