158

Mg 25.33700 1.32600 29.17800
C  27.41100 1.34500 32.13500
C  22.60000 1.35100 31.27400
C  23.52000 1.35300 26.43600
C  28.29500 0.73900 27.28400
N  25.08100 1.37200 31.47200
C  26.06200 1.55000 32.45800
C  25.40000 1.77700 33.79800
C  23.83800 1.61300 33.47800
C  23.83500 1.36300 31.99400
C  23.13800 0.37900 34.19200
C  25.72800 3.12700 34.48500
C  26.66100 3.10300 35.68300
H  26.20800 3.89200 36.87600
N  23.39200 1.26000 28.86500
C  22.39500 1.31600 29.82800
C  21.10500 1.36200 29.15500
C  21.28200 1.29000 27.77100
C  22.80700 1.36100 27.63300
C  19.81500 1.44400 29.99700
C  20.23900 1.37200 26.64200
O  20.54300 1.34000 25.42800
C  18.81500 1.45200 26.86700
N  25.85700 1.14200 27.16700
C  24.88000 1.32400 26.20100
C  25.54400 1.35000 24.75300
C  27.07900 1.09200 25.05200
C  27.13900 1.01800 26.56900
C  25.10700 0.36200 23.66800
C  27.93100 2.18100 24.31900
C  27.86100 3.60200 24.97300
N  27.39400 1.09100 29.60500
C  28.45200 0.84900 28.71800
C  29.69100 0.67200 29.48600
C  29.37700 0.85400 30.90900
C  27.98000 1.11700 30.83800
C  31.09800 0.44600 28.89800
C  29.81800 0.94800 32.23000
O  30.91800 0.76500 32.66200
C  28.60300 1.26900 33.14500
C  28.47300 0.20200 34.17200
O  27.93500 -0.89900 34.03900
O  29.02700 0.66300 35.31200
C  28.92000 -0.18600 36.46600
H  21.74700 1.44600 31.94900
H  22.88600 1.30600 25.54800
H  29.18800 0.44300 26.72900
H  25.64200 0.99300 34.51500
H  23.29000 2.54100 33.64400
H  22.09200 0.62100 34.37600
H  23.69700 0.36100 35.12700
H  23.06800 -0.54500 33.61800
H  24.80200 3.60500 34.80700
H  26.25900 3.63700 33.68200
H  27.54700 3.62500 35.32200
H  26.95800 2.11400 36.03200
H  18.86500 1.19600 29.52400
H  19.74800 2.42800 30.46100
H  19.87900 0.79700 30.87100
H  18.75000 2.42700 27.34800
H  18.50500 0.64200 27.52700
H  18.25200 1.49100 25.93400
H  25.34300 2.33700 24.33700
H  27.33300 0.09500 24.69100
H  24.44600 -0.37800 24.11900
H  25.98000 -0.14600 23.26000
H  24.49600 0.76000 22.85800
H  27.58600 2.21300 23.28600
H  28.95300 1.80200 24.33100
H  28.80600 3.90300 25.42300
H  27.03500 3.52100 25.68000
H  27.53100 4.44200 24.36200
H  31.26400 0.94200 27.94200
H  31.29500 -0.62300 28.81300
H  31.89700 0.79300 29.55400
H  28.74000 2.26300 33.57100
H  28.03300 0.18700 36.97800
H  29.74600 -0.17800 37.17700
H  28.76300 -1.26000 36.36900
Mg 48.24600 34.65600 27.14100
C  46.16200 33.70100 29.63100
C  49.26100 37.41300 28.88200
C  49.80100 35.67500 24.36500
C  47.10500 31.73200 25.21600
N  47.84200 35.39600 29.03200
C  46.99900 34.75700 29.92800
C  47.14700 35.28900 31.32100
C  47.70100 36.77500 31.04100
C  48.34600 36.56800 29.58800
C  46.57200 37.88400 31.01400
C  48.11200 34.37700 32.09600
C  48.49000 34.94700 33.43100
H  47.49900 35.85200 34.20300
N  49.38100 36.37000 26.70600
C  49.71400 37.36800 27.53800
C  50.51300 38.36900 26.80900
C  50.77200 37.84400 25.48900
C  49.98400 36.59100 25.43800
C  50.99700 39.60900 27.43000
C  51.60300 38.49800 24.34100
O  51.67300 38.03200 23.20500
C  52.42900 39.72500 24.62300
N  48.37900 33.82200 25.08000
C  49.14900 34.48500 24.17600
C  49.03700 33.74000 22.75000
C  48.46400 32.32200 23.14700
C  47.95700 32.58100 24.60000
C  48.25400 34.52000 21.70000
C  49.63400 31.18200 23.08100
C  49.26800 29.89400 22.34000
N  46.92100 33.02400 27.30500
C  46.56200 31.94300 26.50800
C  45.51800 31.12100 27.18700
C  45.27300 31.86400 28.33200
C  46.20700 32.91900 28.39900
C  44.82500 29.85300 26.63700
C  44.41700 31.96400 29.48300
O  43.42700 31.33200 29.82600
C  44.98300 33.05700 30.37100
C  45.49200 32.38500 31.61400
O  46.37100 31.52100 31.57200
O  44.67500 32.82300 32.61700
C  45.00800 32.14100 33.83800
H  49.63900 38.15100 29.59300
H  50.40900 35.85100 23.47500
H  46.74300 30.86200 24.66400
H  46.17900 35.36900 31.81600
H  48.58000 37.06500 31.61700
H  45.68900 37.28500 31.23900
H  46.54300 38.41600 30.06300
H  46.86400 38.63200 31.75000
H  48.99500 34.49100 31.46700
H  47.86100 33.31700 32.11500
H  49.37700 35.56700 33.29900
H  48.82400 34.13700 34.08000
H  52.08000 39.60000 27.55200
H  50.69500 39.74300 28.46900
H  50.60600 40.40400 26.79600
H  53.18900 39.46400 25.36000
H  51.92500 40.61700 24.99500
H  53.00700 39.87600 23.71100
H  50.06600 33.66600 22.39900
H  47.64700 32.04000 22.48400
H  47.86100 35.34600 22.29300
H  47.50000 33.92300 21.18700
H  48.99400 34.87600 20.98400
H  49.83100 30.90000 24.11500
H  50.61900 31.47800 22.72000
H  48.30000 29.95800 21.84200
H  49.32000 29.00000 22.96100
H  49.88400 29.67100 21.46900
H  45.51400 29.02500 26.46800
H  44.51900 30.30300 25.69300
H  43.89200 29.54300 27.11000
H  44.29600 33.83000 30.71500
H  45.16600 32.86500 34.63800
H  45.93200 31.56300 33.80700
H  44.18500 31.50800 34.17000

