158

Mg 1.94500 -1.85400 44.35900
C  5.37100 -1.26800 44.35000
C  1.46600 1.23800 42.89600
C  -1.23100 -2.81800 43.76100
C  2.67300 -5.06300 45.40800
N  3.29600 -0.22300 43.57000
C  4.65000 -0.25100 43.69300
C  5.17200 1.11900 43.20400
C  3.90900 2.04500 43.05700
C  2.78300 0.98000 43.28600
C  3.78500 3.14700 44.11200
C  5.89400 1.09100 41.86600
C  5.52300 0.11900 40.75500
H  5.46300 0.62700 39.32600
N  0.31800 -0.85200 43.47400
C  0.32500 0.36800 42.90100
C  -1.01300 0.64200 42.49000
C  -1.90000 -0.38300 42.93800
C  -0.92400 -1.42800 43.39500
C  -1.46700 1.96400 41.84800
C  -3.49300 -0.48500 42.77200
O  -4.14100 0.50800 42.37500
C  -4.22600 -1.61900 43.31000
N  0.85400 -3.68400 44.61000
C  -0.49200 -3.81200 44.39300
C  -1.00300 -5.16100 44.80400
C  0.27100 -5.87200 45.20300
C  1.36200 -4.84100 45.06500
C  -2.21700 -5.06200 45.77800
C  0.58600 -7.05700 44.32500
C  -0.54800 -8.06700 44.07900
N  3.62500 -2.98800 44.88000
C  3.78100 -4.24200 45.34200
C  5.17200 -4.51800 45.75100
C  5.85800 -3.37700 45.30400
C  4.87500 -2.51800 44.78600
C  5.61600 -5.92200 46.33500
C  7.16300 -2.75300 45.10800
O  8.31000 -3.15400 45.36100
C  6.87700 -1.36300 44.47600
C  7.42300 -0.28700 45.35000
O  7.03200 0.14400 46.41900
O  8.38700 0.27900 44.53600
C  8.98600 1.51000 45.13800
H  1.24800 2.20000 42.42700
H  -2.21500 -3.24800 43.56500
H  2.89500 -6.08100 45.73500
H  5.80200 1.42400 44.03900
H  3.72900 2.47600 42.07200
H  4.61700 3.05100 44.80900
H  2.83800 3.14100 44.65200
H  3.79100 4.14400 43.67100
H  6.90300 0.88300 42.22000
H  5.87100 2.05700 41.36100
H  4.58700 -0.39100 40.98500
H  6.35100 -0.59000 40.75000
H  -0.54200 2.19500 41.32000
H  -1.58000 2.73100 42.61400
H  -2.38800 1.86600 41.27400
H  -5.28600 -1.37300 43.37200
H  -4.04200 -1.77000 44.37300
H  -4.06200 -2.48400 42.66800
H  -1.51000 -5.59200 43.94000
H  0.21500 -6.30600 46.20100
H  -2.35500 -4.01900 46.06300
H  -1.92300 -5.65800 46.64200
H  -3.09600 -5.38200 45.21900
H  1.44300 -7.53000 44.80400
H  0.92800 -6.73000 43.34400
H  -1.37900 -7.82400 44.74100
H  -0.14500 -9.04600 44.33800
H  -0.97400 -8.10000 43.07600
H  4.85700 -6.34300 46.99500
H  6.59900 -5.80500 46.79000
H  5.66900 -6.64600 45.52100
H  7.15900 -1.28400 43.42600
H  8.25500 2.31600 45.20900
H  9.82000 1.80200 44.50000
H  9.29500 1.30000 46.16200
Mg 25.02700 0.51400 29.43100
C  27.35300 0.37000 32.09300
C  22.58400 0.83200 31.72100
C  22.87000 0.41500 26.92000
C  27.69200 -0.31500 27.22400
N  25.02100 0.63000 31.64800
C  26.05000 0.57000 32.53800
C  25.55200 0.74400 33.94200
C  24.03500 0.69000 33.79800
C  23.83500 0.73800 32.30500
C  23.42800 -0.67100 34.37300
C  26.09400 2.04700 34.67000
C  26.75600 1.72400 36.01800
H  26.30500 2.55000 37.33300
N  22.96800 0.72000 29.37300
C  22.16200 0.80600 30.42500
C  20.82200 1.09100 30.01300
C  20.79900 0.99400 28.61400
C  22.22900 0.66300 28.19000
C  19.63200 1.46300 30.98000
C  19.73900 1.23900 27.71400
O  19.92000 1.28800 26.52700
C  18.30600 1.41600 28.07100
N  25.19300 -0.10900 27.37700
C  24.16800 0.11800 26.56500
C  24.62900 -0.01100 25.11400
C  26.14400 -0.16500 25.20200
C  26.40600 -0.18200 26.68700
C  23.84200 -1.12200 24.37100
C  26.93400 0.93100 24.43300
C  26.47300 1.24600 22.99800
N  27.09300 0.10300 29.53700
C  28.04400 -0.17900 28.58300
C  29.29200 -0.29600 29.16100
C  29.12500 -0.01700 30.51600
C  27.70400 0.13100 30.75000
C  30.64300 -0.62100 28.59700
C  29.76700 0.06400 31.83700
O  30.94400 -0.08900 32.16900
C  28.68200 0.52200 32.86000
C  28.68700 -0.45600 33.96500
O  27.95800 -1.41400 34.04900
O  29.62100 -0.09000 34.91500
C  29.72200 -1.09100 36.03900
H  21.78800 0.99700 32.45000
H  22.16200 0.38500 26.08800
H  28.51900 -0.60100 26.57100
H  25.76600 -0.19000 34.46100
H  23.54600 1.53500 34.28200
H  23.17100 -1.30300 33.52300
H  22.47400 -0.34100 34.78300
H  24.08200 -1.24700 35.02900
H  25.21000 2.67900 34.75400
H  26.88300 2.46200 34.04300
H  27.78700 2.05900 35.90300
H  26.73200 0.65300 36.21800
H  19.05600 0.54600 30.85100
H  19.04700 2.31200 30.62700
H  19.86800 1.58300 32.03700
H  18.06400 0.76500 28.91100
H  17.69100 1.29900 27.17900
H  18.26700 2.46200 28.37700
H  24.29200 0.91200 24.64200
H  26.40900 -1.17200 24.87900
H  23.25400 -1.66500 25.10900
H  24.56400 -1.84900 23.99900
H  23.19600 -0.77200 23.56600
H  27.85500 0.42600 24.14200
H  27.17000 1.81900 25.01800
H  25.74000 0.51700 22.65100
H  27.30300 1.07500 22.31400
H  26.01700 2.21900 22.81400
H  30.75400 -0.62100 27.51300
H  30.98600 -1.58500 28.97400
H  31.38300 0.13100 28.86900
H  28.84800 1.52900 33.24400
H  30.02500 -2.07800 35.69000
H  28.75400 -1.13900 36.53800
H  30.50100 -0.71600 36.70200

