158

Mg 9.21400 4.59300 27.28700
C  10.39700 2.78100 30.17900
C  7.26700 6.38900 29.45300
C  8.05700 6.09000 24.68600
C  10.64000 2.05100 25.35300
N  8.95500 4.66200 29.65800
C  9.60800 3.86900 30.60400
C  9.16800 4.29200 32.00400
C  7.99900 5.41000 31.78700
C  8.05300 5.55800 30.23200
C  6.56200 5.05400 32.28900
C  10.47000 4.84300 32.68200
C  10.88400 4.16100 34.04100
H  10.87300 4.91400 35.35600
N  7.80000 5.99500 27.05800
C  7.08600 6.66200 28.07700
C  6.18500 7.59600 27.48000
C  6.30800 7.46300 26.11300
C  7.45400 6.52200 25.88400
C  5.39900 8.43300 28.42300
C  5.51100 8.07400 25.03400
O  5.76300 8.00200 23.82800
C  4.27200 8.95800 25.48700
N  9.38000 4.15500 25.31600
C  8.91700 5.00600 24.34500
C  9.26200 4.47500 22.93100
C  10.07900 3.22900 23.23700
C  9.97700 3.11900 24.70000
C  8.06400 4.07000 22.03300
C  11.57800 3.28300 22.70500
C  11.80200 2.28300 21.58800
N  10.38900 2.79000 27.63000
C  10.76000 1.83000 26.71000
C  11.39300 0.73100 27.39300
C  11.26800 1.02000 28.77800
C  10.68600 2.28900 28.89100
C  12.01300 -0.51300 26.73900
C  11.61000 0.61600 30.14000
O  12.18500 -0.40500 30.50600
C  11.02400 1.70500 31.04500
C  10.09000 0.98700 32.04300
O  8.97700 0.63400 31.83400
O  10.66400 0.83600 33.27300
C  9.97200 0.09500 34.31800
H  6.69600 6.97400 30.17700
H  7.90600 6.59900 23.73200
H  11.03600 1.28200 24.68600
H  8.77400 3.33500 32.34700
H  8.15800 6.42200 32.15900
H  5.94000 5.94800 32.26100
H  6.57800 4.84000 33.35700
H  6.04700 4.29200 31.70400
H  10.45900 5.92200 32.84000
H  11.33100 4.85900 32.01400
H  11.91100 3.82500 33.89300
H  10.34200 3.22300 34.15800
H  4.46600 7.88900 28.57000
H  5.06700 9.39900 28.04400
H  6.00700 8.66300 29.29800
H  3.44800 8.46300 26.00100
H  3.87800 9.23200 24.50900
H  4.65400 9.87700 25.93100
H  9.99000 5.13200 22.45500
H  9.66100 2.30600 22.83500
H  7.63300 3.15600 22.44300
H  8.32100 3.83800 20.99900
H  7.38400 4.92100 21.98700
H  12.28600 3.01100 23.48800
H  11.91200 4.24500 22.31700
H  10.90800 2.36800 20.97100
H  11.97600 1.25200 21.89500
H  12.68500 2.60200 21.03500
H  12.03500 -0.39700 25.65600
H  11.51500 -1.44500 27.00500
H  13.05000 -0.56100 27.07100
H  11.86700 2.13100 31.59000
H  9.18300 -0.49600 33.85300
H  9.55000 0.83500 34.99800
H  10.71400 -0.54400 34.79600
Mg 0.70900 42.34500 26.02900
C  2.28900 42.40200 29.25200
C  -2.18800 41.31800 27.77400
C  -0.61600 41.58300 23.15200
C  3.63400 43.35200 24.67500
N  0.07500 42.16600 28.37900
C  0.93800 42.16900 29.44800
C  0.20400 41.96000 30.79500
C  -1.16200 41.48300 30.28800
C  -1.14200 41.71100 28.70500
C  -1.41400 40.01500 30.73100
C  0.19000 43.35700 31.59000
C  0.40600 43.38400 33.13000
H  0.14800 42.10300 33.88400
N  -1.16300 41.66200 25.46400
C  -2.21300 41.30900 26.35300
C  -3.34700 40.86600 25.56100
C  -2.92200 41.01300 24.21000
C  -1.53900 41.39400 24.23000
C  -4.66000 40.54500 26.26500
C  -3.74400 40.73300 22.96300
O  -3.36100 40.93000 21.80700
C  -5.16800 40.28300 23.12300
N  1.48100 42.18800 24.24400
C  0.74700 41.97000 23.14300
C  1.51300 42.31400 21.80600
C  2.79400 42.98400 22.35400
C  2.59500 42.95500 23.85100
C  1.73200 41.00100 21.10600
C  3.03700 44.45900 21.76600
C  1.84200 45.41800 21.67200
N  2.66600 42.82800 26.70100
C  3.77300 43.19000 26.00900
C  4.88300 43.27200 26.92000
C  4.38200 42.93700 28.17000
C  2.96400 42.72000 28.04900
C  6.30000 43.72600 26.69300
C  4.72400 42.74900 29.57200
O  5.78000 42.68200 30.18900
C  3.29700 42.56700 30.30600
C  3.45100 41.42200 31.25000
O  3.19400 40.26200 30.99500
O  3.93000 41.88200 32.43600
C  4.08000 40.83000 33.47300
H  -3.01800 40.94400 28.37800
H  -1.00200 41.45600 22.13900
H  4.45100 43.80600 24.10800
H  0.76400 41.26500 31.42200
H  -1.97600 42.08200 30.69500
H  -2.39100 39.99300 31.21400
H  -0.66100 39.75700 31.47600
H  -1.32400 39.30500 29.90900
H  -0.79200 43.82200 31.49700
H  0.93800 44.04300 31.19400
H  -0.24000 44.11300 33.61700
H  1.43600 43.69700 33.30300
H  -4.29000 40.02200 27.14700
H  -5.36900 39.94700 25.69200
H  -5.19000 41.42600 26.62500
H  -5.60000 40.11200 22.13700
H  -5.77500 41.08900 23.53500
H  -5.10800 39.41400 23.77900
H  1.01700 42.96500 21.08600
H  3.72700 42.45900 22.14600
H  2.73100 40.98900 20.67000
H  0.95700 40.92200 20.34400
H  1.63200 40.10000 21.71100
H  3.59200 44.46500 20.82700
H  3.69100 45.06200 22.39600
H  0.93000 45.04500 22.13900
H  1.76100 45.64900 20.61000
H  2.10300 46.36000 22.15500
H  6.91700 42.88200 26.38700
H  6.63100 44.18200 27.62700
H  6.26300 44.51100 25.93800
H  3.13600 43.44300 30.93500
H  5.10900 40.47000 33.47300
H  3.47000 39.95300 33.25800
H  3.83300 41.26600 34.44100

