158

Mg 49.15100 45.37200 42.68000
C  45.79500 46.07500 41.61400
C  48.71100 42.28600 41.23500
C  52.39700 45.25700 42.77000
C  49.39400 48.99300 43.29500
N  47.41500 44.36100 41.49600
C  46.14300 44.79400 41.27800
C  45.31500 43.71700 40.57900
C  46.16700 42.46000 40.71100
C  47.51700 43.04700 41.03200
C  45.69900 41.50300 41.82700
C  44.88500 44.10000 39.08400
C  45.86200 44.93900 38.24800
H  45.73800 44.88500 36.78000
N  50.34500 43.89000 42.31300
C  50.03000 42.66100 41.74500
C  51.26900 41.88900 41.80400
C  52.29900 42.69300 42.30400
C  51.74000 44.00300 42.55700
C  51.30300 40.40700 41.40800
C  53.69000 42.14800 42.51500
O  54.04400 41.04900 42.01700
C  54.77500 42.80300 43.35900
N  50.57700 46.93400 43.03900
C  51.88700 46.56000 43.00100
C  52.84700 47.71000 43.19200
C  51.87600 48.94900 43.49800
C  50.53300 48.30900 43.23200
C  54.11800 47.41900 44.05700
C  52.06700 50.21600 42.61800
C  51.93300 51.61900 43.23600
N  47.84300 47.11800 42.69000
C  48.10300 48.45300 43.01600
C  46.86300 49.22700 43.01700
C  45.88000 48.30300 42.52300
C  46.57700 47.05500 42.22500
C  46.75100 50.58500 43.50000
C  44.53800 48.25600 42.11500
O  43.66900 49.14300 42.10400
C  44.41400 46.83600 41.47400
C  43.29700 46.02000 41.94900
O  42.36300 45.61800 41.27200
O  43.22000 46.06000 43.29500
C  42.06400 45.40000 43.88000
H  48.65200 41.26400 40.85500
H  53.47700 45.26000 42.92600
H  49.41300 50.08500 43.28300
H  44.39900 43.57200 41.15200
H  46.28000 41.91100 39.77500
H  46.55300 41.13500 42.39500
H  45.08300 40.73200 41.36300
H  45.10400 41.99400 42.59700
H  43.90300 44.57200 39.07100
H  44.62700 43.17900 38.56100
H  46.86600 44.66100 38.57000
H  45.65300 45.96500 38.54900
H  51.26300 39.82500 42.32900
H  52.22600 39.99500 41.00100
H  50.52100 40.15200 40.69300
H  55.57500 42.07800 43.51200
H  54.36300 43.15200 44.30600
H  55.12400 43.59600 42.69800
H  53.10500 47.85600 42.14300
H  52.05300 49.15600 44.55300
H  54.91200 47.23900 43.33200
H  54.02200 46.54600 44.70200
H  54.28100 48.28200 44.70200
H  51.21500 50.20900 41.93900
H  52.90500 50.18600 41.92200
H  52.94700 52.01800 43.26200
H  51.62600 51.65600 44.28100
H  51.28100 52.22400 42.60500
H  45.87400 50.66500 44.14300
H  46.54600 51.26500 42.67300
H  47.63600 50.80800 44.09500
H  44.17200 46.99800 40.42300
H  41.66700 44.57600 43.28700
H  41.33000 46.19800 43.99500
H  42.42200 45.02600 44.83900
Mg 6.87000 53.01100 41.37700
C  6.22200 49.58500 41.35300
C  10.13500 52.49200 40.60600
C  7.28100 56.45300 40.88500
C  3.41600 53.66300 41.67900
N  8.00000 51.26100 41.04000
C  7.57600 49.93700 41.00300
C  8.81300 49.06400 40.63100
C  10.06600 49.90100 40.73900
C  9.36900 51.31600 40.82100
C  11.03500 49.81200 41.98400
C  8.73500 48.25100 39.34500
C  8.73800 48.99000 38.05100
H  7.64900 48.73400 37.00100
N  8.48500 54.33200 40.92500
C  9.78200 53.89800 40.68100
C  10.68700 55.01400 40.39700
C  9.86800 56.17600 40.36700
C  8.46400 55.71400 40.72400
C  12.16800 54.90100 40.18000
C  10.35900 57.59900 40.09100
O  11.54600 57.78100 39.93200
C  9.38800 58.82400 39.89300
N  5.57600 54.81900 41.43800
C  6.01500 56.11800 41.16200
C  4.84100 57.09400 41.49500
C  3.67400 56.20600 41.38000
C  4.24400 54.75800 41.56200
C  4.90900 57.95200 42.78400
C  2.86500 56.31300 40.09300
C  1.45100 55.79900 40.28700
N  5.13800 51.89300 41.71700
C  3.82300 52.28700 41.83500
C  3.06100 51.08400 42.07000
C  3.96500 50.01500 41.84600
C  5.25900 50.54900 41.63500
C  1.54500 51.01300 42.19600
C  3.99700 48.54600 41.73600
O  3.09600 47.69200 41.80400
C  5.49900 48.24500 41.48000
C  5.63200 47.44700 40.22200
O  5.45800 47.93200 39.16200
O  5.88700 46.10000 40.45700
C  5.61700 45.29600 39.30700
H  11.18100 52.34700 40.32800
H  7.35900 57.53600 40.76400
H  2.34600 53.81200 41.83600
H  8.97500 48.37700 41.46200
H  10.78900 49.80900 39.92800
H  11.13700 50.67600 42.64200
H  11.96100 49.45700 41.53400
H  10.70700 48.99300 42.62400
H  7.92000 47.52900 39.31500
H  9.64300 47.65100 39.41000
H  9.59300 48.57000 37.52000
H  8.92000 50.06100 38.14700
H  12.72000 55.70500 40.66500
H  12.35700 54.80100 39.11100
H  12.43600 53.96800 40.67600
H  8.65900 58.51100 39.14500
H  9.93000 59.71900 39.58800
H  8.91300 58.96800 40.86400
H  4.80000 57.72700 40.60900
H  3.07600 56.40600 42.27000
H  5.55900 58.80700 42.59800
H  5.39900 57.23000 43.43700
H  3.88600 58.20100 43.06600
H  3.35700 55.67300 39.36000
H  2.79800 57.33000 39.70600
H  1.35600 54.99400 39.55800
H  0.72000 56.53400 39.95000
H  1.26300 55.49700 41.31800
H  1.23200 51.02900 43.24000
H  1.16200 50.25700 41.51000
H  1.13100 51.94600 41.81500
H  5.87700 47.70500 42.34800
H  5.70300 44.25900 39.63300
H  6.30600 45.38400 38.46700
H  4.58200 45.57700 39.11200

