158

Mg 24.22100 -7.14500 47.95100
C  26.59800 -5.06800 46.74700
C  22.14400 -5.98100 45.32400
C  21.91700 -9.44600 48.88900
C  26.53300 -8.59700 50.12100
N  24.33900 -5.53000 46.40500
C  25.40700 -4.80400 46.06100
C  25.22900 -3.86900 44.81200
C  23.64800 -3.92900 44.74400
C  23.36200 -5.26200 45.48900
C  22.89000 -2.71300 45.38000
C  25.88300 -4.34000 43.57500
C  26.65500 -3.20000 42.81500
H  26.02600 -2.82300 41.43500
N  22.36300 -7.57900 47.22600
C  21.67100 -7.02300 46.14000
C  20.47000 -7.81000 45.92500
C  20.35400 -8.74900 46.95800
C  21.51400 -8.53700 47.79200
C  19.51800 -7.57300 44.77900
C  19.07600 -9.67300 47.12900
O  18.23200 -9.76000 46.22700
C  18.82600 -10.44100 48.42900
N  24.22900 -8.82300 49.31400
C  23.13100 -9.60000 49.54500
C  23.54500 -10.75300 50.51700
C  24.83900 -10.20300 51.20200
C  25.22000 -9.12400 50.14400
C  22.42600 -11.19800 51.53700
C  25.95100 -11.28800 51.33300
C  26.50900 -11.87900 50.10100
N  26.18400 -7.00000 48.35500
C  27.03000 -7.57900 49.29000
C  28.34700 -7.02900 49.18300
C  28.20400 -5.99100 48.15200
C  26.89600 -6.01300 47.72900
C  29.50700 -7.24600 50.12200
C  28.86100 -4.93400 47.45200
O  30.03800 -4.65600 47.44100
C  27.90400 -4.41100 46.44600
C  27.92400 -2.92500 46.59000
O  27.23400 -2.27300 47.37000
O  28.79900 -2.45900 45.65900
C  28.83000 -1.01200 45.52900
H  21.53000 -5.53800 44.53800
H  21.20500 -10.23300 49.14800
H  27.33500 -8.85200 50.81800
H  25.42800 -2.82100 45.03500
H  23.23500 -4.09700 43.74900
H  22.09500 -3.10200 46.01600
H  22.39500 -2.12300 44.60800
H  23.54100 -2.05300 45.95400
H  25.08800 -4.82300 43.00600
H  26.60800 -5.12100 43.79900
H  27.65900 -3.57700 42.61700
H  26.78400 -2.42000 43.56500
H  19.31900 -8.50300 44.24600
H  19.94400 -6.86600 44.06800
H  18.58000 -7.23100 45.21600
H  17.75300 -10.61800 48.36000
H  18.86600 -9.77800 49.29300
H  19.31000 -11.39900 48.61600
H  23.75900 -11.59100 49.85400
H  24.59700 -9.86100 52.20800
H  21.54700 -10.63400 51.22700
H  22.73300 -10.96400 52.55600
H  22.23200 -12.25500 51.35500
H  25.36500 -12.03100 51.87400
H  26.66300 -10.99600 52.10400
H  26.15600 -11.36200 49.20800
H  26.35600 -12.94700 49.94900
H  27.59800 -11.88700 50.13600
H  29.11500 -6.92400 51.08700
H  30.27000 -6.62800 49.64900
H  29.64900 -8.32500 50.06500
H  28.23100 -4.62900 45.43000
H  29.62600 -0.60900 46.15500
H  27.94500 -0.54600 45.96300
H  28.94700 -0.73500 44.48200
Mg 0.91600 43.03900 26.42000
C  2.97300 43.22800 29.11700
C  -1.77600 42.57400 28.82700
C  -1.38000 42.42600 23.95800
C  3.47600 43.35300 24.20500
N  0.65500 42.70800 28.70800
C  1.70900 42.91000 29.61300
C  1.26500 42.71700 31.00500
C  -0.20900 42.24500 30.78400
C  -0.51000 42.52200 29.30900
C  -0.51600 40.75900 31.21900
C  1.33100 44.10000 31.71200
C  1.14200 44.25300 33.19700
H  0.91900 42.93600 34.01200
N  -1.33000 42.61300 26.37400
C  -2.19100 42.57500 27.45800
C  -3.55300 42.27800 26.99700
C  -3.42000 42.17900 25.54900
C  -1.97500 42.44000 25.21600
C  -4.75600 42.12400 27.94000
C  -4.44800 41.69700 24.61500
O  -4.19700 41.39900 23.46800
C  -5.84400 41.59000 25.14200
N  1.06500 42.67700 24.48400
C  -0.00500 42.46700 23.64800
C  0.44200 42.50800 22.16600
C  1.89800 43.03100 22.21000
C  2.18300 43.07100 23.70300
C  0.30700 41.13100 21.44700
C  2.03100 44.41900 21.52500
C  1.94800 45.68800 22.39900
N  2.81700 43.29600 26.54200
C  3.82500 43.48300 25.61600
C  5.13600 43.71000 26.27500
C  4.82000 43.63900 27.60000
C  3.41300 43.36900 27.74700
C  6.58100 43.77600 25.69700
C  5.33500 43.79600 28.96300
O  6.43900 44.12300 29.33300
C  4.23900 43.45000 29.90900
C  4.64100 42.18600 30.54600
O  4.63700 41.10200 30.11100
O  5.00300 42.52000 31.81700
C  5.71800 41.54900 32.68300
H  -2.63500 42.36600 29.46900
H  -2.05800 42.37500 23.10300
H  4.39600 43.61400 23.67900
H  1.89900 41.95600 31.46000
H  -0.87400 42.86100 31.38900
H  -1.10700 40.28900 30.43300
H  -0.96700 40.75000 32.21100
H  0.36100 40.18000 31.50800
H  0.50700 44.71600 31.34900
H  2.28200 44.55600 31.43900
H  0.33900 44.92000 33.51000
H  2.11100 44.58200 33.57300
H  -5.45000 42.91000 27.63900
H  -4.48000 42.26500 28.98500
H  -5.18500 41.12800 27.82900
H  -5.98000 40.65500 25.68500
H  -6.46300 41.55000 24.24600
H  -6.16000 42.48200 25.68300
H  -0.34300 43.15100 21.76800
H  2.52400 42.27400 21.73800
H  1.24700 40.62000 21.23800
H  -0.27200 41.13800 20.52300
H  -0.29300 40.40400 21.99400
H  1.25400 44.45600 20.76100
H  2.95200 44.33400 20.94900
H  1.27100 46.37200 21.88700
H  2.95700 46.08800 22.49400
H  1.67000 45.63200 23.45100
H  7.18000 43.16400 26.37100
H  6.89800 44.81800 25.75100
H  6.58100 43.37100 24.68600
H  4.10700 44.31300 30.56200
H  6.60400 42.02300 33.10500
H  6.11300 40.71500 32.10300
H  5.11300 41.05000 33.44100

