158

Mg 41.75800 41.19800 27.17100
C  40.88700 43.66400 29.45800
C  42.83700 39.24200 29.81600
C  42.46900 38.68300 24.96900
C  41.15200 43.31600 24.54400
N  41.73100 41.36900 29.34400
C  41.32000 42.47600 30.05700
C  41.25500 42.19000 31.57900
C  41.65700 40.67300 31.68000
C  42.14000 40.40000 30.21200
C  42.80400 40.31300 32.77200
C  39.94200 42.58900 32.27800
C  39.33900 41.68400 33.39200
H  39.02700 42.35200 34.75900
N  42.68100 39.34900 27.35000
C  43.04900 38.74300 28.51500
C  43.58400 37.38500 28.25600
C  43.40700 37.14300 26.86400
C  42.83400 38.48200 26.33400
C  44.22400 36.47400 29.25900
C  43.72600 35.90700 26.00900
O  43.49900 35.85800 24.80100
C  44.32100 34.66000 26.58100
N  42.02200 41.07900 25.09500
C  42.26600 39.88600 24.39200
C  41.96900 40.01100 22.85300
C  41.49300 41.47900 22.82600
C  41.51800 42.02300 24.25400
C  43.35800 39.74600 22.01100
C  40.14500 41.66900 22.09200
C  38.93200 41.12700 22.86300
N  41.09200 43.06900 26.97000
C  40.92500 43.84100 25.83900
C  40.52200 45.14600 26.28300
C  40.52600 45.08500 27.69300
C  40.88600 43.82400 28.06400
C  40.37300 46.38100 25.37300
C  40.28900 45.93600 28.86500
O  39.98000 47.10300 28.95900
C  40.48500 44.95100 30.06300
C  41.51100 45.58500 30.89800
O  42.67900 45.63000 30.68300
O  40.92400 45.97800 32.09400
C  41.80000 46.55900 33.04700
H  43.02700 38.60900 30.68600
H  42.61100 37.96200 24.16100
H  41.10800 43.98800 23.68500
H  42.05300 42.64400 32.16600
H  40.86200 39.94000 31.81900
H  43.76300 40.23500 32.26000
H  42.66300 39.32400 33.20700
H  42.83500 41.10300 33.52200
H  39.25000 42.48100 31.44200
H  39.90700 43.61100 32.65500
H  40.06900 40.90200 33.60400
H  38.45800 41.17200 33.00400
H  45.26400 36.50900 28.93300
H  43.86100 35.44800 29.30100
H  44.09100 36.78800 30.29400
H  43.76000 34.46100 27.49500
H  45.37900 34.88600 26.71300
H  44.15600 33.84100 25.88100
H  41.18500 39.37300 22.44500
H  42.27800 42.18400 22.55300
H  44.01800 39.01800 22.48400
H  43.89700 40.69300 21.99800
H  43.20600 39.39800 20.99000
H  40.25200 41.26100 21.08700
H  40.01000 42.74200 21.95200
H  39.22100 40.33600 23.55400
H  38.19300 40.65800 22.21400
H  38.41400 41.86000 23.48200
H  39.38800 46.51200 24.92500
H  40.96600 46.27700 24.46400
H  40.73800 47.26700 25.89200
H  39.56100 44.80900 30.62300
H  42.48400 47.38000 32.83200
H  42.39300 45.76600 33.50300
H  41.16200 46.89600 33.86300
Mg 30.02500 57.82100 39.47800
C  27.44500 55.77500 38.13500
C  32.36100 55.47500 38.14300
C  32.43000 60.13800 39.78800
C  27.66100 60.32200 39.85700
N  29.92800 55.80000 38.22800
C  28.74400 55.21800 37.83200
C  29.10400 53.80400 37.29900
C  30.57900 53.64500 37.70300
C  31.02700 55.05200 38.00600
C  30.76800 52.74200 38.91100
C  28.73300 53.58200 35.85100
C  29.34500 54.41900 34.79000
H  28.45700 54.95000 33.76900
N  32.10600 57.71100 39.27400
C  32.88100 56.69200 38.74100
C  34.22000 57.10000 38.80200
C  34.35300 58.45600 39.40100
C  32.92700 58.85700 39.50200
C  35.34600 56.20300 38.35100
C  35.52200 59.26600 39.71500
O  36.65500 58.77800 39.43300
C  35.49500 60.65900 40.35400
N  29.99400 59.87100 39.99200
C  31.14200 60.59200 39.92600
C  30.97500 62.08500 40.15200
C  29.39500 62.16800 40.36100
C  29.00300 60.72100 40.04500
C  31.84900 62.80900 41.21000
C  28.73900 63.27400 39.47100
C  27.64600 64.05900 40.21300
N  27.95700 58.00500 39.24200
C  27.15600 59.05800 39.52000
C  25.76100 58.61800 39.26200
C  25.83700 57.31700 38.76400
C  27.17800 57.02600 38.71500
C  24.50300 59.45900 39.35900
C  25.04800 56.23900 38.20900
O  23.86100 56.21000 37.98900
C  26.05600 55.13600 37.90400
C  25.82600 53.87100 38.68900
O  26.37400 53.51500 39.74000
O  24.70700 53.21200 38.09400
C  24.09200 52.09000 38.86700
H  33.09600 54.80400 37.69200
H  33.12700 60.97900 39.79400
H  26.97500 61.15800 40.01400
H  28.47200 53.13600 37.88400
H  31.11800 53.28900 36.82600
H  31.01100 51.78900 38.44300
H  29.90600 52.49000 39.52900
H  31.50600 53.16500 39.59300
H  27.64700 53.60100 35.76100
H  28.78400 52.51000 35.65800
H  30.17000 53.84800 34.36500
H  29.76100 55.31800 35.24600
H  35.93200 55.79600 39.17600
H  35.90100 56.87200 37.69300
H  35.13500 55.28900 37.79500
H  36.38700 61.15700 40.73500
H  34.78000 60.72500 41.17400
H  35.28700 61.31000 39.50500
H  31.24900 62.54900 39.20400
H  29.01700 62.30000 41.37500
H  31.15800 63.16500 41.97400
H  32.30900 63.66900 40.72500
H  32.59200 62.15200 41.66400
H  28.25700 62.74000 38.65200
H  29.48000 64.03700 39.23200
H  28.02100 65.01500 40.57800
H  27.34000 63.43500 41.05200
H  26.78300 64.28800 39.58700
H  24.51500 60.15100 38.51700
H  24.42100 59.97300 40.31700
H  23.66400 58.78500 39.18900
H  25.86100 54.87100 36.86500
H  24.26900 52.33900 39.91300
H  24.64700 51.20100 38.56700
H  23.02200 52.08200 38.66000

