158

Mg -0.69900 18.36200 28.11900
C  -1.21300 16.20900 30.74500
C  -1.49500 21.07000 30.05600
C  -0.39800 20.59800 25.37500
C  -0.34100 15.74900 25.86200
N  -1.11000 18.59800 30.20100
C  -1.26800 17.54300 31.11100
C  -1.47400 18.09400 32.46800
C  -1.83900 19.61400 32.22800
C  -1.35800 19.87900 30.74500
C  -3.29400 20.00000 32.51800
C  -0.30000 17.83300 33.49700
C  -0.73500 17.61300 34.95600
H  0.38600 17.28800 35.91000
N  -0.90200 20.51500 27.76300
C  -1.29900 21.45400 28.71900
C  -1.25800 22.79900 28.17000
C  -0.96300 22.69100 26.76200
C  -0.74300 21.22300 26.58000
C  -1.52200 24.09100 28.98900
C  -0.88200 23.66300 25.64400
O  -0.89000 23.36400 24.46000
C  -0.77700 25.12700 26.01600
N  -0.42300 18.16000 25.98700
C  -0.34400 19.22800 25.10600
C  -0.20200 18.67200 23.63400
C  0.14200 17.23300 23.84900
C  -0.26200 16.99000 25.31100
C  -1.56100 18.85900 22.85400
C  1.65300 16.80800 23.58300
C  2.70200 17.46700 24.50100
N  -0.79100 16.39300 28.19400
C  -0.58100 15.43600 27.23300
C  -0.84400 14.13700 27.79500
C  -1.05000 14.37900 29.14600
C  -1.01400 15.80900 29.34600
C  -0.77200 12.84000 27.11000
C  -1.31500 13.75400 30.46500
O  -1.41300 12.56200 30.73400
C  -1.40100 14.87900 31.56000
C  -0.43400 14.55900 32.65400
O  0.76900 14.69300 32.52400
O  -1.07700 13.83800 33.64300
C  -0.29600 13.27400 34.75000
H  -1.70700 21.98400 30.61500
H  -0.33600 21.28600 24.52900
H  -0.34800 14.98200 25.08400
H  -2.38100 17.56700 32.76500
H  -1.24100 20.34600 32.77100
H  -3.81900 19.17700 33.00200
H  -3.62600 20.18700 31.49600
H  -3.37900 20.92400 33.09100
H  0.34500 18.70900 33.43000
H  0.33000 17.00000 33.18200
H  -1.57100 16.91900 35.04300
H  -0.99500 18.54800 35.45200
H  -1.97200 24.88700 28.39600
H  -0.60800 24.44900 29.46400
H  -2.28500 23.81400 29.71600
H  -0.24000 25.28200 26.95200
H  -1.80600 25.48600 26.02400
H  -0.37900 25.64000 25.14000
H  0.65900 19.12600 23.14400
H  -0.45200 16.67100 23.12900
H  -1.99800 19.80000 23.18900
H  -2.25600 18.02500 22.95700
H  -1.22100 18.92500 21.82000
H  1.88700 17.06400 22.54900
H  1.72500 15.72700 23.70200
H  3.31400 16.75000 25.04600
H  2.37100 18.26600 25.16500
H  3.48300 17.90300 23.87800
H  -1.80200 12.48500 27.14900
H  -0.11800 12.15300 27.64900
H  -0.45600 12.92900 26.07100
H  -2.41200 14.90800 31.96700
H  -0.08100 13.98600 35.54700
H  0.66400 12.93100 34.36200
H  -0.89400 12.41800 35.06200
Mg 9.08900 3.92200 27.59000
C  10.44600 2.42900 30.31600
C  7.36900 6.20600 29.68500
C  8.22400 5.72900 24.92500
C  10.51500 1.52400 25.54200
N  8.73600 4.08300 29.73800
C  9.56300 3.46900 30.71300
C  9.19700 3.96400 32.12400
C  8.13500 5.10800 31.88600
C  8.00500 5.14500 30.31900
C  6.77600 4.83400 32.59900
C  10.42100 4.45600 33.03500
C  10.05900 5.11500 34.31000
H  10.44500 4.46400 35.65200
N  7.93500 5.68700 27.31600
C  7.29600 6.41700 28.24200
C  6.61100 7.59200 27.61500
C  6.96500 7.52200 26.25300
C  7.75900 6.29400 26.13900
C  5.78600 8.66600 28.34900
C  6.73600 8.57000 25.10200
O  7.02000 8.31400 23.95500
C  6.02400 9.84900 25.35100
N  9.20700 3.60400 25.48400
C  8.83700 4.51200 24.57100
C  8.98100 3.98200 23.16700
C  9.69400 2.63000 23.37900
C  9.90800 2.60600 24.89100
C  7.66000 4.04200 22.39500
C  11.06300 2.36700 22.60600
C  11.09300 1.14400 21.69500
N  10.28200 2.23100 27.78000
C  10.82500 1.37500 26.91300
C  11.75800 0.49500 27.62600
C  11.64300 0.82300 28.93000
C  10.75500 1.97700 28.98300
C  12.58000 -0.60900 26.92800
C  12.02900 0.49600 30.24400
O  12.75100 -0.38800 30.60600
C  11.32200 1.50000 31.18300
C  10.55000 0.93700 32.23800
O  9.34400 0.65800 32.18400
O  11.40800 0.66000 33.27500
C  10.75900 0.43700 34.51100
H  6.92200 7.10400 30.11600
H  7.76300 6.21500 24.06200
H  11.06700 0.85700 24.87600
H  8.82800 3.07700 32.63800
H  8.54400 5.98600 32.38700
H  5.96600 4.79800 31.86900
H  6.70500 5.69900 33.25700
H  6.86500 3.90300 33.15900
H  10.98400 5.05300 32.31700
H  11.18500 3.71000 33.25300
H  8.97700 5.21500 34.39600
H  10.59200 6.05200 34.14600
H  6.09700 9.68600 28.12100
H  5.90100 8.60000 29.43100
H  4.70600 8.53900 28.27700
H  5.90800 10.27100 24.35300
H  6.67500 10.51200 25.92200
H  5.06100 9.76400 25.85600
H  9.61600 4.64700 22.58200
H  8.91600 1.92800 23.07800
H  7.62800 4.79500 21.60800
H  6.77400 4.21500 23.00500
H  7.55100 3.11200 21.83700
H  11.93100 2.21400 23.24700
H  11.21000 3.27600 22.02200
H  11.94400 1.23900 21.02100
H  10.21500 0.97300 21.07200
H  11.23100 0.25300 22.30700
H  11.87800 -1.30600 26.47000
H  13.21100 -1.19100 27.60000
H  13.07500 -0.05900 26.12800
H  12.11800 2.13900 31.56400
H  11.27300 1.07000 35.23500
H  10.96600 -0.60900 34.73700
H  9.71500 0.72700 34.62800

