158

Mg -0.86700 17.71500 26.12100
C  -1.04600 15.22900 28.60900
C  -2.00300 19.87900 28.55800
C  -1.49000 20.17900 23.75200
C  -0.54600 15.42700 23.76100
N  -1.43700 17.53800 28.38500
C  -1.20900 16.50000 29.20200
C  -1.33400 16.88800 30.68000
C  -1.90300 18.31700 30.58800
C  -1.77200 18.62900 29.11000
C  -3.38800 18.40900 31.24600
C  -0.01400 16.73400 31.46200
C  0.16400 17.47700 32.78800
H  0.04600 16.76100 34.03900
N  -1.43200 19.83300 26.20200
C  -1.96200 20.48000 27.30000
C  -2.39400 21.76600 26.94800
C  -2.10800 21.90000 25.56600
C  -1.60700 20.58400 25.09400
C  -3.06100 22.73600 27.89200
C  -2.38700 23.06400 24.68400
O  -2.11400 22.99300 23.47300
C  -2.86700 24.46100 25.25800
N  -0.66900 17.85700 24.12300
C  -0.94300 18.95900 23.31400
C  -0.73800 18.61900 21.80800
C  -0.29100 17.12200 21.95300
C  -0.53900 16.76300 23.37800
C  -1.86700 18.89900 20.79800
C  1.17300 16.74400 21.50100
C  1.22900 16.01800 20.08800
N  -0.69700 15.76000 26.12300
C  -0.64000 14.89700 25.03500
C  -0.68600 13.59200 25.44600
C  -0.81700 13.61500 26.82700
C  -0.83100 15.00300 27.21700
C  -0.75800 12.38100 24.53800
C  -0.87100 12.83800 28.04700
O  -1.06800 11.64700 28.31600
C  -1.14800 13.85600 29.22700
C  -0.18900 13.61300 30.29300
O  1.01600 13.56400 30.20800
O  -0.91500 13.45800 31.40900
C  -0.13700 13.04400 32.50900
H  -2.23000 20.48800 29.43600
H  -1.90800 20.77500 22.93800
H  -0.51800 14.73900 22.91300
H  -2.06300 16.23800 31.16300
H  -1.26700 19.06900 31.05500
H  -4.18800 18.22700 30.52800
H  -3.37100 19.45700 31.54800
H  -3.50700 17.69400 32.05900
H  0.85300 17.00100 30.85700
H  0.10900 15.69500 31.76600
H  -0.50200 18.33900 32.82200
H  1.15000 17.94000 32.83500
H  -2.74500 22.59800 28.92500
H  -4.14600 22.64500 27.95100
H  -2.85700 23.78400 27.67100
H  -2.86400 25.22100 24.47600
H  -2.08600 24.87400 25.89800
H  -3.87900 24.46100 25.66300
H  0.14500 19.14100 21.43800
H  -0.89500 16.55500 21.24500
H  -1.88500 19.96400 20.56900
H  -2.86500 18.58000 21.10000
H  -1.67700 18.38000 19.85800
H  1.58300 16.11000 22.28700
H  1.79000 17.64200 21.46600
H  2.25000 15.85800 19.74400
H  0.79800 16.64200 19.30500
H  0.72300 15.05300 20.11300
H  0.14400 12.22700 23.94500
H  -1.70000 12.53200 24.01000
H  -1.01400 11.55700 25.20400
H  -2.16000 13.65900 29.58100
H  0.31100 13.77400 33.18300
H  0.63700 12.31900 32.25600
H  -0.78900 12.46800 33.16500
Mg 30.73900 57.64400 40.48400
C  27.61500 56.11500 39.68000
C  32.32400 54.92900 39.19200
C  33.40200 59.41200 40.53000
C  28.69100 60.62100 40.97900
N  30.06300 55.69500 39.79100
C  28.78700 55.36100 39.44300
C  28.70200 54.04200 38.69400
C  30.18200 53.42900 39.01500
C  30.91000 54.75400 39.36000
C  30.36700 52.57900 40.24000
C  28.53400 54.29300 37.15500
C  28.22600 53.07100 36.28400
H  27.54100 53.27700 34.90900
N  32.69300 57.18800 39.92500
C  33.20100 56.07400 39.37900
C  34.63900 56.27800 39.15900
C  34.98700 57.55300 39.66100
C  33.68100 58.10300 39.97800
C  35.47900 55.19000 38.59700
C  36.41600 58.06500 39.82400
O  37.35300 57.32400 39.64400
C  36.70400 59.50100 40.27700
N  31.03200 59.74500 40.76400
C  32.28000 60.15800 40.77600
C  32.33900 61.59600 41.14800
C  30.85600 62.04300 41.23700
C  30.12200 60.75800 40.99200
C  33.20000 61.93700 42.32800
C  30.58700 63.13100 40.19000
C  30.81900 64.64200 40.68900
N  28.51700 58.18600 40.58600
C  27.94000 59.44300 40.73200
C  26.47600 59.36800 40.42200
C  26.29100 58.04700 39.99400
C  27.57500 57.38800 40.11300
C  25.42100 60.46800 40.52100
C  25.34200 57.02700 39.44900
O  24.18000 57.10700 39.23000
C  26.17500 55.76300 39.38800
C  25.67200 54.71300 40.30600
O  25.73200 54.77500 41.48100
O  25.23400 53.58800 39.56300
C  24.60900 52.54100 40.40400
H  32.89800 54.05100 38.88800
H  34.33100 59.97500 40.64000
H  28.12800 61.53000 41.20500
H  27.84300 53.44900 39.00600
H  30.67700 52.88200 38.21300
H  31.17000 52.76900 40.95200
H  30.63400 51.57300 39.91800
H  29.44300 52.52900 40.81600
H  29.55600 54.48100 36.82500
H  27.86400 55.13400 36.97700
H  27.55600 52.39200 36.81200
H  29.10300 52.46500 36.05900
H  36.22800 55.50000 37.86900
H  34.85900 54.46400 38.07100
H  35.94900 54.70900 39.45500
H  36.10900 60.23500 39.73300
H  37.76900 59.64400 40.09100
H  36.47800 59.52400 41.34300
H  32.80300 62.04600 40.26900
H  30.71300 62.28700 42.29000
H  33.78900 61.11100 42.72700
H  32.55500 62.35700 43.10000
H  33.96500 62.68800 42.13200
H  29.51200 62.98900 40.07500
H  31.02400 62.91000 39.21600
H  31.33900 64.79000 41.63600
H  29.78600 64.98000 40.77400
H  31.35500 65.26500 39.97300
H  25.06800 60.73800 41.51600
H  24.59300 60.21500 39.85800
H  25.93300 61.35200 40.14200
H  26.11700 55.31100 38.39800
H  25.47500 52.05900 40.85800
H  24.12000 51.79000 39.78300
H  23.86100 52.85300 41.13200

