158

Mg 24.42500 -8.37900 47.22600
C  26.69400 -6.01200 46.22900
C  22.41300 -7.35200 44.64200
C  22.36600 -11.10800 47.62000
C  26.79200 -9.84000 49.09400
N  24.52800 -6.68700 45.74400
C  25.51000 -5.80100 45.58200
C  25.13400 -4.75300 44.52800
C  23.75700 -5.25100 43.95200
C  23.51200 -6.52000 44.84100
C  22.57600 -4.20700 44.16900
C  26.20900 -4.66200 43.38300
C  26.85600 -3.26300 43.24800
H  26.60500 -2.68500 41.86200
N  22.60200 -9.00100 46.40400
C  21.95400 -8.42900 45.35700
C  20.64700 -9.05300 45.16100
C  20.59100 -10.21500 46.00100
C  21.89500 -10.21500 46.70100
C  19.65200 -8.47400 44.21100
C  19.41000 -11.21100 46.00300
O  18.40000 -10.86500 45.37900
C  19.46000 -12.46900 46.85500
N  24.61000 -10.26200 48.12700
C  23.58300 -11.14800 48.29200
C  23.93300 -12.25000 49.30900
C  25.36400 -11.79500 49.88800
C  25.58000 -10.53200 48.96100
C  22.85200 -12.56800 50.41000
C  26.51600 -12.82300 49.94600
C  26.35600 -14.21600 49.15500
N  26.35200 -8.02000 47.74800
C  27.23700 -8.70300 48.49900
C  28.45900 -7.94500 48.58400
C  28.30600 -6.90000 47.64700
C  26.98600 -7.00400 47.18800
C  29.64900 -8.27000 49.38700
C  29.04400 -5.75400 47.02700
O  30.18300 -5.34300 47.17900
C  27.98300 -5.08900 46.13400
C  27.73100 -3.65600 46.58400
O  27.07100 -3.29000 47.55100
O  28.42000 -2.81400 45.71700
C  28.32400 -1.45900 46.09900
H  21.73400 -7.00400 43.86000
H  21.73400 -11.97600 47.82200
H  27.60300 -10.19300 49.73500
H  24.95000 -3.86900 45.13800
H  23.86100 -5.51000 42.89800
H  21.90100 -4.63600 44.90900
H  22.09100 -4.08200 43.20100
H  22.92800 -3.21100 44.43700
H  25.88200 -4.95300 42.38500
H  26.99200 -5.39600 43.57200
H  27.94200 -3.31400 43.33600
H  26.44400 -2.58900 43.99900
H  18.67200 -8.85500 44.49900
H  19.77200 -8.82900 43.18700
H  19.66900 -7.38500 44.23200
H  19.67200 -12.10100 47.85900
H  20.15200 -13.20500 46.44700
H  18.48500 -12.95600 46.87700
H  23.90000 -13.15000 48.69600
H  25.09900 -11.30100 50.82300
H  23.27200 -12.52400 51.41400
H  22.47800 -13.56300 50.16700
H  22.04900 -11.83200 50.35000
H  26.60700 -13.15900 50.97800
H  27.53100 -12.47100 49.75900
H  27.35500 -14.56600 48.89600
H  25.87700 -14.13900 48.17900
H  25.88000 -14.96900 49.78300
H  29.75100 -7.63700 50.26900
H  30.51800 -8.16900 48.73700
H  29.52200 -9.28500 49.76500
H  28.36600 -5.10100 45.11400
H  28.81800 -1.25300 47.04900
H  27.29200 -1.15100 46.26600
H  28.67100 -0.77600 45.32300
Mg -4.97700 24.27600 25.90900
C  -3.44400 26.18000 28.48000
C  -6.21600 22.19800 28.42300
C  -6.65100 22.73600 23.60900
C  -3.71200 26.57800 23.64000
N  -4.91600 24.30700 28.12300
C  -4.25100 25.15700 28.91200
C  -4.65700 24.90600 30.36800
C  -5.06400 23.45200 30.38800
C  -5.41400 23.29200 28.87100
C  -4.11600 22.41800 30.92800
C  -5.67800 25.98700 30.87900
C  -5.48400 26.41200 32.29100
H  -4.92000 25.40600 33.31600
N  -6.33900 22.67200 26.07000
C  -6.58300 21.87900 27.11100
C  -7.44600 20.77500 26.67000
C  -7.59800 20.88500 25.22700
C  -6.86300 22.11100 24.91600
C  -7.97800 19.66900 27.66100
C  -8.20900 19.90600 24.20500
O  -8.30900 20.17800 23.02800
C  -8.41600 18.49700 24.77100
N  -5.19700 24.60900 23.90600
C  -6.05400 23.90300 23.15300
C  -6.16900 24.43000 21.72900
C  -5.15400 25.55400 21.70700
C  -4.69900 25.63800 23.16400
C  -5.87300 23.33200 20.64500
C  -5.65300 26.94500 21.19100
C  -4.81400 27.74800 20.23500
N  -3.75600 25.92800 25.91700
C  -3.25200 26.78800 24.94000
C  -2.55300 27.87600 25.49800
C  -2.52100 27.56000 26.86500
C  -3.32300 26.40100 27.10800
C  -1.82200 28.95800 24.85800
C  -2.00500 28.06700 28.10400
O  -1.28000 29.01800 28.44200
C  -2.66400 27.27700 29.18200
C  -1.64500 26.83000 30.21800
O  -0.54700 26.36400 29.95500
O  -2.07000 27.09200 31.49100
C  -1.09900 26.88500 32.57600
H  -6.68200 21.56300 29.18000
H  -7.12900 22.22200 22.77200
H  -3.28800 27.27200 22.91200
H  -3.78400 24.90500 31.02100
H  -5.94600 23.46200 31.02800
H  -3.39400 22.03700 30.20600
H  -4.78400 21.60100 31.20300
H  -3.59300 22.77100 31.81600
H  -6.68500 25.57700 30.80200
H  -5.60700 26.88100 30.25900
H  -6.37900 26.82800 32.75400
H  -4.81100 27.26600 32.21200
H  -8.98000 19.27800 27.48500
H  -8.11800 20.11500 28.64600
H  -7.33900 18.79800 27.80500
H  -7.45800 18.22900 25.21700
H  -8.43700 17.78200 23.94800
H  -9.32200 18.36600 25.36300
H  -7.12800 24.91100 21.53600
H  -4.28000 25.36700 21.08300
H  -5.26800 23.73700 19.83400
H  -6.80400 22.85100 20.34600
H  -5.47100 22.44500 21.13400
H  -6.00700 27.50900 22.05400
H  -6.53400 26.80400 20.56400
H  -4.83600 28.79700 20.53000
H  -5.25200 27.72500 19.23700
H  -3.72700 27.66900 20.18900
H  -0.75600 28.73300 24.88700
H  -1.94000 29.85200 25.47100
H  -2.09700 29.25800 23.84700
H  -3.38100 27.97000 29.62300
H  -0.75700 25.85900 32.71200
H  -1.70700 27.23000 33.41200
H  -0.27700 27.59300 32.67800

