158

Mg 45.77900 16.66100 28.29700
C  44.10900 16.21800 31.29500
C  47.97700 18.79200 30.13900
C  47.17700 17.77300 25.45400
C  43.17700 15.20000 26.48100
N  46.04300 17.30100 30.49400
C  45.29900 16.90700 31.55700
C  45.99300 17.23900 32.89200
C  47.10100 18.32300 32.45400
C  47.10600 18.04700 30.88000
C  46.81300 19.74600 32.84900
C  46.67100 15.99500 33.68700
C  46.48700 15.98100 35.27200
H  46.43600 17.33400 35.97000
N  47.40300 17.96500 27.88000
C  48.09600 18.78700 28.71600
C  48.99900 19.59000 27.99600
C  48.79000 19.38900 26.63400
C  47.76500 18.32100 26.60300
C  50.02600 20.51400 28.70500
C  49.39000 19.99400 25.50600
O  49.31800 19.53700 24.38300
C  50.34500 21.17600 25.58700
N  45.31300 16.37500 26.25100
C  46.11500 16.86600 25.26400
C  45.56800 16.41100 23.84800
C  44.28400 15.63400 24.20700
C  44.27200 15.65100 25.74800
C  45.31300 17.59400 22.81700
C  44.18600 14.21600 23.56000
C  44.62000 12.99700 24.32200
N  44.05100 15.79500 28.76600
C  43.03600 15.23500 27.93100
C  42.04000 14.66600 28.75900
C  42.46000 14.93600 30.05900
C  43.60800 15.74200 30.02200
C  41.00900 13.78500 28.36500
C  42.09600 14.77500 31.50300
O  40.99000 14.31400 31.88700
C  43.19300 15.50100 32.31400
C  42.59100 16.52800 33.18400
O  41.86400 17.43100 32.84500
O  42.81500 16.23300 34.50800
C  42.21300 17.19500 35.52500
H  48.64800 19.50100 30.62800
H  47.61400 17.93200 24.46500
H  42.33900 14.80400 25.90400
H  45.26800 17.66800 33.58400
H  48.07800 17.98600 32.79800
H  46.35300 20.26300 32.00800
H  47.75400 20.28300 32.96500
H  46.30600 19.88200 33.80400
H  47.69300 15.74800 33.40000
H  46.06000 15.14700 33.37700
H  47.41600 15.48000 35.54400
H  45.60200 15.36400 35.43100
H  50.92800 20.77700 28.15200
H  50.32400 20.12200 29.67700
H  49.52900 21.48400 28.73800
H  49.97000 22.04900 26.12200
H  50.63500 21.43700 24.56900
H  51.34800 20.93700 25.94100
H  46.41700 15.76600 23.62300
H  43.38800 16.22500 24.01700
H  45.87800 17.24900 21.95100
H  45.68900 18.56300 23.14300
H  44.27100 17.73700 22.52800
H  44.72100 14.18700 22.61100
H  43.13300 14.14500 23.28800
H  43.77700 12.61400 24.89700
H  45.41900 13.25400 25.01800
H  45.04800 12.26200 23.64100
H  41.40000 12.95400 27.77700
H  40.29600 14.33800 27.75500
H  40.51300 13.49500 29.29200
H  43.75100 14.79500 32.92900
H  41.14600 17.14200 35.30600
H  42.59800 18.18400 35.27500
H  42.42800 16.86900 36.54200
Mg 47.12900 25.58700 28.04700
C  48.20500 27.42000 30.81100
C  46.15300 23.02000 30.20500
C  45.98900 23.90600 25.42300
C  48.48900 28.08000 25.98200
N  47.18000 25.30700 30.25000
C  47.67000 26.15900 31.16000
C  47.43900 25.71800 32.59800
C  47.02300 24.23800 32.37500
C  46.73600 24.16800 30.87600
C  48.03300 23.22200 32.93200
C  46.42100 26.60700 33.36600
C  46.93800 27.32600 34.62800
H  46.02100 27.38800 35.87300
N  46.29100 23.65600 27.83100
C  45.93600 22.75800 28.81900
C  45.19700 21.66600 28.16600
C  45.25100 21.84900 26.76000
C  45.93000 23.18000 26.59800
C  44.64200 20.58700 28.95000
C  44.69800 20.94400 25.60000
O  44.96000 21.21600 24.44900
C  43.81600 19.79900 25.92300
N  47.42600 25.82400 26.01500
C  46.82700 24.97100 25.10700
C  46.99200 25.49100 23.69000
C  47.70900 26.78600 23.89000
C  47.82000 26.96400 25.42500
C  47.53400 24.65700 22.55600
C  47.06200 27.95000 23.10000
C  48.03700 28.71200 22.19100
N  48.04900 27.43200 28.29600
C  48.62400 28.38800 27.31900
C  49.25200 29.47300 28.07000
C  49.11500 29.07100 29.38900
C  48.32900 27.90300 29.46800
C  49.91800 30.54600 27.38800
C  49.46000 29.44600 30.69600
O  50.05100 30.45700 31.14300
C  48.80100 28.52000 31.65200
C  49.86300 27.98200 32.43700
O  50.58300 27.06800 32.16500
O  49.94600 28.61000 33.67800
C  51.01400 28.14400 34.53200
H  45.68200 22.30000 30.87800
H  45.47300 23.44500 24.57800
H  48.83900 28.90700 25.36000
H  48.42100 25.82400 33.05900
H  46.09100 24.13200 32.93100
H  48.59700 22.76700 32.11800
H  47.61300 22.40600 33.52100
H  48.74200 23.60900 33.66400
H  45.45500 26.16400 33.61000
H  46.14900 27.43300 32.71000
H  47.13900 28.36600 34.37200
H  47.85000 26.84100 34.97500
H  45.13600 19.69100 28.57400
H  43.56800 20.45300 28.82200
H  44.93100 20.68200 29.99700
H  44.34800 19.00900 26.45300
H  43.53800 19.31900 24.98500
H  42.86900 20.05500 26.39900
H  45.94400 25.64400 23.43500
H  48.73000 26.75500 23.51100
H  47.80700 23.66600 22.91800
H  48.46200 25.10800 22.20500
H  46.84400 24.66200 21.71200
H  46.60300 28.74900 23.68200
H  46.23000 27.58900 22.49500
H  47.52000 29.04700 21.29300
H  48.80600 28.08600 21.73800
H  48.50300 29.55700 22.69800
H  49.42400 30.74300 26.43700
H  50.95900 30.28000 27.20800
H  49.76200 31.47600 27.93600
H  48.13700 29.14400 32.25100
H  52.00100 28.35300 34.12000
H  50.87800 27.06900 34.65000
H  50.93500 28.54000 35.54400

