158

Mg 55.28800 23.95100 44.64600
C  52.67700 26.24300 43.94400
C  53.22600 21.55300 43.39200
C  57.89300 21.91400 44.57200
C  57.42100 26.75600 44.92800
N  53.27200 23.94400 43.78300
C  52.30700 24.93200 43.67200
C  50.96700 24.37200 43.12400
C  51.12100 22.84500 43.36700
C  52.59900 22.76600 43.57800
C  50.20600 22.26800 44.47000
C  50.64000 24.81100 41.66800
C  49.19800 25.28400 41.30900
H  48.63100 24.54800 40.07700
N  55.50600 22.03700 44.02000
C  54.49800 21.17500 43.61300
C  55.02300 19.80200 43.58400
C  56.37800 19.85800 44.09200
C  56.67900 21.27900 44.19900
C  54.12300 18.55000 43.32500
C  57.36600 18.69800 44.50300
O  56.92100 17.57000 44.76300
C  58.74200 18.89700 44.89400
N  57.36000 24.33100 44.70100
C  58.20500 23.23000 44.75000
C  59.64700 23.67200 45.06800
C  59.50500 25.24200 45.07800
C  58.03200 25.50700 44.81700
C  60.27200 23.03800 46.30300
C  60.59900 26.00900 44.28600
C  61.88000 26.28700 45.15100
N  55.08500 26.08800 44.81600
C  56.03500 27.07900 44.83900
C  55.39200 28.34300 44.86200
C  54.04900 28.05900 44.54400
C  53.94200 26.67000 44.42400
C  56.02200 29.64900 45.02400
C  52.74000 28.63500 44.37000
O  52.41900 29.84500 44.36800
C  51.80300 27.46200 43.74900
C  51.72500 27.88600 42.29600
O  52.57500 27.66500 41.43200
O  50.59900 28.57200 42.02500
C  50.29000 28.77800 40.63200
H  52.55400 20.71200 43.20400
H  58.78800 21.30300 44.70400
H  58.05000 27.62700 45.12100
H  50.20100 24.70300 43.82600
H  50.96000 22.13800 42.55300
H  49.26800 21.88900 44.06300
H  49.85900 23.04900 45.14700
H  50.66800 21.49900 45.08900
H  50.91000 23.93700 41.07500
H  51.29900 25.67100 41.55200
H  49.14300 26.35100 41.09400
H  48.57400 25.12700 42.18900
H  54.56300 17.84600 42.61900
H  53.09500 18.86400 43.14200
H  54.10000 17.93200 44.22300
H  59.19400 19.24900 43.96700
H  59.22400 17.96700 45.19300
H  58.70600 19.61800 45.71100
H  60.11800 23.28700 44.16400
H  59.67100 25.70700 46.05000
H  59.43600 22.58600 46.83500
H  60.73200 23.78700 46.94700
H  60.95500 22.22600 46.05000
H  60.20300 26.97200 43.96600
H  60.85700 25.40600 43.41500
H  62.63600 25.68200 44.65100
H  61.78000 25.82200 46.13100
H  62.23900 27.31400 45.07600
H  56.65800 29.76400 45.90200
H  55.17900 30.33800 44.97300
H  56.54900 29.82400 44.08600
H  50.87000 27.59100 44.29600
H  50.66200 27.95300 40.02400
H  50.76700 29.64900 40.18200
H  49.20900 28.84400 40.51500
Mg 48.36800 45.25800 42.42000
C  45.10800 45.82600 40.95300
C  48.33500 42.26300 40.97200
C  51.67800 45.34700 42.44300
C  48.15700 48.61700 43.51400
N  46.92700 44.26600 40.97700
C  45.58800 44.57900 40.58600
C  44.88000 43.43900 39.84500
C  45.81700 42.23700 40.23300
C  47.16200 42.92600 40.78300
C  45.24200 41.27900 41.34900
C  44.70900 43.82500 38.36800
C  43.52700 43.20800 37.68800
H  43.75900 42.70200 36.24800
N  49.81700 43.90400 42.00200
C  49.55300 42.66100 41.34200
C  50.86000 41.94000 41.19300
C  51.84900 42.90400 41.69500
C  51.13800 44.12400 42.01700
C  51.09100 40.66600 40.66400
C  53.30600 42.60100 41.92600
O  53.75200 41.51200 41.58400
C  54.28700 43.48600 42.58900
N  49.66600 46.75800 42.88300
C  50.99300 46.51000 42.92000
C  51.78300 47.77500 43.40400
C  50.67900 48.70000 43.80200
C  49.39500 47.96200 43.48100
C  52.93100 47.60100 44.43300
C  50.73200 50.03500 43.15900
C  50.41300 51.23200 44.14100
N  46.93900 46.90900 42.31500
C  46.98100 48.16800 42.87900
C  45.74500 48.88900 42.63800
C  44.98700 47.92400 41.91600
C  45.79000 46.79500 41.71300
C  45.45300 50.32500 43.00500
C  43.65100 47.69100 41.30000
O  42.67700 48.48000 41.23400
C  43.72600 46.34500 40.62800
C  42.62500 45.62400 41.36600
O  41.72200 45.00300 40.89100
O  42.88300 45.79000 42.75000
C  42.01000 44.94500 43.54700
H  48.25700 41.22500 40.64200
H  52.76900 45.34500 42.39600
H  48.16600 49.62700 43.93100
H  43.91600 43.27200 40.32700
H  45.93100 41.58100 39.37000
H  44.62900 41.89500 42.00600
H  45.98800 40.68000 41.87100
H  44.55500 40.53200 40.95000
H  45.58500 43.39400 37.88300
H  44.79400 44.88200 38.11700
H  42.74900 43.97000 37.63900
H  43.06600 42.39500 38.24800
H  50.10400 40.23900 40.48400
H  51.65300 40.14900 41.44200
H  51.58800 40.76800 39.70000
H  53.84900 43.87200 43.50900
H  54.55600 44.27000 41.88000
H  55.15200 42.86900 42.83200
H  52.22200 48.09300 42.45800
H  50.68500 48.87400 44.87800
H  52.98200 46.56200 44.75700
H  53.01500 48.22400 45.32300
H  53.89500 47.71400 43.93800
H  49.99500 50.11100 42.35900
H  51.74300 50.15100 42.77000
H  49.63700 51.08600 44.89200
H  50.12500 52.07400 43.51200
H  51.30000 51.34800 44.76500
H  45.92700 51.09200 42.39200
H  45.82300 50.44500 44.02300
H  44.38300 50.52900 43.01800
H  43.42700 46.39900 39.58100
H  41.61300 44.07800 43.01700
H  41.20800 45.56900 43.94100
H  42.59000 44.66100 44.42500

