158

Mg 54.40500 24.30000 45.99400
C  51.54200 26.26100 45.10800
C  52.67500 21.53200 45.08900
C  57.26300 22.71700 45.85400
C  56.10600 27.38300 46.60900
N  52.45100 23.96100 44.87000
C  51.43900 24.87300 44.72100
C  50.18300 24.20500 44.28100
C  50.43600 22.68800 44.65100
C  51.94000 22.71500 44.93200
C  49.60100 22.46900 45.94800
C  49.91200 24.46200 42.77900
C  48.40000 24.90700 42.48000
H  47.53100 23.90300 41.81600
N  54.95100 22.32300 45.56800
C  54.06900 21.33000 45.24600
C  54.78600 20.10700 45.07800
C  56.12400 20.44600 45.16700
C  56.18600 21.86700 45.52700
C  54.22200 18.74100 44.57900
C  57.32100 19.49900 45.08700
O  57.07600 18.32300 44.89600
C  58.77500 19.85600 45.24000
N  56.38400 24.94200 46.27500
C  57.43400 24.06400 46.22700
C  58.78300 24.68400 46.52800
C  58.45700 26.22000 46.69900
C  56.86700 26.19500 46.50300
C  59.49500 24.03200 47.76100
C  59.12900 27.24200 45.65000
C  59.53300 28.58600 46.30500
N  53.96000 26.39700 46.06600
C  54.73700 27.44200 46.37200
C  53.82800 28.64200 46.36600
C  52.62400 28.18800 45.98100
C  52.76900 26.80800 45.74900
C  54.14300 30.12000 46.54600
C  51.27300 28.60700 45.55300
O  50.77600 29.69100 45.54000
C  50.52000 27.38400 44.96000
C  50.16900 27.73200 43.60000
O  50.98600 28.00700 42.74400
O  48.80100 27.91700 43.55200
C  48.32400 28.56800 42.33400
H  52.11200 20.61900 44.88500
H  58.22900 22.25800 45.63100
H  56.70000 28.28800 46.74900
H  49.45200 24.78600 44.84300
H  50.25900 21.96400 43.85500
H  50.21300 22.14400 46.79000
H  48.84700 21.75900 45.60700
H  49.18200 23.40700 46.31200
H  49.87900 23.53400 42.20900
H  50.61200 25.18200 42.35500
H  48.46500 25.73700 41.77600
H  47.82700 25.23600 43.34600
H  54.12600 17.99400 45.36700
H  54.94300 18.35800 43.85700
H  53.27500 18.78800 44.04100
H  59.05300 20.49400 44.40100
H  59.33100 18.92800 45.10900
H  59.04400 20.24100 46.22300
H  59.53700 24.63500 45.74300
H  58.50000 26.35600 47.78000
H  58.93300 23.09900 47.80200
H  59.42000 24.55000 48.71700
H  60.50500 23.80200 47.42300
H  58.48200 27.41700 44.79100
H  60.00300 26.84500 45.13400
H  60.52000 28.98800 46.07500
H  59.38700 28.66900 47.38200
H  58.86800 29.37200 45.94700
H  53.70100 30.83800 45.85600
H  55.22900 30.21800 46.52400
H  54.04000 30.52400 47.55300
H  49.63100 27.15800 45.54800
H  47.24900 28.74400 42.31300
H  48.46700 28.08700 41.36700
H  48.79500 29.54700 42.25100
Mg -4.87900 24.81000 26.54900
C  -3.34800 26.46200 29.00100
C  -5.76400 22.32700 28.73700
C  -6.52900 23.18600 24.00800
C  -3.28900 26.83100 24.08000
N  -4.52200 24.39400 28.64000
C  -3.98200 25.31500 29.46400
C  -4.19700 24.82900 30.92200
C  -4.60300 23.38200 30.78800
C  -4.98500 23.35000 29.32400
C  -3.58400 22.36600 31.12100
C  -5.23000 25.76200 31.71300
C  -4.98800 25.86900 33.27900
H  -5.00100 24.54300 34.02000
N  -6.13500 23.11700 26.42300
C  -6.29600 22.19400 27.44500
C  -7.27900 21.24300 27.06900
C  -7.57400 21.46400 25.65500
C  -6.77000 22.64300 25.28300
C  -7.94400 20.15300 28.00800
C  -8.51200 20.73600 24.73600
O  -8.77100 21.23800 23.61000
C  -9.29700 19.50600 25.14400
N  -4.93100 24.99900 24.39200
C  -5.71800 24.21200 23.59500
C  -5.50400 24.47900 22.08400
C  -4.47300 25.66000 22.08400
C  -4.26400 25.85100 23.58500
C  -5.00200 23.17600 21.35000
C  -4.77300 26.79500 21.18300
C  -3.98800 26.72100 19.97700
N  -3.45500 26.23300 26.50500
C  -2.91100 26.96900 25.44100
C  -2.05500 27.96400 26.02900
C  -2.25600 27.87800 27.38400
C  -3.05600 26.74000 27.64600
C  -1.33100 29.05000 25.30800
C  -1.94700 28.44500 28.71900
O  -1.23700 29.42800 28.95400
C  -2.60400 27.55900 29.82500
C  -1.51400 27.10700 30.74500
O  -0.42000 26.72100 30.48100
O  -1.92700 27.34800 32.04400
C  -0.87000 27.08500 33.05900
H  -6.12300 21.58600 29.45400
H  -6.98100 22.64300 23.17500
H  -2.70400 27.39000 23.34600
H  -3.21200 24.89500 31.38400
H  -5.42800 23.13800 31.45800
H  -4.20200 21.57600 31.54600
H  -2.86600 22.69300 31.87300
H  -3.18200 21.86900 30.23900
H  -6.19800 25.28200 31.57100
H  -5.34600 26.78600 31.35700
H  -5.85200 26.41400 33.66100
H  -4.02300 26.35800 33.40500
H  -9.00900 20.35600 28.12400
H  -7.60900 20.07500 29.04300
H  -7.94800 19.15400 27.57100
H  -10.15500 19.19100 24.55000
H  -9.80100 19.79900 26.06600
H  -8.50500 18.79200 25.36900
H  -6.46300 24.79100 21.67000
H  -3.51400 25.16500 21.93100
H  -4.39400 22.55900 22.01200
H  -4.35100 23.30300 20.48500
H  -5.92500 22.64000 21.12700
H  -4.39700 27.62200 21.78600
H  -5.81800 26.91600 20.89700
H  -3.38600 25.81900 19.87100
H  -3.33300 27.58700 20.06900
H  -4.63300 26.93200 19.12400
H  -0.38700 28.68300 24.90600
H  -1.12400 29.84100 26.02900
H  -1.87300 29.50800 24.48000
H  -3.35700 28.20400 30.27700
H  -1.18000 27.44600 34.03900
H  0.09900 27.57500 32.96500
H  -0.86800 26.02200 33.30300

