158

Mg 0.32700 43.33500 26.48900
C  2.62800 42.73100 29.24900
C  -2.17600 41.94100 28.47900
C  -1.65300 43.53400 23.93600
C  3.12800 43.74400 24.50400
N  0.23400 42.52400 28.52300
C  1.24100 42.54900 29.48000
C  0.62200 42.44500 30.90800
C  -0.79600 41.86100 30.53900
C  -0.92700 42.09400 29.04600
C  -1.18600 40.41900 30.95400
C  0.70200 43.78700 31.72000
C  1.17800 43.69300 33.15500
H  0.64100 42.53600 34.06400
N  -1.75900 42.94300 26.21800
C  -2.64800 42.30400 27.15700
C  -3.95900 42.25900 26.54500
C  -3.82400 42.79500 25.24100
C  -2.36900 43.08900 25.05100
C  -5.23000 41.77800 27.27200
C  -4.87600 42.90600 24.19800
O  -4.57700 43.15400 22.99900
C  -6.29500 42.79600 24.61300
N  0.72600 43.52500 24.45900
C  -0.33000 43.82300 23.66600
C  0.14500 44.29100 22.29300
C  1.65600 44.39300 22.41700
C  1.90000 43.87500 23.88800
C  -0.32500 43.38400 21.08100
C  2.15400 45.84800 22.22900
C  2.20900 46.83400 23.41800
N  2.40900 43.29900 26.73100
C  3.41900 43.45300 25.84100
C  4.72000 43.30000 26.52200
C  4.43700 43.08900 27.88200
C  3.03300 42.98800 27.92600
C  6.05900 43.17200 25.74100
C  5.07300 42.84100 29.16800
O  6.29200 42.92000 29.48200
C  3.87600 42.76800 30.16200
C  4.01100 41.51300 30.98400
O  4.42900 40.46200 30.57800
O  3.74900 41.77600 32.30600
C  3.96700 40.64700 33.18400
H  -3.01100 41.61600 29.10400
H  -2.29800 43.68400 23.06800
H  4.02600 43.97000 23.92500
H  1.15800 41.60400 31.34900
H  -1.57500 42.50400 30.94900
H  -2.10000 40.50200 31.54200
H  -0.53300 40.04000 31.73900
H  -1.20000 39.65700 30.17400
H  -0.25100 44.31600 31.74200
H  1.45500 44.39300 31.21500
H  0.93800 44.64600 33.62500
H  2.26400 43.61100 33.10700
H  -4.83100 41.22800 28.12400
H  -5.65700 40.90000 26.78700
H  -5.86100 42.60300 27.60400
H  -6.55100 41.76400 24.85400
H  -6.90500 43.19300 23.80200
H  -6.52700 43.48700 25.42300
H  -0.27800 45.26700 22.05600
H  2.16400 43.81600 21.64400
H  -0.85300 42.46500 21.33400
H  0.48800 43.08200 20.42100
H  -1.01500 44.01700 20.52400
H  1.59700 46.31100 21.41500
H  3.17100 45.69100 21.87000
H  3.19900 46.85200 23.87200
H  1.39700 46.57800 24.09900
H  2.04800 47.84500 23.04500
H  6.85500 42.70700 26.32200
H  6.40500 44.15800 25.43200
H  5.94600 42.50600 24.88600
H  3.80300 43.66400 30.77900
H  3.78000 40.92100 34.22300
H  4.97000 40.22100 33.15900
H  3.32400 39.79700 32.95500
Mg -9.67400 17.37800 42.43300
C  -6.20400 17.28200 42.54800
C  -9.49500 20.73000 41.96800
C  -13.11200 17.41800 42.14100
C  -9.81700 13.96300 42.94600
N  -7.98500 18.84200 42.28900
C  -6.70200 18.57300 42.36000
C  -5.82400 19.81300 42.32300
C  -6.89500 20.92600 42.39900
C  -8.24800 20.13300 42.27500
C  -6.70700 21.86700 43.61800
C  -4.92800 20.01600 41.07800
C  -5.47300 19.81000 39.70900
H  -4.97400 18.76200 38.76900
N  -11.11000 18.86400 41.96500
C  -10.78000 20.15500 41.71300
C  -12.01100 20.86700 41.40200
C  -13.17000 19.97000 41.62900
C  -12.48800 18.64600 41.88500
C  -12.08600 22.39100 41.13700
C  -14.58400 20.32500 41.60000
O  -14.91600 21.45500 41.17500
C  -15.71400 19.38700 42.00500
N  -11.31900 15.79200 42.27800
C  -12.61400 16.13400 42.36300
C  -13.50400 14.84500 42.71900
C  -12.34100 13.85200 43.19400
C  -11.10400 14.58800 42.73400
C  -14.58100 15.11400 43.74600
C  -12.39900 12.42200 42.42000
C  -12.31400 11.18400 43.34400
N  -8.30500 15.89500 42.68900
C  -8.50100 14.51900 42.74600
C  -7.22200 13.90600 42.84500
C  -6.27100 14.92700 42.79600
C  -6.99000 16.11600 42.70000
C  -6.89800 12.48600 42.94500
C  -4.85100 15.24400 42.83900
O  -3.86600 14.54500 42.86900
C  -4.75500 16.73400 42.77500
C  -4.17100 17.27700 43.95300
O  -3.16500 17.95400 44.01700
O  -4.85300 16.82500 45.07700
C  -4.29200 17.29300 46.37800
H  -9.48700 21.82000 41.90300
H  -14.20000 17.33200 42.11300
H  -9.89200 12.93300 43.30200
H  -5.09200 19.88300 43.12800
H  -6.92600 21.58400 41.53000
H  -6.06700 22.69400 43.31200
H  -6.03400 21.41000 44.34400
H  -7.61600 22.21800 44.10600
H  -4.09400 19.35600 41.31900
H  -4.45400 20.99800 41.07700
H  -5.23000 20.79900 39.31900
H  -6.56200 19.83800 39.72200
H  -12.53000 22.81600 42.03700
H  -12.67500 22.61400 40.24700
H  -11.09300 22.73800 40.85300
H  -15.91600 18.61800 41.26000
H  -16.60500 20.00100 42.13800
H  -15.54400 18.92700 42.97900
H  -13.94100 14.35400 41.84900
H  -12.39800 13.69800 44.27200
H  -14.59200 16.12300 44.15800
H  -14.56600 14.51800 44.65800
H  -15.54100 15.07600 43.22900
H  -11.57600 12.52200 41.71300
H  -13.32000 12.41500 41.83600
H  -11.47100 10.58500 43.00100
H  -13.16700 10.50800 43.28900
H  -12.03300 11.41000 44.37300
H  -7.70300 11.76900 43.10600
H  -6.21400 12.30300 43.77400
H  -6.34600 12.19100 42.05300
H  -4.14000 16.93700 41.89800
H  -3.20200 17.29200 46.35000
H  -4.46100 16.52900 47.13600
H  -4.58900 18.27600 46.74200

