158

Mg 2.04800 42.24400 26.37600
C  3.35300 42.15000 29.51900
C  -0.89500 40.87600 27.47600
C  0.95900 42.00600 23.08300
C  5.05500 43.49300 25.16800
N  1.31600 41.69400 28.25400
C  1.99400 41.81000 29.46100
C  1.04900 41.53000 30.69000
C  -0.26300 41.02500 29.95200
C  0.09900 41.22400 28.47700
C  -0.65400 39.59100 30.34700
C  0.77100 42.80200 31.58900
C  1.35100 42.65300 33.04800
H  1.06900 41.35500 33.79300
N  0.28800 41.46100 25.41500
C  -0.86400 41.01200 26.07800
C  -1.83800 40.72900 25.14600
C  -1.32800 41.00500 23.88200
C  0.04200 41.55000 24.03600
C  -3.11300 40.02800 25.66100
C  -2.05900 40.89300 22.42200
O  -1.65700 41.50800 21.41200
C  -3.45100 40.30200 22.42100
N  2.95400 42.53500 24.41200
C  2.26400 42.51700 23.23900
C  3.09300 43.06400 22.04500
C  4.25300 43.74000 22.83300
C  4.10000 43.22700 24.23900
C  3.62400 41.85000 21.23200
C  4.28800 45.24400 22.60300
C  4.66000 45.85800 21.16600
N  3.86900 42.63900 27.15300
C  4.99600 43.19000 26.54100
C  5.99900 43.41100 27.52600
C  5.40800 43.01700 28.72400
C  4.10400 42.56300 28.40900
C  7.43900 43.95400 27.35200
C  5.53000 42.89100 30.11600
O  6.52800 43.13600 30.84900
C  4.23400 42.31400 30.67600
C  4.56800 41.02000 31.36700
O  4.87400 39.95700 30.83600
O  4.73200 41.27600 32.70400
C  5.00800 40.08000 33.51900
H  -1.80100 40.47800 27.93800
H  0.71600 41.92800 22.02100
H  6.00700 43.89600 24.81700
H  1.55500 40.76100 31.27400
H  -1.12100 41.64200 30.22000
H  -1.73700 39.55600 30.46400
H  -0.23200 39.38000 31.33000
H  -0.26500 38.84000 29.66000
H  -0.29400 42.91900 31.79100
H  1.24600 43.62900 31.06100
H  1.04500 43.58500 33.52300
H  2.43500 42.75600 32.99100
H  -2.98500 39.43600 26.56700
H  -3.37300 39.33300 24.86300
H  -4.00100 40.62200 25.88100
H  -4.12400 40.97600 22.95100
H  -3.37400 39.31600 22.87700
H  -3.78000 40.08700 21.40400
H  2.59200 43.88400 21.53100
H  5.21900 43.33300 22.53400
H  4.46200 42.02700 20.55700
H  2.83600 41.61000 20.51800
H  3.67400 40.91200 21.78400
H  5.13700 45.59000 23.19200
H  3.38700 45.72600 22.98100
H  4.49600 44.97000 20.55600
H  5.69400 46.15800 20.99600
H  3.91400 46.62800 20.96900
H  8.19300 43.21600 27.62900
H  7.57900 44.76600 28.06500
H  7.58700 44.32400 26.33800
H  3.96200 43.15300 31.31600
H  4.40200 40.16900 34.42000
H  6.07400 39.97300 33.72200
H  4.67000 39.15300 33.05600
Mg -11.86000 15.64300 41.25100
C  -8.74700 13.99200 40.86900
C  -10.27400 18.33700 39.77200
C  -14.77200 17.04900 40.98200
C  -13.21600 12.57100 42.07500
N  -9.69800 16.10000 40.65600
C  -8.59600 15.27900 40.46400
C  -7.40800 15.95300 39.86400
C  -7.87900 17.44500 39.89300
C  -9.40300 17.34300 40.13900
C  -7.11100 18.23100 41.07900
C  -7.11900 15.44100 38.42100
C  -5.64700 15.28900 38.04100
H  -5.23500 15.89500 36.68100
N  -12.42900 17.53900 40.64100
C  -11.64500 18.43900 40.00300
C  -12.46800 19.57800 39.70000
C  -13.80400 19.28100 40.10700
C  -13.72300 17.92100 40.68100
C  -11.89100 20.84600 39.02100
C  -15.00100 20.17800 39.91600
O  -15.00000 21.25200 39.37500
C  -16.36000 19.71400 40.39200
N  -13.71400 14.93200 41.39100
C  -14.77300 15.70500 41.31100
C  -16.11400 14.87400 41.37900
C  -15.58700 13.43200 41.79200
C  -14.07000 13.64000 41.73600
C  -17.24000 15.38700 42.27600
C  -16.03600 12.31300 40.88400
C  -17.06200 11.33200 41.39300
N  -11.11200 13.68600 41.67900
C  -11.78900 12.50800 41.95100
C  -10.87400 11.40200 42.08700
C  -9.69200 11.98700 41.63500
C  -9.89900 13.35200 41.36000
C  -11.23600 10.02300 42.52500
C  -8.25200 11.72200 41.38300
O  -7.62100 10.69200 41.47100
C  -7.62000 12.97300 40.85700
C  -6.54500 13.37700 41.85500
O  -6.67700 13.81900 42.94800
O  -5.32700 12.99300 41.35600
C  -4.18900 13.23900 42.25600
H  -9.79800 19.23300 39.36800
H  -15.78500 17.45800 40.97600
H  -13.79900 11.73000 42.45700
H  -6.55100 15.92800 40.53700
H  -7.60700 17.99700 38.99400
H  -6.51500 17.51700 41.64800
H  -7.80600 18.67900 41.78900
H  -6.51400 19.08400 40.75800
H  -7.60900 16.19000 37.79900
H  -7.66400 14.52000 38.21200
H  -5.43900 14.22200 38.11900
H  -5.02100 15.79900 38.77300
H  -12.58600 21.33100 38.33500
H  -11.05200 20.49500 38.42000
H  -11.56600 21.56000 39.77700
H  -16.79300 18.99300 39.70000
H  -16.95400 20.62800 40.39700
H  -16.20300 19.31800 41.39500
H  -16.47200 14.87000 40.34900
H  -15.87000 13.21900 42.82300
H  -16.94600 16.29300 42.80600
H  -17.51900 14.55300 42.92000
H  -18.05400 15.65800 41.60300
H  -15.21300 11.83700 40.35100
H  -16.58600 12.68900 40.02100
H  -17.52400 11.79400 42.26600
H  -16.56300 10.39600 41.64500
H  -17.82000 11.00600 40.68200
H  -10.34100 9.43200 42.71800
H  -11.87900 9.60600 41.75000
H  -11.80600 10.18900 43.44000
H  -7.20900 12.71000 39.88200
H  -4.30100 12.72100 43.20900
H  -4.26700 14.30900 42.44900
H  -3.24200 12.92300 41.82000

