158

Mg 8.42500 3.05600 27.42200
C  9.34900 1.45500 30.29700
C  6.50000 5.15100 29.28400
C  7.00400 4.39300 24.59100
C  9.77200 0.50000 25.59800
N  8.02200 3.23600 29.54100
C  8.62700 2.59000 30.54000
C  8.18500 3.16500 31.94500
C  7.05100 4.11500 31.59200
C  7.15700 4.14600 30.04800
C  5.65200 3.79600 32.21600
C  9.36600 3.70100 32.86200
C  8.82600 4.43600 34.16500
H  9.74000 4.25400 35.40700
N  7.14500 4.70000 26.94400
C  6.48700 5.39300 27.90000
C  5.83700 6.46000 27.26100
C  6.03900 6.40800 25.86400
C  6.71400 5.12100 25.72500
C  4.95600 7.42400 28.02200
C  5.64900 7.40400 24.80500
O  5.74600 7.16600 23.62400
C  5.14700 8.81200 25.20200
N  8.27200 2.46800 25.38400
C  7.59500 3.13700 24.40200
C  7.90500 2.57600 22.98800
C  8.72500 1.25800 23.41300
C  8.97400 1.38900 24.92800
C  6.56900 2.28100 22.20500
C  10.04100 1.27300 22.59900
C  10.67400 -0.07000 22.16500
N  9.37700 1.37600 27.86200
C  9.90400 0.45000 27.00600
C  10.66300 -0.64000 27.75400
C  10.41300 -0.23900 29.13700
C  9.68300 0.95600 29.08500
C  11.36900 -1.81900 27.20800
C  10.59100 -0.55600 30.52300
O  11.21100 -1.54700 30.97200
C  9.81700 0.53700 31.38400
C  8.73600 -0.14100 32.12300
O  7.56800 -0.21000 31.74100
O  9.19900 -0.67000 33.30100
C  8.25100 -1.57400 33.98400
H  5.91200 5.86100 29.87100
H  6.61900 4.79100 23.65000
H  10.23500 -0.25700 24.96100
H  7.76300 2.29700 32.45000
H  7.36100 5.13400 31.82000
H  4.90900 3.54300 31.46000
H  5.23800 4.50300 32.93500
H  5.78300 3.01100 32.96100
H  9.97500 4.39300 32.27900
H  9.88400 2.79600 33.18000
H  7.86500 3.94300 34.30900
H  8.73700 5.49800 33.93900
H  5.50200 8.36500 28.09100
H  4.56000 7.06200 28.97100
H  4.09400 7.58900 27.37500
H  4.13000 8.80400 25.59400
H  5.08200 9.49000 24.35000
H  5.75900 9.19900 26.01700
H  8.49700 3.35900 22.51600
H  8.12800 0.37600 23.18300
H  6.36100 3.10000 21.51700
H  5.80500 1.99500 22.92900
H  6.76700 1.37200 21.63700
H  10.80300 1.78600 23.18400
H  10.00900 1.85000 21.67500
H  10.86700 -0.06900 21.09200
H  10.19900 -1.02200 22.40300
H  11.70600 -0.11200 22.51400
H  11.62400 -1.68500 26.15700
H  10.74600 -2.70700 27.31300
H  12.28300 -1.99900 27.77400
H  10.56000 1.05700 31.98900
H  8.17900 -2.45500 33.34500
H  7.22700 -1.20200 33.93300
H  8.58800 -1.95500 34.94800
Mg 44.15400 4.39600 46.87000
C  42.11200 7.26300 46.68900
C  41.49900 2.38700 46.39200
C  46.29300 1.95300 46.08900
C  47.07900 6.67700 47.00500
N  42.05600 4.84400 46.65600
C  41.37500 6.02800 46.52600
C  39.91400 5.83500 46.16700
C  39.79300 4.26400 46.55600
C  41.20500 3.75600 46.50100
C  39.07300 3.84900 47.83800
C  39.51400 6.05000 44.67800
C  37.92600 5.93800 44.43100
H  37.37100 5.71600 43.02200
N  43.85200 2.42400 46.35400
C  42.71700 1.77400 46.34500
C  43.01100 0.34500 46.10800
C  44.37600 0.17300 46.00300
C  44.93700 1.53500 46.19800
C  41.94100 -0.77700 45.96100
C  45.11400 -1.14000 45.70300
O  44.49200 -2.18700 45.70400
C  46.49300 -1.20100 45.21600
N  46.36000 4.33700 46.46200
C  46.91800 3.13800 46.19200
C  48.50000 3.24500 46.25300
C  48.79700 4.71800 46.52800
C  47.35000 5.31100 46.67500
C  49.27400 2.29200 47.13200
C  49.69300 5.34200 45.47100
C  50.45500 6.55000 46.01900
N  44.57300 6.55500 47.00800
C  45.78400 7.28100 47.03700
C  45.37300 8.68200 47.20900
C  44.00000 8.70700 47.00200
C  43.53900 7.40500 46.90200
C  46.27100 9.84300 47.45700
C  42.83500 9.57400 46.82700
O  42.74400 10.76400 46.96900
C  41.51100 8.62000 46.66400
C  40.58100 8.76600 47.84900
O  40.38300 8.00000 48.78100
O  39.83100 9.93300 47.63200
C  38.76600 9.97900 48.67300
H  40.59600 1.77200 46.41100
H  47.03100 1.15300 46.00400
H  47.95400 7.30700 47.17900
H  39.32800 6.44900 46.85100
H  39.38500 3.78500 45.66500
H  38.69600 4.75300 48.31700
H  39.78700 3.40100 48.53000
H  38.25600 3.17700 47.57700
H  40.07200 5.36500 44.04000
H  39.74500 7.10300 44.51400
H  37.45700 6.85500 44.78800
H  37.60700 5.15800 45.12300
H  41.89400 -1.42100 45.08300
H  41.01500 -0.20300 45.91400
H  41.75600 -1.35200 46.86800
H  46.57200 -0.49100 44.39300
H  46.72200 -2.18600 44.81100
H  47.17900 -1.00200 46.03900
H  48.86300 3.11100 45.23400
H  49.33900 4.73800 47.47400
H  49.53400 1.43200 46.51600
H  48.60000 2.02100 47.94500
H  50.17000 2.73700 47.56300
H  48.91800 5.69800 44.79200
H  50.29100 4.71300 44.81200
H  49.99100 7.46900 45.66000
H  51.47200 6.36200 45.67600
H  50.54400 6.55400 47.10600
H  46.50400 9.82900 48.52200
H  45.87700 10.79200 47.09500
H  47.19900 9.65600 46.91600
H  40.87700 8.77900 45.79200
H  38.22100 9.04600 48.53100
H  38.10800 10.79400 48.37000
H  39.08500 10.10000 49.70800

