158

Mg -2.40400 17.19800 27.04200
C  -2.64600 14.68100 29.65100
C  -2.71500 19.58400 29.30000
C  -2.51500 19.37900 24.52100
C  -2.57800 14.48700 24.72600
N  -2.59500 17.03600 29.18500
C  -2.65000 15.97400 30.15400
C  -2.88400 16.61200 31.51000
C  -2.92600 18.17400 31.33400
C  -2.72000 18.25800 29.81100
C  -4.17700 18.88300 31.99100
C  -1.83300 16.15000 32.51400
C  -1.44000 16.94100 33.65300
H  -0.88600 16.17000 34.83400
N  -2.45600 19.22900 26.87800
C  -2.50900 20.06900 27.96100
C  -2.39500 21.43900 27.60200
C  -2.42600 21.43600 26.17600
C  -2.47200 19.98000 25.78400
C  -2.37600 22.56000 28.61600
C  -2.34500 22.55400 25.12200
O  -2.38900 22.39400 23.94600
C  -2.25200 23.94200 25.64500
N  -2.70800 16.91000 24.91200
C  -2.58700 18.01200 24.15000
C  -2.41600 17.63200 22.61300
C  -2.52600 16.10200 22.70200
C  -2.58600 15.76700 24.18300
C  -3.57600 18.15100 21.70500
C  -1.40000 15.33200 21.96400
C  -0.01000 15.34400 22.56400
N  -2.49500 15.06700 27.11000
C  -2.53800 14.14800 26.08000
C  -2.41600 12.77900 26.57800
C  -2.46300 12.96500 27.99800
C  -2.61200 14.35100 28.27300
C  -2.27000 11.49600 25.83300
C  -2.47300 12.21200 29.30000
O  -2.58900 11.03800 29.55400
C  -2.54300 13.37700 30.41100
C  -1.20000 13.23100 31.12300
O  -0.14100 13.45900 30.62500
O  -1.30000 12.61900 32.35400
C  -0.02000 12.48300 33.02500
H  -2.99300 20.32000 30.05700
H  -2.41900 20.11300 23.71800
H  -2.49400 13.63800 24.04300
H  -3.79400 16.12800 31.86400
H  -2.06500 18.70400 31.74000
H  -4.77000 19.45800 31.28100
H  -3.75600 19.72900 32.53500
H  -4.75000 18.27800 32.69400
H  -0.89700 16.09700 31.95700
H  -2.14600 15.13700 32.76500
H  -2.43500 17.33000 33.87200
H  -0.76000 17.76200 33.42700
H  -1.57900 23.26600 28.38300
H  -2.17100 22.26700 29.64500
H  -3.35600 23.03500 28.57100
H  -2.51200 24.57700 24.79700
H  -1.30900 24.29500 26.06000
H  -2.97800 23.84200 26.45200
H  -1.41800 18.00100 22.37600
H  -3.48700 15.82000 22.27100
H  -4.40400 18.44300 22.35000
H  -3.84100 17.38100 20.98000
H  -3.17100 18.91600 21.04300
H  -1.46600 15.65700 20.92600
H  -1.70000 14.28800 22.05800
H  0.31400 14.33200 22.80700
H  0.02200 15.87400 23.51600
H  0.69700 15.81400 21.87900
H  -3.25600 11.32900 25.39800
H  -2.01900 10.71600 26.55000
H  -1.50100 11.52500 25.06000
H  -3.28800 13.26000 31.19800
H  0.51900 13.42800 32.95800
H  0.61300 11.67000 32.66900
H  -0.30700 12.23900 34.04800
Mg -1.74600 34.16500 27.36400
C  -3.50600 32.29300 29.65200
C  -0.34500 35.96100 29.89300
C  -0.54300 36.38100 25.00700
C  -3.77000 32.73400 24.88100
N  -1.85900 34.11000 29.43600
C  -2.60500 33.21400 30.27500
C  -2.36900 33.44800 31.84400
C  -1.43700 34.72300 31.79100
C  -1.23900 34.95900 30.27800
C  -2.05200 35.95200 32.57200
C  -1.84500 32.11700 32.48700
C  -2.72700 31.44800 33.57300
H  -1.96800 31.25600 34.86700
N  -0.42300 35.82900 27.42000
C  0.07400 36.39300 28.59100
C  0.97000 37.50300 28.16800
C  0.99300 37.53500 26.76100
C  -0.03300 36.60600 26.34500
C  1.86000 38.16300 29.14200
C  1.89200 38.37500 25.83800
O  1.70500 38.42200 24.60500
C  2.93300 39.21200 26.38900
N  -2.32900 34.59000 25.29500
C  -1.58100 35.44700 24.50800
C  -1.93100 35.44500 23.07400
C  -2.83200 34.17800 23.05700
C  -3.03600 33.84000 24.52200
C  -2.50800 36.76800 22.58200
C  -2.30900 32.95700 22.13500
C  -1.42000 31.96700 22.85400
N  -3.35900 32.80700 27.17400
C  -3.94100 32.23700 26.17500
C  -4.90900 31.25500 26.57500
C  -4.73900 31.20200 27.97000
C  -3.82600 32.16300 28.28900
C  -5.78500 30.47100 25.68300
C  -5.19800 30.51600 29.13100
O  -5.96100 29.53300 29.35000
C  -4.34100 31.18900 30.32200
C  -5.37200 31.81200 31.25300
O  -6.07700 32.79200 30.98500
O  -5.68600 30.93100 32.26100
C  -6.78400 31.36000 33.17400
H  -0.26500 36.58900 30.78200
H  -0.16300 37.00700 24.19700
H  -4.38700 32.31400 24.08400
H  -3.40800 33.53100 32.16100
H  -0.45900 34.52400 32.23000
H  -1.97700 35.66200 33.62000
H  -3.07600 36.16100 32.26300
H  -1.30200 36.74200 32.53100
H  -0.89800 32.33800 32.98000
H  -1.65100 31.39300 31.69600
H  -2.88900 30.43500 33.20500
H  -3.63300 32.01200 33.79400
H  1.80200 39.22100 28.88600
H  2.88200 37.80900 29.00900
H  1.42200 37.98400 30.12400
H  2.69900 39.82800 27.25800
H  3.34700 39.85800 25.61500
H  3.73700 38.54400 26.69700
H  -0.95800 35.28200 22.61200
H  -3.83700 34.45400 22.74000
H  -2.05000 37.03300 21.62900
H  -2.30200 37.58900 23.26900
H  -3.59400 36.69700 22.53200
H  -1.82500 33.37600 21.25300
H  -3.23600 32.43800 21.89100
H  -1.05400 32.34800 23.80700
H  -0.60500 31.80900 22.14900
H  -1.92500 31.02500 23.07100
H  -5.36300 29.59200 25.19600
H  -6.27000 31.13400 24.96600
H  -6.62800 30.05600 26.23500
H  -3.63300 30.46200 30.71800
H  -6.29500 32.00800 33.90000
H  -7.09800 30.39700 33.57800
H  -7.64900 31.84400 32.72000

