158

Mg 26.94500 50.51400 26.24700
C  25.31300 51.47900 29.19000
C  29.59100 49.45800 28.39800
C  28.82300 49.81600 23.53200
C  24.44400 51.96900 24.40200
N  27.49700 50.60300 28.54200
C  26.46000 50.78400 29.49800
C  26.97000 50.30600 30.88400
C  28.46000 49.93200 30.59300
C  28.49100 49.96800 29.08300
C  29.54100 50.87600 31.16600
C  26.19700 49.08500 31.54500
C  25.44500 49.29700 32.85900
H  26.37100 49.47700 34.05800
N  28.93700 49.76700 26.02500
C  29.84300 49.29700 27.00300
C  31.08600 48.83600 26.37600
C  30.90800 49.05800 24.96600
C  29.51800 49.60400 24.81200
C  32.19900 48.22600 27.15000
C  31.80900 48.88500 23.80800
O  31.54300 49.19900 22.65900
C  33.29700 48.41100 24.09700
N  26.82400 50.98500 24.30400
C  27.59100 50.40600 23.29800
C  26.96300 50.58600 21.89600
C  25.53100 51.13900 22.28900
C  25.61500 51.37300 23.78500
C  27.78400 51.47900 20.91100
C  24.25000 50.48200 21.74400
C  23.29900 51.41700 20.96800
N  25.17700 51.57300 26.70600
C  24.25400 52.07900 25.81800
C  23.13700 52.57300 26.49400
C  23.47900 52.42200 27.84700
C  24.77800 51.77100 27.89800
C  21.92100 53.14600 25.85700
C  23.18100 52.64600 29.15800
O  22.23700 53.20900 29.58100
C  24.19000 51.99200 30.21900
C  24.74700 53.00800 31.17600
O  25.40800 53.99300 30.86900
O  24.29600 52.72600 32.45000
C  24.52000 53.81100 33.43300
H  30.34900 49.11100 29.10400
H  29.24800 49.43500 22.60100
H  23.66400 52.35000 23.74000
H  27.00400 51.12900 31.59800
H  28.67600 48.91200 30.91100
H  30.25200 50.41500 31.85200
H  29.13800 51.70700 31.74500
H  30.06500 51.30400 30.31200
H  26.89400 48.26400 31.71100
H  25.49200 48.64800 30.83800
H  24.85300 48.38600 32.94100
H  24.76200 50.14500 32.81400
H  32.13100 48.15400 28.23600
H  33.16200 48.71900 27.02200
H  32.24000 47.15500 26.95400
H  33.81400 49.34700 24.31000
H  33.80200 47.84600 23.31400
H  33.45400 47.88800 25.04000
H  26.94100 49.57800 21.48300
H  25.58300 52.10700 21.79100
H  28.53800 52.03300 21.47000
H  27.24300 52.21900 20.32200
H  28.30200 50.88200 20.16000
H  23.66600 50.12200 22.59100
H  24.55800 49.57900 21.21700
H  23.83900 51.64700 20.04900
H  23.09900 52.36700 21.46300
H  22.36400 50.90000 20.74900
H  21.70000 52.58500 24.94900
H  22.08000 54.18200 25.55600
H  21.15000 53.08500 26.62500
H  23.65200 51.23900 30.79500
H  24.76800 54.79400 33.03500
H  25.46600 53.52800 33.89600
H  23.77000 53.77100 34.22400
Mg 10.27300 47.93500 25.56500
C  8.27500 48.20400 28.47600
C  12.83300 49.39600 27.21300
C  12.03700 47.89600 22.61100
C  7.41900 47.02200 23.80900
N  10.51300 48.74000 27.59400
C  9.64300 48.63900 28.65900
C  10.26400 49.13300 29.90700
C  11.43600 49.99300 29.46200
C  11.64800 49.45500 27.98800
C  11.18600 51.49800 29.58500
C  10.77400 47.93800 30.79200
C  10.96600 48.13100 32.33400
H  10.47000 47.03700 33.29000
N  12.16400 48.45200 25.02400
C  13.08800 48.88900 25.93600
C  14.37000 48.94800 25.30200
C  14.20800 48.64100 23.90100
C  12.74900 48.29300 23.77300
C  15.66600 49.46100 26.00900
C  15.14300 48.72900 22.77600
O  14.85200 48.35800 21.60000
C  16.60300 49.02100 22.96500
N  9.79200 47.70000 23.46500
C  10.65700 47.75400 22.37700
C  9.87200 47.37500 21.03900
C  8.57000 46.69800 21.61100
C  8.58600 47.16900 23.05800
C  9.43700 48.57500 20.10100
C  8.61200 45.11500 21.50600
C  9.38300 44.42900 22.64200
N  8.22900 47.64000 26.05500
C  7.16600 47.27500 25.19300
C  5.93700 47.31600 25.94900
C  6.39000 47.58800 27.22300
C  7.75900 47.82400 27.25800
C  4.50900 47.04100 25.39300
C  5.89300 47.82100 28.50800
O  4.70300 47.60000 28.95400
C  7.09400 48.12000 29.42000
C  7.08700 46.88600 30.21800
O  7.56000 45.80800 29.83500
O  6.63400 47.13600 31.46300
C  6.67000 46.08400 32.39700
H  13.67700 49.82300 27.76000
H  12.50700 47.70500 21.64400
H  6.59700 46.69600 23.16900
H  9.49200 49.64100 30.48500
H  12.39000 49.88400 29.97700
H  12.07700 51.95900 30.01200
H  10.31100 51.66300 30.21300
H  10.97100 51.93200 28.60800
H  11.78600 47.64300 30.51500
H  10.20800 47.03500 30.56200
H  10.56900 49.14400 32.40800
H  11.99700 48.30100 32.64200
H  15.57900 49.88200 27.01000
H  16.20600 50.24400 25.47700
H  16.39300 48.65300 26.10100
H  17.10100 48.88800 22.00400
H  17.03300 48.36600 23.72200
H  16.70500 50.04800 23.31400
H  10.51300 46.67900 20.49800
H  7.74400 47.00400 20.96800
H  10.08200 49.39700 20.41200
H  8.37500 48.81900 20.06400
H  9.67000 48.27200 19.08000
H  9.05100 44.90500 20.53000
H  7.65400 44.60200 21.41900
H  10.11400 44.92200 23.28300
H  9.91700 43.76800 21.96000
H  8.61000 43.95500 23.24600
H  4.21300 47.29600 24.37600
H  3.89000 47.75900 25.93100
H  4.05600 46.07400 25.61400
H  6.94900 49.00900 30.03400
H  7.67900 45.70000 32.55100
H  5.97700 45.29900 32.09700
H  6.23600 46.49400 33.30900

