158

Mg 44.15900 3.91400 45.90000
C  42.37400 6.97600 45.78800
C  41.25900 2.37100 45.00700
C  46.05400 1.17700 45.36300
C  47.19600 5.70600 45.77200
N  41.97500 4.59200 45.45800
C  41.48400 5.87600 45.57300
C  39.95400 5.88000 45.26200
C  39.57900 4.34300 45.07500
C  40.98500 3.70800 45.22200
C  38.56800 3.85700 46.13200
C  39.50700 6.75100 43.94800
C  40.62900 6.98900 42.87300
H  40.14200 7.24900 41.40800
N  43.74300 2.00600 45.37900
C  42.48400 1.61900 45.02900
C  42.56800 0.14000 44.72900
C  43.91300 -0.16200 44.61200
C  44.65200 1.01500 45.15100
C  41.28000 -0.70000 44.25700
C  44.55900 -1.51600 44.03100
O  43.86700 -2.39900 43.53200
C  46.05600 -1.71400 43.90600
N  46.29800 3.48000 45.74000
C  46.80600 2.23000 45.70700
C  48.35800 2.12400 45.81900
C  48.67900 3.67600 45.99500
C  47.26800 4.30100 45.82200
C  48.90300 1.33000 47.02100
C  49.66700 4.35400 44.93600
C  50.82400 3.56100 44.39700
N  44.71100 5.89300 45.78800
C  45.94000 6.45400 45.71700
C  45.76100 7.93500 45.84600
C  44.42300 8.14600 45.83800
C  43.82100 6.90500 45.77300
C  46.90300 8.87300 45.82700
C  43.37700 9.20900 45.86600
O  43.48900 10.46000 45.88300
C  42.06300 8.41000 46.00500
C  41.47900 8.58700 47.37100
O  41.49100 7.76200 48.28500
O  40.97200 9.86200 47.44600
C  40.71700 10.24300 48.83600
H  40.40100 1.73800 44.77000
H  46.72400 0.31800 45.44200
H  48.11000 6.29200 45.89000
H  39.56200 6.36700 46.15500
H  39.20700 4.16800 44.06500
H  39.03800 3.21200 46.87400
H  37.80900 3.32600 45.55700
H  38.15100 4.67600 46.71800
H  39.24200 7.67300 44.46600
H  38.55200 6.35500 43.60500
H  41.20300 6.06400 42.93000
H  41.17800 7.90300 43.10100
H  41.12900 -0.38800 43.22400
H  40.50500 -0.25100 44.87900
H  41.29700 -1.78700 44.34400
H  46.26900 -2.66600 43.42000
H  46.33200 -1.60100 44.95400
H  46.54600 -0.92100 43.34000
H  48.80700 1.83700 44.86700
H  49.00300 3.94700 46.99900
H  48.10700 0.99500 47.68500
H  49.61100 1.84800 47.66900
H  49.46400 0.46400 46.67000
H  50.01600 5.26900 45.41500
H  48.99400 4.60900 44.11700
H  51.69600 4.21300 44.34400
H  50.58300 3.34200 43.35700
H  51.04400 2.58000 44.81800
H  47.12100 9.06300 46.87800
H  46.64000 9.82600 45.36900
H  47.80200 8.48400 45.34800
H  41.33300 8.83400 45.31400
H  39.80000 9.80800 49.23300
H  40.61700 11.32700 48.78100
H  41.53100 10.00000 49.51900
Mg 26.80100 49.26300 26.68600
C  24.70800 50.34300 29.27700
C  29.19800 48.64700 29.16500
C  28.92200 48.16500 24.25800
C  24.42500 50.30700 24.41900
N  26.76500 49.17800 28.98300
C  25.74300 49.60800 29.80100
C  26.09000 49.28900 31.28300
C  27.62800 48.96900 31.18600
C  27.93000 48.86500 29.65400
C  28.47700 49.89800 32.11000
C  25.10200 48.21900 32.01300
C  24.29900 48.77500 33.19400
H  25.10500 49.34500 34.35200
N  28.73900 48.54200 26.66400
C  29.55600 48.44200 27.76000
C  30.89900 48.06000 27.39500
C  30.92200 47.89500 26.01200
C  29.48000 48.13400 25.58300
C  31.99900 47.72500 28.30500
C  32.04700 47.64100 25.10200
O  31.88700 47.61500 23.88300
C  33.38100 47.41500 25.66600
N  26.66600 49.25600 24.63700
C  27.61800 48.62800 23.83700
C  27.13000 48.59100 22.37400
C  25.61700 49.10300 22.46700
C  25.56400 49.59100 23.93200
C  27.98000 49.37200 21.31800
C  24.63600 47.97700 22.15100
C  23.58100 48.28000 21.06100
N  24.99200 50.15600 26.72600
C  24.11600 50.60200 25.75400
C  23.01800 51.37000 26.29700
C  23.25400 51.24600 27.64000
C  24.45600 50.54000 27.88100
C  21.84300 51.99000 25.46200
C  22.69000 51.65700 28.89100
O  21.64900 52.35800 29.15000
C  23.62000 51.11800 30.03200
C  24.20300 52.24000 30.81700
O  25.02400 53.09000 30.52800
O  23.59400 52.28400 32.10000
C  23.79300 53.51000 32.93600
H  29.92800 48.36300 29.92700
H  29.65900 47.93400 23.48600
H  23.68700 50.40300 23.62000
H  26.03700 50.27100 31.75400
H  27.72700 47.99300 31.66000
H  29.53100 49.78900 31.85200
H  28.45800 49.52000 33.13300
H  28.17800 50.94500 32.06200
H  25.80600 47.40500 32.18800
H  24.32700 47.87500 31.32800
H  23.58700 48.03100 33.55300
H  23.77400 49.63900 32.78800
H  32.83500 48.42500 28.31200
H  32.42500 46.78800 27.94600
H  31.79400 47.63600 29.37100
H  34.17100 47.29300 24.92500
H  33.30200 46.43900 26.14500
H  33.71600 48.19000 26.35500
H  27.19400 47.54800 22.06300
H  25.58300 49.94800 21.78000
H  28.67300 50.03800 21.83200
H  27.44500 50.07700 20.68000
H  28.64000 48.74300 20.72100
H  24.08100 47.53400 22.97700
H  25.15800 47.06800 21.85200
H  23.71300 47.55800 20.25500
H  23.72400 49.32900 20.80100
H  22.56500 48.15300 21.43500
H  20.95000 51.66800 25.99700
H  22.09400 51.57700 24.48500
H  21.86000 53.07500 25.35100
H  23.07900 50.48100 30.73200
H  23.71800 54.42200 32.34500
H  24.55300 53.48900 33.71700
H  22.95200 53.53200 33.62900

