158

Mg 25.79500 0.64500 29.23400
C  27.61500 0.30000 32.18900
C  23.01000 1.20600 31.12900
C  23.96700 0.62900 26.42300
C  28.64500 -0.44500 27.45500
N  25.35600 0.68200 31.36500
C  26.30500 0.71300 32.39200
C  25.71600 1.33300 33.65500
C  24.24700 1.56900 33.29900
C  24.16600 1.08600 31.83600
C  23.23000 1.00800 34.34000
C  26.56700 2.54100 34.23100
C  27.23300 2.20600 35.65100
H  26.64900 2.98300 36.89800
N  23.81300 0.97800 28.84400
C  22.80100 1.12900 29.73200
C  21.51000 1.28700 29.00900
C  21.78100 1.20600 27.62100
C  23.21700 0.89500 27.60000
C  20.24500 1.56500 29.71400
C  20.87100 1.45600 26.28600
O  21.26300 1.29400 25.15600
C  19.34800 1.71700 26.37700
N  26.25200 0.22400 27.24700
C  25.30700 0.33800 26.23600
C  25.90500 0.06800 24.86300
C  27.44500 -0.31600 25.14200
C  27.51100 -0.10500 26.70100
C  25.15400 -0.92700 24.02100
C  28.47700 0.64600 24.35900
C  29.70900 -0.03300 23.90100
N  27.74600 0.02500 29.67400
C  28.72100 -0.42100 28.87500
C  29.89700 -0.74300 29.66100
C  29.50500 -0.43700 31.00900
C  28.16400 -0.02400 30.94700
C  31.31000 -0.97800 29.07600
C  29.98200 -0.23200 32.38500
O  31.07400 -0.47200 32.90500
C  28.78000 0.27000 33.18600
C  28.51300 -0.65600 34.30200
O  27.69700 -1.57400 34.24900
O  29.36300 -0.42800 35.31700
C  29.09800 -1.27300 36.53600
H  22.10000 1.26600 31.72900
H  23.42100 0.59900 25.47800
H  29.52400 -0.86400 26.96100
H  25.70500 0.51100 34.37200
H  24.13200 2.65200 33.26200
H  22.36700 1.67100 34.40300
H  23.65400 0.91800 35.34000
H  22.80000 0.15100 33.82100
H  25.92200 3.40800 34.36800
H  27.29500 2.84600 33.48000
H  28.29800 2.39800 35.77900
H  27.09100 1.15100 35.88600
H  19.75500 0.60000 29.83700
H  19.72400 2.27500 29.07200
H  20.38700 1.92900 30.73200
H  19.04900 0.83500 26.94400
H  18.85300 1.66900 25.40800
H  19.19000 2.66400 26.89500
H  25.82300 0.96000 24.24200
H  27.69000 -1.35800 24.94000
H  24.23500 -0.41800 23.72700
H  25.01700 -1.82900 24.61800
H  25.75200 -1.16800 23.14300
H  28.85000 1.52200 24.88900
H  27.86700 0.87700 23.48500
H  29.54800 -0.37400 22.87800
H  30.05700 -0.92000 24.43100
H  30.60100 0.59300 23.90200
H  31.98500 -0.86000 29.92300
H  31.37400 -0.25700 28.26100
H  31.31200 -1.96000 28.60200
H  28.91400 1.27900 33.57600
H  28.96100 -2.35300 36.48700
H  28.29900 -0.91200 37.18300
H  29.99200 -1.17900 37.15200
Mg 30.74300 58.44000 40.65100
C  27.97300 56.49500 39.81800
C  32.80900 55.97400 39.48000
C  33.25700 60.69500 40.65700
C  28.43100 61.24100 41.26800
N  30.39200 56.53100 39.62000
C  29.19800 55.87400 39.44100
C  29.40900 54.56800 38.69500
C  30.80400 54.21800 39.16200
C  31.40000 55.62100 39.38100
C  31.04400 53.28600 40.45100
C  29.24700 54.67100 37.16400
C  28.08600 53.81300 36.64400
H  27.24600 54.50500 35.58200
N  32.80000 58.28300 40.28400
C  33.43100 57.20300 39.82900
C  34.84900 57.38500 39.91100
C  35.03300 58.84900 40.14600
C  33.65400 59.34500 40.30500
C  35.97700 56.28400 39.58900
C  36.28600 59.60000 39.99000
O  37.36200 58.97600 39.86700
C  36.39300 61.06600 39.94600
N  30.72500 60.69700 40.82800
C  31.96800 61.35100 40.90000
C  31.76300 62.77600 41.05500
C  30.23000 62.93500 41.27500
C  29.77700 61.59800 41.10700
C  32.53500 63.35500 42.29000
C  29.48300 63.97900 40.32300
C  28.76900 65.11300 41.06000
N  28.63000 58.77500 40.68800
C  27.82100 59.92500 41.00200
C  26.48000 59.47700 40.98000
C  26.48300 58.20400 40.47000
C  27.80300 57.77500 40.33700
C  25.36100 60.37900 41.34800
C  25.67400 57.11600 40.11400
O  24.44500 57.03900 40.07700
C  26.57400 55.95400 39.66500
C  26.31200 54.77200 40.49500
O  26.89800 54.61900 41.53200
O  25.26400 54.04900 40.01400
C  24.79400 52.95100 40.90400
H  33.47400 55.11800 39.34900
H  34.09100 61.40000 40.65100
H  27.69800 61.99700 41.55900
H  28.82200 53.79800 39.19600
H  31.35300 53.73900 38.35000
H  30.17900 52.62300 40.49000
H  31.31300 53.94100 41.27900
H  31.82100 52.56400 40.19700
H  30.11600 54.32700 36.60200
H  29.04800 55.71000 36.90300
H  27.53400 53.54500 37.54400
H  28.46300 52.85400 36.28900
H  35.51100 55.34500 39.88600
H  36.84000 56.32800 40.25400
H  36.18700 56.29200 38.52000
H  36.27900 61.46800 40.95300
H  35.61900 61.53400 39.33900
H  37.41400 61.27100 39.62400
H  32.11600 63.14600 40.09300
H  29.99100 63.21200 42.30100
H  33.52900 62.91700 42.37400
H  31.86300 63.26300 43.14400
H  32.67100 64.43500 42.22700
H  28.86800 63.37400 39.65800
H  30.24700 64.52200 39.76600
H  29.07900 65.13500 42.10500
H  27.68500 65.03900 40.97600
H  29.15700 66.09000 40.77000
H  25.72700 60.93300 42.21200
H  24.47400 59.77100 41.53300
H  25.23700 61.01700 40.47400
H  26.30800 55.67800 38.64500
H  23.94200 53.29400 41.49100
H  25.57400 52.56800 41.56200
H  24.48300 52.23900 40.13800

