158

Mg 34.56900 2.37600 29.45200
C  32.72900 3.41700 32.18900
C  37.30300 1.86300 31.53300
C  36.37600 1.82700 26.62600
C  31.81500 3.17200 27.33600
N  34.94700 2.69600 31.50200
C  33.97600 3.00400 32.53100
C  34.49800 2.72500 33.95200
C  36.03300 2.72500 33.63700
C  36.13100 2.33300 32.11700
C  36.90600 3.91000 33.83000
C  33.90000 1.36000 34.53900
C  33.48000 1.41700 36.00500
H  34.31700 2.22700 36.95100
N  36.48000 1.84800 29.14500
C  37.48700 1.72700 30.09400
C  38.73900 1.36900 29.43700
C  38.51500 1.34900 28.01100
C  37.03700 1.67900 27.84700
C  39.94500 1.18800 30.17100
C  39.48000 0.98300 26.89700
O  39.06100 0.84600 25.76300
C  40.89400 0.56600 27.14600
N  34.11400 2.33000 27.30800
C  35.05000 2.18100 26.38200
C  34.47600 2.31900 24.96200
C  33.03700 2.73000 25.23200
C  32.93800 2.79200 26.69700
C  35.24700 3.43500 24.12200
C  31.96300 1.74100 24.61000
C  32.20400 0.23000 24.87800
N  32.71200 3.17600 29.66100
C  31.66400 3.29100 28.73300
C  30.46500 3.67600 29.43200
C  30.76100 3.67400 30.76500
C  32.18900 3.45800 30.85800
C  29.09600 4.04300 28.82500
C  30.21400 3.83800 32.06300
O  28.98400 3.83100 32.39800
C  31.50600 3.77000 33.05100
C  31.58200 5.04300 33.80700
O  32.13800 6.10300 33.53000
O  30.88100 4.80100 34.94900
C  30.61200 6.02100 35.78900
H  38.15700 1.60900 32.16400
H  36.95700 1.82000 25.70200
H  30.94300 3.50000 26.76600
H  34.30800 3.65400 34.49100
H  36.49000 1.86800 34.13300
H  37.09100 4.34800 32.84900
H  37.83700 3.69200 34.35300
H  36.36600 4.61300 34.46300
H  34.58900 0.52000 34.44800
H  33.00400 1.22700 33.93300
H  33.47000 0.37800 36.33600
H  32.46500 1.79800 35.89000
H  40.28800 0.20300 29.85600
H  39.89400 1.49400 31.21600
H  40.66700 1.89800 29.76600
H  41.40300 1.49000 27.42100
H  41.31700 0.24900 26.19300
H  41.11300 -0.25300 27.83000
H  34.50100 1.42500 24.34000
H  32.77200 3.69900 24.80900
H  35.71200 2.92300 23.27900
H  36.13600 3.82800 24.61600
H  34.66200 4.28700 23.77700
H  31.90700 1.95600 23.54200
H  30.93800 1.92000 24.93500
H  33.04000 0.12800 25.57000
H  32.49900 -0.22500 23.93200
H  31.28400 -0.21800 25.25400
H  29.27900 4.18600 27.76000
H  28.70500 4.92400 29.33400
H  28.55100 3.10000 28.85400
H  31.33000 2.97500 33.77600
H  30.51400 6.90000 35.15300
H  31.51400 6.13600 36.39000
H  29.66200 5.85900 36.29900
Mg 8.60200 48.62600 25.21200
C  6.79800 48.75000 28.15900
C  11.36800 50.07000 26.94400
C  10.45400 48.23500 22.54000
C  5.73000 47.67700 23.52300
N  8.96100 49.52600 27.26200
C  8.05200 49.36700 28.29400
C  8.65400 50.01100 29.55600
C  9.91700 50.66700 28.98800
C  10.14200 50.07900 27.66000
C  9.79800 52.23400 28.99600
C  8.96200 48.86700 30.62100
C  10.08000 49.07300 31.63700
H  9.87800 48.52200 33.07700
N  10.61200 49.09200 24.80900
C  11.52300 49.70700 25.55300
C  12.81000 49.77900 24.85400
C  12.66300 49.11800 23.61800
C  11.20200 48.73500 23.65800
C  13.98700 50.44500 25.46600
C  13.65300 48.78900 22.56600
O  13.38500 48.16100 21.55600
C  15.09900 49.15900 22.70500
N  8.13600 48.05900 23.36700
C  9.10000 47.86000 22.38400
C  8.53800 47.30300 21.13400
C  7.08500 46.98200 21.49500
C  6.97200 47.60900 22.84900
C  8.84000 48.15900 19.92100
C  6.80800 45.43100 21.60800
C  7.94200 44.54100 22.15400
N  6.66400 48.20700 25.64800
C  5.61300 47.89000 24.88000
C  4.43000 47.76300 25.67600
C  4.87900 47.94800 26.97700
C  6.23200 48.32600 26.90400
C  3.10800 47.24600 25.21200
C  4.39000 47.96400 28.38500
O  3.33000 47.62200 28.89000
C  5.72300 48.38200 29.16200
C  6.16200 47.14800 29.93200
O  6.75900 46.22600 29.43900
O  5.92800 47.25400 31.26100
C  6.44100 46.18100 32.08800
H  12.25800 50.42300 27.46900
H  11.03100 47.97400 21.65000
H  4.85000 47.36700 22.95600
H  8.00700 50.75400 30.02300
H  10.87900 50.64400 29.49900
H  9.85800 52.54200 27.95200
H  10.59300 52.72700 29.55500
H  8.84300 52.65200 29.31500
H  8.91200 47.89700 30.12600
H  8.07300 48.86500 31.25200
H  10.63700 50.01000 31.65500
H  10.83200 48.35700 31.30500
H  14.57400 50.92900 24.68600
H  14.74000 49.78100 25.89100
H  13.80400 51.21900 26.21200
H  15.08600 50.22600 22.48000
H  15.66100 48.63000 21.93500
H  15.59200 48.94000 23.65200
H  9.15800 46.40900 21.06500
H  6.49100 47.58300 20.80700
H  7.83800 48.41600 19.57800
H  9.39800 47.48200 19.27500
H  9.38500 49.08300 20.11600
H  6.56500 45.16800 20.57900
H  5.91900 45.23800 22.20800
H  8.52200 45.07200 22.91000
H  8.47800 44.06200 21.33500
H  7.45800 43.72400 22.69000
H  2.98300 47.51200 24.16200
H  2.42100 47.71000 25.91900
H  3.05200 46.15800 25.23100
H  5.58700 49.25100 29.80600
H  5.96100 46.49800 33.01400
H  7.52500 46.10500 32.17300
H  6.04500 45.20000 31.82600

