158

Mg 30.33700 59.27700 40.17400
C  27.81000 57.35900 38.85100
C  32.63900 56.89300 38.91200
C  32.98300 61.30700 40.70100
C  28.09400 61.90100 40.72000
N  30.18200 57.25700 39.04500
C  29.05300 56.68800 38.64400
C  29.24500 55.40900 37.85100
C  30.80000 55.07200 38.22300
C  31.28200 56.46100 38.68300
C  31.04500 53.97700 39.21900
C  29.18100 55.69200 36.30400
C  28.07200 54.90800 35.54900
H  27.21300 55.71500 34.56400
N  32.53200 59.12300 39.92100
C  33.27500 58.04600 39.51400
C  34.71000 58.30800 39.58600
C  34.83100 59.60400 40.13200
C  33.43700 60.06300 40.29300
C  35.84900 57.23800 39.26300
C  36.13100 60.26400 40.48000
O  37.16200 59.66700 40.27900
C  36.20600 61.57900 41.18400
N  30.51700 61.32500 40.59600
C  31.69500 61.86400 40.99100
C  31.55300 63.34200 41.34800
C  29.99400 63.60400 41.23900
C  29.43600 62.19100 40.81600
C  32.19400 63.75200 42.71000
C  29.53400 64.66300 40.25200
C  30.37600 65.92300 40.30600
N  28.31600 59.55700 40.00200
C  27.52300 60.70600 40.18000
C  26.09700 60.27300 40.03200
C  26.15600 58.98300 39.47900
C  27.54300 58.64900 39.41600
C  24.97300 61.13300 40.49800
C  25.38300 57.85900 39.04000
O  24.15600 57.81000 38.99200
C  26.37000 56.78900 38.49900
C  25.97500 55.55300 39.18900
O  26.58600 55.11900 40.16000
O  24.79300 55.11400 38.66700
C  24.19100 53.90900 39.30000
H  33.37000 56.19700 38.49400
H  33.71700 62.09400 40.88800
H  27.45500 62.74200 40.99400
H  28.59200 54.57500 38.10800
H  31.44900 54.76700 37.40200
H  30.07300 53.65100 39.58900
H  31.62800 54.63300 39.86600
H  31.66300 53.17000 38.82600
H  30.13700 55.32200 35.93400
H  29.05800 56.75800 36.11100
H  27.38100 54.53300 36.30400
H  28.55100 54.13200 34.95200
H  36.40700 57.50100 38.36400
H  35.49300 56.20800 39.29100
H  36.54000 57.30500 40.10300
H  37.15600 61.73300 41.69400
H  35.52800 61.57700 42.03800
H  36.05900 62.38300 40.46200
H  32.10900 63.93400 40.62100
H  29.47200 63.76900 42.18200
H  33.13300 64.28100 42.54700
H  32.62900 62.96200 43.32100
H  31.48600 64.39100 43.24000
H  28.49800 64.93800 40.44700
H  29.75800 64.28300 39.25500
H  30.87700 66.14200 39.36300
H  31.10300 65.85500 41.11500
H  29.83300 66.82900 40.57700
H  24.91100 62.07700 39.95600
H  25.24900 61.27600 41.54300
H  24.08200 60.50600 40.45600
H  26.27800 56.64900 37.42200
H  23.10800 53.98900 39.20600
H  24.55300 53.94900 40.32700
H  24.48300 52.97600 38.81700
Mg 27.04200 51.64300 26.03200
C  24.70400 52.76100 28.68000
C  29.14900 50.65800 28.52800
C  29.03500 50.85300 23.67300
C  24.58600 53.00600 23.74500
N  26.91400 51.76700 28.39900
C  25.82500 52.02300 29.19000
C  26.14200 51.56300 30.59900
C  27.70000 51.30000 30.56000
C  27.94600 51.21600 29.05900
C  28.63300 52.32500 31.13200
C  25.23400 50.31600 31.11100
C  24.67400 50.48000 32.49300
H  25.24900 51.38200 33.59600
N  28.86000 50.84200 26.10500
C  29.59500 50.51900 27.21200
C  30.91500 49.90900 26.75700
C  30.87400 49.93300 25.30000
C  29.59400 50.57100 24.94700
C  31.94700 49.38100 27.74300
C  31.91700 49.55500 24.26800
O  31.69200 49.70900 23.06900
C  33.18400 48.92900 24.75800
N  26.79300 51.83100 24.01800
C  27.80300 51.34700 23.24300
C  27.46200 51.48000 21.79000
C  25.98300 52.09000 21.82600
C  25.78400 52.35000 23.29400
C  28.48200 52.44200 21.10200
C  24.81000 51.28200 21.22100
C  24.37400 50.07800 22.02500
N  25.11000 52.72800 26.09000
C  24.28600 53.13600 25.07900
C  23.07700 53.75600 25.69700
C  23.25300 53.67200 27.07600
C  24.46600 52.97600 27.27700
C  21.96000 54.39500 24.88200
C  22.73500 54.00700 28.38500
O  21.77400 54.69900 28.74500
C  23.56300 53.21900 29.48300
C  23.89500 54.23700 30.53200
O  24.82400 55.04400 30.60100
O  22.92500 54.27400 31.45500
C  23.24400 55.06500 32.65300
H  29.86700 50.23100 29.23200
H  29.59800 50.58500 22.77700
H  23.84800 53.38400 23.03400
H  25.97800 52.44800 31.21400
H  27.90300 50.32100 30.99500
H  29.06000 52.81400 30.25700
H  29.46700 51.94300 31.72200
H  28.10500 53.00800 31.79800
H  25.86100 49.44200 30.93200
H  24.42300 50.23300 30.38700
H  24.50600 49.51700 32.97400
H  23.73800 51.00500 32.29700
H  32.50000 50.24100 28.11900
H  32.60600 48.56900 27.43400
H  31.50400 48.91800 28.62500
H  33.68200 48.52400 23.87800
H  33.04000 48.12200 25.47600
H  33.84600 49.68000 25.18900
H  27.44500 50.47200 21.37500
H  26.08300 53.09000 21.40600
H  29.17100 52.80900 21.86300
H  27.98100 53.30800 20.66900
H  29.03400 51.86400 20.36100
H  25.11700 50.98400 20.21900
H  23.93600 51.92500 21.11500
H  25.02800 49.25400 21.74000
H  23.32400 49.95700 21.76000
H  24.40800 50.10400 23.11500
H  22.20700 54.64100 23.84900
H  21.62000 55.36600 25.24400
H  21.11200 53.72100 24.75700
H  22.97300 52.40500 29.90400
H  22.42400 54.96100 33.36300
H  23.34200 56.09800 32.31900
H  24.12500 54.70800 33.18600

