158

Mg 47.43700 24.61400 28.94900
C  48.10200 26.79700 31.52900
C  46.38700 22.25600 31.14500
C  47.90300 22.19300 26.59100
C  49.18200 26.87700 26.85200
N  47.11600 24.60000 31.01000
C  47.57000 25.57200 31.91700
C  47.47200 25.13800 33.40400
C  47.06300 23.64600 33.25500
C  46.73700 23.47400 31.67800
C  48.17600 22.50400 33.75900
C  46.47500 26.03800 34.20800
C  46.72300 25.91000 35.75200
H  45.58800 26.46500 36.65800
N  46.82200 22.52900 28.82100
C  46.36300 21.79700 29.83200
C  45.96700 20.50900 29.28300
C  46.37800 20.49800 27.96600
C  47.07500 21.74300 27.70900
C  45.16600 19.42400 30.04600
C  46.32500 19.37800 26.92300
O  46.75600 19.64700 25.82300
C  45.76800 18.03100 27.26900
N  48.53100 24.57400 27.12700
C  48.47300 23.45100 26.31800
C  49.39900 23.62300 25.15300
C  49.43900 25.21300 25.02200
C  48.97200 25.63700 26.35400
C  50.77700 22.93600 25.22600
C  48.67100 25.92400 23.89200
C  47.18200 26.35700 24.19600
N  48.21800 26.54400 29.10000
C  48.79300 27.32000 28.13300
C  49.02100 28.66300 28.63700
C  48.82100 28.44600 30.03600
C  48.41800 27.17800 30.24400
C  49.40800 29.87000 27.75300
C  49.02600 29.04800 31.38300
O  49.34300 30.17500 31.71600
C  48.57900 27.97700 32.38400
C  49.71200 27.65800 33.32000
O  50.60500 26.83300 33.08000
O  49.55500 28.39700 34.47500
C  50.57500 28.03700 35.48600
H  46.07700 21.46800 31.83500
H  48.07800 21.47800 25.78400
H  49.61700 27.56400 26.12300
H  48.46600 25.01600 33.83500
H  46.24400 23.46400 33.95100
H  47.79300 21.69400 34.38000
H  49.06700 22.99500 34.15100
H  48.52200 22.12000 32.80000
H  45.50200 25.59200 33.99900
H  46.46200 27.06500 33.84300
H  47.65800 26.38400 36.05000
H  46.76800 24.85300 36.01500
H  44.91700 19.75700 31.05300
H  45.77300 18.51900 30.00300
H  44.27300 19.20800 29.46000
H  44.70700 18.17900 27.47300
H  46.36300 17.71500 28.12600
H  45.94000 17.39800 26.39900
H  48.86900 23.22400 24.28800
H  50.43400 25.64300 24.90300
H  51.59600 23.58500 25.53500
H  51.01200 22.41100 24.30000
H  50.78800 22.18300 26.01400
H  48.76000 25.36000 22.96300
H  49.13300 26.90800 23.82300
H  46.63300 26.16800 23.27300
H  47.02000 27.39500 24.48700
H  46.65500 25.79700 24.96800
H  48.94800 29.66900 26.78500
H  50.49100 29.83900 27.63200
H  49.06800 30.86000 28.05700
H  47.84200 28.57500 32.91900
H  50.67000 28.89700 36.14900
H  51.51400 27.63400 35.10600
H  50.13300 27.26900 36.12100
Mg 41.25700 41.38400 27.00000
C  40.18900 43.66700 29.56900
C  42.18800 39.24800 29.52000
C  42.61500 39.61600 24.65300
C  40.70100 43.99800 24.70200
N  41.42500 41.58400 29.29800
C  40.74200 42.51800 30.11300
C  40.84300 42.08200 31.64300
C  41.60300 40.65500 31.56600
C  41.77900 40.49000 30.03700
C  42.94000 40.33800 32.26200
C  39.45700 41.99800 32.41900
C  39.43800 41.68300 33.87300
H  38.84900 42.75700 34.83000
N  42.17000 39.70200 27.06200
C  42.37500 38.85600 28.10200
C  42.98300 37.64300 27.61800
C  43.02100 37.69700 26.26700
C  42.65300 39.06500 25.92700
C  43.30900 36.46700 28.59900
C  43.32100 36.59500 25.25600
O  43.40900 36.78300 24.04900
C  43.62700 35.21200 25.70700
N  41.55500 41.69300 24.90200
C  42.22700 40.83200 24.10800
C  42.27900 41.27500 22.62000
C  41.55400 42.67300 22.76800
C  41.22900 42.78100 24.18000
C  43.71900 41.28500 22.11000
C  40.45100 43.00100 21.73000
C  38.91300 42.66300 22.02100
N  40.42200 43.34400 27.02300
C  40.32500 44.31000 26.03100
C  39.75900 45.55500 26.56100
C  39.74500 45.32200 27.94300
C  40.23600 43.99000 28.16900
C  39.37500 46.76600 25.88000
C  39.39200 45.97400 29.15800
O  38.97000 47.10700 29.37900
C  39.67300 44.96100 30.21200
C  40.50400 45.50200 31.32500
O  41.68700 45.84600 31.28200
O  39.63200 45.65600 32.46200
C  40.13400 46.44900 33.59200
H  42.53200 38.57100 30.30400
H  43.07500 39.00000 23.87800
H  40.55700 44.69200 23.87100
H  41.38200 42.71900 32.34400
H  40.84100 39.92900 31.85000
H  42.62400 39.49000 32.87000
H  43.16100 41.17700 32.92200
H  43.72100 39.98600 31.58800
H  38.92100 41.13300 32.02700
H  39.08200 42.99700 32.19900
H  40.47000 41.43400 34.12100
H  38.75500 40.84700 34.02000
H  42.98900 36.59500 29.63400
H  44.39100 36.33600 28.60600
H  42.84900 35.52600 28.29900
H  43.75900 34.55400 24.84800
H  42.82900 34.84500 26.35300
H  44.52100 35.25200 26.32900
H  41.62600 40.65100 22.00900
H  42.28600 43.47600 22.68500
H  43.81500 40.57600 21.28700
H  44.48500 41.01800 22.83700
H  44.12100 42.27500 21.89700
H  40.65400 42.41500 20.83300
H  40.63500 44.04700 21.48300
H  38.58500 42.05900 21.17500
H  38.29200 43.54900 21.88600
H  38.88400 42.15200 22.98300
H  38.46000 47.05400 26.39700
H  38.96000 46.47500 24.91500
H  40.08900 47.58300 25.77500
H  38.70700 44.77700 30.68200
H  40.57400 45.80900 34.35700
H  39.32300 47.09700 33.92200
H  40.96600 47.11700 33.36900

