158

Mg 47.35600 16.44700 28.29200
C  45.32500 16.00100 31.04700
C  49.65000 18.05700 30.18700
C  49.48600 16.85000 25.51300
C  44.82200 15.13800 26.25300
N  47.40500 17.05200 30.42300
C  46.51000 16.61500 31.37700
C  46.95900 17.02300 32.78300
C  48.19000 17.98700 32.46400
C  48.43300 17.70000 30.89900
C  48.02300 19.50900 32.82600
C  47.38400 15.74000 33.63000
C  47.87700 15.90700 35.04400
H  47.39300 17.14300 35.78100
N  49.26700 17.30000 27.89100
C  50.00300 17.96300 28.78900
C  51.21500 18.42300 28.21400
C  51.23600 18.03200 26.86400
C  49.94400 17.46400 26.69700
C  52.17700 19.39000 29.00700
C  52.33400 18.30300 25.77100
O  52.12800 18.11500 24.61200
C  53.68600 18.73700 26.10800
N  47.14400 16.24400 26.14400
C  48.14700 16.46900 25.23300
C  47.52700 16.12600 23.87200
C  46.20900 15.36300 24.12800
C  46.00500 15.56800 25.59800
C  47.21200 17.38700 23.02400
C  46.24200 13.83300 23.68500
C  44.94200 13.40200 22.89200
N  45.51800 15.60400 28.54300
C  44.62100 15.08900 27.63000
C  43.54900 14.46500 28.36900
C  43.78400 14.81500 29.74600
C  44.96800 15.57600 29.73500
C  42.41100 13.75800 27.76600
C  43.22500 14.67400 31.06500
O  42.22400 14.10200 31.47700
C  44.22300 15.46500 32.03900
C  43.55300 16.46500 32.96800
O  43.17800 17.58900 32.73400
O  43.47300 15.89200 34.20600
C  43.15100 16.66500 35.37100
H  50.32700 18.46700 30.94000
H  50.01900 17.03200 24.57700
H  44.06200 14.60100 25.68200
H  46.10400 17.49800 33.26500
H  49.01400 17.66500 33.10100
H  48.68100 19.59800 33.69000
H  47.02400 19.87900 33.05600
H  48.36800 20.15700 32.02000
H  48.24100 15.30000 33.12000
H  46.64300 14.94100 33.59400
H  48.96600 15.90000 35.02000
H  47.38700 15.06400 35.53200
H  53.19100 18.99700 28.93700
H  51.91000 19.51100 30.05700
H  52.23600 20.37900 28.55300
H  54.35900 18.98800 25.28800
H  54.21000 18.05400 26.77700
H  53.61900 19.69800 26.61800
H  48.19600 15.43100 23.36400
H  45.33800 15.71600 23.57500
H  47.84800 18.21800 23.32800
H  46.16900 17.63600 22.82700
H  47.54000 17.21000 22.00000
H  46.31400 13.22800 24.58900
H  47.15900 13.53100 23.17800
H  45.19100 13.00500 21.90800
H  44.23800 14.20200 22.66200
H  44.43000 12.70800 23.55700
H  42.46500 13.45800 26.72000
H  41.53700 14.39400 27.91000
H  42.20800 12.90700 28.41700
H  44.57400 14.69400 32.72400
H  42.17300 16.40800 35.77800
H  43.34500 17.73700 35.34000
H  43.74900 16.31800 36.21400
Mg 47.48000 25.02400 27.75000
C  48.25800 27.35700 30.36400
C  46.75200 22.70800 30.26300
C  47.05800 22.85400 25.36600
C  48.75600 27.35800 25.35100
N  47.47500 25.10600 30.07700
C  47.79800 26.15700 30.90900
C  47.52600 25.77500 32.41800
C  47.26200 24.23900 32.31700
C  47.14900 23.98400 30.79500
C  48.28400 23.25900 33.05900
C  46.44800 26.56500 33.10600
C  46.18200 26.14800 34.55400
H  46.32500 27.10200 35.70100
N  46.84900 23.12400 27.78900
C  46.63000 22.31500 28.89900
C  46.10200 21.05500 28.43000
C  46.13000 21.09100 26.98200
C  46.70200 22.40500 26.64400
C  45.89000 19.90200 29.33700
C  45.65700 20.03700 25.98100
O  45.51500 20.19900 24.80300
C  45.11000 18.68600 26.54900
N  47.76100 25.11600 25.58400
C  47.53200 24.04600 24.79800
C  47.88600 24.30600 23.35100
C  48.27700 25.84400 23.36600
C  48.31500 26.11000 24.85500
C  48.82600 23.29400 22.76700
C  47.19400 26.73300 22.75100
C  47.72300 27.53500 21.58600
N  48.27800 26.96400 27.78300
C  48.79900 27.74400 26.69800
C  49.24300 29.03900 27.24800
C  49.08700 28.90000 28.63000
C  48.51000 27.60700 28.97700
C  49.95200 30.12800 26.50000
C  49.35800 29.50700 29.90500
O  49.96000 30.56500 30.13600
C  48.74700 28.62000 31.05500
C  49.70600 28.55500 32.22300
O  50.91300 28.20400 32.09900
O  49.05500 28.89700 33.36400
C  49.75300 29.01700 34.59700
H  46.52200 21.99900 31.06100
H  47.07000 22.06800 24.60900
H  49.18100 28.01500 24.59000
H  48.47000 26.02100 32.90500
H  46.29500 24.05600 32.78500
H  47.80300 22.75500 33.89700
H  49.16600 23.75600 33.46200
H  48.64000 22.60700 32.26100
H  45.48200 26.50800 32.60500
H  46.73600 27.61700 33.11500
H  46.86100 25.34900 34.85100
H  45.22200 25.63800 34.63400
H  44.90200 19.44400 29.30000
H  46.09200 20.17100 30.37400
H  46.51300 19.09400 28.95500
H  45.00000 18.03200 25.68400
H  44.04800 18.82800 26.75300
H  45.75400 18.25800 27.31700
H  46.95300 24.16800 22.80400
H  49.32000 26.01700 23.10000
H  48.38100 22.71100 21.96100
H  49.15000 22.59400 23.53700
H  49.73000 23.82500 22.46800
H  46.63000 27.26800 23.51400
H  46.43200 26.19600 22.18700
H  47.00100 27.65900 20.78000
H  48.65400 27.05900 21.27800
H  48.07100 28.53800 21.83300
H  49.27900 30.98200 26.42700
H  50.21900 29.78200 25.50100
H  50.80300 30.44500 27.10300
H  47.93300 29.29300 31.32300
H  50.81600 28.82000 34.45800
H  49.40600 28.28400 35.32600
H  49.67100 30.06600 34.87900

