158

Mg 25.21500 1.56400 29.80600
C  27.31000 1.49600 32.59500
C  22.52200 1.82800 31.86300
C  23.17600 1.35300 27.07900
C  28.08100 0.88100 27.71200
N  25.02300 1.63200 31.93500
C  26.01100 1.77800 32.92000
C  25.41500 2.12400 34.28000
C  23.84400 1.79000 33.98000
C  23.75200 1.77100 32.44500
C  23.28400 0.43500 34.54400
C  25.75700 3.55800 34.75400
C  26.80600 3.66400 35.93500
H  26.54900 4.53000 37.18200
N  23.11100 1.67000 29.49300
C  22.22700 1.90800 30.48700
C  20.90300 1.92100 29.89200
C  21.03300 1.76500 28.52400
C  22.47800 1.58900 28.29200
C  19.68100 2.04300 30.69200
C  19.99200 1.80700 27.48300
O  20.20400 1.65000 26.26900
C  18.53400 2.06400 27.90400
N  25.53500 0.97600 27.73600
C  24.49200 1.11700 26.78900
C  25.00600 0.93900 25.33200
C  26.59200 1.05300 25.59800
C  26.79200 1.05500 27.10400
C  24.51000 -0.37200 24.62600
C  27.21300 2.15600 24.71300
C  27.23300 3.49300 25.41700
N  27.23700 1.11100 30.04200
C  28.24500 0.87800 29.13000
C  29.49000 0.97400 29.80500
C  29.18500 1.09200 31.15500
C  27.79500 1.21200 31.26900
C  30.82600 0.81900 29.19900
C  29.69100 1.24900 32.50200
O  30.85800 1.18100 32.79500
C  28.55700 1.52500 33.45000
C  28.64000 0.48900 34.52400
O  28.43900 -0.71600 34.32800
O  28.97000 1.12200 35.68900
C  28.97700 0.19000 36.76600
H  21.65600 1.98400 32.50900
H  22.57300 1.35400 26.16900
H  28.96300 1.06100 27.09400
H  25.73000 1.45300 35.07900
H  23.17100 2.50700 34.45100
H  22.90400 -0.18100 33.72900
H  22.46500 0.58200 35.24900
H  24.06500 -0.09900 35.08600
H  24.87700 4.19000 34.87400
H  26.26600 3.92900 33.86500
H  27.69500 4.00800 35.40600
H  27.06200 2.65200 36.25000
H  19.13100 2.97100 30.53700
H  19.81000 2.03400 31.77500
H  19.02700 1.18000 30.57100
H  18.04300 1.28300 28.48500
H  17.92000 2.12000 27.00400
H  18.50400 3.04700 28.37300
H  24.70900 1.83600 24.78800
H  27.03600 0.11900 25.25500
H  23.72200 -0.84000 25.21700
H  25.34700 -1.05600 24.49300
H  24.13000 -0.04300 23.65900
H  26.62900 2.38700 23.82300
H  28.12600 1.77300 24.25800
H  27.21000 3.36400 26.50000
H  26.39700 4.11300 25.09400
H  28.18600 3.98500 25.22900
H  30.88200 1.42000 28.29100
H  30.86700 -0.18800 28.78500
H  31.55900 1.03900 29.97500
H  28.70900 2.53400 33.83600
H  27.98300 0.06900 37.19600
H  29.62500 0.66500 37.50200
H  29.42100 -0.79100 36.59700
Mg 54.46500 23.41800 45.01500
C  51.96200 25.72000 44.12700
C  52.15500 20.85700 44.44100
C  56.98100 21.06400 45.33700
C  56.62900 26.04100 45.47000
N  52.35000 23.33400 44.27700
C  51.51500 24.43000 43.97000
C  50.13100 23.86800 43.44200
C  50.20600 22.31700 43.71700
C  51.64500 22.15200 44.18300
C  49.21700 21.72100 44.63800
C  50.01400 24.22700 41.87200
C  48.61600 24.79200 41.62900
H  48.17300 24.73700 40.15500
N  54.50300 21.23900 44.92400
C  53.39300 20.41700 44.82700
C  53.89900 19.06400 44.88100
C  55.24900 19.11900 45.27500
C  55.65800 20.51200 45.19100
C  52.98300 17.86800 44.63000
C  56.11900 17.85700 45.80800
O  55.48500 16.80300 45.85500
C  57.60600 17.87700 46.35700
N  56.59400 23.55100 45.08200
C  57.36000 22.44800 45.33700
C  58.80500 22.93600 45.46700
C  58.75000 24.47800 45.65600
C  57.22300 24.74100 45.44100
C  59.53200 22.29100 46.71700
C  59.68600 25.31200 44.75000
C  60.76600 26.15500 45.58600
N  54.42000 25.59500 44.78900
C  55.32700 26.49600 45.24000
C  54.71500 27.83500 45.17200
C  53.37500 27.57900 44.74100
C  53.25100 26.20900 44.48100
C  55.38300 29.16300 45.45000
C  52.07200 28.14300 44.47300
O  51.72900 29.30200 44.45500
C  51.18800 26.98400 43.83700
C  50.92500 27.39300 42.40400
O  51.68300 27.12100 41.46100
O  49.88200 28.31900 42.38600
C  49.69000 28.98100 41.07200
H  51.42200 20.05100 44.36800
H  57.79300 20.36100 45.53300
H  57.35500 26.80800 45.74700
H  49.30500 24.29600 44.01000
H  50.12200 21.77000 42.77900
H  49.61000 21.13300 45.46600
H  48.59100 21.14200 43.95900
H  48.44000 22.39900 44.99100
H  50.07400 23.35800 41.21700
H  50.82200 24.92600 41.65400
H  48.56000 25.87200 41.76100
H  47.83800 24.36900 42.26400
H  53.50400 17.09400 44.06800
H  52.11300 18.07200 44.00500
H  52.67400 17.52800 45.61900
H  57.87400 16.83700 46.54700
H  57.64600 18.52900 47.22900
H  58.26000 18.31000 45.60100
H  59.41700 22.70700 44.59400
H  58.91200 24.77800 46.69100
H  58.89000 22.18000 47.59100
H  60.32300 23.01400 46.91500
H  59.98700 21.41500 46.25500
H  59.23900 26.00400 44.03600
H  60.35400 24.64000 44.21200
H  61.18000 25.55900 46.40000
H  60.24100 27.00300 46.02600
H  61.52400 26.47700 44.87300
H  56.31000 29.11500 44.87800
H  55.35900 29.33100 46.52600
H  54.86100 29.97500 44.94500
H  50.20300 26.94800 44.30200
H  49.49100 28.18200 40.35800
H  50.57200 29.59800 40.89500
H  48.77100 29.56300 41.01200

