158

Mg -1.52500 18.40200 26.82100
C  -1.87200 16.10300 29.61900
C  -1.94600 20.97300 29.10800
C  -1.19600 20.50800 24.29600
C  -0.92400 15.70100 24.81500
N  -1.90000 18.52400 29.22300
C  -2.02900 17.43900 30.09200
C  -2.25500 18.02200 31.45200
C  -2.58600 19.48400 31.16200
C  -2.08600 19.70900 29.75700
C  -4.09500 19.86100 31.32800
C  -1.13900 17.88900 32.61500
C  -1.76500 17.57100 33.95600
H  -0.94800 17.70300 35.19500
N  -1.45100 20.48200 26.69500
C  -1.65400 21.36600 27.79900
C  -1.73500 22.69700 27.27300
C  -1.41100 22.56200 25.87200
C  -1.31100 21.14700 25.57500
C  -2.12400 23.80000 28.27200
C  -1.12300 23.72400 24.84600
O  -0.70300 23.54800 23.70000
C  -1.27100 25.07800 25.38000
N  -1.09400 18.14700 24.78300
C  -1.04000 19.16900 23.91200
C  -0.73400 18.68300 22.54300
C  -0.53600 17.13600 22.68000
C  -0.89400 16.93500 24.19200
C  -1.82600 19.09200 21.57200
C  0.87000 16.66800 22.23400
C  2.05100 17.16400 23.07800
N  -1.56100 16.37500 27.04900
C  -1.24500 15.41300 26.12800
C  -1.42900 14.16100 26.73300
C  -1.62700 14.32200 28.06100
C  -1.68200 15.69900 28.24900
C  -1.33400 12.88500 25.96400
C  -1.83500 13.73100 29.35100
O  -1.91400 12.51300 29.62100
C  -2.11100 14.87100 30.35500
C  -1.17600 14.46800 31.46000
O  0.01800 14.68600 31.61300
O  -2.00800 13.84200 32.35700
C  -1.36900 13.48600 33.59500
H  -2.04800 21.81000 29.80200
H  -1.08800 21.21000 23.46700
H  -0.80900 14.92000 24.06100
H  -3.12400 17.43900 31.75600
H  -2.12000 20.21500 31.82400
H  -4.67800 18.94100 31.37400
H  -4.53300 20.49400 30.55600
H  -4.26700 20.48400 32.20500
H  -0.62900 18.84000 32.76800
H  -0.40700 17.11000 32.40200
H  -2.06900 16.52400 33.94000
H  -2.64600 18.17700 34.16900
H  -3.08900 23.58400 28.72900
H  -2.23400 24.76400 27.77600
H  -1.34400 23.95500 29.01800
H  -0.56300 25.31600 26.17400
H  -2.27600 25.25000 25.76600
H  -1.24700 25.77800 24.54500
H  0.24800 19.09800 22.31800
H  -1.37100 16.79200 22.07000
H  -2.01400 18.32900 20.81800
H  -1.56400 19.98200 20.99900
H  -2.79700 19.17500 22.06000
H  0.82500 17.23000 21.30100
H  0.94100 15.60000 22.03100
H  1.86900 17.61100 24.05600
H  2.60000 17.84700 22.43000
H  2.67900 16.31900 23.35800
H  -0.56600 13.00000 25.19900
H  -2.33400 12.82900 25.53400
H  -1.14800 12.12400 26.72300
H  -3.16700 14.80100 30.61400
H  -0.32100 13.18900 33.64100
H  -1.96300 12.70900 34.07600
H  -1.46000 14.26800 34.34900
Mg 0.75100 43.92700 26.43400
C  2.89500 44.10800 29.35700
C  -1.82700 43.07200 28.68900
C  -1.24400 43.16800 23.80800
C  3.47400 44.34300 24.40900
N  0.66600 43.54200 28.80200
C  1.57100 43.90000 29.72900
C  0.95000 43.83800 31.15900
C  -0.45700 43.03100 30.94400
C  -0.56000 43.19900 29.36500
C  -0.44900 41.57100 31.38000
C  0.84200 45.21300 31.94700
C  1.01500 45.18100 33.45500
H  0.61700 43.84800 34.09600
N  -1.25800 43.46200 26.18000
C  -2.17900 43.22700 27.30500
C  -3.49300 43.20700 26.76600
C  -3.32400 43.14100 25.34600
C  -1.92300 43.27300 25.05400
C  -4.80200 43.10500 27.57500
C  -4.43700 43.00400 24.24500
O  -4.26300 43.14600 23.01400
C  -5.84300 42.83800 24.64300
N  1.07300 43.72400 24.45100
C  0.14300 43.35000 23.58500
C  0.69800 43.50400 22.14400
C  2.06700 44.22300 22.34400
C  2.21700 44.06400 23.82400
C  0.83500 42.15000 21.35600
C  2.05700 45.73600 21.95300
C  3.48200 46.17600 21.35600
N  2.77800 44.14600 26.77000
C  3.72800 44.32600 25.78800
C  5.04100 44.32400 26.41100
C  4.72500 44.26500 27.78300
C  3.34100 44.21100 27.99200
C  6.37900 44.29500 25.78400
C  5.30000 44.10200 29.11800
O  6.47300 44.11500 29.42300
C  4.11200 44.15500 30.25400
C  4.32300 43.01800 31.16800
O  4.62900 41.88300 30.88100
O  4.27600 43.46200 32.44300
C  4.63500 42.47000 33.48200
H  -2.62900 42.81500 29.38300
H  -1.86300 42.93000 22.94100
H  4.24400 44.59000 23.67500
H  1.67400 43.21400 31.68400
H  -1.17800 43.61200 31.51800
H  -0.93800 40.90100 30.67300
H  -1.09600 41.38200 32.23600
H  0.58700 41.37200 31.65400
H  -0.06900 45.68700 31.58200
H  1.61600 45.83100 31.49200
H  0.47900 45.96600 33.98700
H  2.08200 45.37900 33.55400
H  -4.51400 43.27900 28.61200
H  -5.53000 42.31700 27.38300
H  -5.48400 43.91500 27.31500
H  -6.11500 43.77900 25.12200
H  -6.03700 42.04500 25.36600
H  -6.51100 42.77700 23.78400
H  0.03900 44.15500 21.56900
H  2.91800 43.68500 21.92500
H  0.16500 41.41000 21.79300
H  1.88000 41.87100 21.22400
H  0.49100 42.25800 20.32800
H  1.86100 46.32500 22.84900
H  1.34400 45.94400 21.15500
H  3.91700 47.11800 21.69000
H  3.37800 46.28900 20.27700
H  4.21800 45.38100 21.47800
H  6.27600 43.60900 24.94300
H  7.14500 44.06200 26.52400
H  6.71700 45.22100 25.32000
H  4.16300 45.11600 30.76700
H  5.30000 41.69500 33.10000
H  3.72000 42.04700 33.89500
H  5.15600 42.99100 34.28500

