158

Mg 44.16200 4.18900 48.22300
C  41.68500 6.53400 47.04800
C  41.65300 1.78700 47.95300
C  46.50100 1.76600 48.43200
C  46.57900 6.53400 47.97200
N  41.91900 4.21400 47.65500
C  41.18300 5.28000 47.18000
C  39.81100 4.85000 46.66300
C  39.76700 3.39600 47.20400
C  41.20700 3.08500 47.63200
C  38.61600 3.06400 48.27300
C  39.61300 5.01700 45.12000
C  38.13600 5.26900 44.71200
H  37.72300 4.46200 43.42300
N  44.09000 1.99700 48.28300
C  42.90700 1.27900 48.07600
C  43.32600 -0.10600 48.14300
C  44.71000 -0.17700 48.41900
C  45.20900 1.22700 48.32600
C  42.42100 -1.26900 47.85600
C  45.45700 -1.46000 48.60300
O  44.88100 -2.54200 48.62500
C  46.92900 -1.46000 48.83600
N  46.22500 4.15100 47.98500
C  46.93800 3.00400 48.30100
C  48.45600 3.28700 48.33000
C  48.51400 4.83600 48.41700
C  47.09700 5.24900 48.04100
C  49.31300 2.54000 49.46100
C  49.58300 5.44700 47.57500
C  50.37300 6.55900 48.23000
N  44.19700 6.20900 47.73500
C  45.24900 7.03200 47.74200
C  44.79300 8.36600 47.49700
C  43.40000 8.28100 47.17300
C  43.09100 6.89900 47.28400
C  45.78600 9.55600 47.45200
C  42.23700 8.90600 46.69600
O  42.08600 10.07800 46.31200
C  41.01700 7.84900 46.75800
C  39.92500 8.19200 47.68600
O  39.66900 7.74900 48.81000
O  39.20900 9.21400 47.17500
C  37.89100 9.52700 47.78400
H  40.84900 1.05200 47.87400
H  47.26000 0.98800 48.53600
H  47.41000 7.24200 48.01300
H  39.10300 5.51500 47.15700
H  39.59300 2.74900 46.34400
H  39.09400 2.73900 49.19700
H  37.98300 2.27900 47.85800
H  38.12300 4.01100 48.48900
H  39.97100 4.10400 44.64300
H  40.24500 5.85400 44.82200
H  38.09100 6.35700 44.65800
H  37.56000 4.98000 45.59100
H  42.73400 -1.78500 46.94900
H  41.43600 -0.83400 47.68800
H  42.43800 -1.97100 48.69000
H  47.46000 -1.15000 47.93600
H  47.19900 -2.50200 49.00900
H  47.25800 -0.98100 49.75900
H  48.83500 2.87600 47.39500
H  48.63600 5.03300 49.48200
H  49.67800 1.67200 48.91300
H  48.70800 2.22400 50.31100
H  50.04300 3.17900 49.95800
H  49.10400 5.80800 46.66500
H  50.20500 4.63200 47.20500
H  51.41700 6.33100 48.44300
H  49.85800 6.87800 49.13700
H  50.38000 7.40800 47.54700
H  45.12100 10.41800 47.50000
H  46.37300 9.61500 46.53500
H  46.52900 9.51700 48.24800
H  40.57100 7.83300 45.76300
H  37.68100 10.59200 47.68500
H  37.74200 9.30000 48.83900
H  37.17400 9.09200 47.08700
Mg 35.92700 49.20100 24.82900
C  36.01000 47.52200 28.04000
C  34.53300 51.87500 26.47600
C  35.62100 50.51900 21.85600
C  36.67800 46.03200 23.33400
N  35.49600 49.68300 27.07200
C  35.59800 48.85500 28.19000
C  35.23900 49.62700 29.44100
C  34.86900 51.07100 28.92100
C  34.89100 50.81400 27.38100
C  33.49900 51.58100 29.49800
C  36.42000 49.71300 30.46800
C  36.10100 49.02300 31.81600
H  35.73700 49.91700 32.97100
N  35.32100 51.05900 24.23200
C  34.76800 51.97100 25.05200
C  34.56700 53.12300 24.28500
C  34.77800 52.81700 22.85800
C  35.26100 51.40500 22.92200
C  34.05800 54.44300 24.89400
C  34.48200 53.68700 21.63300
O  34.86600 53.29100 20.50000
C  33.73400 54.97500 21.66500
N  35.96100 48.32300 22.84200
C  36.00900 49.13700 21.81600
C  36.41200 48.49500 20.47700
C  36.76200 47.07700 21.01600
C  36.49400 47.12200 22.52800
C  35.28600 48.53200 19.40200
C  38.15900 46.61200 20.74100
C  39.35800 46.82800 21.72700
N  36.08200 47.10600 25.52000
C  36.55700 45.99200 24.75600
C  36.86400 44.97200 25.74900
C  36.60400 45.49400 26.99000
C  36.20800 46.83900 26.81900
C  37.29800 43.56900 25.38600
C  36.68200 45.15000 28.36400
O  37.04600 44.09900 28.92600
C  36.28300 46.42200 29.13800
C  35.02900 46.11400 29.86900
O  33.90600 46.40900 29.48100
O  35.34100 45.52900 31.08200
C  34.17900 45.05900 31.92600
H  34.10900 52.79600 26.88100
H  35.47900 51.00200 20.88700
H  37.18400 45.17400 22.88600
H  34.43600 49.17800 30.02700
H  35.59700 51.88000 28.97500
H  33.10900 51.03300 30.35600
H  32.72000 51.44800 28.74700
H  33.64100 52.59900 29.85800
H  36.67600 50.76700 30.57400
H  37.30400 49.15900 30.15100
H  36.97700 48.48200 32.17400
H  35.36000 48.22900 31.73100
H  32.97300 54.42300 25.00000
H  34.35200 55.28500 24.26800
H  34.57500 54.66400 25.82800
H  33.33100 55.28400 20.70100
H  34.36400 55.70700 22.17000
H  32.85400 54.74300 22.26600
H  37.24200 49.15000 20.21300
H  36.04500 46.32600 20.68500
H  35.15000 47.55000 18.94800
H  35.49600 49.10500 18.49900
H  34.36800 48.84300 19.90000
H  38.37200 47.09300 19.78600
H  38.16100 45.54400 20.52600
H  39.55100 45.82000 22.09600
H  39.32300 47.47600 22.60300
H  40.21300 47.19200 21.15900
H  36.83600 42.85400 26.06700
H  38.34200 43.26400 25.30700
H  36.89500 43.38400 24.39100
H  36.98100 46.75300 29.90700
H  33.47300 44.65400 31.20100
H  33.79200 45.69600 32.72100
H  34.57500 44.17500 32.42600

