158

Mg 23.60300 -5.32400 45.51000
C  25.91200 -3.27100 43.70500
C  21.12400 -4.18300 43.47200
C  21.78100 -8.07800 46.39800
C  26.51900 -7.03100 46.86600
N  23.62400 -3.93100 43.81500
C  24.65200 -3.24600 43.12400
C  24.08700 -2.45400 41.90500
C  22.56900 -2.44100 42.17000
C  22.40100 -3.63800 43.17500
C  22.06600 -1.05000 42.65800
C  24.65500 -2.88200 40.57200
C  25.76400 -1.95100 39.98400
H  25.73200 -1.77200 38.48700
N  21.70600 -5.97700 45.06500
C  20.88300 -5.33500 44.22200
C  19.64100 -6.08600 44.10300
C  19.76400 -7.15200 45.04400
C  21.10000 -7.16200 45.56700
C  18.40900 -5.60000 43.24700
C  18.66500 -8.08000 45.54100
O  17.49600 -7.96200 45.05700
C  18.86900 -8.94600 46.74700
N  24.03300 -7.27400 46.51200
C  23.09700 -8.20500 46.84900
C  23.67000 -9.39200 47.60400
C  25.13000 -8.97200 47.84800
C  25.27600 -7.67000 47.00900
C  22.95000 -9.82100 48.92400
C  26.22300 -10.06600 47.57600
C  26.82200 -10.72900 48.82700
N  25.71300 -5.05400 45.66100
C  26.74000 -5.81600 46.23200
C  27.97400 -5.22100 45.96200
C  27.74800 -4.23900 45.01400
C  26.32500 -4.19100 44.76900
C  29.27100 -5.63300 46.54000
C  28.39200 -3.28100 44.13900
O  29.63900 -3.06900 43.91900
C  27.20600 -2.51800 43.45800
C  27.22900 -1.08500 43.96700
O  26.38500 -0.46100 44.61700
O  28.34400 -0.50400 43.40300
C  28.58000 0.91300 43.60200
H  20.33000 -3.61600 42.98100
H  21.32900 -9.06400 46.51700
H  27.40300 -7.53400 47.26400
H  24.40500 -1.42700 42.08500
H  21.97100 -2.63700 41.28000
H  21.92300 -0.55700 41.69600
H  22.89800 -0.56900 43.17300
H  21.20600 -1.13700 43.32100
H  23.94800 -2.87400 39.74300
H  25.15900 -3.84800 40.54900
H  26.68700 -2.40700 40.34400
H  25.58300 -1.00500 40.49400
H  18.49300 -4.54400 42.99000
H  17.51800 -5.59000 43.87400
H  18.22200 -6.19100 42.35000
H  19.27400 -8.26700 47.49800
H  19.43100 -9.85300 46.52500
H  17.99500 -9.51800 47.05800
H  23.70000 -10.23900 46.91900
H  25.31000 -8.51800 48.82300
H  22.92600 -10.91100 48.91800
H  21.94600 -9.40500 48.84400
H  23.53400 -9.46800 49.77400
H  26.86900 -9.58400 46.84300
H  25.86500 -10.96800 47.07900
H  26.12300 -10.45800 49.61700
H  27.78500 -10.32000 49.13300
H  26.91500 -11.81300 48.75600
H  29.87000 -6.30100 45.92100
H  29.21400 -5.99600 47.56700
H  29.81400 -4.70700 46.72700
H  27.36000 -2.59300 42.38200
H  27.67200 1.51600 43.59600
H  29.25900 1.19600 42.79800
H  29.10700 1.09800 44.53800
Mg 41.02600 9.38000 29.94700
C  42.75100 10.57800 32.70800
C  38.74400 7.97200 32.17800
C  39.57400 7.86300 27.36400
C  43.73200 10.34100 27.91200
N  40.85700 9.13500 32.21000
C  41.58400 9.93200 33.08000
C  41.02400 9.81000 34.53600
C  39.74300 8.94600 34.28900
C  39.76500 8.70800 32.83500
C  39.64700 7.65400 35.18800
C  40.70500 11.22400 35.03500
C  39.86300 11.32500 36.30000
H  40.50800 12.23800 37.29500
N  39.34700 8.19400 29.76100
C  38.55200 7.71900 30.77500
C  37.44400 6.90700 30.19000
C  37.56600 6.95300 28.74900
C  38.89900 7.61700 28.57000
C  36.30400 6.41000 31.03200
C  36.69900 6.33200 27.75900
O  36.92200 6.35700 26.57500
C  35.50300 5.57400 28.23100
N  41.53800 9.17800 27.89700
C  40.75400 8.52000 27.01800
C  41.28600 8.55700 25.55000
C  42.65800 9.34300 25.80500
C  42.66000 9.66500 27.30900
C  41.59600 7.18200 24.81800
C  42.58800 10.67400 24.92300
C  41.67900 11.73600 25.47900
N  42.85700 10.37700 30.19900
C  43.84300 10.64200 29.29900
C  44.86900 11.43900 29.92500
C  44.39500 11.52600 31.27900
C  43.24600 10.72400 31.41200
C  46.15600 11.95100 29.34000
C  44.89100 12.05500 32.54300
O  45.87700 12.63000 32.95400
C  43.81400 11.38000 33.54000
C  44.62500 10.60400 34.47400
O  45.31500 9.61500 34.18400
O  44.44300 11.11100 35.68500
C  44.90900 10.29400 36.79700
H  38.02700 7.60800 32.91600
H  39.13600 7.54600 26.41600
H  44.50000 10.76900 27.26500
H  41.74900 9.28400 35.15700
H  38.84500 9.52600 34.50400
H  38.65500 7.44000 35.58600
H  40.20600 8.00100 36.05700
H  40.09300 6.79300 34.68900
H  40.06600 11.69200 34.28600
H  41.64200 11.78000 35.07000
H  39.81500 10.36000 36.80500
H  38.88200 11.69500 36.00100
H  35.40400 6.91200 30.67800
H  36.43000 6.56600 32.10400
H  36.20700 5.34100 30.84500
H  34.90700 5.14600 27.42500
H  34.87400 6.28200 28.77100
H  35.82700 4.80600 28.93200
H  40.52200 9.10600 25.00000
H  43.54300 8.74400 25.59000
H  41.51100 6.44800 25.62000
H  42.58700 7.26200 24.37200
H  40.88000 6.95500 24.02800
H  42.34900 10.53400 23.86800
H  43.61900 11.02700 24.90200
H  41.22200 11.48200 26.43500
H  40.94800 12.10200 24.75800
H  42.19200 12.69600 25.53600
H  46.09000 11.79000 28.26400
H  47.00600 11.47300 29.82800
H  46.29300 13.03200 29.36800
H  43.37700 12.25800 34.01600
H  45.82000 10.82700 37.06700
H  45.04600 9.23800 36.56400
H  44.19400 10.26700 37.61900

