158

Mg 1.43900 -1.92400 43.33900
C  4.87000 -1.35000 42.67000
C  0.61400 0.94000 41.71500
C  -1.80500 -3.11900 43.08200
C  2.38900 -5.32500 44.23600
N  2.61000 -0.61000 42.12500
C  3.93600 -0.52000 42.12300
C  4.33100 0.63900 41.14400
C  3.07900 1.52500 41.29400
C  1.97800 0.52200 41.64900
C  3.21800 2.77700 42.23700
C  4.64500 0.08800 39.73300
C  6.02400 0.55100 39.25000
H  6.14000 1.19600 37.88800
N  -0.32500 -1.11300 42.73200
C  -0.47700 0.11200 42.10000
C  -1.89600 0.33400 41.85500
C  -2.57500 -0.80100 42.42500
C  -1.55200 -1.79500 42.73600
C  -2.47200 1.69500 41.39600
C  -4.08500 -0.85200 42.58500
O  -4.81400 0.08200 42.35900
C  -4.77600 -2.05400 43.26200
N  0.46900 -4.06700 43.45900
C  -0.91000 -4.18700 43.39500
C  -1.29800 -5.64400 43.62600
C  0.08000 -6.37800 43.75300
C  1.06900 -5.21600 43.81000
C  -2.29900 -5.92400 44.74500
C  0.29700 -7.39300 42.60300
C  0.69200 -8.78400 43.06700
N  3.23600 -3.10600 43.54700
C  3.39700 -4.38200 44.03700
C  4.85200 -4.58400 44.16400
C  5.48500 -3.41500 43.69400
C  4.44900 -2.55600 43.33100
C  5.43700 -5.86100 44.70100
C  6.71300 -2.70100 43.48600
O  7.87600 -3.00500 43.74000
C  6.37300 -1.43700 42.58500
C  7.06000 -0.28300 43.05200
O  7.99600 0.26900 42.58600
O  6.51600 0.17200 44.28300
C  7.13700 1.26700 44.94400
H  0.53000 1.99400 41.44500
H  -2.82300 -3.51300 43.04300
H  2.75500 -6.31100 44.52900
H  5.23900 1.13600 41.48600
H  2.93100 1.96400 40.30800
H  2.48000 2.68700 43.03400
H  3.12300 3.77500 41.80900
H  4.15300 2.64700 42.78200
H  3.90400 0.54600 39.07800
H  4.47300 -0.98500 39.64600
H  6.71200 -0.29300 39.21600
H  6.52600 1.17700 39.98800
H  -3.28900 1.60900 40.67900
H  -1.64400 2.25400 40.96000
H  -2.85800 2.26800 42.23800
H  -5.78900 -1.70400 43.46000
H  -4.38800 -2.25900 44.26000
H  -4.78200 -2.94800 42.63700
H  -1.91000 -5.95700 42.78000
H  0.22200 -6.92000 44.68700
H  -3.16800 -6.52100 44.46800
H  -2.80300 -5.04800 45.15400
H  -1.86200 -6.45800 45.58900
H  1.12600 -7.04100 41.99100
H  -0.55100 -7.41000 41.91900
H  -0.17700 -9.43300 42.96000
H  1.03400 -8.78100 44.10200
H  1.48500 -9.30300 42.52900
H  4.80300 -6.11400 45.55000
H  6.33600 -5.73500 45.30400
H  5.55600 -6.66500 43.97600
H  6.81100 -1.50300 41.58900
H  8.05400 0.89000 45.39600
H  6.37200 1.65600 45.61600
H  7.44600 2.02800 44.22700
Mg 41.75800 41.19800 27.17100
C  40.88700 43.66400 29.45800
C  42.83700 39.24200 29.81600
C  42.46900 38.68300 24.96900
C  41.15200 43.31600 24.54400
N  41.73100 41.36900 29.34400
C  41.32000 42.47600 30.05700
C  41.25500 42.19000 31.57900
C  41.65700 40.67300 31.68000
C  42.14000 40.40000 30.21200
C  42.80400 40.31300 32.77200
C  39.94200 42.58900 32.27800
C  39.33900 41.68400 33.39200
H  39.02700 42.35200 34.75900
N  42.68100 39.34900 27.35000
C  43.04900 38.74300 28.51500
C  43.58400 37.38500 28.25600
C  43.40700 37.14300 26.86400
C  42.83400 38.48200 26.33400
C  44.22400 36.47400 29.25900
C  43.72600 35.90700 26.00900
O  43.49900 35.85800 24.80100
C  44.32100 34.66000 26.58100
N  42.02200 41.07900 25.09500
C  42.26600 39.88600 24.39200
C  41.96900 40.01100 22.85300
C  41.49300 41.47900 22.82600
C  41.51800 42.02300 24.25400
C  43.35800 39.74600 22.01100
C  40.14500 41.66900 22.09200
C  38.93200 41.12700 22.86300
N  41.09200 43.06900 26.97000
C  40.92500 43.84100 25.83900
C  40.52200 45.14600 26.28300
C  40.52600 45.08500 27.69300
C  40.88600 43.82400 28.06400
C  40.37300 46.38100 25.37300
C  40.28900 45.93600 28.86500
O  39.98000 47.10300 28.95900
C  40.48500 44.95100 30.06300
C  41.51100 45.58500 30.89800
O  42.67900 45.63000 30.68300
O  40.92400 45.97800 32.09400
C  41.80000 46.55900 33.04700
H  43.02700 38.60900 30.68600
H  42.61100 37.96200 24.16100
H  41.10800 43.98800 23.68500
H  42.05300 42.64400 32.16600
H  40.86200 39.94000 31.81900
H  43.76300 40.23500 32.26000
H  42.66300 39.32400 33.20700
H  42.83500 41.10300 33.52200
H  39.25000 42.48100 31.44200
H  39.90700 43.61100 32.65500
H  40.06900 40.90200 33.60400
H  38.45800 41.17200 33.00400
H  45.26400 36.50900 28.93300
H  43.86100 35.44800 29.30100
H  44.09100 36.78800 30.29400
H  43.76000 34.46100 27.49500
H  45.37900 34.88600 26.71300
H  44.15600 33.84100 25.88100
H  41.18500 39.37300 22.44500
H  42.27800 42.18400 22.55300
H  44.01800 39.01800 22.48400
H  43.89700 40.69300 21.99800
H  43.20600 39.39800 20.99000
H  40.25200 41.26100 21.08700
H  40.01000 42.74200 21.95200
H  39.22100 40.33600 23.55400
H  38.19300 40.65800 22.21400
H  38.41400 41.86000 23.48200
H  39.38800 46.51200 24.92500
H  40.96600 46.27700 24.46400
H  40.73800 47.26700 25.89200
H  39.56100 44.80900 30.62300
H  42.48400 47.38000 32.83200
H  42.39300 45.76600 33.50300
H  41.16200 46.89600 33.86300

