158

Mg 24.41400 -5.42700 45.85000
C  26.79800 -3.02800 44.47700
C  22.16700 -4.01000 43.63100
C  22.62800 -8.15800 46.31700
C  27.23800 -6.85500 47.51200
N  24.48700 -3.72900 44.28200
C  25.55400 -2.95000 43.90000
C  25.20400 -2.07500 42.71800
C  23.65300 -2.04600 42.64200
C  23.39600 -3.28300 43.64700
C  23.10000 -0.76300 43.07800
C  25.76800 -2.77300 41.43800
C  26.65500 -1.86000 40.45200
H  26.00700 -1.56600 39.08900
N  22.53000 -5.96200 45.21100
C  21.81100 -5.30400 44.23400
C  20.55700 -6.01500 44.11700
C  20.69200 -7.16900 44.93600
C  21.97000 -7.13000 45.56600
C  19.47500 -5.62800 43.18400
C  19.52500 -8.15100 45.14200
O  18.55800 -8.14200 44.38900
C  19.42600 -9.14100 46.37200
N  24.86400 -7.17300 46.86700
C  23.91800 -8.12100 47.01300
C  24.46300 -9.31400 47.83800
C  25.87300 -8.84300 48.31900
C  26.01800 -7.60300 47.50200
C  23.53200 -9.76700 48.99800
C  26.96800 -9.89000 47.98800
C  28.05100 -10.17000 49.13000
N  26.64800 -4.94900 46.17200
C  27.51500 -5.62300 46.89200
C  28.74000 -4.86400 46.76500
C  28.48900 -3.85400 45.85300
C  27.22900 -3.98300 45.47000
C  29.93300 -5.39400 47.53100
C  29.13100 -2.74600 45.24300
O  30.29700 -2.35400 45.27300
C  28.01500 -2.11800 44.26900
C  27.87700 -0.66900 44.70800
O  28.46000 0.27800 44.26600
O  26.94300 -0.58200 45.78500
C  26.95600 0.71500 46.46000
H  21.40400 -3.61300 42.95800
H  22.15400 -9.13800 46.40400
H  28.06900 -7.42000 47.94000
H  25.55600 -1.05500 42.87500
H  23.30500 -2.30400 41.64200
H  22.19900 -0.85700 43.68400
H  22.69900 -0.22500 42.21900
H  23.77300 -0.11200 43.63600
H  25.06800 -3.35200 40.83600
H  26.54600 -3.43200 41.82300
H  27.57700 -2.40500 40.24800
H  26.87200 -0.91700 40.95400
H  19.52700 -6.29600 42.32400
H  19.62600 -4.59500 42.87000
H  18.49300 -5.64900 43.65600
H  20.01100 -8.86000 47.24800
H  19.69600 -10.17900 46.18100
H  18.35100 -9.20000 46.54200
H  24.50300 -10.15400 47.14400
H  25.80500 -8.67600 49.39400
H  22.56900 -9.26500 48.90600
H  23.79500 -9.57000 50.03800
H  23.24500 -10.81700 48.94200
H  27.54300 -9.38400 47.21200
H  26.65600 -10.85100 47.58000
H  28.15800 -11.23900 49.31400
H  27.78700 -9.60200 50.02200
H  28.93900 -9.62100 48.81600
H  30.29900 -6.29900 47.04700
H  29.68300 -5.59400 48.57300
H  30.73000 -4.68200 47.31500
H  28.25200 -2.10700 43.20500
H  26.02400 0.89000 46.99700
H  27.09000 1.51200 45.72900
H  27.80200 0.81900 47.14000
Mg 47.29100 24.59700 28.82600
C  48.24100 26.88600 31.22600
C  46.37300 22.50700 31.47000
C  47.05400 22.07100 26.67000
C  48.76400 26.57700 26.46700
N  47.26900 24.71500 31.09600
C  47.76700 25.74800 31.80500
C  47.45400 25.69900 33.25300
C  47.16900 24.15400 33.34300
C  46.83900 23.77400 31.91700
C  48.24300 23.33200 34.10100
C  46.25500 26.63300 33.62500
C  46.33700 27.38800 34.92000
H  46.96100 26.71800 36.27500
N  46.71100 22.66100 29.02700
C  46.28200 22.01200 30.17000
C  45.88700 20.68000 29.87100
C  45.95900 20.57900 28.44000
C  46.59200 21.76300 27.97700
C  45.39900 19.66600 30.84700
C  45.55000 19.38300 27.58000
O  45.62700 19.43200 26.38700
C  45.09200 18.15900 28.13300
N  47.69800 24.37800 26.79000
C  47.56600 23.24300 26.08400
C  47.90800 23.34800 24.61100
C  48.23000 24.88000 24.51900
C  48.32200 25.30000 26.02700
C  49.12400 22.49800 24.28500
C  47.22300 25.56400 23.56900
C  45.78500 25.81800 23.99300
N  48.26400 26.28700 28.75600
C  48.68100 27.12500 27.71300
C  49.21100 28.38400 28.17300
C  49.12400 28.32800 29.58300
C  48.52700 27.03200 29.89700
C  49.95300 29.31400 27.42100
C  49.44700 28.95300 30.83400
O  50.14900 29.88500 30.99600
C  48.78300 28.12000 31.97500
C  49.70400 28.00000 33.09500
O  50.62600 27.17300 33.21400
O  49.32600 28.94000 34.01100
C  49.97900 28.97300 35.32400
H  46.21300 21.82800 32.31100
H  46.83500 21.34200 25.88700
H  49.25100 27.19200 25.70700
H  48.33600 25.98200 33.82800
H  46.29000 24.03900 33.97800
H  48.98600 23.98600 34.55700
H  48.81300 22.82200 33.32400
H  47.82400 22.58500 34.77500
H  45.39700 25.99300 33.83100
H  46.04600 27.25800 32.75700
H  45.27500 27.52700 35.12200
H  46.89000 28.31200 34.75300
H  45.60700 19.96900 31.87300
H  45.90000 18.69900 30.79400
H  44.31000 19.62100 30.83700
H  45.87500 17.82000 28.81100
H  44.98800 17.37900 27.37900
H  44.13100 18.23200 28.64100
H  47.05000 23.09800 23.98700
H  49.24900 24.92600 24.13400
H  48.97300 21.58700 24.86500
H  50.11200 22.87900 24.54300
H  49.06800 22.49100 23.19700
H  47.21000 24.98800 22.64400
H  47.67100 26.48200 23.18900
H  45.76900 26.89900 23.85300
H  45.58700 25.51400 25.02000
H  44.95600 25.47300 23.37500
H  50.69800 28.76500 26.84500
H  50.47200 29.99100 28.09900
H  49.30300 29.89800 26.77000
H  47.86900 28.61700 32.30200
H  49.36700 28.48600 36.08400
H  50.18500 29.96400 35.72800
H  50.93000 28.44500 35.26300

