158

Mg 0.89500 8.06500 25.44100
C  1.87000 9.89800 28.25000
C  1.15000 5.31000 27.36500
C  0.58600 6.23300 22.56500
C  1.08300 10.89000 23.50200
N  1.57900 7.62000 27.54900
C  1.66900 8.57100 28.50200
C  1.79300 7.90600 29.91700
C  1.67200 6.34800 29.67500
C  1.40600 6.41000 28.12300
C  2.88100 5.49500 30.00800
C  0.73300 8.40800 30.90100
C  1.19900 8.35000 32.36400
H  2.40000 7.33900 32.85600
N  0.88500 6.01400 25.05000
C  0.92500 5.01400 25.98700
C  0.82200 3.76900 25.36000
C  0.62600 4.00500 23.94800
C  0.68200 5.48100 23.75000
C  0.88800 2.51500 26.21300
C  0.47300 2.98000 22.75700
O  0.29100 3.33300 21.58600
C  0.58500 1.50000 22.97700
N  0.75300 8.52200 23.38400
C  0.57400 7.58200 22.39300
C  0.51800 8.26400 21.04400
C  0.23500 9.74200 21.37900
C  0.71200 9.69500 22.76600
C  1.91300 8.05000 20.32100
C  -1.30900 10.09300 21.29100
C  -1.66200 11.28500 20.28500
N  1.43100 10.02500 25.73500
C  1.46000 11.08200 24.83400
C  1.83400 12.30400 25.60300
C  2.06800 11.91100 26.97500
C  1.79600 10.48500 26.97000
C  1.95600 13.68900 24.97400
C  2.34200 12.40000 28.31100
O  2.53000 13.55800 28.69100
C  2.18700 11.10700 29.21800
C  3.36300 11.03300 30.16000
O  4.40800 10.41800 29.98400
O  3.09000 11.79200 31.36100
C  4.14800 11.86800 32.35100
H  1.03700 4.42000 27.98700
H  0.55500 5.59400 21.68000
H  1.02300 11.84500 22.97400
H  2.80700 8.10100 30.26600
H  0.74200 5.95400 30.08500
H  3.49800 5.98600 30.76000
H  3.50800 5.24400 29.15200
H  2.52100 4.58900 30.49400
H  -0.05600 7.65800 30.85500
H  0.38600 9.37400 30.53100
H  0.34500 8.38300 33.04100
H  1.54200 9.38100 32.45900
H  1.23100 1.74300 25.52400
H  0.00600 2.19900 26.77100
H  1.53200 2.44700 27.08900
H  1.52400 1.19900 23.44100
H  0.52700 0.99700 22.01200
H  -0.24000 1.10500 23.56900
H  -0.20400 7.72300 20.43200
H  0.90800 10.38100 20.80700
H  2.66500 7.82200 21.07700
H  2.20300 9.01700 19.91000
H  1.92400 7.23800 19.59300
H  -1.80900 10.19500 22.25500
H  -1.78700 9.24200 20.80600
H  -0.77200 11.66400 19.78200
H  -2.05300 12.21700 20.69200
H  -2.41700 10.95600 19.57000
H  1.40500 13.71800 24.03400
H  2.97500 13.93400 24.67800
H  1.62200 14.47100 25.65700
H  1.30900 11.44400 29.77000
H  4.60600 10.88700 32.47200
H  3.65400 12.22900 33.25300
H  4.97500 12.49100 32.00900
Mg 26.81000 50.46200 26.98100
C  24.62000 51.32100 29.69800
C  29.10100 49.48100 29.28000
C  28.83800 49.90900 24.39600
C  24.32100 51.66200 24.84700
N  26.83700 50.50300 29.23900
C  25.83600 50.78300 30.07800
C  26.37600 50.48800 31.54300
C  27.77300 49.91400 31.42800
C  27.91600 50.05100 29.89700
C  28.83900 50.52400 32.33200
C  25.36800 49.52300 32.29400
C  24.37900 50.10700 33.27900
H  24.17700 49.45500 34.70500
N  28.76800 49.74400 26.85900
C  29.48600 49.41600 27.91700
C  30.79600 48.99000 27.40400
C  30.72700 49.05300 25.97800
C  29.43500 49.59500 25.66300
C  31.91900 48.42700 28.32700
C  31.83700 48.79600 24.92900
O  31.65600 48.98600 23.72000
C  33.23500 48.20800 25.33900
N  26.70200 50.94800 24.94100
C  27.65500 50.56100 24.02700
C  27.23100 50.80200 22.49000
C  25.74400 51.20700 22.71700
C  25.55100 51.32900 24.22500
C  27.92500 51.98600 21.70600
C  24.67500 50.26500 22.03200
C  24.70700 48.75600 22.29700
N  24.94000 51.45100 27.14500
C  24.02900 51.80500 26.17900
C  22.83600 52.38000 26.75900
C  22.99300 52.21900 28.14900
C  24.26800 51.62200 28.31200
C  21.65000 53.09700 26.00800
C  22.44200 52.51000 29.41200
O  21.38800 53.10600 29.68000
C  23.41900 51.93300 30.50200
C  23.67400 53.10100 31.36800
O  24.43000 54.00100 31.22500
O  22.69200 53.13100 32.33800
C  22.78300 54.31600 33.27100
H  29.86400 49.13900 29.98200
H  29.43800 49.72700 23.50200
H  23.57800 51.96600 24.10600
H  26.63300 51.42800 32.03000
H  27.79200 48.84600 31.64500
H  28.91900 51.59000 32.11600
H  29.78600 50.01200 32.16600
H  28.55400 50.46400 33.38300
H  25.88400 48.87400 33.00200
H  24.87900 48.88700 31.55500
H  23.36200 49.89900 32.94300
H  24.49500 51.18700 33.37000
H  31.70500 48.65000 29.37300
H  32.89500 48.80200 28.01900
H  31.83700 47.37300 28.06000
H  33.84100 48.14300 24.43600
H  33.13900 47.27700 25.89800
H  33.79100 48.93500 25.93000
H  27.48500 49.81600 22.09900
H  25.48100 52.16200 22.26200
H  27.57900 52.94600 22.08800
H  27.64400 51.92200 20.65500
H  29.01400 52.01800 21.71500
H  24.90800 50.34500 20.97000
H  23.69200 50.73700 22.01500
H  23.71400 48.38500 22.54900
H  25.34300 48.53200 23.15300
H  24.94800 48.17100 21.40900
H  20.80300 52.93500 26.67500
H  21.49000 52.69000 25.01000
H  22.05600 54.10800 25.96600
H  22.85000 51.18900 31.05900
H  22.88300 55.22000 32.67100
H  23.62000 54.19000 33.95900
H  21.81700 54.34800 33.77500

