158

Mg 8.12600 48.19300 27.80500
C  6.05700 47.85700 30.64700
C  10.78800 48.41900 29.99400
C  10.07500 49.11400 25.27100
C  5.30700 49.12000 26.06900
N  8.42700 48.10100 30.08800
C  7.39500 48.03300 31.06000
C  7.97300 48.04700 32.47700
C  9.56100 48.38000 32.25200
C  9.62300 48.32400 30.71700
C  10.01800 49.73800 32.72300
C  7.73300 46.65400 33.30200
C  8.63900 46.40000 34.55000
H  8.11200 45.54400 35.70200
N  10.19800 48.44100 27.56100
C  11.09700 48.49000 28.58100
C  12.46200 48.44200 28.05500
C  12.32500 48.67300 26.66400
C  10.78100 48.72700 26.40500
C  13.69900 48.30700 28.86300
C  13.37100 48.84400 25.54300
O  13.07000 49.21000 24.40100
C  14.78700 48.68700 25.91400
N  7.76900 49.20700 26.00100
C  8.75900 49.43700 25.10800
C  8.21100 50.24100 23.88500
C  6.62500 50.05900 24.07300
C  6.54000 49.45200 25.48400
C  8.61900 51.76700 23.86400
C  5.86000 49.13000 23.05900
C  4.54200 49.62700 22.48700
N  6.07500 48.24000 28.20900
C  5.05100 48.60000 27.39100
C  3.81000 48.24900 27.92200
C  4.16000 47.91200 29.24800
C  5.51000 48.05500 29.41100
C  2.45900 48.30500 27.20200
C  3.61900 47.58900 30.52200
O  2.49400 47.29700 30.89900
C  4.84900 47.45500 31.49600
C  4.83200 46.01800 31.95900
O  5.09200 45.01800 31.33500
O  4.40500 46.00800 33.27300
C  4.17100 44.65200 33.86900
H  11.69500 48.56700 30.58500
H  10.61900 49.50500 24.40900
H  4.42100 49.46100 25.53000
H  7.51100 48.82700 33.08200
H  10.24400 47.64300 32.67600
H  9.23300 50.18700 33.33200
H  10.24300 50.46900 31.94500
H  10.93800 49.60200 33.29100
H  7.79000 45.75300 32.69100
H  6.79000 46.82400 33.82100
H  8.99800 47.35200 34.94200
H  9.46200 45.87900 34.06100
H  14.31700 47.49200 28.48500
H  13.42200 48.10500 29.89800
H  14.26000 49.24100 28.90400
H  15.18100 49.52200 26.49300
H  15.33300 48.63800 24.97200
H  14.84300 47.74600 26.46200
H  8.66200 49.77200 23.01000
H  6.31400 51.10400 24.08100
H  9.29000 51.99300 24.69200
H  7.80600 52.48700 23.77600
H  9.18800 52.02800 22.97100
H  5.66700 48.22600 23.63500
H  6.50500 48.81800 22.23700
H  3.89300 48.78400 22.72600
H  4.65500 49.74800 21.41000
H  4.25800 50.57700 22.93900
H  2.39100 49.31800 26.80400
H  1.76500 48.21800 28.03800
H  2.42600 47.58300 26.38600
H  4.80700 48.17700 32.31100
H  3.49500 44.75600 34.71800
H  5.06200 44.09700 34.16000
H  3.69800 43.99000 33.14400
Mg -5.37800 25.10200 25.58500
C  -3.74500 26.53000 28.42000
C  -7.23800 23.18600 27.78900
C  -6.79400 23.70900 22.86800
C  -3.21300 26.94500 23.58000
N  -5.50600 24.89600 27.84700
C  -4.82100 25.62500 28.80500
C  -5.40100 25.30700 30.19700
C  -6.22200 24.07400 29.92100
C  -6.39300 24.11900 28.41700
C  -5.68700 22.78900 30.57300
C  -6.11300 26.58300 30.73300
C  -5.98800 26.82300 32.25800
H  -5.51300 25.70900 33.16000
N  -6.78500 23.58700 25.38200
C  -7.38000 22.92100 26.41700
C  -8.33200 21.95000 25.79500
C  -8.14400 22.01700 24.33300
C  -7.25000 23.15800 24.12200
C  -9.22300 21.09700 26.72200
C  -8.83600 21.24600 23.23600
O  -8.70000 21.44900 22.03600
C  -9.76700 20.14100 23.62700
N  -5.11600 25.44900 23.60000
C  -5.82400 24.73100 22.62300
C  -5.10700 24.79500 21.21500
C  -4.20200 26.05900 21.41000
C  -4.14000 26.13800 22.92900
C  -4.31300 23.55400 20.91900
C  -4.79300 27.32000 20.77600
C  -4.05600 27.77300 19.57400
N  -3.87700 26.49000 25.87300
C  -3.07700 27.11800 24.95300
C  -2.21200 28.07500 25.67700
C  -2.45600 27.88000 27.01300
C  -3.37600 26.86300 27.08600
C  -1.28600 29.08200 25.03400
C  -2.17100 28.35800 28.28400
O  -1.49500 29.34100 28.61300
C  -2.91800 27.49400 29.29900
C  -1.95000 26.70900 30.17700
O  -0.87500 26.25500 29.84700
O  -2.49700 26.61000 31.42100
C  -1.65400 26.11700 32.55500
H  -7.93200 22.75200 28.51100
H  -7.32300 23.31100 21.99900
H  -2.62500 27.54000 22.87800
H  -4.63400 24.93000 30.87300
H  -7.25200 24.24100 30.23600
H  -4.64600 22.80400 30.89300
H  -5.63900 22.02100 29.80100
H  -6.35100 22.47900 31.38000
H  -7.17600 26.45100 30.53300
H  -5.78700 27.40100 30.08900
H  -6.89500 27.06400 32.81300
H  -5.35700 27.68500 32.47600
H  -8.73400 20.73400 27.62600
H  -9.69100 20.23200 26.25300
H  -10.13200 21.64600 26.96900
H  -9.22100 19.38800 24.19500
H  -10.30200 19.67700 22.79900
H  -10.51100 20.58800 24.28700
H  -5.89500 24.95700 20.47900
H  -3.14800 25.84000 21.23800
H  -4.64700 22.65200 21.43200
H  -3.22700 23.61900 20.98700
H  -4.62400 23.31500 19.90200
H  -5.02800 28.13800 21.45700
H  -5.81600 27.07100 20.49400
H  -3.15500 27.16900 19.47100
H  -3.66600 28.75700 19.83400
H  -4.60900 27.72800 18.63500
H  -0.68100 28.56700 24.28700
H  -0.58600 29.49600 25.75900
H  -1.84000 29.90000 24.57300
H  -3.55200 28.10200 29.94400
H  -0.59300 26.27500 32.35900
H  -1.81100 25.05200 32.72700
H  -2.00200 26.54700 33.49400

