158

Mg 16.71200 51.86700 26.38400
C  18.45700 50.39100 29.14500
C  14.18100 52.74800 28.57400
C  15.08700 53.07000 23.78200
C  19.16600 50.48500 24.30300
N  16.33700 51.44400 28.61300
C  17.28100 51.01500 29.49200
C  16.91400 51.37400 30.90500
C  15.41100 51.78100 30.73700
C  15.24200 52.03800 29.21900
C  14.42300 50.67700 31.22300
C  17.87300 52.43400 31.50800
C  18.18300 52.25800 33.05800
H  17.08000 51.69600 33.88800
N  14.83200 52.73400 26.15700
C  13.96600 53.06700 27.15500
C  12.87600 53.84100 26.61000
C  13.10100 53.95400 25.26600
C  14.35200 53.22300 24.92700
C  11.76800 54.33600 27.47600
C  12.25700 54.61400 24.15800
O  12.71000 54.79900 23.04100
C  10.85500 55.21200 24.57100
N  16.99000 51.67400 24.27500
C  16.22800 52.35200 23.40600
C  16.85700 52.35700 21.93500
C  18.19600 51.58900 22.16700
C  18.09900 51.18600 23.61700
C  16.13400 51.50800 20.84800
C  19.47900 52.28300 21.81600
C  20.61800 51.46200 21.19700
N  18.43000 50.70000 26.56500
C  19.38600 50.21600 25.65600
C  20.41000 49.42400 26.25100
C  20.09000 49.56000 27.66300
C  18.88100 50.26800 27.75900
C  21.54300 48.73500 25.51600
C  20.53300 49.20600 28.98100
O  21.50800 48.54900 29.32200
C  19.60000 49.86100 30.01900
C  19.21000 48.81500 30.98700
O  18.51400 47.84400 30.80400
O  19.69300 49.20200 32.22000
C  19.32600 48.43700 33.38900
H  13.39900 53.20500 29.18400
H  14.62300 53.46100 22.87400
H  20.05800 50.15300 23.76700
H  17.08600 50.48900 31.51800
H  15.29500 52.75300 31.21600
H  13.47200 51.07700 31.57300
H  14.89500 50.08600 32.00800
H  14.24200 50.02800 30.36600
H  17.35300 53.39100 31.47400
H  18.73400 52.51900 30.84500
H  18.33700 53.25700 33.46700
H  19.16800 51.79400 33.10200
H  10.91200 53.70400 27.23900
H  11.53900 55.34000 27.11800
H  12.00300 54.31500 28.54000
H  10.20300 55.34400 23.70800
H  10.94300 56.11900 25.17000
H  10.26100 54.48200 25.12000
H  16.97700 53.39900 21.63600
H  18.27600 50.62800 21.65900
H  15.63200 50.59800 21.17700
H  16.80700 51.28400 20.02100
H  15.36400 52.08100 20.33200
H  19.81300 52.70100 22.76500
H  19.35100 53.14400 21.15900
H  20.32500 50.50200 20.77100
H  21.30200 51.29100 22.02800
H  21.13400 52.10600 20.48600
H  21.41300 47.66400 25.35900
H  22.41000 49.04100 26.10100
H  21.65700 49.09700 24.49400
H  20.07600 50.68000 30.55700
H  18.23700 48.42700 33.33800
H  19.63400 48.87900 34.33600
H  19.57200 47.38000 33.28400
Mg 9.38300 48.63000 25.60000
C  7.24500 48.67000 28.45500
C  11.95000 49.51500 27.70000
C  11.24000 48.18200 23.01200
C  6.44000 48.04900 23.64700
N  9.57100 49.01700 27.81100
C  8.54800 48.97600 28.73600
C  9.07000 49.48400 30.15200
C  10.52500 50.09400 29.71800
C  10.71100 49.51300 28.34000
C  10.64400 51.66200 29.71900
C  9.12900 48.35200 31.20000
C  8.93800 48.61900 32.71000
H  8.69800 47.46600 33.75200
N  11.32500 48.79400 25.47500
C  12.28600 49.14400 26.38000
C  13.56400 49.13700 25.68300
C  13.38500 48.53000 24.40100
C  11.94500 48.48100 24.21800
C  14.85400 49.41300 26.38300
C  14.37300 48.18700 23.35700
O  13.93000 47.62700 22.34300
C  15.78100 48.46300 23.50300
N  8.86800 48.24400 23.54700
C  9.88000 48.06100 22.68000
C  9.41000 47.61700 21.29300
C  7.84400 47.68300 21.44000
C  7.69500 47.98300 22.95900
C  9.93500 48.48700 20.17800
C  6.97900 46.50000 20.94000
C  6.45100 46.58200 19.51700
N  7.26300 48.46200 25.90900
C  6.18000 48.35100 25.01200
C  4.97400 48.31400 25.74700
C  5.31900 48.50100 27.04500
C  6.73900 48.57300 27.13800
C  3.61100 48.20200 25.25600
C  4.76200 48.64100 28.39700
O  3.63700 48.74100 28.82500
C  6.01200 48.70700 29.32900
C  5.93700 47.59100 30.29600
O  6.37500 46.45000 30.15200
O  5.37100 48.05500 31.42700
C  5.15600 47.08200 32.48200
H  12.74900 50.03200 28.23500
H  11.82900 48.05900 22.10100
H  5.55600 47.91400 23.02100
H  8.47300 50.31900 30.52000
H  11.30700 49.62700 30.31800
H  11.50500 52.09900 30.22500
H  9.76800 52.18200 30.10600
H  10.68100 52.13000 28.73500
H  10.17500 48.06100 31.29600
H  8.60700 47.43300 30.93300
H  8.07900 49.24100 32.96000
H  9.80900 49.15600 33.08700
H  15.34800 50.21100 25.82800
H  15.49300 48.53000 26.36200
H  14.70400 49.72700 27.41500
H  16.30000 48.31200 22.55700
H  16.21700 47.87000 24.30700
H  15.97200 49.47700 23.85400
H  9.85900 46.62400 21.30900
H  7.33500 48.43600 20.83800
H  10.39400 49.34900 20.66300
H  9.13400 48.78100 19.50100
H  10.66500 47.99200 19.53700
H  6.12900 46.32900 21.60000
H  7.46200 45.52500 20.99500
H  7.10900 47.29100 19.01400
H  5.42300 46.94300 19.51700
H  6.51200 45.59300 19.06400
H  3.29700 49.21400 25.00200
H  2.98200 47.75000 26.02300
H  3.60300 47.49400 24.42800
H  5.98600 49.64100 29.89000
H  4.33400 46.42000 32.20900
H  4.95800 47.50500 33.46700
H  6.12300 46.61200 32.66100

