158

Mg 0.10600 6.39300 25.76200
C  0.83100 8.47900 28.64500
C  0.12600 3.69200 28.03100
C  -0.41100 4.49400 23.09700
C  0.50600 9.20300 23.79700
N  0.23300 6.19200 28.13100
C  0.58600 7.16700 29.02000
C  0.83600 6.59500 30.43300
C  0.84000 5.09200 30.13500
C  0.33900 4.93200 28.70300
C  2.18100 4.30900 30.38000
C  -0.30100 7.15400 31.36200
C  0.22200 7.64400 32.75300
H  1.30600 6.92400 33.58500
N  -0.22300 4.36600 25.55700
C  -0.20600 3.42100 26.57400
C  -0.60700 2.15800 25.95100
C  -0.68500 2.35000 24.55400
C  -0.41500 3.82000 24.34300
C  -0.76200 0.84700 26.66100
C  -1.15900 1.41700 23.45600
O  -1.13800 1.77600 22.29300
C  -1.46800 -0.02400 23.73900
N  0.18000 6.81500 23.70200
C  -0.22900 5.83500 22.86400
C  -0.43800 6.51100 21.46900
C  -0.50000 8.05600 21.75800
C  0.10300 8.07000 23.18900
C  0.63900 6.05900 20.46200
C  -1.90200 8.78500 21.57100
C  -2.65200 8.35800 20.39200
N  0.69300 8.45300 26.08800
C  0.83400 9.44100 25.15900
C  1.29000 10.60500 25.84800
C  1.28400 10.26200 27.20300
C  0.92100 8.99400 27.33800
C  1.56200 11.92200 25.11900
C  1.44300 10.88000 28.48600
O  1.73700 12.04900 28.81200
C  1.22300 9.71000 29.50900
C  2.53200 9.56200 30.20700
O  3.47300 8.90700 29.74800
O  2.55200 10.11200 31.48600
C  3.88700 10.14200 32.13000
H  0.41000 2.85800 28.67600
H  -0.57800 3.96200 22.15800
H  0.64500 10.05900 23.13400
H  1.78500 6.94500 30.84000
H  0.06200 4.57000 30.69200
H  2.64000 4.14200 29.40600
H  1.98200 3.37800 30.91000
H  2.90700 4.81200 31.02000
H  -1.03800 6.36000 31.48200
H  -0.71400 8.04600 30.89000
H  -0.58400 7.76300 33.47700
H  0.58600 8.63900 32.49600
H  -0.06600 0.16800 26.16800
H  -1.78900 0.50600 26.52500
H  -0.46100 0.93900 27.70400
H  -2.28900 -0.20400 24.43300
H  -0.57100 -0.50200 24.13200
H  -1.79200 -0.55800 22.84600
H  -1.38300 6.10500 21.10900
H  0.28400 8.52300 21.16100
H  1.13900 6.96300 20.11400
H  0.09100 5.52700 19.68400
H  1.43900 5.43100 20.85300
H  -1.81800 9.87200 21.56000
H  -2.57500 8.57600 22.40300
H  -3.55200 7.79800 20.65000
H  -2.21300 7.55500 19.79900
H  -2.74400 9.17400 19.67500
H  0.93300 11.98500 24.23200
H  2.60000 12.06000 24.81400
H  1.33400 12.80100 25.72200
H  0.46500 9.81200 30.28600
H  3.94500 10.87000 32.94000
H  4.73600 10.39700 31.49600
H  3.96300 9.26300 32.76900
Mg -10.25500 17.72200 42.94200
C  -6.81000 16.70100 42.63000
C  -9.10400 20.96400 41.99300
C  -13.37000 18.55200 42.13300
C  -11.04200 14.40600 43.34900
N  -8.22900 18.71100 42.25200
C  -6.95500 18.10200 42.39500
C  -5.80100 19.10200 42.15600
C  -6.53600 20.42600 42.18200
C  -8.00500 20.01500 42.20700
C  -6.18300 21.36800 43.36300
C  -5.02400 18.96600 40.81700
C  -5.74700 18.57300 39.52200
H  -4.95800 18.64900 38.20200
N  -11.13300 19.49900 42.22400
C  -10.51200 20.71000 41.95100
C  -11.48500 21.63100 41.56000
C  -12.77500 20.97600 41.55500
C  -12.51200 19.62400 41.94200
C  -11.15300 23.00700 41.01900
C  -14.13700 21.61700 40.99200
O  -14.15100 22.78100 40.61200
C  -15.37700 20.86600 40.85400
N  -11.91500 16.62100 42.70000
C  -13.09900 17.22900 42.50000
C  -14.27900 16.22500 42.68900
C  -13.54400 14.87900 42.95100
C  -12.05500 15.31100 42.97000
C  -15.41400 16.61600 43.73400
C  -13.78200 13.83200 41.81800
C  -13.80000 12.31000 42.19800
N  -9.20000 15.89800 43.08500
C  -9.66100 14.58000 43.15000
C  -8.60800 13.61700 43.14400
C  -7.46000 14.39300 42.97100
C  -7.85500 15.78300 42.87300
C  -8.83000 12.15200 43.42200
C  -5.96300 14.33200 42.89100
O  -5.12300 13.47900 42.89200
C  -5.51800 15.84300 42.50000
C  -4.46000 16.23800 43.48800
O  -3.26200 16.28000 43.35600
O  -5.04900 16.82400 44.59300
C  -4.06000 17.34500 45.62300
H  -8.80600 21.99800 41.80800
H  -14.43300 18.76100 41.99200
H  -11.40500 13.41300 43.62200
H  -5.06600 19.02600 42.95800
H  -6.37700 21.07100 41.31800
H  -5.35300 20.98500 43.95800
H  -7.01600 21.51500 44.05000
H  -5.83100 22.32600 42.97900
H  -4.38400 18.08800 40.91000
H  -4.39600 19.83900 40.64200
H  -6.67100 19.13500 39.38500
H  -6.07300 17.54300 39.66900
H  -11.76000 23.47000 40.24100
H  -10.19000 23.00700 40.50700
H  -10.99900 23.69500 41.85000
H  -15.84700 20.59800 41.80100
H  -15.16200 19.98600 40.24700
H  -16.11200 21.49400 40.35200
H  -14.97800 16.18700 41.85400
H  -13.71500 14.47200 43.94800
H  -16.35400 16.99500 43.33200
H  -14.89200 17.26500 44.43700
H  -15.61600 15.65800 44.21200
H  -12.95100 13.87700 41.11500
H  -14.59400 14.06400 41.12900
H  -14.85600 12.08200 42.04700
H  -13.48700 12.25100 43.24100
H  -13.14200 11.73400 41.54700
H  -8.85200 11.53000 42.52800
H  -9.70500 11.94400 44.03900
H  -7.95300 11.82300 43.97900
H  -5.21300 15.77700 41.45500
H  -3.30600 16.60200 45.88000
H  -4.58000 17.49700 46.56900
H  -3.59400 18.28000 45.31100

