158

Mg 48.15300 44.46500 42.39500
C  44.71500 43.97200 42.15700
C  48.50900 41.06000 41.86000
C  51.47200 44.91900 42.09700
C  47.66100 47.81900 41.76900
N  46.75000 42.72800 42.10000
C  45.41200 42.75900 42.22400
C  44.73900 41.36500 42.20600
C  46.05600 40.42500 42.12400
C  47.17900 41.46600 42.00500
C  46.40900 39.45800 43.36800
C  43.75000 41.15800 41.01800
C  43.92600 41.92700 39.70100
H  44.45500 41.06000 38.48100
N  49.72600 43.17500 42.16200
C  49.65800 41.78600 41.93200
C  50.98500 41.33000 41.84200
C  51.90800 42.41400 42.01900
C  51.04500 43.59000 42.15800
C  51.29100 39.91700 41.43000
C  53.41500 42.37300 42.01200
O  53.95500 41.34700 41.72100
C  54.35000 43.59300 42.25500
N  49.32100 46.17000 42.17800
C  50.71300 46.04400 42.20600
C  51.44100 47.42100 41.97000
C  50.18100 48.33700 41.87400
C  48.98500 47.39700 41.94800
C  52.48000 47.75400 42.96700
C  50.20200 49.20600 40.55800
C  49.44900 50.50400 40.68200
N  46.53000 45.74900 42.12000
C  46.47100 47.13700 41.84300
C  45.08500 47.54400 41.67200
C  44.32500 46.31200 41.87000
C  45.26100 45.24600 42.11300
C  44.52900 48.96900 41.51200
C  42.96800 45.70400 41.73400
O  41.86700 46.18500 41.46200
C  43.20700 44.19900 41.96600
C  42.46100 43.80300 43.12500
O  41.31500 43.43300 43.06300
O  43.11400 44.17700 44.25100
C  42.50000 43.51900 45.44100
H  48.57600 39.97800 41.72700
H  52.53700 45.12600 41.97100
H  47.38000 48.86500 41.62400
H  44.31000 41.30600 43.20700
H  46.07500 39.89200 41.17300
H  45.54000 39.44900 44.02500
H  47.20900 39.84100 44.00000
H  46.49200 38.39700 43.13000
H  42.78100 41.36300 41.47500
H  43.74200 40.11700 40.69400
H  44.71400 42.66400 39.85600
H  43.03300 42.45700 39.36900
H  51.36400 39.80400 40.34800
H  50.48700 39.32700 41.87000
H  52.24400 39.55200 41.81200
H  54.43000 44.29200 41.42300
H  55.31100 43.09400 42.38200
H  54.02800 44.11000 43.15900
H  51.85700 47.43200 40.96300
H  50.08100 49.03900 42.70100
H  52.20300 47.16300 43.84000
H  52.52000 48.82100 43.18800
H  53.49100 47.45700 42.68600
H  49.68700 48.69700 39.74300
H  51.20100 49.45200 40.19800
H  48.99600 50.58600 41.67000
H  48.64200 50.49400 39.95000
H  50.14300 51.32400 40.49200
H  43.61600 49.05200 40.92300
H  45.15600 49.73700 41.06000
H  44.24900 49.37500 42.48400
H  42.70400 43.69100 41.14300
H  41.97000 44.26100 46.03900
H  43.32900 43.20400 46.07500
H  41.85600 42.67600 45.19400
Mg 35.41800 49.82100 25.36500
C  35.51600 48.00800 28.41400
C  33.90300 52.33400 27.11700
C  34.78300 51.39900 22.40600
C  36.14700 46.85300 23.71300
N  34.71600 50.07900 27.61300
C  35.03600 49.28400 28.66200
C  34.79000 50.03700 30.00200
C  34.16200 51.39900 29.51800
C  34.15700 51.27300 28.00100
C  32.65700 51.62400 29.90100
C  36.11100 50.28100 30.84300
C  36.06800 50.02200 32.35300
H  34.79400 49.68400 33.08300
N  34.56300 51.62100 24.81900
C  34.04900 52.52200 25.68900
C  33.79600 53.76300 25.02200
C  34.09300 53.58400 23.60400
C  34.47100 52.13200 23.52200
C  33.22500 54.95600 25.79700
C  33.94900 54.46400 22.42100
O  34.27100 54.14800 21.29100
C  33.42200 55.83600 22.58500
N  35.25100 49.17000 23.31200
C  35.15300 50.04200 22.25300
C  35.58800 49.34900 20.95100
C  36.05700 47.95000 21.42200
C  35.80000 47.98500 22.90900
C  34.54900 49.32900 19.78100
C  37.59200 47.63900 21.19600
C  37.93100 46.29000 20.40000
N  35.76600 47.89200 25.92500
C  36.02600 46.78900 25.11200
C  36.17000 45.62000 25.90500
C  36.00700 46.07000 27.16000
C  35.77800 47.46800 27.18600
C  36.52000 44.25700 25.42700
C  36.11700 45.62200 28.49100
O  36.46100 44.53700 28.96700
C  35.74600 46.84800 29.36800
C  34.61000 46.42000 30.17900
O  33.45100 46.64500 29.86300
O  34.97600 45.96300 31.38800
C  33.91200 45.71800 32.34900
H  33.51700 53.19300 27.67000
H  34.79100 51.97200 21.47600
H  36.45000 45.99900 23.10400
H  34.14200 49.46400 30.66500
H  34.75500 52.28300 29.75500
H  32.28600 50.87600 30.60100
H  32.00700 51.41200 29.05200
H  32.46500 52.62800 30.27900
H  36.55600 51.26400 30.68800
H  36.76300 49.51900 30.41500
H  36.62700 50.83300 32.82000
H  36.77900 49.19900 32.42600
H  32.32100 54.52400 26.22600
H  32.92700 55.89100 25.32300
H  33.87600 55.23500 26.62600
H  32.35300 55.88200 22.79500
H  33.65000 56.47300 21.73100
H  33.87200 56.33500 23.44300
H  36.48000 49.88100 20.62000
H  35.44100 47.15300 21.00600
H  33.59100 49.58000 20.23500
H  34.45200 48.32600 19.36600
H  34.61400 49.97400 18.90400
H  38.13800 47.49100 22.12700
H  38.09500 48.44500 20.66200
H  38.12100 45.53900 21.16600
H  38.69400 46.36400 19.62500
H  37.01500 46.10500 19.83900
H  35.56300 44.10900 24.92700
H  36.67800 43.56300 26.25100
H  37.40100 44.35900 24.79200
H  36.59700 47.06200 30.01400
H  33.56200 44.68900 32.26400
H  33.14100 46.48700 32.30200
H  34.33600 45.70700 33.35300

