158

Mg 16.47100 -2.60400 28.36900
C  15.58100 -0.77500 31.31000
C  18.76800 -4.32900 30.32800
C  17.96500 -3.67300 25.55300
C  14.52900 -0.46400 26.51500
N  17.21500 -2.38400 30.55000
C  16.56400 -1.74600 31.56300
C  17.21700 -2.12000 32.94700
C  18.29800 -3.17200 32.55900
C  18.06400 -3.35400 31.01400
C  19.77500 -2.62300 33.02900
C  16.06200 -2.68500 33.89200
C  15.84100 -1.92100 35.28800
H  17.05100 -1.18600 35.90400
N  17.97800 -3.95900 27.99900
C  18.72900 -4.61900 28.93700
C  19.60200 -5.52500 28.23000
C  19.41900 -5.37000 26.82100
C  18.45100 -4.30300 26.70500
C  20.53900 -6.55400 28.95600
C  20.12000 -5.98900 25.66300
O  19.69400 -5.89600 24.51300
C  21.19900 -6.96300 25.83800
N  16.16400 -2.20700 26.27800
C  16.99800 -2.69500 25.38100
C  16.81200 -2.00100 23.99000
C  15.58900 -1.14100 24.20200
C  15.37200 -1.27200 25.75600
C  18.09000 -1.30800 23.55900
C  14.35100 -1.41600 23.28300
C  14.11700 -0.36800 22.25000
N  15.21100 -1.08000 28.82700
C  14.43200 -0.30400 27.91200
C  13.67600 0.64600 28.61900
C  14.09800 0.48200 29.95100
C  14.99900 -0.55000 30.04700
C  12.63300 1.51400 28.11900
C  13.90200 0.97600 31.33600
O  13.25900 1.91800 31.70300
C  14.90600 0.15900 32.30100
C  15.79600 1.12100 33.00100
O  17.01100 1.25700 32.85000
O  15.05800 1.92000 33.81400
C  15.76600 2.97800 34.49100
H  19.44900 -4.82700 31.02100
H  18.59200 -3.73500 24.66100
H  14.03000 0.19900 25.80500
H  17.60400 -1.28600 33.53200
H  18.06000 -4.07900 33.11400
H  19.84100 -1.74700 33.67400
H  20.25900 -2.36900 32.08500
H  20.28700 -3.47100 33.48400
H  16.15900 -3.73700 34.16000
H  15.10300 -2.60300 33.38100
H  15.59400 -2.72900 35.97700
H  15.07100 -1.15200 35.35300
H  21.54100 -6.24800 28.65700
H  20.34700 -7.54700 28.54800
H  20.46100 -6.56600 30.04300
H  20.85900 -7.80400 26.44200
H  22.05700 -6.50400 26.32900
H  21.46500 -7.30000 24.83600
H  16.46700 -2.68900 23.21800
H  15.98200 -0.13000 24.09800
H  18.15300 -1.06600 22.49800
H  18.94500 -1.90800 23.87100
H  18.21800 -0.36600 24.09300
H  13.44700 -1.54500 23.87800
H  14.37400 -2.29800 22.64400
H  14.06100 -0.71900 21.22000
H  14.87100 0.41900 22.23600
H  13.18300 0.17200 22.40000
H  12.39300 1.32700 27.07300
H  12.94300 2.55100 28.24900
H  11.78700 1.32500 28.78000
H  14.36300 -0.50600 32.97400
H  16.00600 3.80800 33.82700
H  16.64600 2.58200 34.99800
H  15.12500 3.33100 35.29800
Mg 24.93100 1.24200 29.80000
C  27.03500 0.84000 32.68900
C  22.22400 0.97400 31.99200
C  23.00400 1.32900 27.13700
C  27.68000 0.52200 27.88000
N  24.70300 0.83000 32.08400
C  25.70000 0.86400 33.05500
C  25.19700 1.07700 34.43800
C  23.64100 0.97300 34.19400
C  23.47600 0.84200 32.66500
C  22.88500 -0.08600 34.97100
C  25.58700 2.51600 35.01100
C  26.68200 2.67600 36.08200
H  26.50500 3.48400 37.33200
N  22.88500 1.06100 29.60300
C  21.95400 0.98800 30.59900
C  20.63000 0.93300 29.99000
C  20.83600 1.07400 28.56300
C  22.24100 1.14400 28.37000
C  19.31400 0.56700 30.78300
C  19.79100 1.03000 27.49600
O  20.00200 1.02400 26.31000
C  18.33300 0.73200 27.81300
N  25.28300 0.88200 27.83400
C  24.40000 1.21900 26.91300
C  24.98300 1.27200 25.45000
C  26.39900 0.64400 25.70800
C  26.51600 0.78400 27.24000
C  24.20900 0.63000 24.25800
C  27.56000 1.29900 24.90800
C  28.21500 2.47000 25.46000
N  26.97000 0.96200 30.15200
C  27.91100 0.61900 29.23700
C  29.24100 0.43500 29.89500
C  28.95600 0.58600 31.25200
C  27.55700 0.80500 31.35600
C  30.55800 0.08100 29.30900
C  29.42700 0.52700 32.50900
O  30.56900 0.38100 32.86800
C  28.27700 0.82800 33.49600
C  28.34200 -0.05100 34.65800
O  27.78200 -1.15500 34.66600
O  29.11600 0.40300 35.66100
C  29.40200 -0.35900 36.88800
H  21.35800 0.96900 32.65600
H  22.38300 1.47000 26.24900
H  28.61900 0.29900 27.36900
H  25.60800 0.36700 35.15600
H  23.07100 1.88600 34.36900
H  22.34500 -0.79400 34.34200
H  22.14400 0.46400 35.55000
H  23.46800 -0.68400 35.67200
H  24.73000 3.10200 35.34000
H  26.05000 3.07500 34.19700
H  27.60400 3.02600 35.61700
H  27.05100 1.73200 36.48200
H  19.46000 0.10700 31.76100
H  18.86700 -0.17900 30.12600
H  18.73400 1.47400 30.95300
H  17.87100 1.23900 28.66000
H  18.15200 -0.31200 28.06600
H  17.70400 0.87400 26.93500
H  24.98400 2.34200 25.24300
H  26.34600 -0.39900 25.39600
H  23.17800 0.33200 24.44500
H  24.82500 -0.19600 23.90400
H  24.24100 1.31500 23.41100
H  27.15800 1.60500 23.94200
H  28.30400 0.52400 24.72200
H  28.34000 3.21300 24.67300
H  29.21300 2.32300 25.87300
H  27.70300 3.03100 26.24200
H  30.72500 0.26700 28.24900
H  30.60600 -0.98900 29.51500
H  31.28800 0.67600 29.85800
H  28.57300 1.80600 33.87500
H  28.61600 -0.35800 37.64200
H  30.29800 0.05700 37.35000
H  29.40200 -1.44800 36.83100

