158

Mg 48.87200 35.62100 28.31800
C  46.96700 33.73700 30.64500
C  48.91000 38.13600 30.66000
C  50.49400 37.39100 26.10000
C  48.70000 32.93200 26.20400
N  48.25100 35.84500 30.56400
C  47.54100 34.87400 31.24100
C  47.33900 35.33300 32.72800
C  47.70000 36.90300 32.58500
C  48.36300 36.96400 31.19800
C  46.55400 37.87200 32.80000
C  48.31600 34.45000 33.45800
C  47.97300 34.11000 34.92600
H  47.04200 35.10500 35.70300
N  49.67100 37.48900 28.35700
C  49.55000 38.37700 29.39200
C  50.19100 39.58900 29.06600
C  50.72400 39.45500 27.73100
C  50.25800 38.07600 27.28400
C  50.26000 40.72400 29.98700
C  51.62900 40.37800 26.95900
O  52.08200 40.09000 25.84000
C  52.15800 41.63800 27.61900
N  49.24800 35.27400 26.33100
C  50.11400 36.14500 25.65200
C  50.51600 35.52700 24.29800
C  50.16100 34.06500 24.46900
C  49.31300 34.03200 25.74500
C  49.94800 36.22000 23.05900
C  51.32500 33.02700 24.51300
C  51.87400 32.50900 23.17600
N  47.77100 33.81200 28.23000
C  47.88700 32.79800 27.31400
C  47.06600 31.68200 27.69500
C  46.58900 32.07400 29.01100
C  47.10600 33.31400 29.31600
C  46.94900 30.48200 27.00500
C  45.76400 31.68600 30.08600
O  45.09800 30.65300 30.21500
C  45.88200 32.79300 31.14700
C  46.04500 32.16600 32.51400
O  46.88600 31.31200 32.75400
O  44.99100 32.58400 33.37700
C  44.85700 31.92000 34.73200
H  48.80100 38.94900 31.38200
H  51.13600 37.87400 25.36000
H  48.82100 32.02300 25.61000
H  46.32400 35.18500 33.09800
H  48.53600 37.25900 33.18600
H  46.38400 38.45000 31.89200
H  46.79500 38.53200 33.63300
H  45.69500 37.22700 32.98600
H  49.23700 35.03000 33.39500
H  48.51300 33.55000 32.87500
H  48.96300 34.34100 35.32000
H  47.85500 33.05100 35.15900
H  51.21000 41.25100 30.07500
H  50.14300 40.39900 31.02100
H  49.53800 41.46000 29.63300
H  51.48100 42.37700 28.04900
H  52.67500 42.05100 26.75200
H  52.96700 41.33000 28.28100
H  51.59300 35.69600 24.30600
H  49.48600 33.77900 23.66300
H  49.70300 37.22700 23.39800
H  49.07600 35.72700 22.63000
H  50.67000 36.31600 22.24800
H  50.88900 32.17600 25.03600
H  52.13300 33.43800 25.11900
H  51.22600 32.87300 22.37800
H  51.79300 31.42400 23.24400
H  52.93700 32.73200 23.07500
H  47.70600 30.36300 26.22900
H  46.01300 30.42000 26.45000
H  47.04900 29.64400 27.69300
H  45.00800 33.43300 31.26300
H  45.73100 31.35200 35.04900
H  44.06000 31.17800 34.77200
H  44.77300 32.60100 35.57900
Mg 9.61700 48.52300 24.75300
C  7.52500 48.60500 27.65200
C  12.12100 49.88800 26.51600
C  11.45100 48.44300 22.04700
C  6.69700 47.47700 22.95400
N  9.70900 49.16300 26.95500
C  8.86300 49.03500 27.94200
C  9.45700 49.50000 29.27300
C  10.74300 50.24500 28.65600
C  10.89000 49.67400 27.28800
C  10.54100 51.76600 28.64100
C  9.76200 48.28000 30.13800
C  9.29100 48.55100 31.55600
H  9.46200 47.54900 32.72100
N  11.54700 48.99400 24.42300
C  12.42700 49.46700 25.26000
C  13.73200 49.51800 24.62600
C  13.57200 49.20900 23.27200
C  12.16900 48.87800 23.20800
C  14.96500 49.83900 25.42900
C  14.58500 48.99600 22.23000
O  14.31100 48.81600 21.05100
C  16.07000 49.02800 22.54400
N  9.08500 48.06100 22.77700
C  10.04400 48.06100 21.84400
C  9.58100 47.64100 20.45100
C  8.10800 47.17500 20.73300
C  7.93800 47.59500 22.24300
C  9.73400 48.87500 19.51600
C  7.83400 45.66100 20.50800
C  8.40700 44.70500 21.64400
N  7.49200 48.32300 25.15500
C  6.49700 47.94700 24.30700
C  5.28900 47.80800 24.99500
C  5.59700 47.93200 26.37700
C  6.97400 48.33300 26.41100
C  3.95900 47.42300 24.47400
C  5.13800 47.84300 27.68400
O  4.07700 47.47200 28.13400
C  6.35600 48.20200 28.60500
C  6.53800 47.02500 29.38200
O  7.05900 45.95400 29.00400
O  6.01300 47.24000 30.59200
C  6.13400 46.05600 31.49500
H  12.94600 50.37700 27.03900
H  12.08300 48.33000 21.16400
H  5.83000 47.00000 22.49000
H  8.70400 50.18200 29.66800
H  11.54700 49.96900 29.33800
H  10.90000 52.12400 27.67600
H  11.05400 52.15400 29.52000
H  9.50100 52.07100 28.76100
H  10.83300 48.08300 30.09600
H  9.28900 47.35400 29.81200
H  8.21700 48.67800 31.42000
H  9.72300 49.45900 31.97600
H  14.80700 49.86100 26.50800
H  15.44400 50.80400 25.26600
H  15.73000 49.08300 25.24800
H  16.35200 48.20000 23.19500
H  16.01200 50.00200 23.02900
H  16.51800 49.10000 21.55300
H  10.16200 46.77800 20.12400
H  7.36900 47.75300 20.17900
H  10.38900 48.58400 18.69500
H  10.15300 49.76000 19.99600
H  8.76200 49.19900 19.14300
H  8.29500 45.52600 19.52900
H  6.77000 45.45800 20.38700
H  9.13300 45.20300 22.28800
H  8.92000 43.80500 21.30700
H  7.55300 44.33700 22.21200
H  3.33200 47.39900 25.36600
H  3.88000 46.36800 24.21200
H  3.69200 48.04000 23.61700
H  6.08300 49.05500 29.22700
H  7.20600 45.99200 31.68200
H  5.81900 45.08900 31.10000
H  5.69000 46.21900 32.47700

