158

Mg -0.55300 6.93800 26.41300
C  0.29000 8.99700 29.07700
C  -0.93800 4.27400 28.53500
C  -0.97700 4.79400 23.75300
C  0.41600 9.45100 24.16200
N  -0.35300 6.62400 28.59400
C  -0.00100 7.66300 29.53000
C  -0.09900 7.16900 30.94000
C  -0.32000 5.58000 30.71600
C  -0.46400 5.43400 29.20800
C  0.75700 4.59100 31.34100
C  -1.14400 7.92400 31.75100
C  -0.96200 8.00700 33.31700
H  0.25500 7.29600 33.94300
N  -0.86600 4.79500 26.13700
C  -0.95300 3.90500 27.19500
C  -1.22000 2.56500 26.67600
C  -1.30600 2.66800 25.29200
C  -1.11500 4.13700 25.01100
C  -1.43800 1.33900 27.59200
C  -1.52200 1.58400 24.19100
O  -1.70200 1.83500 23.00300
C  -1.53600 0.14600 24.47400
N  -0.22400 7.08300 24.22700
C  -0.55900 6.06600 23.37700
C  -0.59500 6.68300 21.95200
C  -0.11000 8.16700 22.08100
C  0.10300 8.23000 23.57800
C  0.16000 5.91500 20.89900
C  -1.15300 9.29500 21.62800
C  -2.45500 9.40600 22.47300
N  0.18000 8.80800 26.56200
C  0.44300 9.74700 25.57100
C  0.58700 11.01700 26.17900
C  0.64000 10.81600 27.58500
C  0.32800 9.42100 27.74300
C  0.73200 12.33000 25.40600
C  0.88600 11.41400 28.84500
O  1.17100 12.55000 29.15700
C  0.51500 10.28800 29.90000
C  1.77900 10.07200 30.76000
O  2.69200 9.28100 30.60200
O  1.71100 10.91100 31.85500
C  2.89000 10.76100 32.73000
H  -1.29000 3.45400 29.16400
H  -1.28400 4.22600 22.87200
H  0.61300 10.21100 23.40300
H  0.87600 7.37800 31.38000
H  -1.33600 5.32300 31.01500
H  1.37600 5.13200 32.05700
H  1.22500 4.05800 30.51400
H  0.11500 3.83200 31.78700
H  -2.08700 7.38800 31.64100
H  -1.46400 8.80800 31.19900
H  -1.87500 7.69000 33.82100
H  -0.89700 9.03200 33.68300
H  -2.17600 0.71800 27.08400
H  -1.83900 1.58100 28.57600
H  -0.49000 0.80300 27.63000
H  -2.49600 -0.06700 24.94400
H  -0.71600 -0.18700 25.11000
H  -1.64700 -0.35700 23.51300
H  -1.65000 6.74700 21.68800
H  0.90600 8.26900 21.69900
H  0.47700 4.93000 21.24400
H  1.03500 6.44900 20.52800
H  -0.47000 5.69300 20.03800
H  -1.43500 8.96000 20.63000
H  -0.62700 10.23600 21.46800
H  -3.26800 8.78300 22.10000
H  -2.87000 10.41100 22.40000
H  -2.32200 9.26700 23.54600
H  -0.10500 12.71600 24.82300
H  1.51700 12.09400 24.68700
H  1.07500 13.01900 26.17600
H  -0.25700 10.59500 30.60500
H  2.59100 10.97900 33.75500
H  3.43200 11.70400 32.65300
H  3.62800 9.95900 32.76400
Mg 49.33900 45.42500 43.37600
C  45.95900 46.00100 42.48100
C  48.96500 42.18100 42.48400
C  52.66500 45.18400 43.55600
C  49.65700 49.09600 43.70900
N  47.63300 44.30800 42.61900
C  46.33800 44.65900 42.43700
C  45.49700 43.46200 42.04500
C  46.43700 42.29200 42.26300
C  47.76000 42.98900 42.45000
C  46.04200 41.36300 43.38600
C  45.03400 43.43600 40.47900
C  46.10600 43.71900 39.33900
H  46.23000 42.69000 38.20800
N  50.67700 43.83600 43.08100
C  50.28400 42.60800 42.65000
C  51.47300 41.75100 42.65200
C  52.61600 42.54800 43.12200
C  52.05100 43.90900 43.25500
C  51.46400 40.23000 42.27800
C  54.06500 42.05600 43.40600
O  54.25000 40.82000 43.37300
C  55.28900 42.97600 43.66300
N  50.91500 47.00700 43.61000
C  52.22000 46.50900 43.69300
C  53.15000 47.73000 44.01200
C  52.23000 48.95800 43.82000
C  50.80900 48.32600 43.79000
C  53.71000 47.61600 45.42900
C  52.44800 49.84200 42.52100
C  53.03000 51.25800 42.74500
N  48.11300 47.28700 43.13600
C  48.36200 48.60600 43.31400
C  47.11600 49.37300 43.04400
C  46.11900 48.41000 42.68500
C  46.81000 47.14800 42.77700
C  46.92700 50.89900 43.06900
C  44.73900 48.15600 42.42300
O  43.83100 48.92600 42.33800
C  44.66900 46.59300 42.11400
C  43.47700 45.96900 42.78900
O  42.50000 45.54000 42.24400
O  43.54000 46.32000 44.15800
C  42.31000 46.07600 44.89900
H  48.75300 41.12500 42.30500
H  53.74200 45.07900 43.70400
H  49.72000 50.18400 43.78500
H  44.60100 43.54700 42.65900
H  46.58000 41.74100 41.33400
H  45.35100 41.93800 44.00200
H  46.94800 40.96800 43.84600
H  45.44800 40.50200 43.07900
H  44.23000 44.17100 40.42500
H  44.51700 42.51100 40.22300
H  47.06800 43.77600 39.84800
H  45.94400 44.70900 38.91300
H  50.51400 40.01500 41.78900
H  51.44900 39.56900 43.14400
H  52.30500 40.03400 41.61300
H  55.14900 43.81700 42.98400
H  56.18100 42.43000 43.35500
H  55.34200 43.15400 44.73700
H  54.00900 47.67200 43.34300
H  52.34000 49.52300 44.74500
H  53.56300 48.45500 46.10800
H  54.78700 47.56700 45.26800
H  53.32800 46.68700 45.85100
H  51.53000 49.92900 41.93900
H  53.13800 49.24800 41.92200
H  53.36400 51.28800 43.78200
H  52.34000 52.06600 42.50000
H  53.91800 51.43700 42.13900
H  47.40100 51.53000 43.82100
H  45.85700 51.04000 42.92100
H  47.43300 51.18700 42.14700
H  44.48200 46.43400 41.05200
H  41.97500 45.04000 44.86100
H  41.55300 46.78200 44.55700
H  42.52800 46.37700 45.92400

