158

Mg 25.67200 1.32900 29.27200
C  27.76600 0.80700 32.04200
C  23.04700 1.70700 31.38000
C  23.80400 1.44500 26.58000
C  28.40600 0.30200 27.24200
N  25.47400 1.31000 31.40500
C  26.48500 1.22900 32.32800
C  25.96000 1.58400 33.68200
C  24.38300 1.47500 33.54000
C  24.24100 1.51300 32.03300
C  23.68200 0.19700 34.21600
C  26.42300 2.96100 34.19600
C  27.50500 3.03300 35.31400
H  27.16100 3.80100 36.59200
N  23.61600 1.57500 29.04000
C  22.71700 1.73600 30.00900
C  21.41300 2.02400 29.36800
C  21.71100 2.03700 27.94500
C  23.06500 1.71900 27.76400
C  20.18500 2.37700 30.11600
C  20.70300 2.27300 26.84300
O  20.97200 2.41600 25.62500
C  19.24100 2.35700 27.15000
N  25.92000 0.56700 27.35300
C  25.05000 0.88700 26.43700
C  25.52200 0.64600 24.99300
C  27.09600 0.57300 25.15800
C  27.12000 0.45900 26.71000
C  24.84600 -0.55000 24.43700
C  27.78100 1.90600 24.72800
C  29.04600 1.66400 23.83900
N  27.69900 0.61100 29.46900
C  28.74000 0.32400 28.58700
C  29.95300 0.06300 29.24100
C  29.62300 0.21900 30.64600
C  28.24000 0.53400 30.68100
C  31.26400 -0.24000 28.61100
C  30.20300 0.17400 31.95700
O  31.30700 -0.10100 32.38200
C  28.98300 0.65000 32.95700
C  28.90600 -0.27000 34.16600
O  28.28300 -1.28500 34.21900
O  29.56100 0.29600 35.18700
C  29.38800 -0.41700 36.43700
H  22.22300 1.91400 32.06600
H  23.26700 1.47700 25.63000
H  29.28500 0.20100 26.60200
H  26.28300 0.85000 34.42100
H  24.02000 2.37900 34.02900
H  22.97900 0.61500 34.93800
H  24.37700 -0.44100 34.76200
H  23.29300 -0.48500 33.46000
H  25.61100 3.64900 34.43300
H  26.78000 3.50000 33.31900
H  28.36800 3.55600 34.90300
H  27.78000 2.01100 35.57600
H  19.68100 3.24600 29.69300
H  20.35200 2.65400 31.15700
H  19.41300 1.60900 30.05900
H  18.88600 1.49900 27.72100
H  18.69900 2.49300 26.21400
H  19.17100 3.30100 27.69100
H  25.27800 1.58800 24.50200
H  27.57500 -0.33500 24.79100
H  24.80400 -1.32300 25.20400
H  25.29300 -1.05500 23.58000
H  23.84300 -0.23400 24.15200
H  28.14500 2.57000 25.51300
H  27.14500 2.44300 24.02400
H  29.84700 2.33000 24.16000
H  28.81300 1.76100 22.77900
H  29.45600 0.65700 23.92200
H  31.09000 -0.97500 27.82500
H  31.91200 -0.74200 29.32800
H  31.70900 0.63300 28.13400
H  29.24200 1.61300 33.39700
H  29.69100 -1.46400 36.39600
H  28.33700 -0.35400 36.71700
H  29.92200 0.05000 37.26400
Mg 35.65500 48.56200 25.87400
C  36.03400 46.63300 28.80300
C  34.65000 51.10400 27.79400
C  34.95900 50.10700 23.07700
C  36.80900 45.82300 23.98600
N  35.10600 48.72200 28.09200
C  35.55100 47.88100 29.07500
C  35.39900 48.43500 30.49400
C  34.64400 49.79500 30.16700
C  34.82500 49.95400 28.59400
C  33.17900 49.91900 30.61800
C  36.66200 48.52700 31.34800
C  36.44300 48.07800 32.86800
H  36.53200 49.33500 33.78700
N  34.79500 50.34300 25.44900
C  34.58300 51.36000 26.39000
C  34.35800 52.67400 25.71300
C  34.21400 52.30200 24.33000
C  34.64000 50.88200 24.25200
C  34.04600 53.92700 26.46500
C  33.79500 53.11800 23.14200
O  33.87400 52.76600 21.95500
C  33.36100 54.52800 23.38600
N  35.85100 48.03200 23.81100
C  35.44400 48.85500 22.87300
C  35.67700 48.30000 21.45500
C  36.50800 47.03200 21.85500
C  36.42200 46.94300 23.25700
C  34.36300 48.07900 20.66800
C  37.86900 46.85200 21.10900
C  39.05200 47.58300 21.60500
N  36.15500 46.59000 26.25800
C  36.67400 45.54500 25.37300
C  36.90900 44.35500 26.20200
C  36.72100 44.72700 27.59400
C  36.22200 46.05200 27.56000
C  37.51600 43.04700 25.76000
C  36.90500 44.35800 28.91300
O  37.24800 43.30600 29.39700
C  36.39300 45.54500 29.77600
C  35.21000 44.95600 30.55200
O  34.16800 44.56300 30.01300
O  35.51100 44.99500 31.86600
C  34.60200 44.32700 32.82600
H  34.47000 51.92400 28.49300
H  34.93400 50.61900 22.11300
H  37.24700 44.99700 23.42300
H  34.68600 47.72800 30.91800
H  35.09700 50.72800 30.50300
H  32.55600 49.79200 29.73300
H  33.02200 50.90700 31.05000
H  33.04700 49.05400 31.26900
H  36.94700 49.57500 31.25600
H  37.49100 47.97500 30.90500
H  37.14200 47.31000 33.19800
H  35.42000 47.70400 32.82300
H  34.38800 54.85500 26.00800
H  34.42500 53.80100 27.47900
H  32.97000 54.01400 26.61700
H  32.98400 54.90300 22.43500
H  34.15200 55.08600 23.88700
H  32.46000 54.49500 23.99800
H  36.35400 49.04300 21.03400
H  35.78300 46.26500 21.58400
H  33.46300 48.48500 21.13100
H  34.09700 47.03100 20.53000
H  34.43400 48.49900 19.66500
H  37.76500 47.21500 20.08600
H  38.05100 45.77900 21.03700
H  39.49200 48.15100 20.78500
H  39.86900 46.89300 21.81700
H  38.83200 48.08100 22.54800
H  38.20600 43.07400 24.91600
H  36.79000 42.23500 25.73200
H  38.11000 42.77800 26.63400
H  37.17000 45.91400 30.44600
H  33.91700 43.70800 32.24700
H  33.99500 45.04000 33.38400
H  35.18700 43.69000 33.49000

