158

Mg 8.56300 3.52100 28.09900
C  10.30400 1.95200 30.84000
C  6.57700 5.04500 30.13100
C  7.26900 4.69700 25.35900
C  10.66100 1.40300 25.93000
N  8.32800 3.24700 30.22100
C  9.24400 2.81600 31.14100
C  8.85200 3.26600 32.52200
C  7.54700 4.08700 32.30100
C  7.48500 4.16000 30.75200
C  6.25600 3.72600 33.09700
C  10.03900 3.98800 33.35100
C  9.58500 4.96000 34.44500
H  10.20500 4.86700 35.76900
N  7.17500 4.80000 27.82600
C  6.42300 5.32400 28.78500
C  5.45500 6.27700 28.17800
C  5.55900 6.08700 26.76000
C  6.70300 5.16900 26.56400
C  4.49800 7.11100 28.95100
C  4.78600 6.65500 25.73200
O  5.00800 6.37400 24.55700
C  3.70300 7.68900 25.94800
N  9.01500 3.15900 25.93900
C  8.37700 3.90900 25.03400
C  8.79800 3.59300 23.54700
C  10.01900 2.65200 23.77700
C  9.88900 2.37800 25.35100
C  7.65500 3.14700 22.56000
C  11.36400 3.29600 23.42600
C  11.89400 4.34800 24.38500
N  10.14900 1.97700 28.24500
C  10.79800 1.19600 27.30100
C  11.71700 0.41000 28.00500
C  11.61300 0.70000 29.39000
C  10.57900 1.58600 29.46300
C  12.66000 -0.45600 27.32400
C  12.11500 0.45500 30.72400
O  12.96100 -0.29600 31.08800
C  11.21300 1.24600 31.72200
C  10.59300 0.33800 32.73500
O  9.59000 -0.28800 32.43900
O  11.16800 0.53400 34.02300
C  10.37200 -0.05000 35.10100
H  5.95400 5.59900 30.83700
H  6.94500 4.92300 24.34100
H  11.19300 0.67800 25.30900
H  8.65800 2.37900 33.12600
H  7.61300 5.13900 32.57900
H  6.48800 2.70700 33.40800
H  5.36900 3.69400 32.46400
H  6.18500 4.47000 33.89100
H  10.40600 4.58200 32.51400
H  10.77200 3.21800 33.59600
H  8.49900 5.01900 34.51100
H  9.87700 5.95100 34.09900
H  3.44000 6.89000 28.81600
H  4.73800 8.15100 28.73400
H  4.77100 7.09000 30.00600
H  3.32600 8.00400 24.97500
H  4.10700 8.55600 26.47100
H  2.90400 7.22600 26.52700
H  9.13100 4.56700 23.18700
H  9.87200 1.68500 23.29600
H  6.68600 3.36600 23.00700
H  7.74100 2.11200 22.22700
H  7.71300 3.77700 21.67300
H  11.26400 3.65500 22.40100
H  12.05700 2.45500 23.38900
H  11.24800 4.39600 25.26100
H  11.98800 5.31700 23.89600
H  12.88000 4.06500 24.75400
H  13.29700 0.08600 26.62600
H  12.27600 -1.32900 26.79700
H  13.37800 -0.65600 28.11900
H  11.90900 1.87600 32.27600
H  9.78900 0.74900 35.55800
H  11.06700 -0.33300 35.89300
H  9.81100 -0.92500 34.77400
Mg 26.85300 50.13100 26.09400
C  24.79900 51.26700 28.94500
C  29.28000 49.28100 28.39500
C  28.64200 49.14100 23.48400
C  24.46500 51.69800 24.08600
N  26.91100 50.08300 28.40600
C  25.94500 50.53600 29.35800
C  26.50900 50.28900 30.76700
C  28.01500 49.99400 30.58600
C  28.11100 49.78400 29.05700
C  29.06900 50.90500 31.32400
C  25.60400 49.19900 31.50800
C  25.00700 49.50900 32.88400
H  25.62800 50.39400 33.98800
N  28.68900 49.27000 25.94900
C  29.55000 49.02600 26.97800
C  30.67000 48.23500 26.43000
C  30.53100 48.21700 25.01100
C  29.26600 48.89500 24.74800
C  31.73900 47.54500 27.21700
C  31.38400 47.46300 23.87800
O  31.08700 47.53400 22.69000
C  32.45000 46.49200 24.20400
N  26.50700 50.43400 24.14500
C  27.45400 49.85100 23.27600
C  26.85500 49.91100 21.86000
C  25.57000 50.80600 21.91400
C  25.46800 51.00500 23.43300
C  27.78700 50.42500 20.71700
C  24.25100 50.30700 21.32800
C  23.73600 48.93000 21.76600
N  25.01300 51.19600 26.42200
C  24.22000 51.78600 25.45700
C  23.04400 52.36100 26.03900
C  23.26100 52.14900 27.44400
C  24.47400 51.41400 27.61800
C  21.97700 52.97500 25.19700
C  22.69900 52.50800 28.69700
O  21.71500 53.24100 28.92100
C  23.66200 51.84700 29.71200
C  24.02800 52.94400 30.63200
O  24.93300 53.77900 30.38500
O  23.32800 52.94400 31.81200
C  23.75100 54.02200 32.76100
H  30.01200 48.95200 29.13500
H  29.15800 48.76800 22.59800
H  23.69800 52.08600 23.41200
H  26.40500 51.29100 31.18500
H  28.21200 49.05300 31.09900
H  28.44500 51.75700 31.59500
H  29.81300 51.22400 30.59300
H  29.45700 50.33800 32.17000
H  26.23900 48.33500 31.70400
H  24.88900 48.95500 30.72300
H  24.94300 48.50400 33.30000
H  23.97700 49.83700 32.74400
H  31.95000 48.09500 28.13400
H  32.68100 47.76000 26.71200
H  31.56400 46.47200 27.30300
H  33.35000 47.06800 24.41800
H  32.55500 45.85000 23.32900
H  32.27300 45.89400 25.09700
H  26.53800 48.89600 21.61900
H  25.83300 51.80000 21.55100
H  28.70200 50.80200 21.17400
H  27.29800 51.22600 20.16300
H  28.10200 49.65500 20.01300
H  24.26300 50.09400 20.25900
H  23.52500 51.11600 21.40900
H  22.65800 49.04500 21.87400
H  24.21700 48.60500 22.68800
H  23.81100 48.18400 20.97400
H  21.34400 52.20400 24.75700
H  22.48300 53.59000 24.45300
H  21.50400 53.68500 25.87500
H  22.96700 51.12500 30.14100
H  24.17200 54.90000 32.27200
H  24.30900 53.59400 33.59500
H  22.78800 54.29300 33.19300

