158

Mg 16.67500 -2.48900 28.22400
C  16.08400 -0.32700 31.05900
C  18.22900 -4.56200 30.25300
C  17.59500 -4.02200 25.52800
C  14.98800 -0.00600 26.24600
N  17.19700 -2.34300 30.36100
C  16.81800 -1.50800 31.37000
C  17.10400 -2.02900 32.69300
C  18.16600 -3.17300 32.44600
C  17.90000 -3.40400 30.94500
C  19.70100 -2.75800 32.82000
C  15.91300 -2.47400 33.45700
C  15.78300 -1.96300 34.87000
H  16.99700 -1.50900 35.69600
N  17.62100 -4.12700 27.97600
C  18.19200 -4.93900 28.95300
C  18.78600 -6.11300 28.30100
C  18.54400 -5.97000 26.87700
C  17.91300 -4.69000 26.73000
C  19.60500 -7.14000 29.04100
C  18.87000 -6.90900 25.74800
O  18.63900 -6.62200 24.56600
C  19.63300 -8.18000 26.06900
N  16.36900 -1.99900 26.13700
C  16.92600 -2.85800 25.22300
C  16.84700 -2.28200 23.80700
C  15.74400 -1.15100 23.98100
C  15.58600 -1.06100 25.53600
C  18.21900 -1.86600 23.16800
C  14.42800 -1.34500 23.18600
C  13.91400 -0.16900 22.31500
N  15.75300 -0.55600 28.54900
C  15.10900 0.26400 27.59700
C  14.67700 1.43900 28.32400
C  14.96400 1.27200 29.64600
C  15.68100 0.07300 29.71900
C  13.90200 2.61800 27.90300
C  14.83900 1.73800 31.02200
O  14.24500 2.68000 31.53200
C  15.58500 0.73700 31.96700
C  16.62000 1.55400 32.67800
O  17.71300 1.80800 32.28800
O  16.07100 1.87900 33.89300
C  16.93800 2.66600 34.81300
H  18.57700 -5.32800 30.95000
H  17.98900 -4.52900 24.64500
H  14.60300 0.82800 25.65500
H  17.41900 -1.13800 33.23700
H  18.03900 -4.09900 33.00700
H  19.78300 -1.74500 33.21500
H  20.33300 -3.10300 32.00200
H  20.05200 -3.44300 33.59000
H  15.92100 -3.54800 33.63800
H  15.02400 -2.18900 32.89300
H  15.14200 -2.59800 35.48100
H  15.10600 -1.11500 34.76900
H  19.46700 -6.95100 30.10500
H  20.66200 -7.03700 28.79300
H  19.34400 -8.16600 28.78300
H  20.50100 -8.04800 26.71500
H  19.97300 -8.55600 25.10400
H  18.93800 -8.82300 26.61000
H  16.34000 -3.04700 23.21900
H  16.16300 -0.20000 23.65000
H  18.13700 -0.86600 22.74100
H  18.50900 -2.58100 22.39800
H  19.01600 -1.93800 23.90800
H  13.69200 -1.58500 23.95300
H  14.43700 -2.28100 22.62600
H  13.43200 -0.55200 21.41600
H  14.75000 0.48800 22.07700
H  13.11400 0.36600 22.82700
H  14.21200 2.64400 26.85800
H  14.21300 3.54400 28.38700
H  12.83300 2.52200 28.09300
H  14.80500 0.31700 32.60100
H  16.55900 2.60700 35.83300
H  16.98500 3.73700 34.61500
H  17.97100 2.32000 34.77100
Mg -0.27900 44.05600 24.99200
C  1.74200 43.81000 27.73800
C  -3.03600 43.26400 27.02000
C  -2.30200 43.94900 22.24400
C  2.49100 44.46800 22.94900
N  -0.58300 43.63000 27.14500
C  0.38900 43.60900 28.14700
C  -0.22200 43.34800 29.50500
C  -1.72800 42.96300 29.13800
C  -1.74200 43.33900 27.66500
C  -2.23000 41.48100 29.47200
C  0.05600 44.47200 30.52500
C  0.36500 44.01500 31.98000
H  -0.18400 42.72600 32.46800
N  -2.37900 43.76700 24.69200
C  -3.34500 43.46400 25.64100
C  -4.69100 43.47300 24.98100
C  -4.48800 43.74400 23.57300
C  -2.98400 43.84100 23.43200
C  -5.96100 43.23200 25.80300
C  -5.50500 43.95300 22.54800
O  -5.23900 44.19000 21.37700
C  -7.04200 43.88700 22.92700
N  0.02500 44.35000 22.86200
C  -0.94800 44.06300 21.97800
C  -0.37000 43.94500 20.59300
C  1.12400 44.42600 20.78200
C  1.29100 44.48300 22.29500
C  -0.51900 42.43000 20.17100
C  1.41500 45.75800 20.04400
C  0.95200 46.99500 20.88500
N  1.66800 44.08400 25.21000
C  2.68100 44.27200 24.30500
C  3.97000 44.10200 24.99800
C  3.63200 43.91100 26.32200
C  2.20500 43.98800 26.39800
C  5.31500 44.04200 24.36500
C  4.23100 43.71600 27.59300
O  5.38900 43.54500 28.02400
C  3.01700 43.71600 28.54200
C  3.14900 42.51900 29.37400
O  2.82900 41.36700 29.07000
O  3.57500 42.89300 30.63000
C  3.70200 41.97500 31.74900
H  -3.80700 42.97800 27.73900
H  -2.91500 43.90400 21.34200
H  3.33000 44.55700 22.25600
H  0.31100 42.47500 29.88200
H  -2.46100 43.53300 29.71000
H  -2.73600 41.09800 28.58600
H  -2.82000 41.40300 30.38600
H  -1.40400 40.85300 29.80300
H  -0.82900 45.10800 30.56600
H  0.87900 45.11100 30.20500
H  0.05900 44.88500 32.56100
H  1.45400 44.04200 32.01200
H  -6.36200 42.27600 25.46800
H  -6.60200 44.10000 25.65500
H  -5.77500 43.21300 26.87700
H  -7.27800 44.72300 23.58600
H  -7.35100 42.96600 23.42000
H  -7.67900 44.02800 22.05400
H  -0.86700 44.56400 19.84600
H  1.84000 43.75900 20.30200
H  0.46800 41.97600 20.07800
H  -0.94900 42.23200 19.18900
H  -1.16500 41.83000 20.81100
H  0.87100 45.74700 19.10000
H  2.47700 45.81800 19.80400
H  0.37700 46.72600 21.77100
H  0.30100 47.60000 20.25300
H  1.71100 47.74900 21.09200
H  5.27900 43.51000 23.41500
H  6.01400 43.52600 25.02200
H  5.72900 45.04900 24.31400
H  3.11800 44.61000 29.15700
H  4.72200 41.92900 32.12900
H  3.23600 41.03700 31.44400
H  3.15600 42.38700 32.59800

