158

Mg 25.14800 1.44600 30.40800
C  27.27900 1.57500 33.42400
C  22.46800 1.55900 32.50600
C  23.27500 1.53500 27.70400
C  28.07000 1.18300 28.57700
N  24.97900 1.68800 32.73000
C  25.93500 1.75400 33.70100
C  25.27100 1.99900 35.03600
C  23.69100 1.92400 34.75100
C  23.69500 1.73100 33.24600
C  22.81900 1.00500 35.52900
C  25.82500 3.35300 35.72900
C  26.37100 3.12800 37.20000
H  25.90500 4.05900 38.30100
N  23.08900 1.57000 30.07100
C  22.12500 1.55900 31.09600
C  20.86900 1.72100 30.47900
C  21.05200 1.74700 29.06400
C  22.52800 1.65200 28.88100
C  19.54200 1.89500 31.16100
C  20.09000 1.81200 27.87800
O  20.48000 1.83300 26.70000
C  18.61100 1.72700 28.22200
N  25.63200 1.25100 28.48900
C  24.63600 1.49700 27.51700
C  25.25200 1.72100 26.10900
C  26.79400 1.43800 26.34700
C  26.88400 1.28400 27.87600
C  24.51600 0.84200 24.94100
C  27.73500 2.53400 25.71500
C  28.90200 1.95900 24.88700
N  27.29200 1.26900 30.84600
C  28.36700 1.15200 29.97300
C  29.53400 1.13000 30.73200
C  29.14900 1.28600 32.09300
C  27.77600 1.36200 32.09600
C  30.91600 1.08700 30.20200
C  29.72600 1.47800 33.46400
O  30.85700 1.61400 33.84700
C  28.47700 1.65300 34.40400
C  28.43000 0.53200 35.37000
O  27.98400 -0.56600 35.12200
O  28.93900 0.93100 36.54800
C  28.90700 0.17100 37.78700
H  21.66900 1.77500 33.21800
H  22.79400 1.47800 26.72500
H  28.93200 1.15000 27.90700
H  25.50700 1.10400 35.61200
H  23.26900 2.86300 35.10900
H  22.19300 0.35700 34.91600
H  22.14100 1.61400 36.12700
H  23.43700 0.38600 36.18100
H  25.04900 4.11800 35.69700
H  26.70500 3.82900 35.29800
H  27.39600 3.48100 37.08700
H  26.27900 2.05500 37.36800
H  19.04000 2.82900 30.90500
H  19.67100 2.08600 32.22600
H  18.83100 1.07200 31.08200
H  18.45700 0.81700 28.80200
H  17.96000 1.79200 27.35000
H  18.35200 2.58600 28.84000
H  25.09200 2.76300 25.83400
H  27.01500 0.46900 25.89900
H  23.88900 0.06300 25.37600
H  25.28600 0.32200 24.37100
H  23.94400 1.44600 24.23700
H  28.21400 3.15500 26.47200
H  27.11200 3.21500 25.13500
H  28.98500 0.87300 24.90200
H  29.85800 2.38200 25.19600
H  28.79800 2.20100 23.83000
H  31.48800 1.55700 31.00200
H  31.09500 1.59000 29.25100
H  31.13200 0.02200 30.12000
H  28.53800 2.62700 34.88900
H  28.05200 0.47300 38.39100
H  29.78500 0.21400 38.43100
H  28.90000 -0.88200 37.50500
Mg 48.20300 35.29200 28.03700
C  46.47300 33.57700 30.47000
C  48.51300 37.89200 30.20700
C  49.47200 37.12800 25.52300
C  47.67900 32.66700 25.77700
N  47.83900 35.58600 30.16100
C  47.13100 34.70400 30.93900
C  46.90500 35.29400 32.30500
C  47.24200 36.82000 32.15700
C  47.98100 36.77700 30.77400
C  46.05400 37.80600 32.10200
C  47.72400 34.55200 33.47100
C  49.08600 34.97500 33.92700
H  49.30300 35.69200 35.26200
N  48.97700 37.22300 27.90200
C  49.02100 38.13200 28.96100
C  49.63600 39.31300 28.50900
C  50.05600 39.11200 27.16100
C  49.57300 37.76200 26.80800
C  49.89400 40.53000 29.37400
C  50.94800 39.92000 26.22200
O  51.31800 39.55100 25.06700
C  51.32900 41.31100 26.59900
N  48.29300 35.02200 25.92200
C  48.94600 35.85200 25.14200
C  48.83400 35.42000 23.64800
C  48.31000 33.99600 23.78000
C  48.15300 33.83600 25.29800
C  47.96800 36.29500 22.68700
C  49.30200 32.95900 23.17500
C  49.33600 32.81100 21.67700
N  47.24300 33.58200 28.04000
C  47.05300 32.58400 27.06700
C  46.32000 31.48000 27.64200
C  45.90700 31.92000 28.82900
C  46.55500 33.14100 29.11400
C  45.95100 30.22400 26.99600
C  45.05800 31.56700 29.92800
O  44.26200 30.59500 30.05500
C  45.25900 32.74300 31.01700
C  45.49400 32.20200 32.35700
O  46.39900 31.39700 32.68900
O  44.62000 32.76000 33.19500
C  44.59900 32.44500 34.62900
H  48.61000 38.70300 30.93200
H  50.01600 37.72700 24.79000
H  47.52100 31.71400 25.26800
H  45.93900 35.21100 32.80200
H  47.97300 37.20600 32.86900
H  45.39700 37.71600 31.23600
H  46.46100 38.81600 32.15700
H  45.47800 37.63800 33.01200
H  47.99800 33.56200 33.10600
H  47.15200 34.55200 34.39800
H  49.59200 35.53100 33.13800
H  49.66500 34.05100 33.94400
H  50.88200 40.56100 29.83400
H  49.16800 40.66300 30.17600
H  49.77100 41.42500 28.76600
H  50.39700 41.81000 26.86800
H  51.83800 41.72600 25.72900
H  51.93300 41.41800 27.50000
H  49.85500 35.44300 23.26800
H  47.34900 33.91700 23.27200
H  46.95600 36.41600 23.07400
H  47.88700 35.83300 21.70400
H  48.34100 37.32000 22.67700
H  48.96700 31.96500 23.47100
H  50.28400 33.15700 23.60500
H  50.33400 33.18500 21.44900
H  48.53400 33.33600 21.15800
H  49.25700 31.75200 21.43400
H  44.87300 30.14200 26.85700
H  46.44600 29.40400 27.51500
H  46.36900 30.27500 25.99100
H  44.37000 33.37300 31.02500
H  45.26400 31.61500 34.86800
H  43.55700 32.23800 34.87600
H  44.91900 33.32900 35.18000

