158

Mg 46.22700 3.59500 47.59800
C  43.68000 5.83700 46.78100
C  43.82300 1.03700 47.55400
C  48.68200 1.13700 47.36200
C  48.56500 6.05800 46.84900
N  44.00600 3.45900 47.12200
C  43.14900 4.52800 46.84200
C  41.69800 3.97200 46.77000
C  41.79300 2.48400 47.23200
C  43.31700 2.30000 47.26600
C  41.11300 2.22200 48.61700
C  41.02000 4.16700 45.32500
C  39.66200 4.96600 45.27600
H  39.63600 6.04700 44.12900
N  46.26400 1.34800 47.40000
C  45.16300 0.59200 47.58900
C  45.59500 -0.80300 47.73800
C  47.08300 -0.80500 47.71300
C  47.44400 0.61100 47.55200
C  44.70300 -1.98900 47.92200
C  47.93700 -2.06800 47.77900
O  47.38600 -3.16400 47.75300
C  49.45900 -2.15400 47.77700
N  48.32800 3.57600 47.12300
C  49.14800 2.46600 47.24100
C  50.60900 2.84400 47.13600
C  50.51900 4.34600 46.62500
C  49.04100 4.71200 46.89400
C  51.36900 2.77000 48.49300
C  50.85800 4.42700 45.08700
C  52.34500 4.39700 44.74400
N  46.19100 5.62200 47.25700
C  47.22700 6.46700 46.92400
C  46.62700 7.77400 46.50900
C  45.20400 7.60900 46.54600
C  45.01600 6.27200 46.86800
C  47.38700 8.99200 45.94200
C  43.92000 8.26700 46.31000
O  43.62400 9.39800 45.92500
C  42.96800 7.15100 46.61500
C  42.03400 7.44200 47.76800
O  42.09700 6.88100 48.85300
O  41.13900 8.44100 47.43000
C  40.17100 8.97800 48.43900
H  43.09900 0.23100 47.68700
H  49.48200 0.43200 47.59800
H  49.26800 6.84700 46.57600
H  41.05800 4.48500 47.48900
H  41.31000 1.80200 46.53200
H  40.57000 3.04600 49.08000
H  41.83800 1.94300 49.38100
H  40.47500 1.34900 48.47800
H  40.95300 3.22600 44.78000
H  41.72400 4.75100 44.73200
H  39.56300 5.43500 46.25500
H  38.84400 4.29700 45.00800
H  43.65700 -1.68500 47.93000
H  44.99100 -2.37500 48.90000
H  44.88400 -2.66700 47.08800
H  49.89900 -3.14600 47.87600
H  49.74200 -1.60900 48.67800
H  49.89500 -1.62700 46.92800
H  51.14700 2.16600 46.47400
H  51.18100 4.98400 47.21000
H  51.79100 3.73700 48.76700
H  52.19200 2.05600 48.48100
H  50.67700 2.52500 49.29900
H  50.31100 5.22500 44.58500
H  50.54800 3.44400 44.73400
H  52.91400 4.54100 45.66200
H  52.60600 5.21900 44.07700
H  52.66300 3.46900 44.27000
H  48.29300 8.65000 45.44100
H  47.77300 9.42200 46.86600
H  46.73000 9.62900 45.35100
H  42.39800 7.18900 45.68700
H  40.63700 9.91900 48.73100
H  40.03500 8.39300 49.34900
H  39.17900 8.99000 47.98800
Mg 5.93800 55.14100 40.29800
C  5.58100 51.58400 40.38500
C  9.27700 54.62700 39.55300
C  6.10000 58.23500 39.35300
C  2.43400 55.39700 40.73800
N  7.19800 53.28000 39.99800
C  6.88700 51.97400 40.09000
C  8.04900 51.09900 39.81600
C  9.28100 52.09000 39.94000
C  8.54400 53.47600 39.79000
C  10.06000 52.08100 41.25100
C  7.99700 50.44600 38.40600
C  7.55600 51.36100 37.19300
H  6.26900 51.13700 36.39300
N  7.48700 56.26200 39.72000
C  8.80800 55.93100 39.46000
C  9.66800 57.04900 39.31000
C  8.72500 58.12800 39.15900
C  7.34600 57.61200 39.47400
C  11.20400 57.01800 39.07700
C  9.12200 59.57400 38.82100
O  10.29300 59.82100 38.58500
C  8.17600 60.74300 38.94400
N  4.46000 56.53800 39.87000
C  4.80300 57.82400 39.65300
C  3.58400 58.77600 39.65600
C  2.43900 57.86700 40.21600
C  3.15600 56.49800 40.37500
C  3.71000 60.16200 40.27700
C  1.25400 57.70700 39.28200
C  -0.10000 58.26900 39.78600
N  4.29200 53.82400 40.56600
C  2.95100 54.07800 40.81000
C  2.25900 52.79100 40.97900
C  3.21700 51.76500 40.98800
C  4.42200 52.43200 40.55000
C  0.79900 52.58400 41.09500
C  3.41300 50.33400 41.01900
O  2.61900 49.43500 41.27800
C  4.99400 50.22000 40.72500
C  5.05800 49.31300 39.57400
O  4.78000 49.51000 38.38900
O  5.62300 48.12900 40.06600
C  5.50800 46.93800 39.20100
H  10.35000 54.59300 39.35300
H  6.02500 59.30500 39.15100
H  1.38900 55.59600 40.98600
H  8.16800 50.41000 40.65200
H  10.01400 51.95500 39.14500
H  9.96500 52.99700 41.83300
H  11.09800 51.83600 41.02300
H  9.64500 51.38200 41.97700
H  7.28700 49.62100 38.46200
H  9.00700 50.05800 38.28200
H  8.37300 51.25600 36.47900
H  7.70900 52.43600 37.28800
H  11.28000 56.62800 38.06200
H  11.70000 56.32400 39.75600
H  11.69700 57.98300 39.19000
H  8.86600 61.57900 38.83100
H  7.57800 60.75900 39.85500
H  7.60400 60.67800 38.01800
H  3.41400 58.97900 38.59800
H  2.06800 58.20500 41.18300
H  2.77200 60.35500 40.79800
H  3.79500 60.95200 39.53000
H  4.56100 60.24600 40.95300
H  1.00500 56.69100 38.97700
H  1.38800 58.29400 38.37300
H  -0.16200 58.70700 40.78300
H  -0.82000 57.45200 39.80600
H  -0.47100 59.01400 39.08200
H  0.47400 52.75300 40.06900
H  0.34200 53.34900 41.72300
H  0.42700 51.62200 41.44700
H  5.39600 49.76700 41.63200
H  6.07900 46.08700 39.57000
H  5.83000 47.25300 38.20900
H  4.48200 46.57000 39.19000

