158

Mg -2.70700 17.39600 25.61900
C  -2.55400 14.80900 28.14400
C  -2.76800 19.70400 27.94700
C  -2.83700 19.56300 23.13600
C  -2.85400 14.80700 23.21300
N  -2.87100 17.23200 27.85000
C  -2.63400 16.15500 28.67400
C  -2.68100 16.57700 30.17900
C  -2.81900 18.14300 30.04300
C  -2.74800 18.37300 28.49000
C  -4.09700 18.73700 30.58100
C  -1.37600 16.24400 31.01600
C  -1.18400 16.98600 32.35600
H  -0.78100 16.25500 33.63500
N  -2.69800 19.42300 25.56200
C  -2.79300 20.19200 26.64600
C  -2.70500 21.57900 26.26200
C  -2.88500 21.58000 24.90000
C  -2.81700 20.13200 24.44500
C  -2.62200 22.73700 27.26100
C  -3.09600 22.77000 23.99200
O  -3.12300 22.63400 22.79200
C  -3.33400 24.16100 24.51100
N  -2.91800 17.22600 23.44600
C  -2.86000 18.25200 22.62100
C  -2.73100 17.91100 21.11800
C  -3.07300 16.39900 21.15500
C  -2.94500 16.12400 22.74800
C  -3.68300 18.69200 20.25100
C  -2.09900 15.56800 20.14400
C  -2.84400 14.57800 19.20100
N  -2.54600 15.30700 25.62700
C  -2.64500 14.42400 24.56300
C  -2.48900 13.04200 25.05800
C  -2.41000 13.19800 26.47500
C  -2.51200 14.59100 26.75300
C  -2.36900 11.81700 24.21200
C  -2.32700 12.46100 27.69400
O  -2.03600 11.28100 27.91400
C  -2.54500 13.43700 28.83100
C  -1.41000 13.15600 29.73500
O  -0.27400 13.47400 29.54500
O  -1.88600 12.44600 30.83200
C  -0.90000 12.13900 31.84300
H  -2.73000 20.43100 28.76100
H  -2.87100 20.30800 22.33800
H  -2.89900 13.95500 22.53100
H  -3.53500 16.11600 30.67500
H  -2.00600 18.75400 30.43700
H  -4.86200 19.13600 29.91400
H  -3.86400 19.52600 31.29600
H  -4.57100 17.93000 31.14000
H  -0.58400 16.37500 30.27900
H  -1.20300 15.21600 31.33600
H  -2.13000 17.44000 32.64700
H  -0.54100 17.83600 32.12600
H  -3.56000 23.24800 27.47900
H  -1.83100 23.43700 26.99600
H  -2.29700 22.49600 28.27400
H  -3.96000 24.22500 25.40100
H  -3.74800 24.80200 23.73300
H  -2.40300 24.65700 24.79000
H  -1.69000 18.15300 20.90500
H  -4.12200 16.28100 20.88300
H  -4.52100 18.10200 19.88000
H  -3.14800 19.25500 19.48600
H  -4.24800 19.43900 20.80800
H  -1.33600 15.07300 20.74600
H  -1.64800 16.35300 19.53600
H  -2.40300 14.57200 18.20500
H  -3.88100 14.89200 19.08000
H  -2.80500 13.64900 19.77000
H  -3.34000 11.54200 23.80100
H  -1.85200 11.06200 24.80400
H  -1.82000 12.02800 23.29400
H  -3.52400 13.14100 29.20900
H  -0.56300 11.15300 31.52100
H  -1.45100 11.90300 32.75300
H  -0.02900 12.78900 31.93000
Mg 43.31900 3.56200 47.32100
C  41.44400 6.57400 47.26300
C  40.44100 1.81000 47.27000
C  45.25200 0.94500 46.57800
C  46.26200 5.69000 46.88700
N  41.16700 4.19300 47.17200
C  40.63300 5.42600 47.25500
C  39.11000 5.26900 47.38600
C  38.87500 3.73700 47.60200
C  40.23900 3.20600 47.30500
C  38.29400 3.31700 48.98200
C  38.23500 5.97200 46.27600
C  38.93400 5.93200 44.90700
H  37.99300 6.38500 43.72800
N  42.90200 1.67500 46.92700
C  41.66800 1.07900 47.05400
C  41.82300 -0.36100 46.94700
C  43.18400 -0.65400 46.56700
C  43.84800 0.69200 46.67600
C  40.61000 -1.27700 47.09000
C  43.83100 -2.00200 46.24200
O  43.11700 -3.01500 46.28700
C  45.32700 -2.18900 45.85500
N  45.47700 3.43900 46.53200
C  45.99100 2.10100 46.65300
C  47.55000 2.20200 46.62500
C  47.85100 3.66900 46.49300
C  46.46800 4.32600 46.64400
C  48.17400 1.60900 47.95000
C  48.64600 3.98100 45.24000
C  49.92400 4.73300 45.40200
N  43.81600 5.62000 47.23900
C  45.03000 6.30800 47.12900
C  44.79300 7.76000 47.36600
C  43.38000 7.89200 47.32600
C  42.83900 6.59800 47.21200
C  45.79100 8.89100 47.51900
C  42.31900 8.86400 47.37900
O  42.31500 10.03000 47.66700
C  41.01000 8.03800 47.29400
C  40.13500 8.34400 48.51300
O  40.27300 7.95000 49.65000
O  39.21100 9.23800 48.04100
C  38.14100 9.43300 49.05600
H  39.47100 1.33800 47.43700
H  45.90500 0.07500 46.68500
H  47.13300 6.34400 46.81500
H  38.76000 5.80600 48.26800
H  38.20500 3.33800 46.84100
H  39.05800 2.99100 49.68900
H  37.52200 2.58600 48.74400
H  37.82900 4.23700 49.33700
H  38.23400 7.04200 46.48400
H  37.25500 5.51000 46.16100
H  39.20200 4.90800 44.64800
H  39.73000 6.67200 44.98600
H  40.28900 -1.63300 46.11100
H  39.75000 -0.77500 47.53400
H  40.72800 -2.14200 47.74200
H  45.90700 -2.09900 46.77400
H  45.61300 -1.52000 45.04400
H  45.46400 -3.19500 45.45800
H  47.89200 1.62800 45.76400
H  48.48400 4.00000 47.31600
H  48.53000 0.59200 47.78700
H  47.49700 1.73300 48.79600
H  49.03100 2.19800 48.27800
H  47.93300 4.56500 44.65800
H  48.99300 3.10800 44.68700
H  50.74300 4.17700 44.94700
H  50.21700 4.89500 46.43900
H  50.10900 5.67300 44.88200
H  45.27100 9.80100 47.81900
H  46.20300 8.92500 46.51100
H  46.55700 8.64900 48.25500
H  40.42500 8.34200 46.42600
H  38.44000 9.75000 50.05500
H  37.52300 8.54900 49.21300
H  37.38000 10.11000 48.66900

