158

Mg 43.40200 42.58200 26.26800
C  42.19200 44.62300 28.83500
C  44.89300 40.66100 28.60400
C  44.30500 40.56400 23.68400
C  42.21500 45.00200 23.98200
N  43.66800 42.81100 28.46200
C  42.88800 43.53100 29.24300
C  43.05000 43.09200 30.78700
C  43.82800 41.73700 30.70100
C  44.23300 41.78200 29.15300
C  45.10100 41.59700 31.61100
C  41.64800 42.92700 31.51400
C  41.53500 41.85900 32.67800
H  40.74800 42.21600 33.93300
N  44.52500 40.88200 26.12500
C  45.10400 40.27700 27.24200
C  45.90400 39.14100 26.76000
C  45.58800 38.95100 25.33700
C  44.75400 40.16700 24.98300
C  46.78900 38.27100 27.75300
C  46.08900 37.88000 24.38000
O  45.88600 38.03100 23.17300
C  46.97200 36.79100 24.84200
N  43.43900 42.85600 24.03500
C  43.70300 41.74700 23.25400
C  43.38500 42.10500 21.81900
C  42.66300 43.50600 21.93300
C  42.62400 43.79400 23.42900
C  44.58400 42.16000 20.85400
C  41.20600 43.62100 21.24100
C  40.00700 43.05000 22.00400
N  42.51900 44.46400 26.33100
C  42.05900 45.31900 25.36000
C  41.47500 46.49700 25.92900
C  41.40900 46.20200 27.28100
C  42.07900 44.99400 27.44900
C  41.00400 47.66900 25.19900
C  40.92500 46.76400 28.54400
O  40.25800 47.78800 28.74100
C  41.40400 45.74800 29.64100
C  42.10300 46.49500 30.66100
O  43.27000 46.85200 30.54100
O  41.37600 46.67200 31.86700
C  42.11000 47.33600 32.91100
H  45.34500 39.97000 29.31900
H  44.75700 39.87200 22.97100
H  41.76400 45.69800 23.27100
H  43.72500 43.85800 31.16900
H  43.24100 40.82400 30.80800
H  45.15600 42.28600 32.45300
H  45.98500 41.75100 30.99200
H  45.12300 40.62300 32.10100
H  40.80600 42.74900 30.84500
H  41.58800 43.87700 32.04400
H  42.58300 41.77300 32.96400
H  41.22300 40.88300 32.30400
H  46.26900 37.34400 27.99400
H  46.90000 38.84600 28.67200
H  47.75500 38.09600 27.27800
H  46.58200 36.15000 25.63300
H  47.91800 37.25800 25.11500
H  47.02200 36.18900 23.93500
H  42.69500 41.41300 21.33700
H  43.22900 44.34800 21.53500
H  44.82800 43.14200 20.44800
H  44.58200 41.48300 20.00000
H  45.49200 42.01400 21.44000
H  41.25600 43.19600 20.23800
H  40.89600 44.65300 21.07300
H  39.49200 42.21900 21.52000
H  39.29800 43.84100 22.24800
H  40.40100 42.59300 22.91100
H  40.10500 47.40900 24.64000
H  41.76000 47.99400 24.48400
H  40.81300 48.50900 25.86600
H  40.53600 45.29400 30.11900
H  42.80500 46.62000 33.35000
H  41.41000 47.80000 33.60500
H  42.74700 48.14200 32.54800
Mg -5.77800 24.52400 26.48000
C  -4.31500 25.97400 29.38100
C  -7.74900 22.73700 28.48300
C  -6.81300 22.95500 23.73800
C  -3.38900 26.24400 24.57700
N  -5.97800 24.31300 28.74200
C  -5.34200 25.02800 29.72800
C  -5.81400 24.58700 31.08400
C  -6.71500 23.38800 30.77900
C  -6.90100 23.45000 29.28600
C  -6.15800 22.05700 31.22500
C  -6.61300 25.84900 31.75900
C  -6.36500 26.15900 33.20800
H  -6.03100 24.98800 34.09800
N  -7.19400 23.22900 26.10300
C  -7.95300 22.64500 27.05200
C  -8.93400 21.73800 26.38100
C  -8.69200 21.83500 24.96800
C  -7.54600 22.68200 24.89000
C  -10.07200 21.11900 27.09500
C  -9.43000 21.18500 23.78800
O  -9.13800 21.35700 22.57800
C  -10.62800 20.27100 24.01200
N  -5.20000 24.60500 24.46400
C  -5.73900 23.84500 23.52900
C  -5.14100 24.03800 22.15100
C  -4.16200 25.18600 22.33300
C  -4.20700 25.30800 23.85400
C  -4.44800 22.70100 21.64900
C  -4.53500 26.61400 21.70100
C  -3.44400 27.27700 20.80300
N  -4.27600 26.02500 26.82000
C  -3.38000 26.55200 25.87400
C  -2.46400 27.47400 26.61900
C  -2.76100 27.22100 28.00200
C  -3.84500 26.29400 28.05500
C  -1.35700 28.31000 25.98200
C  -2.40200 27.45800 29.39600
O  -1.46900 28.08800 29.92600
C  -3.44000 26.77500 30.29800
C  -2.79100 26.03000 31.49900
O  -2.33900 24.86900 31.46700
O  -2.88500 26.81500 32.62200
C  -2.16500 26.24800 33.78900
H  -8.43300 22.17400 29.12200
H  -6.97600 22.61500 22.71300
H  -2.65700 26.76600 23.95700
H  -4.99200 24.26300 31.72200
H  -7.67100 23.51900 31.28600
H  -5.89300 21.33700 30.45100
H  -6.96400 21.50800 31.71400
H  -5.34900 22.14000 31.95100
H  -7.67500 25.66500 31.59500
H  -6.33800 26.67300 31.10100
H  -7.01600 26.90700 33.66000
H  -5.42400 26.70600 33.15800
H  -10.96200 21.52500 26.61400
H  -10.11200 21.44800 28.13300
H  -10.23000 20.05200 26.93900
H  -10.32600 19.37900 24.56100
H  -10.93900 19.92700 23.02600
H  -11.42200 20.73200 24.59900
H  -5.98500 24.41700 21.57400
H  -3.16100 24.90500 22.00500
H  -4.83800 21.89300 22.26800
H  -3.37300 22.62600 21.81100
H  -4.82100 22.41300 20.66600
H  -4.93200 27.28000 22.46700
H  -5.43900 26.40900 21.12800
H  -3.73300 27.61200 19.80600
H  -2.62200 26.61600 20.52600
H  -3.00500 28.03700 21.44900
H  -1.31800 29.27300 26.49000
H  -1.60600 28.42600 24.92700
H  -0.34700 27.90200 25.94500
H  -3.99700 27.61500 30.71300
H  -1.11200 26.15800 33.52300
H  -2.50200 25.23600 34.01300
H  -2.17100 27.02300 34.55600

