158

Mg 40.89500 9.36400 29.91100
C  42.82200 10.61500 32.51700
C  38.52900 8.43400 32.02200
C  39.31000 8.07800 27.14700
C  43.57200 10.36200 27.71700
N  40.72300 9.50500 31.98200
C  41.57400 10.14800 32.90000
C  41.04100 10.00200 34.37300
C  39.66000 9.33600 34.17800
C  39.61200 9.05800 32.65800
C  39.39300 8.03400 35.03200
C  40.98400 11.44200 35.06900
C  40.07700 11.55000 36.30400
H  40.64900 12.49000 37.40500
N  39.16500 8.33000 29.64000
C  38.27300 8.14200 30.60500
C  37.07800 7.54200 30.04100
C  37.26800 7.54600 28.64800
C  38.63000 7.97500 28.44400
C  35.84000 7.21300 30.88900
C  36.36000 7.05600 27.51800
O  36.58500 7.14500 26.34700
C  35.00300 6.57600 27.77400
N  41.43600 8.98000 27.74700
C  40.61900 8.53000 26.85600
C  41.29200 8.40100 25.48400
C  42.50900 9.43300 25.65500
C  42.56300 9.55000 27.14500
C  41.60700 6.96300 25.00900
C  42.23500 10.76100 24.88400
C  41.76200 12.03700 25.71900
N  42.89300 10.25300 30.04900
C  43.80600 10.65000 29.07100
C  44.93500 11.31500 29.67800
C  44.54500 11.34700 31.01600
C  43.28000 10.65200 31.18600
C  46.09700 11.81500 28.91700
C  44.94200 11.95000 32.31900
O  45.78300 12.72300 32.62700
C  43.89800 11.38000 33.30900
C  44.67500 10.51500 34.21700
O  45.63500 9.83600 33.86200
O  44.11200 10.46000 35.41700
C  44.50500 9.48900 36.49000
H  37.66400 8.42500 32.68900
H  38.80200 7.52600 26.35300
H  44.34400 10.78300 27.06900
H  41.69200 9.31900 34.91900
H  38.88100 10.03500 34.48300
H  40.24500 7.81300 35.67600
H  39.47400 7.25300 34.27600
H  38.44900 8.07500 35.57500
H  40.51100 12.00000 34.26100
H  41.98000 11.81300 35.31100
H  39.93600 10.54800 36.70800
H  39.15900 11.98900 35.91300
H  35.88500 7.56700 31.91900
H  35.79500 6.12500 30.94400
H  34.89900 7.60000 30.49800
H  34.46200 7.43100 28.17700
H  35.27900 5.80500 28.49400
H  34.76300 6.14500 26.80200
H  40.42800 8.76800 24.93000
H  43.45300 9.04100 25.27700
H  42.64700 6.99900 24.68400
H  40.93700 6.59700 24.23100
H  41.50800 6.33100 25.89200
H  41.37800 10.52200 24.25500
H  43.14500 11.02400 24.34300
H  41.86200 11.96200 26.80200
H  40.71300 12.16600 25.45200
H  42.39700 12.84700 25.35900
H  46.85100 12.12900 29.63800
H  45.90800 12.67900 28.28000
H  46.60200 11.06800 28.30500
H  43.44200 12.24200 33.79600
H  43.64500 8.90300 36.81400
H  44.86900 10.03400 37.36100
H  45.12900 8.68000 36.11000
Mg -12.37900 17.03100 42.24100
C  -9.24900 15.36700 42.08400
C  -10.73200 19.77000 40.90700
C  -15.34200 18.07300 41.42700
C  -13.73400 13.99100 43.46500
N  -10.20600 17.48000 41.58600
C  -9.09400 16.66000 41.53100
C  -7.80300 17.40600 41.15700
C  -8.36200 18.89700 41.11500
C  -9.86100 18.78800 41.15500
C  -7.80800 19.72600 42.22900
C  -7.23100 16.88600 39.84400
C  -5.72900 16.63700 39.86000
H  -5.25100 15.34600 39.18700
N  -12.95500 18.77600 41.39200
C  -12.12600 19.79500 40.97100
C  -13.05300 20.79200 40.36500
C  -14.36400 20.42200 40.58800
C  -14.30500 19.06600 41.21700
C  -12.59200 22.06700 39.55500
C  -15.58100 21.10400 40.08000
O  -15.54800 22.21800 39.49200
C  -16.93900 20.59000 40.37000
N  -14.21800 16.20300 42.54500
C  -15.34500 16.87700 42.14000
C  -16.64400 16.21300 42.58900
C  -16.16100 14.82300 43.17500
C  -14.58600 15.01600 43.05100
C  -17.46900 17.01100 43.56800
C  -16.66800 13.55200 42.47600
C  -17.67100 12.60800 43.20200
N  -11.69700 15.14600 42.70700
C  -12.33500 14.03800 43.25300
C  -11.34200 13.00700 43.61500
C  -10.15800 13.53700 43.18800
C  -10.42200 14.79100 42.61600
C  -11.63800 11.61600 44.17100
C  -8.81800 13.25000 43.09400
O  -8.18500 12.25400 43.45300
C  -8.16100 14.38300 42.36900
C  -7.08100 14.96300 43.31700
O  -7.41800 15.52800 44.31800
O  -5.86900 14.82300 42.81100
C  -4.77000 15.41400 43.65300
H  -10.29000 20.69500 40.53200
H  -16.33000 18.26200 41.00100
H  -14.07800 13.04900 43.89800
H  -7.00600 17.19500 41.87000
H  -8.14300 19.52200 40.24900
H  -7.35100 19.11200 43.00500
H  -8.65900 20.16100 42.75300
H  -7.13900 20.50100 41.85300
H  -7.41000 17.59800 39.03900
H  -7.76900 15.97100 39.59400
H  -5.36000 16.57900 40.88300
H  -5.31400 17.50900 39.35500
H  -13.04500 22.10700 38.56400
H  -11.50600 22.06600 39.46100
H  -12.76500 22.99200 40.10500
H  -17.73300 21.33600 40.33200
H  -16.80200 20.32100 41.41700
H  -17.13500 19.78600 39.66000
H  -17.23500 15.99000 41.70100
H  -16.39400 14.72300 44.23500
H  -17.55600 16.58500 44.56700
H  -18.43800 17.11700 43.07900
H  -17.05800 18.01200 43.70100
H  -15.75700 12.98700 42.27900
H  -17.10800 13.86500 41.53000
H  -17.14900 11.65600 43.28900
H  -18.51800 12.55300 42.51800
H  -17.84000 13.11700 44.15200
H  -11.96900 11.80400 45.19300
H  -10.71200 11.04200 44.14100
H  -12.41800 11.04600 43.66700
H  -7.74500 13.93100 41.46900
H  -5.16000 15.73300 44.62000
H  -4.34100 16.29200 43.17100
H  -3.96400 14.68500 43.73800

