158

Mg 1.24500 8.01300 27.41200
C  1.59200 10.42200 29.86800
C  1.11100 5.63500 29.91700
C  0.95300 5.80000 24.99400
C  1.22600 10.65200 25.02900
N  1.15200 8.04100 29.70600
C  1.33600 9.15400 30.47800
C  1.20500 8.76600 31.97400
C  1.45300 7.19300 31.91900
C  1.18900 6.89900 30.42100
C  2.82300 6.65400 32.39400
C  -0.22600 9.07700 32.52400
C  -0.62200 8.66400 33.93000
H  0.51300 8.34200 34.86300
N  1.13000 5.94100 27.41200
C  1.09700 5.11100 28.57200
C  0.98700 3.78300 28.12600
C  0.87000 3.80300 26.71500
C  1.01100 5.25400 26.27400
C  0.77700 2.55700 29.01200
C  0.54500 2.71900 25.71000
O  0.38300 2.97800 24.52100
C  0.28300 1.32400 26.11100
N  1.14200 8.23200 25.38700
C  0.98000 7.13600 24.57300
C  0.79200 7.47300 23.04300
C  0.51600 9.02200 23.15000
C  0.87700 9.35700 24.65200
C  2.08500 7.01500 22.19200
C  -0.89000 9.44600 22.75700
C  -1.08300 10.00600 21.33700
N  1.40900 10.16000 27.37400
C  1.47700 11.08400 26.37000
C  1.72600 12.45000 26.89900
C  1.69400 12.24100 28.29700
C  1.57600 10.81300 28.50200
C  1.91000 13.79600 26.10500
C  1.90400 12.86100 29.55100
O  2.23700 14.02900 29.74200
C  1.69100 11.71800 30.66500
C  2.63600 11.74100 31.71800
O  3.83800 11.49900 31.65300
O  2.09300 12.23700 32.91600
C  2.96900 12.32000 34.05100
H  1.04600 4.86000 30.68300
H  0.73300 5.09500 24.19000
H  1.21500 11.49300 24.33300
H  2.00400 9.23800 32.54600
H  0.68300 6.79300 32.57900
H  3.12900 5.93300 31.63600
H  2.74700 6.12500 33.34400
H  3.56700 7.44700 32.47500
H  -0.99600 8.77200 31.81500
H  -0.30000 10.15700 32.39800
H  -1.30100 7.81100 33.90300
H  -1.15700 9.51400 34.35300
H  1.38700 1.71500 28.68600
H  -0.26200 2.22600 29.01300
H  1.00100 2.77700 30.05600
H  1.14400 0.92600 26.64800
H  0.31100 0.66200 25.24600
H  -0.52800 1.15800 26.82100
H  -0.07400 6.88800 22.73500
H  1.10500 9.64800 22.48000
H  1.62900 6.19200 21.64200
H  2.88600 6.64700 22.83400
H  2.38800 7.82400 21.52700
H  -1.14600 10.31100 23.36900
H  -1.53600 8.57700 22.88100
H  -0.37200 10.79700 21.09700
H  -2.05700 10.49600 21.33200
H  -0.95900 9.22100 20.59200
H  1.81600 13.69700 25.02400
H  2.92700 14.09800 26.35400
H  1.22500 14.60800 26.35100
H  0.73800 11.85700 31.17700
H  2.35000 12.26100 34.94600
H  3.46000 13.28900 34.15100
H  3.73900 11.56100 34.18600
Mg 0.74600 42.71400 25.95500
C  1.77200 42.70200 29.21000
C  -2.38900 41.38900 26.96100
C  0.04500 41.90500 22.78000
C  4.06300 43.77200 24.99400
N  -0.16300 42.06600 27.88700
C  0.42200 42.29600 29.10700
C  -0.53300 41.90000 30.25800
C  -1.71100 41.25400 29.50200
C  -1.43000 41.58200 27.97100
C  -1.97800 39.68000 29.74300
C  -0.88400 43.07700 31.18000
C  -0.98700 42.68900 32.67100
H  -1.65900 41.31600 33.11300
N  -1.00900 41.94300 24.98900
C  -2.20600 41.55700 25.56100
C  -3.21800 41.42800 24.55000
C  -2.50200 41.46500 23.27100
C  -1.04700 41.71700 23.61700
C  -4.63200 41.23800 24.85300
C  -2.99500 41.18100 21.87600
O  -2.19100 41.17700 20.90700
C  -4.40200 40.99200 21.56700
N  1.84600 42.77700 24.20200
C  1.36400 42.34500 23.02700
C  2.27500 42.79000 21.90800
C  3.44600 43.58200 22.52300
C  3.11000 43.44900 24.00600
C  2.74900 41.62200 21.08600
C  3.43500 45.08300 22.08900
C  3.60500 45.32500 20.59200
N  2.52400 43.19400 26.87600
C  3.76900 43.63300 26.40000
C  4.68400 43.80100 27.44500
C  3.95600 43.39300 28.57000
C  2.62300 43.11400 28.16600
C  6.14800 44.28000 27.32900
C  4.07100 43.23300 29.98400
O  4.98200 43.39700 30.71400
C  2.67000 42.82700 30.44300
C  2.84900 41.46900 31.03000
O  3.57600 40.55800 30.66000
O  2.15800 41.48400 32.19400
C  2.45300 40.25200 32.96900
H  -3.37000 41.08600 27.33200
H  -0.12300 41.92500 21.70200
H  5.02200 44.19000 24.68000
H  -0.07300 41.18600 30.94100
H  -2.60600 41.77700 29.83900
H  -1.29300 39.23300 30.46300
H  -1.92500 39.23100 28.75100
H  -3.02500 39.53900 30.01000
H  -1.84500 43.53300 30.94600
H  -0.20400 43.91600 31.02800
H  -1.58400 43.50000 33.08700
H  0.06000 42.69900 32.97300
H  -5.27000 42.09400 24.63200
H  -4.77700 40.98000 25.90200
H  -5.03100 40.40000 24.28300
H  -4.70900 39.94900 21.65300
H  -4.61400 41.33000 20.55300
H  -4.94500 41.67900 22.21600
H  1.77900 43.46300 21.21000
H  4.37600 43.05600 22.30600
H  1.94600 41.28600 20.42900
H  2.95400 40.79600 21.76600
H  3.62700 41.86000 20.48500
H  4.18300 45.58800 22.70000
H  2.43300 45.43700 22.33100
H  2.68400 45.51200 20.03900
H  4.12500 44.49500 20.11300
H  4.25300 46.19800 20.51500
H  6.37900 44.42500 26.27400
H  6.85000 43.55300 27.73900
H  6.09800 45.22000 27.87900
H  2.22000 43.50200 31.17100
H  3.49800 40.39600 33.24400
H  2.26100 39.31300 32.45100
H  1.87900 40.37400 33.88800

