158

Mg 24.93300 -7.64200 47.71600
C  27.24800 -5.38200 46.27200
C  22.65900 -6.30500 45.22900
C  22.83300 -10.14000 48.43500
C  27.49600 -8.99200 49.47400
N  25.08100 -6.17700 45.83600
C  26.09500 -5.33900 45.52000
C  25.75000 -4.35800 44.31800
C  24.21200 -4.56600 44.11000
C  23.96000 -5.74300 45.16800
C  23.33800 -3.34500 44.43400
C  26.59000 -4.55700 43.07500
C  27.35000 -3.35700 42.48500
H  26.98200 -2.83300 41.11700
N  22.99700 -8.10800 47.08000
C  22.23900 -7.38800 46.10300
C  20.93000 -8.00500 46.16000
C  20.95500 -9.12000 47.08200
C  22.27100 -9.18700 47.63200
C  19.86800 -7.64700 45.18400
C  19.73600 -10.02600 47.27400
O  18.63700 -9.94800 46.69900
C  19.77200 -11.21900 48.12600
N  25.16100 -9.47400 48.56700
C  24.15900 -10.28100 48.93800
C  24.65000 -11.39600 49.79700
C  26.06700 -10.92000 50.21000
C  26.29000 -9.68700 49.39600
C  23.73100 -11.75100 50.95800
C  27.16600 -11.96900 50.24900
C  27.92600 -12.25300 51.62000
N  26.94000 -7.24500 48.03800
C  27.83200 -7.85000 48.87600
C  29.02600 -7.01300 49.00400
C  28.90700 -6.10300 47.89700
C  27.57700 -6.20300 47.43400
C  30.21400 -7.34200 49.82100
C  29.57900 -5.10800 46.99400
O  30.76700 -4.71900 46.93100
C  28.49800 -4.48300 46.04600
C  28.27500 -3.12200 46.56400
O  27.54200 -2.77400 47.51300
O  28.69100 -2.21200 45.57800
C  28.00600 -0.89000 45.70900
H  21.91100 -6.01700 44.48700
H  22.23200 -10.89300 48.94800
H  28.16600 -9.39400 50.23700
H  26.03200 -3.36500 44.66900
H  23.90200 -5.04400 43.18100
H  22.81500 -3.53300 45.37200
H  22.68100 -3.22100 43.57300
H  23.98000 -2.47700 44.59100
H  26.02800 -5.02400 42.26700
H  27.25600 -5.37800 43.33800
H  28.41100 -3.60400 42.52100
H  27.25900 -2.48900 43.13700
H  19.83600 -6.60000 44.88000
H  18.84900 -7.87800 45.49200
H  20.06400 -8.27300 44.31300
H  20.59800 -11.90200 47.92300
H  18.85200 -11.79500 48.02200
H  19.79600 -10.90400 49.16900
H  24.54200 -12.29600 49.19300
H  26.04000 -10.37600 51.15400
H  24.26900 -12.17200 51.80700
H  22.95600 -12.42800 50.59800
H  23.26900 -10.82800 51.30700
H  27.91000 -11.80100 49.47000
H  26.74600 -12.94000 49.98500
H  28.99100 -12.25700 51.38800
H  27.59000 -13.22200 51.98900
H  27.69800 -11.47500 52.34800
H  30.86400 -7.89300 49.14100
H  29.94400 -7.92300 50.70200
H  30.82100 -6.48400 50.11000
H  28.81700 -4.51800 45.00400
H  28.50600 -0.34800 46.51100
H  26.93300 -0.94900 45.89100
H  28.04700 -0.37000 44.75200
Mg 41.05600 8.54400 28.92800
C  42.64300 10.01600 31.75500
C  38.79700 7.15600 31.03800
C  39.55500 7.09900 26.29500
C  43.59300 9.55800 26.89400
N  40.76800 8.63300 31.17500
C  41.47200 9.37800 32.10300
C  40.86400 9.19700 33.46200
C  39.62500 8.23500 33.23600
C  39.75400 7.97000 31.71500
C  39.42800 6.86400 34.06800
C  40.48300 10.61400 34.11300
C  39.69600 10.46700 35.40800
H  40.30800 11.35000 36.56300
N  39.31000 7.37400 28.72400
C  38.52400 6.94100 29.66200
C  37.38300 6.21300 29.13300
C  37.55400 6.16300 27.73400
C  38.82600 6.95200 27.48100
C  36.27000 5.87700 30.10500
C  36.60300 5.55200 26.75800
O  36.71000 5.83100 25.56600
C  35.43700 4.65200 27.15900
N  41.44700 8.44200 26.88200
C  40.73700 7.68900 26.03700
C  41.26500 7.70100 24.57800
C  42.53000 8.56100 24.74900
C  42.56700 8.84200 26.25400
C  41.60900 6.30900 23.97600
C  42.76100 9.71600 23.79100
C  42.27100 11.12300 24.26700
N  42.78000 9.52600 29.24000
C  43.73300 9.86500 28.27800
C  44.76400 10.59600 29.06300
C  44.37100 10.77700 30.38400
C  43.14500 10.01900 30.46100
C  46.00100 11.15600 28.53300
C  44.77600 11.29000 31.67800
O  45.71500 11.96200 32.04400
C  43.60100 10.79900 32.59800
C  44.13800 9.86400 33.65500
O  44.49200 8.77800 33.47400
O  44.31000 10.59800 34.83400
C  44.91500 9.78800 35.91900
H  38.03000 6.83000 31.74300
H  39.17700 6.59800 25.40100
H  44.40200 9.94700 26.27300
H  41.67500 8.68500 33.98100
H  38.72500 8.85000 33.21500
H  38.46900 6.96100 34.57600
H  40.25000 6.78300 34.77900
H  39.20600 6.00600 33.43300
H  39.82200 11.22100 33.49400
H  41.34500 11.21000 34.41200
H  39.59600 9.42300 35.70500
H  38.67400 10.83200 35.31100
H  35.45100 6.47800 29.71000
H  36.33500 6.21500 31.13900
H  35.98000 4.82700 30.15500
H  34.73800 5.30800 27.67800
H  35.66300 3.80100 27.80200
H  34.95500 4.23100 26.27700
H  40.60100 8.17000 23.85100
H  43.38200 7.88100 24.72700
H  41.49700 5.43700 24.62100
H  42.65300 6.31500 23.66300
H  40.94900 5.99400 23.16800
H  42.59400 9.41500 22.75700
H  43.85000 9.74200 23.73600
H  41.37700 10.98000 24.87400
H  42.03100 11.68200 23.36200
H  43.16800 11.45500 24.78900
H  46.31400 12.12500 28.92400
H  45.66300 11.46600 27.54400
H  46.84500 10.46800 28.56300
H  43.07500 11.57500 33.15400
H  44.14900 9.38100 36.57800
H  45.55500 10.44300 36.50900
H  45.53300 8.98400 35.51900

