158

Mg 30.36900 58.07900 39.26100
C  27.47700 56.37700 38.15400
C  32.15900 55.14000 38.63800
C  33.22500 59.78900 39.55700
C  28.43500 60.89600 39.83900
N  29.91300 56.09600 38.21600
C  28.67300 55.61000 38.02100
C  28.69300 54.10200 37.68100
C  30.07400 53.66700 38.14400
C  30.79100 55.05400 38.44000
C  30.06000 52.77500 39.41200
C  28.45900 53.67000 36.19100
C  29.27000 54.49200 35.06200
H  28.36100 55.41800 34.27500
N  32.39800 57.54400 39.12700
C  32.95300 56.31700 38.85100
C  34.41300 56.35500 38.92700
C  34.76300 57.65800 39.22800
C  33.44800 58.41900 39.36800
C  35.25500 55.11500 38.60200
C  36.11200 58.13700 39.36500
O  37.07500 57.50200 38.89900
C  36.37600 59.44100 40.08600
N  30.70300 60.06400 39.68900
C  32.01300 60.50700 39.84100
C  32.00400 61.96900 40.05600
C  30.56600 62.27000 40.43400
C  29.82400 61.03100 39.93800
C  33.15900 62.51600 40.97200
C  29.83700 63.57400 39.89300
C  28.88900 64.11000 40.97600
N  28.36700 58.58200 39.12900
C  27.73300 59.74600 39.40900
C  26.30200 59.66900 38.96600
C  26.15300 58.36400 38.54700
C  27.41000 57.73800 38.63000
C  25.30700 60.82500 38.92500
C  25.25600 57.31900 37.99600
O  24.08200 57.46900 37.85400
C  26.00200 56.04200 37.82600
C  25.45800 54.90300 38.67000
O  25.64100 54.81100 39.83400
O  24.66700 54.00900 37.92800
C  24.18300 52.84400 38.55400
H  32.61300 54.14700 38.66400
H  34.11300 60.41900 39.46800
H  27.80300 61.74400 40.11200
H  27.88900 53.76200 38.33400
H  30.71800 53.16200 37.42300
H  30.89900 52.86800 40.10100
H  30.14100 51.76900 39.00100
H  29.09500 52.73700 39.91800
H  27.37700 53.75100 36.09000
H  28.73200 52.62900 36.01700
H  29.56300 53.71500 34.35600
H  30.13800 55.01600 35.46200
H  35.58700 55.14400 37.56400
H  34.76700 54.14800 38.72000
H  36.12200 54.93700 39.23900
H  35.68200 59.68700 40.89000
H  36.43000 60.27900 39.39100
H  37.29100 59.34500 40.67000
H  32.16200 62.38800 39.06200
H  30.64900 62.25200 41.52000
H  34.02900 62.74700 40.35800
H  33.44800 61.75900 41.70200
H  32.86700 63.41300 41.51800
H  29.32200 63.21400 39.00200
H  30.46500 64.40800 39.58100
H  29.20900 65.11000 41.26700
H  28.81100 63.47600 41.85900
H  27.89300 64.09700 40.53300
H  24.99200 61.25300 39.87600
H  24.42400 60.65200 38.31000
H  25.86800 61.59600 38.39700
H  26.05100 55.67300 36.80100
H  23.49100 53.23900 39.29800
H  25.12500 52.37700 38.83900
H  23.66800 52.20300 37.83800
Mg 27.26200 50.46800 25.55400
C  25.25800 51.82700 28.13800
C  29.47500 49.41800 28.05600
C  28.92500 49.07300 23.22600
C  24.90300 51.72300 23.23200
N  27.28100 50.56600 27.85900
C  26.34400 51.16700 28.64900
C  26.75300 50.95400 30.15300
C  28.16700 50.39800 30.13500
C  28.32300 50.11800 28.60500
C  29.24500 51.46500 30.58000
C  25.79800 49.99400 30.99800
C  25.01400 50.67100 32.16300
H  25.80200 51.03000 33.52200
N  29.04100 49.49500 25.60100
C  29.79300 49.12300 26.69800
C  30.94700 48.39300 26.16200
C  30.75700 48.11300 24.78600
C  29.57000 48.94100 24.46300
C  32.02900 47.81300 27.03800
C  31.40600 47.07800 23.87600
O  31.05200 46.91900 22.70100
C  32.36000 46.11400 24.40500
N  27.01500 50.46100 23.52700
C  27.78700 49.84300 22.68200
C  27.35800 49.86500 21.24300
C  25.86800 50.30600 21.32700
C  25.89900 50.88500 22.79100
C  28.22400 50.93600 20.46200
C  24.74200 49.26900 21.22100
C  25.11900 47.77100 21.05200
N  25.48400 51.59000 25.59100
C  24.65700 52.06500 24.59700
C  23.65400 52.90300 25.12400
C  23.78700 52.81900 26.49300
C  24.91700 51.97700 26.78100
C  22.60900 53.67100 24.43300
C  23.19400 53.20400 27.73500
O  22.19800 53.79800 28.03600
C  24.17600 52.63300 28.88200
C  24.73000 53.77000 29.69100
O  25.66000 54.50300 29.28400
O  24.00800 53.92400 30.81200
C  24.42800 54.97900 31.73500
H  30.23500 49.20000 28.81000
H  29.45900 48.73100 22.33600
H  24.14600 51.92100 22.47100
H  26.63600 51.91400 30.65400
H  28.42500 49.50100 30.69700
H  28.82400 52.38900 30.97800
H  29.78400 51.83600 29.70800
H  29.93100 50.99500 31.28400
H  26.29600 49.13500 31.44900
H  25.14900 49.53300 30.25300
H  24.27400 49.91900 32.43700
H  24.44000 51.56400 31.91600
H  33.00800 47.88000 26.56400
H  31.99700 46.73500 27.19900
H  32.11400 48.21200 28.04800
H  32.71300 45.53600 23.55100
H  31.70300 45.50300 25.02500
H  33.28400 46.49700 24.83700
H  27.45400 48.92500 20.70000
H  25.62500 51.17400 20.71300
H  27.70200 51.32100 19.58600
H  29.21200 50.59600 20.15300
H  28.24800 51.77700 21.15600
H  24.05200 49.48400 20.40500
H  24.11700 49.38900 22.10600
H  25.57700 47.55300 22.01600
H  25.78900 47.41500 20.27000
H  24.16500 47.24300 21.05400
H  21.96500 53.14100 23.73100
H  23.04600 54.56200 23.98200
H  22.02700 54.06500 25.26700
H  23.62000 52.14300 29.68200
H  25.39900 54.66200 32.11500
H  23.70100 55.13900 32.53100
H  24.71600 55.89500 31.21800

