158

Mg 17.47400 -2.16600 27.18200
C  16.47800 -0.06700 29.76300
C  19.33400 -3.95800 29.41300
C  18.59700 -4.00400 24.56700
C  15.64500 -0.08900 24.97900
N  17.93300 -1.87500 29.28300
C  17.32800 -1.06300 30.19100
C  17.82100 -1.27200 31.56300
C  18.88400 -2.37900 31.37500
C  18.79000 -2.77300 29.91100
C  20.39500 -2.03500 31.70500
C  16.73700 -1.55800 32.67500
C  16.66800 -0.64500 33.95400
H  18.03700 -0.07400 34.39100
N  18.75800 -3.76600 26.99600
C  19.38000 -4.39700 28.00800
C  20.09200 -5.52700 27.55000
C  19.91300 -5.66300 26.11500
C  19.14300 -4.38800 25.77600
C  20.94500 -6.41700 28.41200
C  20.18100 -6.80500 25.13100
O  19.76500 -6.75100 23.96600
C  20.97100 -7.99500 25.54300
N  17.32200 -2.00300 25.04900
C  17.84000 -2.88300 24.21300
C  17.62000 -2.51500 22.77700
C  16.64500 -1.27900 22.89600
C  16.47100 -1.08500 24.41000
C  18.92900 -2.25800 21.92100
C  15.30300 -1.54800 22.13300
C  14.54000 -0.42100 21.56700
N  16.24000 -0.47100 27.26000
C  15.49600 0.17700 26.31800
C  14.61500 1.08500 26.98400
C  15.00800 1.09400 28.36100
C  15.93700 0.08500 28.46100
C  13.59500 1.96100 26.24300
C  14.79300 1.69300 29.64900
O  14.05000 2.65700 29.90300
C  15.72500 0.93200 30.62400
C  16.52000 1.92400 31.24200
O  17.56300 2.34500 30.71300
O  15.87400 2.42600 32.36100
C  16.56000 3.45800 33.18300
H  19.91400 -4.50300 30.16100
H  18.84900 -4.52600 23.64100
H  14.96900 0.51500 24.37000
H  18.26100 -0.31400 31.83900
H  18.55500 -3.26500 31.91800
H  20.83600 -2.87900 32.23500
H  20.51900 -1.19800 32.39200
H  21.02800 -1.85300 30.83700
H  17.02200 -2.53100 33.07700
H  15.71600 -1.48600 32.30200
H  16.32900 -1.23700 34.80400
H  15.92900 0.14400 33.81300
H  21.16200 -7.44900 28.13900
H  20.53600 -6.55000 29.41300
H  21.90900 -5.91900 28.51900
H  22.01200 -7.81200 25.81100
H  21.06800 -8.68200 24.70200
H  20.42100 -8.60400 26.26100
H  17.16900 -3.44700 22.43600
H  17.23000 -0.42400 22.55900
H  19.69200 -1.74700 22.50700
H  18.75900 -1.57200 21.09100
H  19.31500 -3.18700 21.50200
H  14.65300 -2.12700 22.79000
H  15.49200 -2.22700 21.30200
H  13.52700 -0.32700 21.95900
H  14.58400 -0.49800 20.48000
H  15.14800 0.48100 21.63200
H  12.82200 2.29000 26.93700
H  13.11700 1.39600 25.44300
H  13.93100 2.87000 25.74500
H  15.15000 0.46500 31.42300
H  16.20900 4.48900 33.14000
H  17.62300 3.39600 32.94700
H  16.31700 3.10300 34.18500
Mg 15.97000 51.30400 25.41200
C  17.99500 50.69200 28.20100
C  13.48900 51.97900 27.31800
C  14.10000 51.39800 22.59400
C  18.72200 50.42000 23.41900
N  15.72400 51.33200 27.56000
C  16.73100 51.30700 28.45500
C  16.25600 51.65000 29.83400
C  14.73900 51.81000 29.57000
C  14.68900 51.77800 28.01200
C  13.80700 50.79000 30.30700
C  16.99900 52.92800 30.45500
C  17.30800 52.88800 31.99700
H  16.55800 51.77100 32.84000
N  13.96400 51.73000 25.01300
C  13.09100 51.93300 25.98200
C  11.76600 52.01200 25.43100
C  11.94900 51.79500 24.02300
C  13.33700 51.56200 23.77500
C  10.41800 52.16100 26.27400
C  10.83900 51.73200 22.97400
O  11.14300 51.56900 21.76100
C  9.38600 52.06400 23.30800
N  16.42800 51.27900 23.32200
C  15.45200 51.23800 22.39900
C  16.05500 50.89700 20.94800
C  17.54600 51.24800 21.22200
C  17.54300 50.94100 22.74900
C  15.81200 49.42700 20.38900
C  18.05200 52.67700 20.91000
C  18.83400 52.81000 19.58000
N  17.98800 50.70900 25.65100
C  18.92200 50.28500 24.77500
C  20.08200 49.74200 25.49200
C  19.74900 49.89200 26.87800
C  18.50000 50.48100 26.92200
C  21.36500 49.22700 24.93000
C  20.23200 49.72700 28.22000
O  21.33300 49.41400 28.65500
C  19.07000 50.23300 29.19700
C  18.72200 48.99700 29.97700
O  18.56300 47.84200 29.55500
O  18.70400 49.30400 31.28100
C  18.18600 48.31000 32.16500
H  12.64200 52.10600 27.99500
H  13.56200 51.42300 21.64400
H  19.61200 50.31500 22.79400
H  16.51400 50.78400 30.44300
H  14.38400 52.79800 29.86300
H  13.48400 50.08400 29.54100
H  12.94700 51.36000 30.65700
H  14.31300 50.30000 31.13900
H  16.42200 53.83200 30.26400
H  17.92400 53.03700 29.88900
H  16.92600 53.78200 32.49100
H  18.38900 52.81900 32.11600
H  9.64200 51.49900 25.89000
H  10.07600 53.16900 26.03700
H  10.40000 51.92000 27.33700
H  9.23900 53.03400 23.78200
H  8.84200 51.22700 23.74500
H  8.80400 52.06500 22.38600
H  15.45100 51.59200 20.36600
H  18.13700 50.53900 20.64100
H  15.31400 48.91400 21.21200
H  16.76400 48.94200 20.17200
H  15.35500 49.30800 19.40600
H  18.76900 52.90000 21.70000
H  17.21300 53.35200 21.07700
H  18.45800 52.14600 18.80300
H  19.91000 52.75400 19.74300
H  18.65300 53.79500 19.15100
H  21.69600 49.67400 23.99200
H  21.32000 48.15000 24.76700
H  22.19000 49.35600 25.63000
H  19.40400 51.00100 29.89500
H  18.53800 47.33800 31.82000
H  17.09700 48.35300 32.12900
H  18.63400 48.24900 33.15700

