158

Mg 9.25500 4.12100 27.94400
C  10.28400 2.45100 30.89400
C  7.46300 6.29700 29.91600
C  8.06500 5.34800 25.20300
C  11.16100 1.75600 26.09900
N  8.75400 4.19300 30.09700
C  9.41100 3.51400 31.15700
C  9.00700 4.08000 32.58800
C  8.06000 5.26800 32.17100
C  8.06500 5.27000 30.61300
C  6.60000 5.35200 32.76700
C  10.29700 4.38300 33.38500
C  10.12800 5.26500 34.63400
H  10.70600 4.78600 35.93700
N  8.04100 5.70700 27.57400
C  7.34800 6.49700 28.47800
C  6.42600 7.38900 27.83700
C  6.66200 7.16000 26.43100
C  7.62200 6.02100 26.32400
C  5.37300 8.29000 28.56400
C  6.13200 7.89600 25.28100
O  6.23800 7.62700 24.08900
C  5.39900 9.19700 25.63100
N  9.56500 3.54700 25.97600
C  8.94400 4.32400 25.08600
C  9.29600 3.82300 23.66000
C  10.53300 2.84500 23.90400
C  10.43700 2.71100 25.39300
C  8.05600 3.09800 23.03500
C  11.86400 3.54000 23.51000
C  12.84200 2.60600 22.79100
N  10.41100 2.36500 28.35700
C  11.08900 1.51200 27.45700
C  11.61600 0.47000 28.23300
C  11.42100 0.83100 29.55000
C  10.67400 1.98400 29.63100
C  12.34800 -0.68700 27.59200
C  11.80800 0.47400 30.88700
O  12.47000 -0.47200 31.29000
C  11.07500 1.55100 31.81500
C  10.22100 0.90100 32.81000
O  9.08600 0.46400 32.62500
O  10.91700 0.77800 33.99200
C  10.31000 -0.05300 34.98300
H  6.97200 7.11200 30.45200
H  7.66500 5.77000 24.27900
H  11.71500 0.97700 25.57300
H  8.44400 3.23400 32.98500
H  8.43900 6.23800 32.49300
H  6.21500 4.34100 32.63400
H  5.97400 6.16600 32.40300
H  6.59200 5.37700 33.85600
H  10.82900 4.98300 32.64600
H  10.76400 3.43900 33.66500
H  9.08300 5.53700 34.77900
H  10.65700 6.19800 34.44000
H  5.40500 7.93500 29.59400
H  4.39700 8.08600 28.12200
H  5.54100 9.36500 28.51300
H  4.37200 8.96200 25.91100
H  5.45600 9.78300 24.71400
H  5.88500 9.62000 26.51000
H  9.61700 4.62700 22.99900
H  10.41600 1.86800 23.43500
H  7.16200 3.15300 23.65600
H  8.38300 2.08200 22.81300
H  7.79000 3.56900 22.08900
H  12.47700 4.00100 24.28500
H  11.59300 4.35700 22.84100
H  13.54600 2.45100 23.60900
H  13.40500 2.99200 21.94100
H  12.37700 1.69500 22.41500
H  12.22100 -1.50600 28.29900
H  13.43300 -0.61600 27.66300
H  11.87100 -0.87100 26.62900
H  11.87100 2.10600 32.31200
H  9.74300 0.64000 35.60600
H  11.09100 -0.49600 35.60000
H  9.68200 -0.87800 34.64700
Mg 47.40100 35.75300 26.09700
C  45.53400 33.98400 28.65300
C  47.48300 38.32800 28.27500
C  49.08100 37.26000 23.79300
C  46.43800 33.15900 23.84900
N  46.55200 36.06100 28.26100
C  46.03100 35.15900 29.12400
C  46.02000 35.65800 30.54400
C  46.11400 37.21600 30.26100
C  46.82900 37.25600 28.88600
C  44.76900 37.97100 30.21400
C  47.23400 35.16800 31.36600
C  46.94400 34.78700 32.84800
H  45.77100 35.44400 33.63800
N  48.22000 37.51300 26.09100
C  48.11400 38.51800 27.03700
C  48.87500 39.71100 26.55000
C  49.31700 39.42300 25.16600
C  48.89500 38.02200 24.97600
C  48.78200 40.99600 27.21900
C  49.96800 40.24600 24.22700
O  50.38600 39.86100 23.15900
C  50.21400 41.72600 24.52700
N  47.78700 35.17300 24.19200
C  48.53200 36.04900 23.45200
C  48.81900 35.40100 22.07300
C  47.93200 34.10200 22.04400
C  47.31600 34.12700 23.38600
C  48.40500 36.39600 20.84800
C  48.78400 32.81600 21.83500
C  48.19200 31.56600 21.13000
N  46.17100 33.92400 26.13900
C  45.96500 32.93700 25.19200
C  45.27200 31.80100 25.81900
C  45.06500 32.20300 27.13200
C  45.63200 33.47700 27.30100
C  44.99100 30.48800 25.18500
C  44.40700 31.76700 28.33900
O  43.73800 30.73700 28.60300
C  44.62000 32.96900 29.43700
C  45.29600 32.30400 30.58600
O  46.49500 32.11900 30.66400
O  44.36700 31.83800 31.54200
C  44.78600 31.14600 32.69600
H  47.24100 39.16600 28.93200
H  49.68700 37.60600 22.95300
H  46.34100 32.39600 23.07300
H  45.08800 35.47400 31.07900
H  46.70100 37.57300 31.10800
H  43.99500 37.26100 30.50700
H  44.45000 38.35600 29.24500
H  44.90000 38.85100 30.84300
H  48.02600 35.91400 31.29700
H  47.60100 34.23000 30.94800
H  47.83200 35.06000 33.41900
H  46.81300 33.70600 32.89300
H  49.77100 41.43800 27.34100
H  48.37400 40.90500 28.22600
H  48.13200 41.71800 26.72500
H  49.42800 42.24000 25.07900
H  50.45800 42.13200 23.54500
H  51.11400 41.61100 25.13100
H  49.88000 35.15400 22.04200
H  47.18900 34.28600 21.26800
H  47.57800 37.04500 21.13900
H  48.17100 35.80300 19.96400
H  49.16600 37.13700 20.60400
H  49.09000 32.54200 22.84500
H  49.73700 33.02900 21.35000
H  48.74500 31.24200 20.24900
H  47.19400 31.76000 20.73700
H  48.15300 30.73700 21.83700
H  44.02400 30.55000 24.68600
H  45.07500 29.69000 25.92400
H  45.77200 30.32000 24.44400
H  43.65000 33.38600 29.71000
H  44.06300 31.50900 33.42700
H  45.80900 31.31900 33.02800
H  44.48800 30.11600 32.49900

