158

Mg 50.50600 46.12900 41.68500
C  47.42400 47.57700 40.79200
C  49.24500 42.99200 40.46300
C  53.63000 44.69500 41.99600
C  51.72000 49.22600 42.44900
N  48.54700 45.36400 40.79800
C  47.45500 46.18100 40.49500
C  46.32800 45.36700 39.81500
C  46.85800 43.90200 40.12300
C  48.34800 44.07300 40.53000
C  46.13500 43.17500 41.31300
C  46.20800 45.72600 38.33000
C  44.87800 45.69200 37.69800
H  44.86000 44.61100 36.54900
N  51.28400 44.16900 41.15100
C  50.58600 43.06500 40.72300
C  51.54400 41.93300 40.56600
C  52.83800 42.45200 40.87200
C  52.61600 43.82100 41.39900
C  51.11000 40.52600 40.09300
C  54.15200 41.77700 40.76300
O  54.22100 40.61200 40.52400
C  55.39400 42.48100 40.88400
N  52.41900 46.84600 42.03000
C  53.47600 46.07100 42.29300
C  54.69200 47.00800 42.68500
C  54.05200 48.36400 43.10400
C  52.66000 48.16300 42.43000
C  55.68800 46.28000 43.68500
C  54.88300 49.56600 42.62900
C  54.94100 50.69000 43.69600
N  49.80000 48.06400 41.73000
C  50.38400 49.24800 41.98200
C  49.50600 50.35800 41.86300
C  48.29300 49.73000 41.42200
C  48.51800 48.33500 41.29900
C  49.72000 51.77900 42.12500
C  46.95000 49.98000 40.87200
O  46.37500 51.03800 40.68700
C  46.39100 48.63300 40.34500
C  44.99400 48.37400 40.87400
O  44.66300 47.78600 41.91000
O  44.07900 48.80400 39.91100
C  42.74000 48.21600 40.00100
H  48.73800 42.10800 40.07100
H  54.60800 44.29300 42.26900
H  52.01800 50.20400 42.83300
H  45.36400 45.51400 40.30400
H  46.76900 43.25900 39.24700
H  45.36300 42.47300 40.99700
H  45.63800 44.00000 41.82300
H  46.88100 42.67500 41.93000
H  46.83000 44.95500 37.87300
H  46.64200 46.66200 37.97900
H  44.64000 46.66400 37.26600
H  44.04700 45.56600 38.39300
H  51.70600 39.66400 40.39200
H  51.04500 40.46300 39.00700
H  50.18400 40.24800 40.59600
H  55.64200 42.52000 41.94400
H  55.32400 43.50300 40.51200
H  56.05000 41.92000 40.21800
H  55.33700 47.08700 41.81000
H  54.02500 48.36200 44.19300
H  55.99400 46.88100 44.54200
H  56.62600 46.10500 43.15900
H  55.26600 45.33700 44.03100
H  54.63000 49.90900 41.62500
H  55.90900 49.20500 42.57000
H  55.96600 51.00400 43.89200
H  54.67100 50.25300 44.65700
H  54.23700 51.50200 43.51400
H  49.86200 51.87800 43.20100
H  48.80100 52.32600 41.91100
H  50.63300 52.08400 41.61500
H  46.27900 48.67800 39.26100
H  42.12700 49.09900 39.81900
H  42.42400 47.78400 40.95000
H  42.46900 47.51100 39.21400
Mg 16.87800 52.02800 25.25900
C  18.73900 50.94600 27.99800
C  14.31600 52.91600 27.44600
C  15.33900 53.06500 22.53900
C  19.35000 50.52900 23.09300
N  16.52800 51.83100 27.51600
C  17.50300 51.51200 28.41000
C  17.01900 51.75100 29.78800
C  15.51300 52.30900 29.60600
C  15.41300 52.32400 28.10200
C  14.41200 51.31500 30.29700
C  17.88600 52.81400 30.52900
C  17.48600 53.36900 31.96700
H  16.47000 52.62500 32.86300
N  15.08500 52.89700 25.05600
C  14.17700 53.20600 26.06600
C  13.00000 53.67400 25.36500
C  13.35900 53.78200 23.98000
C  14.68500 53.21900 23.79600
C  11.68700 53.97400 26.07600
C  12.48600 54.27600 22.85300
O  12.85000 54.55300 21.72300
C  11.00300 54.56200 23.03500
N  17.36300 51.97200 23.10800
C  16.53000 52.44500 22.21800
C  17.08800 52.40700 20.78900
C  18.42500 51.75900 21.01700
C  18.43300 51.39100 22.51700
C  16.15200 51.72200 19.84100
C  19.53600 52.78700 20.70600
C  20.85600 52.19800 20.27700
N  18.63600 50.90300 25.44100
C  19.47900 50.31000 24.53800
C  20.58100 49.70800 25.24800
C  20.37600 49.91700 26.54800
C  19.13400 50.59800 26.64500
C  21.82700 49.04600 24.68300
C  20.94300 49.79100 27.90900
O  21.99300 49.33900 28.32000
C  19.91000 50.45900 28.89200
C  19.37700 49.60000 29.96800
O  18.68500 48.69000 29.71600
O  19.98400 49.88900 31.12400
C  19.38600 49.24100 32.34600
H  13.46900 53.35700 27.97500
H  14.80800 53.44400 21.66300
H  20.20400 50.27600 22.46200
H  17.00700 50.83400 30.37600
H  15.37900 53.30200 30.03400
H  13.70400 50.80700 29.64100
H  13.85700 51.91900 31.01400
H  14.85600 50.54000 30.92100
H  18.08000 53.64500 29.85100
H  18.85400 52.33600 30.67900
H  17.01500 54.34400 31.83400
H  18.35100 53.51000 32.61500
H  11.99200 54.36400 27.04700
H  11.10600 53.05600 26.16800
H  11.13800 54.82700 25.67700
H  10.96500 55.36200 23.77400
H  10.43300 53.67900 23.32600
H  10.65700 54.89700 22.05700
H  17.09300 53.45700 20.49900
H  18.56600 50.93400 20.31900
H  15.79600 50.88600 20.44300
H  16.65000 51.47700 18.90300
H  15.18200 52.21700 19.80300
H  19.72000 53.29300 21.65400
H  19.24800 53.50300 19.93600
H  21.21300 52.62400 19.33900
H  20.77200 51.11200 20.32600
H  21.58800 52.52800 21.01400
H  22.04000 49.23900 23.63200
H  21.55100 47.99600 24.59200
H  22.71700 49.12700 25.30800
H  20.26200 51.38100 29.35600
H  18.99900 48.23500 32.18500
H  18.45400 49.76800 32.55100
H  20.15800 49.21400 33.11500

