158

Mg 7.77100 3.34900 27.54400
C  9.28400 2.09600 30.44300
C  5.82800 5.46600 29.47700
C  6.54800 4.57600 24.70200
C  9.20500 0.65500 25.72900
N  7.69400 3.79700 29.70200
C  8.36300 3.14200 30.70000
C  7.91700 3.67000 32.06100
C  6.69600 4.61200 31.76900
C  6.71400 4.68300 30.21500
C  5.35400 4.07500 32.31400
C  9.11100 4.39800 32.78500
C  9.70600 3.72100 33.97700
H  10.07900 4.54600 35.16600
N  6.31700 4.68200 27.13900
C  5.65300 5.57600 28.08100
C  4.78900 6.48900 27.37700
C  4.89300 6.18000 25.95400
C  6.00300 5.12900 25.89000
C  3.98200 7.60600 28.08500
C  4.24100 6.86500 24.74400
O  4.55000 6.67700 23.57400
C  3.14200 7.90200 24.93500
N  7.75300 2.60300 25.54400
C  7.31600 3.43600 24.50800
C  7.62200 2.88000 23.15500
C  8.42400 1.64100 23.55700
C  8.52800 1.63800 25.05900
C  6.41600 2.68100 22.18200
C  9.83900 1.47200 22.79400
C  9.87800 0.27500 21.70600
N  9.02100 1.80200 27.93800
C  9.46000 0.73900 27.13200
C  10.17600 -0.24800 27.89500
C  10.20900 0.34600 29.22000
C  9.43300 1.53900 29.18100
C  10.75600 -1.50300 27.35900
C  10.68800 0.15100 30.53300
O  11.45900 -0.70200 30.83000
C  10.20200 1.28100 31.39100
C  9.47900 0.58400 32.52400
O  8.28500 0.37700 32.67900
O  10.45800 0.32600 33.44800
C  9.99500 0.15300 34.84700
H  5.30800 6.20900 30.08500
H  6.01300 4.86000 23.79300
H  9.68800 -0.09800 25.10300
H  7.52400 2.86600 32.68400
H  6.82400 5.59800 32.21500
H  4.93900 3.21100 31.79500
H  4.56100 4.82200 32.32900
H  5.50600 3.68200 33.31900
H  8.74500 5.40300 32.99500
H  9.92600 4.56500 32.08100
H  10.69900 3.39100 33.67300
H  9.00800 2.93700 34.26900
H  3.00300 7.12900 28.12200
H  3.96400 8.50100 27.46300
H  4.34700 7.84700 29.08300
H  2.28700 7.69400 25.57800
H  2.74300 8.20600 23.96800
H  3.60900 8.80800 25.32300
H  8.38600 3.56700 22.79200
H  7.79200 0.77500 23.36600
H  5.53700 3.12900 22.64500
H  6.27100 1.60900 22.04300
H  6.55000 3.12900 21.19800
H  10.77000 1.36000 23.34800
H  10.16000 2.29000 22.14900
H  8.89800 -0.18500 21.58200
H  10.58500 -0.44400 22.12100
H  10.27200 0.74900 20.80700
H  10.13500 -1.95600 26.58600
H  10.70000 -2.23200 28.16700
H  11.79200 -1.30400 27.08300
H  11.03600 1.88400 31.74900
H  10.02300 1.10000 35.38600
H  10.56500 -0.58400 35.41300
H  8.96500 -0.19900 34.92100
Mg 24.01300 -4.88900 45.69100
C  25.88200 -2.46800 44.14900
C  21.32400 -3.71800 43.84000
C  22.35400 -7.61100 46.72700
C  26.85900 -6.02600 47.41000
N  23.67300 -3.44400 43.95800
C  24.62800 -2.50400 43.60600
C  23.92800 -1.43200 42.64100
C  22.45200 -1.62700 43.04500
C  22.43600 -3.05800 43.63900
C  21.99800 -0.59400 44.13400
C  24.30600 -1.74000 41.17200
C  24.87900 -0.64600 40.27400
H  24.95000 -0.97900 38.76200
N  22.12800 -5.57400 45.33900
C  21.11100 -4.98700 44.45500
C  19.93800 -5.83600 44.48600
C  20.27200 -6.90100 45.40100
C  21.65800 -6.74800 45.85300
C  18.69400 -5.47500 43.61600
C  19.26000 -8.01200 45.94200
O  18.10900 -8.06100 45.53600
C  19.57900 -8.90400 47.11400
N  24.55100 -6.52900 47.09100
C  23.62800 -7.52000 47.29100
C  24.29500 -8.68200 48.09700
C  25.68700 -8.10300 48.45300
C  25.75200 -6.81600 47.59900
C  23.47700 -9.23400 49.31400
C  26.83700 -9.04600 48.02300
C  28.20500 -8.99100 48.91800
N  25.97200 -4.44000 45.78000
C  27.00500 -4.89400 46.55600
C  28.17600 -4.07900 46.35500
C  27.78900 -3.15100 45.41100
C  26.41900 -3.32500 45.10800
C  29.48900 -4.20600 47.07200
C  28.25500 -1.97200 44.66500
O  29.34800 -1.49800 44.57500
C  27.02700 -1.54800 43.74600
C  26.73400 -0.13700 44.08700
O  25.90900 0.16100 44.97100
O  27.51100 0.76000 43.23700
C  27.22800 2.10000 43.46100
H  20.36900 -3.30700 43.50600
H  21.86000 -8.56400 46.92800
H  27.78600 -6.38200 47.86300
H  24.24000 -0.41300 42.87000
H  21.75900 -1.54000 42.20800
H  22.84000 -0.05500 44.57000
H  21.46400 -1.17500 44.88600
H  21.26000 -0.00700 43.58900
H  23.37100 -2.06000 40.71300
H  25.07300 -2.51100 41.23900
H  25.87400 -0.45600 40.67600
H  24.39800 0.31800 40.44100
H  18.95400 -5.14200 42.61100
H  18.14900 -4.59300 43.95100
H  18.15000 -6.41900 43.58200
H  18.61200 -9.15800 47.54800
H  20.20900 -8.42100 47.86100
H  19.98700 -9.83900 46.72900
H  24.45500 -9.47200 47.36400
H  25.88700 -7.86700 49.49800
H  23.39700 -10.29600 49.08000
H  22.44700 -8.88200 49.37100
H  23.95300 -8.94900 50.25200
H  27.01600 -8.91400 46.95600
H  26.52700 -10.07700 48.19200
H  28.47900 -9.97900 49.28800
H  28.17600 -8.22700 49.69600
H  29.04800 -8.66900 48.30600
H  30.42600 -3.94000 46.58200
H  29.56400 -5.25900 47.34200
H  29.45200 -3.76500 48.06800
H  27.22300 -1.67800 42.68200
H  27.01500 2.60400 42.51800
H  28.15400 2.59400 43.75700
H  26.48400 2.34100 44.22000

