158

Mg 36.03600 49.86300 25.47800
C  36.06500 48.02100 28.51100
C  35.68800 52.73400 27.24600
C  35.87700 51.27400 22.54200
C  36.41800 46.63500 23.92900
N  35.72500 50.27300 27.61200
C  35.86400 49.42000 28.68200
C  35.83300 50.22500 30.04000
C  35.60800 51.65600 29.57600
C  35.69900 51.59200 28.05400
C  34.41000 52.39200 30.07800
C  37.05200 50.01700 30.92500
C  36.75100 49.81900 32.44700
H  35.32200 49.81200 32.96300
N  35.80100 51.75300 24.98800
C  35.80800 52.80000 25.84200
C  35.78700 53.96300 25.11300
C  35.86100 53.66900 23.70300
C  35.84600 52.14000 23.66000
C  35.72100 55.32200 25.64300
C  35.91700 54.64100 22.41800
O  35.86700 54.11700 21.30700
C  35.94500 56.26600 22.47900
N  36.03300 49.07500 23.49900
C  36.06600 49.89500 22.42500
C  36.26200 49.15100 21.10000
C  36.64300 47.65100 21.52900
C  36.41100 47.79400 23.14000
C  34.97700 49.26200 20.11000
C  38.09600 47.26600 21.21400
C  38.22900 45.75500 21.07700
N  36.19400 47.86300 26.03100
C  36.29700 46.68300 25.26900
C  36.32000 45.46000 26.06600
C  36.24700 45.97000 27.37600
C  36.08800 47.40500 27.30700
C  36.46300 44.00400 25.58800
C  36.42500 45.57100 28.74000
O  36.63000 44.46900 29.24500
C  36.23400 46.85800 29.60400
C  34.99000 46.59800 30.38100
O  33.86800 46.79700 29.93900
O  35.26100 46.04600 31.59800
C  34.03800 45.68800 32.36500
H  35.64000 53.67100 27.80600
H  36.02100 51.73000 21.56000
H  36.57400 45.70300 23.38300
H  34.86000 49.85100 30.35600
H  36.45000 52.30500 29.81800
H  33.94500 53.04900 29.34300
H  34.72600 53.04400 30.89300
H  33.60500 51.79200 30.50500
H  37.71800 50.87800 30.86100
H  37.60700 49.16600 30.53000
H  37.33400 50.63100 32.88100
H  37.12600 48.83300 32.72300
H  36.29400 56.01800 25.02900
H  36.13800 55.47400 26.63800
H  34.65400 55.52600 25.55800
H  36.83500 56.59500 23.01600
H  35.14300 56.54900 23.16100
H  35.87200 56.67600 21.47200
H  37.13300 49.70300 20.74700
H  35.99900 46.87400 21.11900
H  35.24000 49.90300 19.26800
H  34.19600 49.77100 20.67500
H  34.66000 48.28800 19.73700
H  38.65000 47.53700 22.11300
H  38.46900 47.77000 20.32300
H  37.33500 45.21700 20.76100
H  38.61700 45.31400 21.99500
H  38.89400 45.65500 20.22000
H  36.41700 43.30700 26.42500
H  37.43500 43.81700 25.13300
H  35.62800 43.81400 24.91300
H  37.05200 46.97600 30.31400
H  33.90700 44.60700 32.33500
H  33.19600 46.27200 31.99400
H  34.15400 46.09000 33.37100
Mg -10.46600 39.93900 42.15800
C  -9.16700 36.65400 41.22200
C  -7.64100 41.28800 40.47500
C  -11.86500 42.88100 42.22200
C  -13.50100 38.34300 42.78900
N  -8.77900 39.07100 40.85700
C  -8.39700 37.75500 40.79400
C  -6.97800 37.64800 40.20900
C  -6.39700 39.09000 40.34800
C  -7.71100 39.90600 40.56000
C  -5.22300 39.39000 41.41900
C  -6.99600 37.08600 38.72300
C  -5.90600 36.00200 38.39500
H  -4.78400 36.23400 37.36200
N  -9.76300 41.84700 41.58600
C  -8.62400 42.21900 40.96400
C  -8.53300 43.69600 40.96300
C  -9.73200 44.13700 41.67400
C  -10.52900 42.92800 41.82400
C  -7.43800 44.44800 40.28500
C  -10.16300 45.55700 41.96000
O  -9.37800 46.47400 41.63200
C  -11.40100 46.07600 42.66500
N  -12.45000 40.57400 42.39200
C  -12.80500 41.87600 42.40100
C  -14.30400 41.99200 42.72500
C  -14.80500 40.53900 42.93200
C  -13.51800 39.72500 42.68400
C  -14.53200 42.89100 43.93300
C  -16.06900 40.17800 42.10600
C  -17.17800 39.39500 42.84400
N  -11.17700 37.89400 42.21300
C  -12.47000 37.41100 42.49600
C  -12.43800 35.93400 42.46900
C  -11.15900 35.62400 41.99900
C  -10.47600 36.77800 41.76900
C  -13.62800 35.06900 42.63600
C  -10.26900 34.55300 41.67000
O  -10.35800 33.33700 41.67000
C  -9.02000 35.21100 41.07200
C  -7.81700 34.72000 41.78000
O  -7.35000 35.22000 42.82100
O  -7.15700 33.75900 40.97100
C  -5.87400 33.17800 41.34800
H  -6.76200 41.72300 39.99400
H  -12.34800 43.85500 42.32400
H  -14.40900 37.76300 42.96800
H  -6.47900 36.98100 40.91300
H  -5.95200 39.23500 39.36300
H  -5.65700 40.01200 42.20100
H  -4.43700 40.00200 40.97700
H  -4.98100 38.36900 41.71400
H  -6.85800 37.88500 37.99400
H  -7.94000 36.61200 38.45400
H  -6.47400 35.10000 38.16600
H  -5.30300 35.78700 39.27600
H  -7.88900 44.80900 39.36100
H  -6.55400 43.83000 40.12600
H  -7.09300 45.39000 40.71100
H  -12.14100 46.09000 41.86500
H  -11.21300 47.02600 43.16500
H  -11.72300 45.43500 43.48700
H  -14.77100 42.45400 41.85600
H  -14.94200 40.34500 43.99600
H  -14.93000 43.86700 43.65600
H  -13.58000 43.03000 44.44600
H  -15.26800 42.50300 44.63800
H  -15.73700 39.70500 41.18300
H  -16.54100 41.10900 41.79100
H  -16.79200 38.81300 43.68100
H  -17.54400 38.68200 42.10500
H  -17.92900 40.11100 43.17400
H  -14.49300 35.56900 43.07000
H  -13.37500 34.20600 43.25200
H  -13.86000 34.66000 41.65200
H  -8.91200 34.94600 40.02000
H  -5.93700 32.39200 42.10100
H  -5.19800 33.88200 41.83300
H  -5.40400 32.83500 40.42600

