158

Mg 8.76700 3.97800 28.02000
C  10.15500 2.18700 30.81300
C  6.93900 5.81300 30.34400
C  7.24600 5.44500 25.57600
C  10.16100 1.56300 25.94800
N  8.58600 3.97600 30.37000
C  9.39000 3.21800 31.23800
C  9.18100 3.74800 32.64800
C  7.98500 4.78400 32.45600
C  7.75500 4.83400 30.96000
C  6.67900 4.29800 33.15700
C  10.47000 4.52300 33.23600
C  10.34100 5.20300 34.60000
H  11.14800 4.57500 35.68100
N  7.33900 5.54300 27.96400
C  6.70800 6.13900 28.98200
C  5.84900 7.12500 28.51700
C  5.93700 7.06400 27.05700
C  6.89000 6.02700 26.79600
C  5.13300 8.04900 29.43900
C  5.17400 7.91300 25.98700
O  5.32000 7.73100 24.76700
C  4.29500 9.02000 26.41200
N  8.59100 3.44600 26.04200
C  7.99500 4.30000 25.21400
C  8.37200 3.97500 23.69800
C  9.41800 2.75800 23.84900
C  9.42200 2.61500 25.39300
C  7.10300 3.69600 22.81400
C  10.88300 3.13800 23.35200
C  11.51400 2.25400 22.15000
N  9.92600 2.23900 28.29900
C  10.37100 1.46800 27.29600
C  11.32500 0.47700 27.83700
C  11.17500 0.68800 29.27200
C  10.31400 1.78300 29.47300
C  12.10700 -0.62000 27.12400
C  11.67200 0.27300 30.52400
O  12.34300 -0.67300 30.87100
C  11.06300 1.26600 31.54700
C  10.33000 0.55800 32.70800
O  9.36600 -0.19800 32.68200
O  11.03200 0.90800 33.83500
C  10.42500 0.41700 35.06500
H  6.53900 6.43000 31.15100
H  6.85700 6.00300 24.72300
H  10.69300 0.78700 25.39400
H  8.88500 2.93100 33.30500
H  8.18000 5.77100 32.87400
H  6.66800 4.71700 34.16300
H  6.79000 3.21600 33.23400
H  5.74100 4.48400 32.63400
H  10.63800 5.32400 32.51600
H  11.31500 3.83500 33.24400
H  9.31300 5.33900 34.93500
H  10.75100 6.19700 34.42300
H  4.08100 7.86000 29.22600
H  5.40300 9.10300 29.37600
H  5.16400 7.78300 30.49500
H  3.91600 9.44500 25.48200
H  4.96800 9.74200 26.87400
H  3.47800 8.70300 27.06000
H  8.84500 4.87500 23.30400
H  8.89800 1.89200 23.43800
H  6.16700 3.76900 23.36800
H  7.19400 2.75700 22.26900
H  7.11600 4.40100 21.98300
H  11.64800 3.00400 24.11700
H  10.95200 4.17700 23.03100
H  10.89000 1.36400 22.06900
H  12.53600 1.90700 22.30200
H  11.62400 2.81900 21.22500
H  13.06000 -0.14000 26.90100
H  11.66100 -0.84300 26.15500
H  12.24700 -1.50200 27.74700
H  11.88600 1.85800 31.94800
H  9.34700 0.47400 35.21100
H  10.82900 0.99800 35.89500
H  10.79100 -0.60300 35.17700
Mg 48.20800 34.92400 26.43400
C  46.16700 34.21100 29.14500
C  48.93800 38.00300 27.95900
C  49.65000 35.95900 23.67500
C  46.98800 32.04000 24.82500
N  47.51900 36.01500 28.32400
C  46.80300 35.42800 29.33800
C  46.84600 36.35700 30.58400
C  47.33000 37.80200 30.00200
C  47.96500 37.27700 28.66000
C  46.27000 38.90500 29.92300
C  47.51800 35.64600 31.79900
C  48.23700 36.56000 32.79600
H  47.51600 37.54100 33.70700
N  49.37300 36.58600 25.94800
C  49.56500 37.74400 26.69600
C  50.60700 38.57400 25.98900
C  50.71500 38.04500 24.73600
C  49.84200 36.79100 24.75600
C  51.10100 39.83300 26.56600
C  51.54500 38.46400 23.55200
O  51.62100 37.85000 22.50900
C  52.35200 39.74400 23.59200
N  48.24600 34.08500 24.55700
C  48.89700 34.79800 23.54400
C  48.83000 33.98200 22.23100
C  48.29600 32.58300 22.65100
C  47.79200 32.84400 24.08800
C  48.07500 34.69800 21.14200
C  49.35900 31.43400 22.59800
C  49.03700 30.30400 21.58500
N  46.80900 33.46100 26.81600
C  46.53300 32.30300 26.11500
C  45.63200 31.48700 26.91600
C  45.40700 32.21700 28.11800
C  46.22600 33.33900 28.02600
C  45.02500 30.14500 26.57800
C  44.69200 32.39000 29.36900
O  43.80800 31.71200 29.84900
C  45.26100 33.49200 30.14300
C  46.01600 32.92700 31.28200
O  47.23000 32.61500 31.10600
O  45.29500 32.81200 32.41800
C  46.01400 32.13800 33.52000
H  49.28500 38.95300 28.37100
H  50.11000 36.27000 22.73500
H  46.66900 31.11500 24.33900
H  45.81200 36.51000 30.89200
H  48.07800 38.18400 30.69700
H  45.82900 38.83800 28.92900
H  46.58000 39.92600 30.14500
H  45.44300 38.63200 30.57800
H  48.28200 34.96600 31.42100
H  46.78900 35.08500 32.38300
H  49.13100 37.11800 32.52000
H  48.73600 35.80800 33.40700
H  52.18900 39.86800 26.51200
H  50.78800 39.90700 27.60800
H  50.64400 40.59000 25.92800
H  51.82300 40.65800 23.86200
H  52.69800 39.90200 22.57100
H  53.18900 39.64000 24.28300
H  49.83000 33.83500 21.82500
H  47.45500 32.25600 22.03900
H  48.76700 34.54600 20.31400
H  48.10500 35.77500 21.30200
H  47.05500 34.32300 21.06600
H  49.43700 30.99400 23.59200
H  50.34300 31.79700 22.30000
H  49.74300 30.19900 20.76000
H  48.07600 30.46100 21.09600
H  49.14700 29.39000 22.16800
H  44.58600 30.14600 25.58100
H  44.15300 29.97100 27.20800
H  45.77700 29.37400 26.74900
H  44.46600 34.12600 30.53500
H  46.65100 31.36100 33.09900
H  45.37500 31.84400 34.35200
H  46.67800 32.94900 33.81900

