158

Mg 8.42200 3.63500 26.77200
C  9.86000 2.08900 29.70600
C  6.29800 5.30800 28.85500
C  7.16400 5.01600 24.16900
C  10.31800 1.32500 24.80800
N  8.08900 3.61700 29.03600
C  8.90400 3.04300 29.97000
C  8.54500 3.68100 31.35800
C  7.48900 4.72800 31.02200
C  7.28300 4.54200 29.54000
C  6.18100 4.72600 31.90400
C  9.78900 4.32800 32.12200
C  9.56300 4.76100 33.62900
H  10.53700 4.19400 34.74900
N  6.87100 4.86400 26.50300
C  6.14000 5.46500 27.47000
C  5.20400 6.41300 26.87000
C  5.47200 6.38700 25.47900
C  6.49600 5.40400 25.30500
C  4.17400 7.21900 27.68100
C  4.80500 7.16600 24.30600
O  5.18300 7.19300 23.13800
C  3.59100 8.11700 24.58500
N  8.62900 3.14500 24.74300
C  8.10800 4.04300 23.84400
C  8.77000 3.89100 22.49500
C  9.78300 2.68700 22.73800
C  9.60100 2.34700 24.21500
C  7.81900 3.57300 21.33400
C  11.21300 2.96400 22.28400
C  12.15100 3.74800 23.24100
N  9.66400 1.85700 27.09900
C  10.32000 1.01300 26.24200
C  11.20100 0.12900 26.94400
C  11.02200 0.49900 28.32700
C  10.12300 1.61800 28.39300
C  12.13000 -0.81300 26.34300
C  11.54400 0.32700 29.67200
O  12.39500 -0.41600 30.16100
C  10.82000 1.35400 30.61000
C  10.15900 0.56500 31.72900
O  9.21200 -0.18100 31.61300
O  10.90600 0.77000 32.85200
C  10.44000 0.38400 34.21600
H  5.77900 5.93900 29.57800
H  6.85100 5.57200 23.28300
H  11.00500 0.88300 24.08300
H  8.05600 2.92600 31.97300
H  7.92700 5.72100 31.12400
H  6.08500 5.71800 32.34400
H  6.28700 3.92400 32.63500
H  5.26300 4.60500 31.32800
H  9.95900 5.21700 31.51300
H  10.68300 3.70500 32.10200
H  8.51000 4.53400 33.79600
H  9.63800 5.84400 33.72400
H  4.54100 8.23600 27.81400
H  4.10500 6.82900 28.69700
H  3.20400 7.19400 27.18400
H  2.65300 7.60600 24.80500
H  3.46100 8.76600 23.71900
H  3.85200 8.72400 25.45200
H  9.21200 4.86000 22.26000
H  9.38900 1.80700 22.23100
H  6.78600 3.41900 21.64700
H  8.09400 2.66300 20.80200
H  7.83700 4.35500 20.57500
H  11.12800 3.56900 21.38100
H  11.72500 2.04600 21.99500
H  12.41100 4.66900 22.71900
H  13.05100 3.14200 23.35200
H  11.66600 4.03100 24.17500
H  12.88100 -1.09500 27.08100
H  12.50600 -0.31900 25.44700
H  11.53900 -1.67800 26.04200
H  11.58500 1.97600 31.07500
H  10.26600 1.21900 34.89600
H  11.27100 -0.24900 34.52600
H  9.51400 -0.19100 34.20000
Mg 47.85000 16.06700 28.50400
C  45.89400 16.34200 31.40900
C  50.39200 17.77900 30.22900
C  49.48300 16.36000 25.54100
C  45.03600 15.08100 26.81200
N  48.06100 16.90600 30.62300
C  47.18500 16.81800 31.65600
C  47.89300 17.35500 32.86900
C  49.08200 18.20100 32.25100
C  49.22200 17.55000 30.91800
C  48.85300 19.75500 32.24600
C  48.47200 16.17100 33.84800
C  48.60600 16.48000 35.31500
H  48.55000 17.96500 35.82300
N  49.70400 16.84800 27.95600
C  50.62400 17.45900 28.80500
C  51.86600 17.61400 28.08400
C  51.61600 17.17900 26.69700
C  50.22100 16.75100 26.67700
C  53.18600 17.94200 28.83500
C  52.64200 17.07800 25.64500
O  52.34600 16.79700 24.50200
C  54.08100 17.48600 25.90000
N  47.36200 15.59400 26.53100
C  48.14300 15.94500 25.46500
C  47.42400 15.84200 24.14000
C  46.14200 15.17300 24.53600
C  46.10800 15.27400 26.02400
C  47.21700 17.09800 23.26400
C  46.09400 13.64200 24.12300
C  45.06400 13.29600 23.01800
N  45.88500 15.74600 28.97400
C  44.86700 15.33300 28.14600
C  43.74800 15.01500 28.96300
C  44.07300 15.37600 30.22100
C  45.36600 15.89800 30.15900
C  42.47400 14.26600 28.56000
C  43.54600 15.41900 31.54200
O  42.46600 15.03300 31.95400
C  44.78500 16.04500 32.39300
C  44.41800 17.28900 33.09100
O  44.43300 18.41300 32.59700
O  43.82700 16.90600 34.28000
C  43.27000 18.03700 35.00000
H  51.24300 18.29500 30.67900
H  49.97900 16.52300 24.58200
H  44.18300 14.66200 26.27400
H  47.19400 18.01500 33.38300
H  49.98000 18.05100 32.85100
H  47.97600 20.01700 32.83700
H  48.78800 20.05500 31.20000
H  49.70000 20.22700 32.74400
H  49.42800 15.82500 33.45500
H  47.85300 15.28500 33.70800
H  49.51900 16.13900 35.80300
H  47.80400 15.99400 35.87100
H  53.85600 17.08300 28.83000
H  53.03100 18.21700 29.87900
H  53.66000 18.76500 28.30000
H  54.12800 18.55000 26.13100
H  54.63700 17.40600 24.96600
H  54.53500 16.89600 26.69600
H  48.04200 15.15500 23.56300
H  45.35000 15.73700 24.04300
H  47.89700 17.02400 22.41500
H  47.43000 18.01100 23.82000
H  46.21300 17.28700 22.88300
H  45.99900 12.97700 24.98100
H  47.06500 13.35600 23.71900
H  45.66300 13.10400 22.12900
H  44.38500 14.12400 22.81500
H  44.46600 12.46100 23.38200
H  42.38300 14.33000 27.47600
H  41.52300 14.58300 28.98800
H  42.60900 13.21800 28.82700
H  45.03700 15.25700 33.10200
H  44.01800 18.81100 35.17000
H  42.77000 17.87500 35.95500
H  42.47200 18.44100 34.37700

