158

Mg 48.21200 36.38600 28.52600
C  46.03200 34.80700 30.54400
C  48.36900 38.97500 30.72200
C  49.78900 38.30900 26.05200
C  47.92200 33.77800 26.09600
N  47.39300 36.73400 30.46500
C  46.58800 35.90300 31.15400
C  46.54600 36.31000 32.61500
C  46.92100 37.85700 32.52900
C  47.64000 37.86100 31.16600
C  45.68100 38.75700 32.47900
C  47.43600 35.41200 33.55500
C  48.88500 35.93600 33.72500
H  49.29800 36.20400 35.16300
N  49.17700 38.26800 28.54200
C  49.09200 39.19600 29.52500
C  49.72600 40.41800 29.16900
C  50.29100 40.17600 27.86600
C  49.77200 38.82400 27.43400
C  49.79300 41.60500 29.98100
C  51.13100 41.17900 26.96900
O  51.56600 40.83800 25.89300
C  51.40200 42.59500 27.48200
N  48.80100 36.07500 26.36200
C  49.34300 37.05500 25.59700
C  49.60500 36.59100 24.16200
C  49.08800 35.06500 24.21700
C  48.56700 34.89800 25.69600
C  48.75400 37.36500 23.12700
C  49.98800 33.96300 23.77000
C  50.87800 34.12200 22.54800
N  47.21800 34.63700 28.28000
C  47.20300 33.59200 27.30600
C  46.24200 32.57800 27.75400
C  45.77700 33.01900 28.98900
C  46.31900 34.26200 29.25900
C  45.73800 31.42400 27.00200
C  44.79300 32.75600 30.06000
O  44.02700 31.84800 30.07100
C  44.95000 33.88300 31.13800
C  45.18900 33.22200 32.41800
O  46.03900 32.33700 32.58000
O  44.36900 33.75800 33.37200
C  44.64400 33.10800 34.66000
H  48.20100 39.81200 31.40300
H  50.32500 38.76500 25.21700
H  47.97300 32.89200 25.46100
H  45.57900 36.18900 33.10300
H  47.55800 38.13000 33.37000
H  45.41900 39.00200 33.50900
H  44.90700 38.27000 31.88600
H  45.88300 39.66200 31.90700
H  47.44900 34.40700 33.13400
H  46.87600 35.24500 34.47500
H  49.14200 36.83000 33.15700
H  49.47100 35.10400 33.33400
H  49.16400 42.34500 29.48600
H  50.82400 41.93400 30.10900
H  49.41600 41.43300 30.98900
H  50.47400 43.10100 27.74900
H  51.90500 43.23400 26.75600
H  52.00300 42.40700 28.37200
H  50.60200 36.66200 23.72700
H  48.11300 35.03500 23.73000
H  48.01000 37.95400 23.66500
H  48.17200 36.89000 22.33800
H  49.40600 38.15800 22.76000
H  49.45300 33.01300 23.77400
H  50.64500 33.79700 24.62400
H  50.72200 33.26200 21.89700
H  51.95900 34.09900 22.68200
H  50.59400 35.04100 22.03500
H  45.48000 31.66100 25.97000
H  44.87300 31.03200 27.53800
H  46.53000 30.67600 26.97300
H  44.00700 34.40200 31.31000
H  45.67500 33.17500 35.00800
H  44.54200 32.05200 34.41000
H  43.82700 33.25500 35.36700
Mg 30.97500 58.42200 41.33500
C  28.11100 56.74300 39.77400
C  32.96500 56.30900 39.69100
C  33.41300 60.41900 42.22100
C  28.50800 60.96200 42.37800
N  30.53800 56.79600 39.76600
C  29.35100 56.16100 39.39200
C  29.67600 55.03100 38.46200
C  31.23200 54.82400 38.62000
C  31.61300 56.10700 39.42600
C  31.65500 53.57800 39.47800
C  29.24300 55.35100 36.93300
C  28.14600 54.43600 36.19800
H  27.26100 55.11700 35.18100
N  32.92700 58.25800 41.18600
C  33.59100 57.33200 40.42000
C  34.99500 57.51600 40.59100
C  35.18400 58.69400 41.41400
C  33.80700 59.18900 41.67000
C  36.05500 56.55500 40.13200
C  36.41900 59.28600 41.89000
O  37.47900 58.69500 41.72300
C  36.43000 60.60500 42.56100
N  30.88600 60.42500 42.17000
C  32.09900 60.96800 42.47700
C  31.96000 62.35600 42.99800
C  30.41400 62.49700 43.28500
C  29.88600 61.19900 42.55900
C  32.90000 62.75400 44.09400
C  29.75900 63.76800 42.63600
C  28.58200 64.45100 43.37800
N  28.84100 58.72600 41.26500
C  28.05200 59.81800 41.67600
C  26.64900 59.47000 41.45800
C  26.64700 58.33800 40.64300
C  27.95300 57.83300 40.54400
C  25.41200 60.20000 41.86100
C  25.77000 57.38600 39.95300
O  24.56800 57.46800 39.75200
C  26.67000 56.27500 39.33700
C  26.24100 54.98700 39.87100
O  26.65900 54.47900 40.92800
O  25.32500 54.44200 39.01100
C  24.84200 53.05200 39.32700
H  33.61100 55.57600 39.20300
H  34.12500 61.16400 42.58200
H  27.67000 61.61100 42.63600
H  29.15100 54.14700 38.82500
H  31.74900 54.79200 37.66100
H  32.49900 52.98300 39.13000
H  30.85200 52.84800 39.58400
H  31.92100 53.91000 40.48100
H  30.09000 55.49400 36.26200
H  28.78800 56.34100 36.91600
H  27.57700 53.94200 36.98600
H  28.85500 53.79300 35.67800
H  36.71400 57.21500 39.56800
H  35.67300 55.77700 39.47200
H  36.63700 56.09200 40.92900
H  35.79200 60.52600 43.44100
H  35.99600 61.30100 41.84300
H  37.40500 60.90500 42.94400
H  32.20800 62.92900 42.10400
H  30.09300 62.38700 44.32100
H  33.68500 63.43900 43.77200
H  33.43300 61.90500 44.52100
H  32.24000 63.21000 44.83200
H  29.39000 63.47500 41.65300
H  30.48900 64.57000 42.52800
H  27.60800 64.03900 43.11500
H  28.55300 65.51500 43.14000
H  28.70200 64.23700 44.44000
H  24.70600 59.40400 42.09500
H  25.15200 60.74900 40.95600
H  25.39800 60.83700 42.74600
H  26.63000 56.16600 38.25400
H  25.66000 52.33400 39.27300
H  24.13300 52.66800 38.59400
H  24.31100 52.99700 40.27700

