158

Mg 24.91400 1.65200 29.57400
C  26.83600 1.33600 32.49100
C  22.14200 1.72000 31.50200
C  23.01500 1.61500 26.73300
C  27.76800 1.39000 27.76100
N  24.52600 1.49400 31.78800
C  25.43000 1.46100 32.73300
C  24.75900 1.64700 34.12800
C  23.19200 1.59400 33.79600
C  23.25000 1.57400 32.29900
C  22.30300 0.45700 34.39300
C  25.30400 2.92700 34.89900
C  26.02000 2.68900 36.28300
H  25.61200 3.60600 37.51200
N  22.87700 1.69800 29.15000
C  21.87400 1.80800 30.08300
C  20.68400 2.05400 29.46200
C  20.90100 1.80600 28.08400
C  22.32600 1.65000 27.91200
C  19.36000 2.27700 30.20400
C  19.87600 1.60400 26.94000
O  20.12800 1.42400 25.76100
C  18.43000 1.64300 27.35900
N  25.34400 1.45600 27.60800
C  24.38600 1.55200 26.63800
C  25.08800 1.65000 25.26100
C  26.53200 1.85100 25.59800
C  26.56100 1.66500 27.09400
C  24.74300 0.51800 24.26900
C  27.38900 3.07100 25.04400
C  26.76100 4.48200 25.34700
N  26.93600 1.24000 30.05400
C  27.97800 1.21200 29.14300
C  29.21200 0.93200 29.89300
C  28.81400 0.99800 31.29700
C  27.44800 1.13200 31.28900
C  30.50000 0.84200 29.22200
C  29.27900 1.05000 32.63600
O  30.37000 1.04600 33.15300
C  27.98400 1.32700 33.51100
C  27.94700 0.29600 34.66400
O  27.46900 -0.81100 34.63800
O  28.58400 0.83400 35.72200
C  28.68100 -0.05900 36.94800
H  21.28500 1.63500 32.17300
H  22.52600 1.83900 25.78200
H  28.67800 1.39800 27.15600
H  25.00000 0.82700 34.80500
H  22.71800 2.51500 34.13300
H  21.66100 0.92200 35.14100
H  22.87700 -0.24300 34.99900
H  21.68400 -0.04200 33.64700
H  24.43500 3.56800 35.04800
H  25.89900 3.55500 34.23600
H  27.08000 2.92800 36.19800
H  25.87800 1.66900 36.64100
H  19.56900 2.75300 31.16200
H  18.82800 1.34300 30.38600
H  18.84700 2.97300 29.54100
H  18.24800 0.80600 28.03200
H  17.86500 1.44900 26.44700
H  18.06600 2.58100 27.77800
H  24.72700 2.60700 24.88500
H  27.14700 1.01600 25.26100
H  25.52900 -0.23700 24.25400
H  24.48900 0.82000 23.25300
H  23.89700 -0.03500 24.67500
H  27.56100 3.05800 23.96800
H  28.36300 3.01400 25.52900
H  25.93300 4.34700 26.04400
H  26.40600 4.88200 24.39800
H  27.59400 5.10800 25.66600
H  30.55500 1.43900 28.31100
H  30.61500 -0.23100 29.06700
H  31.27300 1.24900 29.87500
H  27.99900 2.34000 33.91200
H  29.19800 0.34700 37.81700
H  29.02600 -1.05400 36.66600
H  27.66100 -0.06300 37.33400
Mg 1.24500 41.86800 24.86100
C  3.29000 41.97100 27.79100
C  -1.46500 41.40500 26.99700
C  -0.73100 41.70000 22.18900
C  4.09700 42.44200 22.94800
N  0.94500 41.77100 27.08500
C  1.91700 41.77600 28.11700
C  1.34900 41.58700 29.55200
C  -0.15900 41.47800 29.20500
C  -0.25300 41.55800 27.65000
C  -0.85900 40.24600 29.93900
C  1.61400 42.83900 30.49200
C  1.83600 42.58500 32.00000
H  0.62200 42.86800 32.88800
N  -0.82900 41.77200 24.58200
C  -1.75500 41.54600 25.56900
C  -3.03400 41.43000 24.98400
C  -2.92000 41.57200 23.60600
C  -1.45400 41.69300 23.35500
C  -4.31400 41.30200 25.84800
C  -3.93900 41.68400 22.59200
O  -3.69900 41.66100 21.36600
C  -5.32000 41.78900 22.90100
N  1.71000 41.85600 22.84200
C  0.68700 41.80400 21.96100
C  1.30000 42.00800 20.54300
C  2.70500 42.60000 20.79300
C  2.91200 42.23400 22.26700
C  1.29800 40.78100 19.55200
C  2.83800 44.13300 20.59100
C  4.28300 44.59100 20.12900
N  3.34100 42.07500 25.20600
C  4.38700 42.27400 24.31000
C  5.59800 42.24200 25.01600
C  5.27600 42.13500 26.37100
C  3.84400 42.08400 26.45500
C  6.95400 42.46600 24.49700
C  5.77000 41.99700 27.75400
O  6.90200 42.06700 28.15500
C  4.51000 42.00400 28.70400
C  4.62300 40.92600 29.71000
O  4.35300 39.75500 29.65200
O  5.21400 41.48100 30.79500
C  5.49000 40.71000 31.98500
H  -2.26700 41.02100 27.63200
H  -1.24600 41.80100 21.23200
H  4.91300 42.72100 22.27800
H  1.68400 40.63500 29.96500
H  -0.76000 42.28100 29.63400
H  -1.75900 40.57700 30.45800
H  -0.30100 39.79100 30.75800
H  -1.02400 39.43500 29.23000
H  0.86600 43.62000 30.35400
H  2.58200 43.18300 30.12800
H  2.49200 43.39800 32.31100
H  2.27000 41.61800 32.25400
H  -4.74500 40.35400 25.52700
H  -5.02500 42.12200 25.74500
H  -4.03300 41.10700 26.88300
H  -5.59000 40.78800 23.23800
H  -5.79400 42.03000 21.95000
H  -5.56500 42.60000 23.58700
H  0.71800 42.83600 20.13800
H  3.46900 42.17600 20.14100
H  0.61300 40.84200 18.70600
H  0.93400 39.92300 20.11600
H  2.28100 40.62000 19.10900
H  2.73900 44.59200 21.57400
H  2.09400 44.44600 19.85800
H  4.66100 45.33700 20.82800
H  4.21700 45.07500 19.15500
H  4.99900 43.78200 20.28000
H  7.66300 41.96700 25.15700
H  7.26900 43.50500 24.39500
H  7.10600 41.95600 23.54600
H  4.62400 42.95900 29.21800
H  6.35500 40.07600 31.79200
H  4.57100 40.22700 32.31900
H  5.86900 41.32900 32.79800

