158

Mg 2.24500 -2.15400 45.38000
C  5.76300 -1.62800 44.87300
C  1.52400 0.32600 43.31600
C  -1.04600 -3.25600 45.25300
C  3.01500 -4.86900 47.31000
N  3.59500 -0.83200 44.18000
C  4.99500 -0.74800 44.12000
C  5.42900 0.34200 43.07200
C  4.07400 1.12200 42.89300
C  2.91200 0.21300 43.57200
C  4.04600 2.58000 43.37000
C  5.93000 -0.32100 41.78700
C  7.36600 -0.01000 41.34600
H  7.80800 0.33600 39.94100
N  0.43600 -1.52700 44.38400
C  0.38900 -0.45200 43.61000
C  -0.99600 -0.15100 43.31300
C  -1.81300 -1.11400 43.94300
C  -0.81900 -2.07700 44.56800
C  -1.45400 0.96100 42.41700
C  -3.27500 -0.95800 44.12600
O  -3.88000 -0.00100 43.64800
C  -4.01300 -2.03500 44.90800
N  1.07600 -3.87400 46.18900
C  -0.26000 -3.99400 46.10500
C  -0.76500 -5.25500 46.88900
C  0.57600 -5.62800 47.65300
C  1.64000 -4.82800 46.95000
C  -2.08000 -5.01800 47.76400
C  0.90400 -7.22400 47.73900
C  1.64100 -7.61200 48.97100
N  3.97600 -3.00100 46.03000
C  4.12700 -4.15700 46.80100
C  5.57500 -4.36700 47.04700
C  6.23800 -3.37900 46.35600
C  5.24200 -2.59400 45.76100
C  6.16300 -5.46800 47.90100
C  7.51300 -2.81900 46.13800
O  8.63800 -3.26400 46.45000
C  7.23000 -1.64300 45.13200
C  7.75100 -0.35200 45.68100
O  7.43800 0.12000 46.77300
O  8.44300 0.21600 44.66700
C  8.79700 1.63100 44.92600
H  1.43700 1.26900 42.77200
H  -2.07500 -3.62200 45.22900
H  3.26100 -5.59200 48.09000
H  6.21400 0.86500 43.61800
H  3.74900 1.10600 41.85200
H  4.99000 2.89600 43.81500
H  3.28500 2.78300 44.12300
H  3.87300 3.06600 42.40900
H  5.31500 -0.04900 40.93000
H  5.81600 -1.40000 41.88300
H  7.95500 -0.86800 41.67300
H  7.63900 0.91900 41.84600
H  -2.21100 0.65800 41.69500
H  -0.62100 1.20900 41.75900
H  -1.84300 1.83100 42.94600
H  -3.34100 -2.27900 45.73100
H  -4.15100 -2.85700 44.20600
H  -4.91000 -1.47600 45.17500
H  -1.10100 -6.09600 46.28200
H  0.58400 -5.13300 48.62400
H  -2.91400 -5.58800 47.35500
H  -2.09100 -3.92900 47.71000
H  -2.01800 -5.29700 48.81600
H  1.42900 -7.58600 46.85500
H  0.07000 -7.92100 47.65500
H  1.03700 -8.36000 49.48400
H  1.70600 -6.73500 49.61400
H  2.60700 -8.06900 48.75200
H  6.25300 -6.42200 47.38300
H  5.58900 -5.58600 48.82000
H  7.22100 -5.24900 48.04200
H  7.84000 -1.86100 44.25500
H  9.64700 1.63500 45.60900
H  7.90700 2.11700 45.32400
H  9.02800 2.09200 43.96500
Mg 8.69900 3.40400 27.90600
C  10.17600 1.81200 30.63700
C  6.74800 5.17600 29.98100
C  7.11600 4.73100 25.15900
C  10.39400 1.06100 25.84200
N  8.61600 3.53400 30.09800
C  9.33500 2.87900 31.00000
C  9.17900 3.47900 32.37100
C  7.91300 4.38700 32.19300
C  7.72800 4.36800 30.64400
C  6.64900 4.02000 33.06700
C  10.41700 4.27100 32.84500
C  11.03500 3.90200 34.21500
H  10.46900 4.74100 35.48500
N  7.19400 4.75100 27.63500
C  6.47100 5.37400 28.59800
C  5.63400 6.35200 28.01300
C  5.71700 6.24400 26.55800
C  6.71400 5.22100 26.42100
C  4.59600 7.17900 28.77000
C  4.94200 7.00400 25.43800
O  5.15700 6.87800 24.24600
C  3.97500 8.04700 25.81200
N  8.81300 2.98700 25.87900
C  8.08400 3.74000 24.90700
C  8.46900 3.26100 23.50500
C  9.42600 2.03000 23.80600
C  9.56700 2.02400 25.26200
C  7.24000 2.98000 22.53500
C  10.95100 2.28000 23.09900
C  11.70400 0.93400 22.63800
N  9.90900 1.72100 28.18300
C  10.41800 0.82400 27.23700
C  11.21200 -0.21700 27.84800
C  11.13200 0.12400 29.23300
C  10.29200 1.26600 29.33500
C  11.94300 -1.34500 27.17200
C  11.72000 -0.16100 30.52000
O  12.53600 -1.02800 30.85000
C  10.96400 0.84500 31.51100
C  10.10100 0.14600 32.43000
O  9.15000 -0.60600 32.21800
O  10.49500 0.41600 33.73400
C  9.63300 -0.15300 34.81200
H  6.19100 5.82500 30.66000
H  6.67100 5.17900 24.26800
H  10.85600 0.41200 25.09500
H  8.90500 2.67600 33.05600
H  8.14900 5.42900 32.41000
H  5.78500 3.94800 32.40700
H  6.38600 4.76000 33.82300
H  6.83400 3.07700 33.58200
H  10.01800 5.27300 33.00500
H  11.16900 4.38100 32.06300
H  12.11400 4.05300 34.18100
H  10.85000 2.83800 34.36400
H  4.57800 6.81000 29.79500
H  3.59900 6.94500 28.39800
H  4.67900 8.25600 28.62000
H  4.44200 8.80600 26.43900
H  3.19100 7.52900 26.36500
H  3.62400 8.64500 24.97100
H  9.01900 4.05300 22.99600
H  9.05900 1.13900 23.29600
H  6.26200 3.27300 22.91600
H  7.25500 1.93200 22.23600
H  7.32100 3.61300 21.65100
H  11.66700 2.81900 23.72100
H  10.96300 2.80000 22.14100
H  12.07700 0.82800 21.62000
H  11.09700 0.04100 22.79100
H  12.49800 0.73500 23.35800
H  12.82700 -0.89100 26.72400
H  11.28000 -1.72700 26.39600
H  12.32400 -2.14000 27.81200
H  11.62400 1.51500 32.06200
H  9.96800 0.32900 35.73100
H  9.54100 -1.23900 34.85100
H  8.61500 0.16500 34.58900

