158

Mg 36.05300 48.93200 25.72400
C  36.42000 46.93300 28.72200
C  35.09900 51.47100 27.71500
C  35.52000 50.56900 22.91400
C  36.74200 46.01200 23.87700
N  35.76700 49.09400 27.95300
C  36.00900 48.17700 28.90700
C  35.78400 48.80500 30.33500
C  35.17300 50.19300 30.00700
C  35.36700 50.25900 28.49400
C  33.71300 50.49300 30.59000
C  37.12400 48.88800 31.13800
C  37.10400 48.85100 32.68800
H  35.71700 48.90300 33.41600
N  35.39800 50.73800 25.33800
C  35.07100 51.69200 26.30800
C  34.81900 52.97300 25.68900
C  34.98000 52.75500 24.25400
C  35.31700 51.30300 24.06800
C  34.31300 54.13700 26.41000
C  34.74900 53.70800 23.11000
O  34.94100 53.37000 21.97400
C  34.29200 55.11000 23.39200
N  36.01400 48.25900 23.69800
C  35.94000 49.21100 22.74900
C  36.13400 48.55300 21.33400
C  36.66000 47.16300 21.62500
C  36.48600 47.12300 23.13500
C  34.94700 48.43800 20.41700
C  38.17700 46.71000 21.23300
C  38.14700 46.00200 19.84600
N  36.49200 46.91000 26.14100
C  36.78300 45.87400 25.32400
C  37.06700 44.69600 26.10600
C  36.84000 45.08500 27.39600
C  36.51700 46.40800 27.40700
C  37.35200 43.35300 25.60100
C  37.00800 44.54000 28.78300
O  37.38400 43.44800 29.15400
C  36.56200 45.73100 29.69900
C  35.30800 45.40900 30.36500
O  34.24800 45.28900 29.75400
O  35.54800 45.19500 31.64200
C  34.28700 44.94200 32.43400
H  34.91600 52.36300 28.31900
H  35.48100 51.11500 21.96900
H  37.00500 45.19000 23.20800
H  35.03800 48.17800 30.82300
H  35.80500 50.95300 30.46500
H  33.26700 49.59000 31.00500
H  33.03600 50.69000 29.75800
H  33.83300 51.27400 31.34000
H  37.57800 49.83500 30.84600
H  37.87000 48.18700 30.76400
H  37.66200 49.62600 33.21300
H  37.61800 47.92800 32.95800
H  34.34200 54.17900 27.49900
H  33.25900 54.32300 26.20200
H  34.83000 55.05500 26.13200
H  34.81300 55.70500 24.14300
H  33.32100 55.03000 23.88100
H  34.23100 55.55300 22.39800
H  36.90500 49.21100 20.93300
H  35.89800 46.52200 21.18000
H  34.85900 47.58100 19.75000
H  35.24000 49.24400 19.74500
H  34.03400 48.71500 20.94300
H  38.73400 46.13000 21.96800
H  38.80100 47.52700 20.87000
H  37.15000 45.81000 19.45000
H  38.59100 45.03900 20.09800
H  38.81000 46.44400 19.10200
H  37.09500 42.59500 26.34100
H  38.37300 43.24300 25.23600
H  36.64500 43.17000 24.79200
H  37.29200 45.89500 30.49200
H  34.05500 43.89900 32.21800
H  33.42000 45.59100 32.30600
H  34.56400 45.03400 33.48400
Mg 17.16900 52.85500 25.75200
C  18.95500 51.37100 28.52600
C  14.72400 53.70100 27.97800
C  15.37900 53.95600 23.17900
C  19.56800 51.51600 23.61000
N  16.85600 52.47500 27.95300
C  17.81400 52.10100 28.89500
C  17.30800 52.41600 30.29900
C  15.84800 52.89300 30.01200
C  15.75100 52.98000 28.54000
C  14.76800 51.94300 30.66600
C  18.19800 53.59500 31.02100
C  18.03600 53.87600 32.55800
H  17.12100 53.09300 33.42400
N  15.31900 53.80600 25.64800
C  14.44000 54.02500 26.67400
C  13.22400 54.66200 26.08200
C  13.39800 54.79100 24.68000
C  14.73800 54.13500 24.45000
C  12.00700 55.01900 26.84700
C  12.48100 55.34000 23.60500
O  12.81500 55.37200 22.41000
C  11.21600 55.92600 23.97200
N  17.37900 52.51000 23.67500
C  16.52000 53.23100 22.86100
C  17.02600 53.06100 21.41200
C  18.43700 52.27400 21.53700
C  18.42700 51.99000 22.98800
C  16.03100 52.30700 20.52000
C  19.63000 52.99300 20.92800
C  20.42700 52.36600 19.78100
N  18.91000 51.63800 25.91100
C  19.82500 51.32100 24.98900
C  20.98100 50.58600 25.59000
C  20.70600 50.64400 27.03300
C  19.40600 51.20600 27.13400
C  22.10200 50.03300 24.79800
C  21.09700 50.28200 28.41100
O  22.12000 49.73500 28.76500
C  20.03500 50.77000 29.35500
C  19.56100 49.51500 30.11700
O  19.25000 48.45200 29.52500
O  19.45300 49.74800 31.45900
C  18.83800 48.58600 32.20700
H  13.98500 54.08300 28.68600
H  14.73000 54.31000 22.37500
H  20.35600 51.22900 22.91000
H  17.42800 51.53400 30.92900
H  15.83100 53.81300 30.59600
H  15.16300 51.04400 31.13800
H  14.04500 51.76700 29.87000
H  14.27500 52.52700 31.44300
H  18.03600 54.53000 30.48300
H  19.25000 53.38400 30.83000
H  17.81700 54.93500 32.69600
H  18.98800 53.70200 33.05900
H  11.67200 56.02900 26.61100
H  12.27200 55.09200 27.90100
H  11.15200 54.34500 26.78300
H  11.42500 56.76700 24.63300
H  10.59500 55.16800 24.45100
H  10.78100 56.24600 23.02500
H  17.26800 54.09000 21.14400
H  18.38400 51.33100 20.99200
H  15.49900 52.92800 19.79900
H  15.27000 51.78200 21.09700
H  16.52000 51.61900 19.83000
H  20.35500 53.16200 21.72400
H  19.44500 54.02700 20.63600
H  20.49300 53.10200 18.97900
H  19.94200 51.45600 19.42900
H  21.42700 52.09900 20.12400
H  21.82200 50.02400 23.74500
H  22.18600 48.98100 25.07100
H  23.06500 50.54400 24.79800
H  20.51500 51.47400 30.03400
H  18.94300 48.88500 33.25000
H  19.34400 47.63800 32.02500
H  17.77100 48.47100 32.01600

