158

Mg 47.91200 25.18600 28.56200
C  48.87400 27.69700 30.92600
C  47.01000 23.21200 31.17900
C  47.20100 22.93600 26.39900
C  49.30900 27.23100 25.96700
N  48.08300 25.42200 30.78600
C  48.32300 26.54800 31.52900
C  48.11900 26.25500 33.04200
C  47.78500 24.73200 33.03400
C  47.52600 24.45800 31.60000
C  48.89100 23.84000 33.57500
C  46.87800 27.03600 33.53100
C  47.31300 27.92000 34.79600
H  46.30100 28.06000 35.98400
N  47.20000 23.29900 28.71700
C  46.92000 22.62500 29.86900
C  46.60400 21.23200 29.57400
C  46.45100 21.21200 28.14300
C  46.98200 22.51200 27.71000
C  46.29800 20.22100 30.61400
C  45.88500 20.08800 27.25900
O  45.70100 20.20900 26.02600
C  45.51700 18.75600 27.87900
N  48.23300 25.12900 26.48800
C  47.68700 24.11400 25.80500
C  48.03400 24.27500 24.32400
C  48.46500 25.76500 24.08900
C  48.71700 26.01700 25.59600
C  48.82800 23.15000 23.63600
C  47.40600 26.66800 23.52000
C  47.86600 28.02500 22.98600
N  48.69400 27.14100 28.35300
C  49.23500 27.83500 27.25400
C  49.68300 29.17500 27.66800
C  49.55600 29.17000 29.13300
C  48.94900 27.83400 29.51300
C  50.40000 30.24600 27.00200
C  49.66900 29.93500 30.32600
O  50.15800 31.02700 30.49100
C  49.14400 29.08300 31.48900
C  50.10800 28.91000 32.68300
O  51.12300 28.22500 32.68100
O  49.84600 29.74200 33.69100
C  50.70200 29.75900 34.89400
H  46.72100 22.58500 32.02500
H  46.89000 22.19500 25.66000
H  49.79800 27.87500 25.23400
H  48.96700 26.58900 33.63900
H  46.78900 24.53000 33.42800
H  48.45100 22.88800 33.87200
H  49.42600 24.24900 34.43200
H  49.56900 23.70500 32.73200
H  46.00600 26.42900 33.77200
H  46.57600 27.76900 32.78300
H  47.34700 28.95800 34.46600
H  48.26300 27.65400 35.25900
H  45.22900 20.15700 30.81500
H  46.81500 20.50100 31.53200
H  46.67500 19.24900 30.29400
H  46.33400 18.17900 28.31300
H  44.95300 18.10400 27.21300
H  44.86700 18.82700 28.75100
H  47.10200 24.19100 23.76600
H  49.34800 25.86600 23.45800
H  49.63800 23.61100 23.07100
H  48.30100 22.46200 22.97500
H  49.27500 22.50800 24.39500
H  46.77500 26.81900 24.39600
H  46.87700 26.13000 22.73300
H  48.93800 28.22000 23.02700
H  47.34100 28.81100 23.52900
H  47.76400 27.96000 21.90300
H  49.98400 30.47300 26.02000
H  51.47000 30.11200 26.84900
H  50.27000 31.17300 27.56000
H  48.22700 29.58700 31.79500
H  51.71200 29.61900 34.50700
H  50.43100 29.02200 35.65000
H  50.68800 30.76300 35.31900
Mg 41.71500 41.05000 26.51300
C  40.99500 43.44100 28.98800
C  43.13300 38.96700 28.83300
C  42.56400 39.11300 23.91800
C  41.07400 43.74100 24.09500
N  42.09800 41.24000 28.65200
C  41.56500 42.20100 29.45900
C  41.76500 41.84600 30.97200
C  42.74900 40.62700 30.86500
C  42.66400 40.26200 29.35000
C  44.15400 40.73100 31.46400
C  40.39400 41.63500 31.72600
C  40.17000 42.82400 32.79000
H  39.52700 42.49400 34.19300
N  42.72600 39.28800 26.37300
C  43.21100 38.55000 27.41100
C  43.70000 37.27100 26.86200
C  43.38100 37.24900 25.52100
C  42.89000 38.61700 25.21500
C  44.38900 36.29200 27.74500
C  43.44000 36.04600 24.52600
O  43.19200 36.12300 23.30500
C  43.86600 34.69000 25.04000
N  41.61700 41.34300 24.28000
C  42.00200 40.37200 23.45700
C  41.68900 40.67400 21.99000
C  41.25800 42.22200 22.05400
C  41.23800 42.46600 23.52900
C  42.86200 40.46600 20.99000
C  39.86900 42.68800 21.52800
C  39.84400 43.86900 20.54200
N  41.09300 43.11500 26.50700
C  40.90500 44.03800 25.43800
C  40.47800 45.26600 26.00900
C  40.50900 45.05900 27.37700
C  40.89400 43.71800 27.60700
C  40.27500 46.53600 25.41700
C  40.25000 45.71800 28.57900
O  39.84500 46.85400 28.84100
C  40.38600 44.65500 29.70700
C  41.33200 45.25600 30.68700
O  42.53600 45.24700 30.56700
O  40.74800 45.79200 31.74200
C  41.49900 46.42600 32.81800
H  43.56500 38.23800 29.52100
H  42.77900 38.36600 23.15100
H  41.00000 44.53400 23.34700
H  42.38400 42.66800 31.33100
H  42.38500 39.76500 31.42500
H  44.36500 39.80000 31.99000
H  44.34600 41.61500 32.07100
H  44.86900 40.73600 30.64100
H  40.45200 40.68100 32.25000
H  39.61200 41.75400 30.97600
H  39.56300 43.54700 32.24600
H  41.11200 43.28900 33.08200
H  45.38500 36.03200 27.38900
H  43.79300 35.38100 27.81400
H  44.59100 36.52000 28.79200
H  43.85000 34.00000 24.19700
H  43.22600 34.35400 25.85600
H  44.89900 34.77300 25.38000
H  40.80200 40.11100 21.69800
H  42.14400 42.80800 21.81200
H  42.56200 39.72200 20.25200
H  43.71500 40.06800 21.53900
H  43.26800 41.32000 20.44900
H  39.18000 42.78500 22.36700
H  39.50900 41.86400 20.91200
H  38.84000 43.78600 20.12600
H  40.66300 44.02400 19.84000
H  39.76600 44.76600 21.15600
H  40.83900 46.64900 24.49100
H  40.46900 47.34400 26.12200
H  39.20700 46.59300 25.20900
H  39.39800 44.51400 30.14400
H  42.10000 47.26900 32.47700
H  42.23800 45.79700 33.31500
H  40.74500 46.74000 33.54000

