158

Mg 25.72800 0.96400 28.58600
C  27.86700 1.03300 31.47200
C  23.10400 1.58200 30.82000
C  23.61300 0.30400 26.13800
C  28.50100 0.00900 26.78600
N  25.53600 1.19900 30.87300
C  26.57000 1.38300 31.79700
C  25.98100 1.60300 33.17600
C  24.42100 1.69800 32.96200
C  24.33300 1.47600 31.45400
C  23.65100 0.59600 33.71500
C  26.63800 2.95000 33.78500
C  25.82700 3.50500 35.05800
H  26.50300 3.93600 36.36300
N  23.60600 1.13600 28.47700
C  22.76200 1.37000 29.50200
C  21.42500 1.47700 28.92300
C  21.52300 1.13500 27.51900
C  22.91800 0.74400 27.32400
C  20.16600 1.91500 29.74900
C  20.49900 1.03200 26.47300
O  20.65300 0.54200 25.37400
C  19.24200 1.52800 26.79100
N  25.98500 0.21200 26.84700
C  24.97300 0.11800 25.90500
C  25.49300 -0.10700 24.44100
C  26.96800 0.15400 24.67700
C  27.15500 0.07000 26.16500
C  25.16000 -1.48100 23.80300
C  27.34800 1.59500 24.20700
C  27.72100 1.75000 22.70500
N  27.75400 0.44100 29.07100
C  28.68800 0.07200 28.18600
C  29.90400 -0.34200 28.87200
C  29.60300 0.14000 30.14700
C  28.26900 0.54100 30.24900
C  31.21100 -0.89300 28.32500
C  30.21300 0.33900 31.42300
O  31.35700 0.09800 31.78800
C  29.11600 0.94300 32.37700
C  29.04600 0.14700 33.61100
O  28.61600 -0.98800 33.76800
O  29.42000 0.96200 34.63700
C  29.54100 0.33200 35.99000
H  22.21500 1.77000 31.42600
H  22.98400 0.16900 25.25500
H  29.34100 -0.13900 26.10500
H  26.36200 0.79200 33.79700
H  24.22500 2.72400 33.27300
H  24.31300 -0.25100 33.89500
H  22.85700 0.32200 33.02100
H  23.18900 0.90900 34.65200
H  26.58900 3.69100 32.98800
H  27.67600 2.82600 34.09300
H  25.07400 2.76000 35.31600
H  25.34700 4.44000 34.76700
H  19.80700 2.91100 29.48800
H  20.31100 1.80500 30.82300
H  19.36400 1.20900 29.53500
H  18.71900 0.85200 27.46700
H  18.64800 1.57000 25.87800
H  19.32900 2.53400 27.20300
H  25.03700 0.61100 23.75800
H  27.65600 -0.54700 24.20600
H  26.10600 -2.01900 23.73000
H  24.61000 -1.43400 22.86300
H  24.58100 -2.00400 24.56400
H  28.23000 1.93700 24.74900
H  26.60800 2.32100 24.54300
H  27.21200 2.64800 22.35300
H  27.42500 0.91500 22.07000
H  28.80700 1.80800 22.63000
H  31.10500 -1.19800 27.28400
H  31.48000 -1.82200 28.82700
H  32.02300 -0.18000 28.47400
H  29.34200 1.97300 32.65400
H  28.54700 0.29500 36.43400
H  30.17800 1.04400 36.51500
H  29.95800 -0.66700 35.86800
Mg 30.35100 57.59300 41.16400
C  27.34200 55.89800 40.21200
C  32.07200 54.81900 40.16800
C  32.95500 59.53100 41.42600
C  28.23500 60.50700 41.64100
N  29.74200 55.57800 40.27800
C  28.48500 55.16200 39.92500
C  28.58800 53.95100 39.15200
C  30.01600 53.35500 39.46900
C  30.68100 54.61000 40.08200
C  30.07500 52.21200 40.53200
C  28.26300 54.18700 37.61700
C  27.00800 53.50200 36.96400
H  26.47700 54.22200 35.65700
N  32.29000 57.24500 40.84200
C  32.83700 56.02300 40.45900
C  34.24400 56.16400 40.60900
C  34.52400 57.49700 41.14600
C  33.25600 58.13800 41.20100
C  35.33200 55.18500 40.06100
C  35.89700 58.04900 41.51000
O  36.87400 57.37800 41.30900
C  36.16100 59.40400 42.09400
N  30.53000 59.77000 41.54500
C  31.79500 60.27200 41.57300
C  31.76700 61.87300 41.60500
C  30.20500 62.16500 41.80600
C  29.62800 60.75000 41.66400
C  32.78100 62.58300 42.61500
C  29.50800 63.23000 40.87000
C  28.81600 64.43600 41.56100
N  28.24600 58.09300 41.15500
C  27.57000 59.26300 41.42200
C  26.12600 59.06700 41.48700
C  26.00200 57.72300 40.99000
C  27.33300 57.23700 40.78300
C  25.07200 60.09400 41.90000
C  25.04200 56.62400 40.60200
O  23.82900 56.55400 40.65400
C  25.82500 55.49500 39.98000
C  25.49100 54.16000 40.54600
O  25.96400 53.78400 41.64900
O  24.43800 53.49300 39.91300
C  24.21000 52.15800 40.44900
H  32.72500 53.96100 39.99200
H  33.79900 60.22200 41.47500
H  27.70700 61.43400 41.87500
H  27.90700 53.15000 39.43900
H  30.66500 53.00600 38.66600
H  30.94300 51.56600 40.40500
H  29.21200 51.55200 40.43700
H  30.16600 52.61100 41.54200
H  29.12900 53.71900 37.14700
H  28.31100 55.27400 37.56300
H  26.24900 53.50900 37.74600
H  27.28900 52.46600 36.77700
H  34.88500 54.45000 39.39300
H  35.95900 54.64300 40.76900
H  36.05300 55.71800 39.44100
H  35.41000 59.63000 42.85100
H  36.10100 60.18000 41.33100
H  37.17200 59.52700 42.48000
H  32.07100 62.13800 40.59300
H  29.99700 62.42100 42.84500
H  32.57000 62.36000 43.66100
H  32.65900 63.66600 42.59300
H  33.78100 62.23400 42.35700
H  28.77900 62.69000 40.26500
H  30.32100 63.61600 40.25600
H  27.74700 64.23000 41.50400
H  28.95500 65.39400 41.06000
H  29.12700 64.53200 42.60200
H  24.53000 60.51700 41.05400
H  25.55900 60.99200 42.28000
H  24.37200 59.63700 42.60000
H  25.67100 55.34800 38.91100
H  23.14000 52.11800 40.24600
H  24.23000 52.02000 41.53000
H  24.71900 51.40600 39.84700

