158

Mg 31.57400 59.02200 39.92600
C  29.05700 56.87500 38.82900
C  33.85700 56.88200 38.95200
C  33.78100 61.53900 40.36200
C  28.93400 61.51700 40.23100
N  31.48900 57.12800 38.85900
C  30.40200 56.36400 38.72700
C  30.74100 55.05000 38.13800
C  32.25500 54.89300 38.43100
C  32.58000 56.38000 38.77300
C  32.54000 53.95300 39.63100
C  30.29600 54.79000 36.63600
C  29.30100 53.64100 36.23600
H  28.22300 54.09800 35.29700
N  33.60200 59.21200 39.66400
C  34.35400 58.18600 39.22200
C  35.71300 58.64500 39.18100
C  35.72700 60.03900 39.52300
C  34.32700 60.34300 39.86700
C  36.88400 57.82500 38.75200
C  36.88600 60.99900 39.34300
O  37.95400 60.60200 38.81700
C  36.82700 62.46100 39.53900
N  31.38100 61.26300 40.20900
C  32.43000 62.00500 40.50500
C  32.11700 63.48900 40.80700
C  30.52900 63.40600 40.72200
C  30.29400 61.99900 40.27700
C  32.63700 63.88600 42.22500
C  29.80000 64.57400 39.91600
C  30.17900 66.10700 40.13400
N  29.36200 59.20100 39.64900
C  28.47300 60.24100 39.89000
C  27.17000 59.82900 39.60600
C  27.29800 58.47800 39.20100
C  28.64600 58.12500 39.23300
C  25.87700 60.56700 39.84500
C  26.57800 57.30000 38.77300
O  25.37400 57.12600 38.67900
C  27.68300 56.27300 38.40000
C  27.30100 55.01400 39.26700
O  27.65100 54.79100 40.37200
O  26.44000 54.32000 38.45300
C  25.87700 53.06800 38.89600
H  34.64800 56.16200 38.73400
H  34.51500 62.29900 40.63900
H  28.07900 62.18500 40.35300
H  30.18600 54.25900 38.64100
H  32.81000 54.58600 37.54500
H  31.93100 53.05000 39.60300
H  32.36100 54.42900 40.59500
H  33.59000 53.67800 39.52600
H  31.19500 54.71900 36.02500
H  29.87200 55.74400 36.32200
H  28.81500 53.20000 37.10600
H  29.69700 52.76600 35.72200
H  37.23900 58.06100 37.74900
H  36.78900 56.75100 38.59100
H  37.59200 58.03300 39.55500
H  35.88700 62.86900 39.16800
H  37.69400 62.96900 39.11600
H  36.82900 62.65300 40.61200
H  32.59800 64.17800 40.11200
H  30.13300 63.33900 41.73500
H  32.87400 63.01500 42.83600
H  31.92200 64.37700 42.88500
H  33.54600 64.46800 42.07600
H  28.72100 64.47900 40.03800
H  29.91800 64.27400 38.87500
H  29.26200 66.63600 40.39200
H  30.57500 66.59800 39.24500
H  30.92800 66.20400 40.92000
H  25.17400 60.25900 39.07200
H  26.02900 61.64600 39.80300
H  25.48300 60.42400 40.85100
H  27.61400 55.97500 37.35300
H  25.19500 53.37900 39.68800
H  26.65800 52.43100 39.30900
H  25.28700 52.61000 38.10200
Mg 1.54000 41.83500 25.63000
C  2.57700 42.23400 29.02800
C  -1.56100 40.89400 26.88700
C  0.47800 41.63500 22.52700
C  4.75500 42.77500 24.57400
N  0.60000 41.76900 27.73900
C  1.21900 41.89000 28.94800
C  0.25000 41.74800 30.09600
C  -1.00900 40.99100 29.42000
C  -0.66400 41.17400 27.91400
C  -1.28700 39.47800 29.86500
C  0.00900 43.05300 30.77400
C  -0.74100 43.01600 32.13200
H  -1.47100 41.74600 32.60200
N  -0.33600 41.34100 24.80100
C  -1.48000 41.02500 25.49200
C  -2.40700 40.59200 24.50500
C  -1.93100 40.92100 23.24500
C  -0.58100 41.38200 23.48200
C  -3.82700 40.15500 24.84800
C  -2.54000 40.69400 21.83800
O  -2.03500 41.25900 20.85200
C  -3.81700 39.90500 21.67100
N  2.51200 42.06800 23.84000
C  1.85000 41.89700 22.68500
C  2.84100 42.05100 21.47800
C  4.19500 42.35800 22.19700
C  3.81300 42.51800 23.61300
C  2.71800 40.84900 20.50500
C  4.94500 43.56100 21.63600
C  5.02700 43.60500 20.13000
N  3.33000 42.39300 26.54600
C  4.56000 42.80800 25.98000
C  5.50500 43.06600 27.11200
C  4.82000 42.77000 28.27400
C  3.48800 42.42400 27.91300
C  6.94300 43.39100 26.99400
C  4.91900 42.65400 29.72300
O  5.87300 42.85100 30.48400
C  3.49000 42.23100 30.27700
C  3.57300 40.87600 30.91700
O  4.28200 39.95200 30.56300
O  2.65800 40.75000 31.95600
C  2.54100 39.41600 32.50600
H  -2.51000 40.48800 27.24200
H  0.17100 41.68700 21.48000
H  5.81500 42.93000 24.36200
H  0.58000 41.03300 30.85000
H  -1.87800 41.60300 29.66300
H  -1.31900 38.73100 29.07100
H  -2.25400 39.49300 30.36800
H  -0.57200 39.11400 30.60300
H  -0.57600 43.65000 30.07500
H  1.00700 43.48400 30.85100
H  -1.31200 43.94400 32.13100
H  0.14300 43.15400 32.75500
H  -4.58600 40.45000 24.12400
H  -4.21500 40.56800 25.77900
H  -3.79300 39.10000 25.11800
H  -3.81700 39.02900 22.32000
H  -3.84700 39.58200 20.63000
H  -4.71000 40.49100 21.88900
H  2.46000 42.84400 20.83400
H  4.86200 41.49700 22.22700
H  3.35500 40.03300 20.84500
H  2.89800 41.11500 19.46300
H  1.68700 40.49600 20.54700
H  5.94800 43.31800 21.98700
H  4.62800 44.51200 22.06500
H  4.71300 44.49900 19.59100
H  4.46900 42.79200 19.66500
H  6.06400 43.32600 19.94500
H  7.27600 43.30300 25.96000
H  7.55400 42.66700 27.53200
H  7.16200 44.33200 27.49800
H  3.07500 42.90700 31.02500
H  2.20600 38.64800 31.80900
H  1.83700 39.44300 33.33700
H  3.51000 39.15500 32.93300

