158

Mg 26.24100 -1.19200 29.90900
C  28.09600 -0.81400 32.72600
C  23.49300 -0.67700 31.83100
C  24.30500 -1.63900 27.14300
C  29.19600 -1.73100 28.03500
N  25.80000 -0.80000 32.00700
C  26.70400 -0.51700 32.97900
C  26.05400 -0.28300 34.39800
C  24.54200 -0.69400 34.11800
C  24.55000 -0.78500 32.57700
C  23.94000 -1.91200 34.90700
C  26.34300 1.15000 35.00500
C  26.87800 0.97000 36.47800
H  26.12800 1.84500 37.54500
N  24.18500 -1.27600 29.60000
C  23.25100 -0.96800 30.51600
C  21.92900 -0.93600 29.86800
C  22.16500 -1.22800 28.51000
C  23.59100 -1.39500 28.38400
C  20.61900 -0.65500 30.66800
C  21.20900 -1.17200 27.30700
O  21.57200 -1.40800 26.14500
C  19.75900 -0.84500 27.58400
N  26.68800 -1.86800 27.91800
C  25.69900 -1.78800 26.95200
C  26.36300 -1.85600 25.52800
C  27.89100 -1.82800 25.83800
C  28.02700 -1.72900 27.35400
C  25.97400 -3.13600 24.64900
C  28.61000 -0.58300 25.14000
C  28.40600 0.87500 25.66600
N  28.22100 -1.36400 30.26000
C  29.34400 -1.60700 29.41600
C  30.52400 -1.49000 30.24200
C  30.07300 -1.21600 31.57200
C  28.64400 -1.16300 31.50500
C  31.79300 -1.72200 29.68100
C  30.53000 -0.94700 32.93200
O  31.65400 -0.96800 33.38800
C  29.20600 -0.70800 33.77300
C  29.18900 -1.60800 34.98800
O  28.56100 -2.62200 35.13200
O  29.86700 -0.96900 35.97100
C  29.67900 -1.42100 37.39000
H  22.61200 -0.58500 32.46900
H  23.77000 -1.69100 26.19200
H  30.10200 -1.94400 27.46500
H  26.65300 -1.08600 34.82900
H  23.91700 0.13800 34.44300
H  23.23400 -1.62200 35.68500
H  24.61200 -2.60400 35.41500
H  23.58800 -2.65700 34.19300
H  25.45900 1.78600 35.04900
H  27.04800 1.71200 34.39100
H  27.90800 1.31600 36.39400
H  26.87900 -0.01900 36.93500
H  20.17800 0.33400 30.54100
H  20.84300 -0.83400 31.71900
H  19.93500 -1.40800 30.27900
H  19.31900 -0.63600 26.60900
H  19.69300 0.12500 28.07700
H  19.29700 -1.69700 28.08300
H  25.93800 -1.04000 24.94300
H  28.27500 -2.75100 25.40400
H  25.81900 -3.96200 25.34300
H  26.75400 -3.39900 23.93400
H  25.10500 -2.85100 24.05600
H  28.20800 -0.57700 24.12700
H  29.64700 -0.92000 25.13600
H  29.33300 1.17800 26.15400
H  27.69500 0.92600 26.49100
H  28.21400 1.65400 24.92800
H  31.91800 -1.65900 28.60000
H  32.13300 -2.69400 30.03800
H  32.49100 -1.00200 30.10800
H  29.29200 0.35200 34.01300
H  30.36500 -2.25000 37.56400
H  28.67100 -1.80600 37.54300
H  29.99900 -0.76500 38.19900
Mg -5.44600 25.92400 25.39700
C  -3.70400 27.06700 28.26600
C  -7.27700 23.80200 27.41800
C  -6.80600 24.76600 22.64600
C  -3.33200 27.85700 23.41900
N  -5.50000 25.49000 27.67100
C  -4.75700 26.14800 28.65900
C  -5.38200 25.89100 30.05200
C  -6.28200 24.61200 29.74100
C  -6.35000 24.61200 28.17000
C  -5.71300 23.30200 30.37800
C  -6.12400 27.11000 30.69100
C  -5.79400 27.34400 32.15400
H  -5.41000 26.17000 33.10500
N  -6.85200 24.41900 25.08200
C  -7.48000 23.63100 26.03400
C  -8.42900 22.76000 25.40200
C  -8.35300 23.02000 23.99000
C  -7.28600 24.09500 23.81200
C  -9.19300 21.62900 26.22900
C  -9.08200 22.31100 22.84300
O  -8.99200 22.74500 21.67900
C  -9.98900 21.15300 23.21700
N  -5.04800 26.19100 23.30300
C  -5.75000 25.58800 22.38000
C  -5.43300 25.96200 20.97000
C  -4.45300 27.21100 21.20500
C  -4.26200 27.06300 22.72700
C  -4.82400 24.78900 20.15500
C  -5.17000 28.57900 20.84400
C  -5.83700 28.84700 19.48400
N  -3.76400 27.14000 25.73900
C  -3.04100 27.83800 24.85100
C  -2.08400 28.65100 25.63500
C  -2.34700 28.39800 26.93200
C  -3.34800 27.46900 26.95000
C  -0.99200 29.72000 25.13000
C  -2.02400 28.85200 28.31000
O  -1.31100 29.76300 28.64700
C  -2.85300 27.83900 29.27000
C  -1.90200 27.03500 30.10700
O  -0.84100 26.53000 29.73800
O  -2.30600 27.19800 31.40300
C  -1.46600 26.52600 32.40500
H  -8.07100 23.33300 28.00300
H  -7.37400 24.39700 21.78900
H  -2.72700 28.55300 22.83400
H  -4.60600 25.66200 30.78300
H  -7.27900 24.81100 30.13300
H  -4.74000 23.30800 30.86900
H  -5.51400 22.62500 29.54700
H  -6.42600 22.83400 31.05700
H  -7.20100 26.99100 30.57700
H  -5.87200 27.93600 30.02600
H  -6.65400 27.82300 32.62200
H  -5.01700 28.10400 32.06400
H  -10.20500 21.47900 25.85200
H  -9.17400 21.78200 27.30800
H  -8.70700 20.66400 26.09100
H  -10.33900 20.54100 22.38600
H  -10.85400 21.49900 23.78300
H  -9.43000 20.48400 23.87100
H  -6.37200 26.23200 20.48600
H  -3.51000 26.99700 20.70100
H  -4.74400 23.85500 20.71100
H  -3.88700 24.98900 19.63500
H  -5.54200 24.48800 19.39200
H  -4.43900 29.38500 20.90400
H  -5.83900 28.75900 21.68500
H  -5.87600 27.94200 18.87700
H  -5.49600 29.69400 18.88700
H  -6.84600 29.15400 19.75700
H  -1.08500 30.60400 25.76000
H  -1.11800 29.98800 24.08100
H  0.01200 29.30300 25.21500
H  -3.48400 28.42500 29.93800
H  -1.11100 25.58700 31.98000
H  -1.99700 26.27900 33.32500
H  -0.59300 27.10800 32.69900

