158

Mg 44.61200 3.59100 48.12600
C  42.51600 6.44600 47.66500
C  41.90500 1.57100 47.86200
C  46.66300 0.92600 47.46100
C  47.35200 5.75500 48.01100
N  42.44000 4.01200 47.55100
C  41.80900 5.24500 47.57200
C  40.24100 5.04600 47.29200
C  40.07600 3.48800 47.70100
C  41.62700 2.96500 47.74800
C  39.30900 3.28000 49.03900
C  39.86400 5.41000 45.78600
C  38.57600 6.08900 45.63800
H  38.02200 5.96700 44.26600
N  44.28500 1.52800 47.81800
C  43.12300 0.84900 47.84400
C  43.38200 -0.56600 47.60200
C  44.73500 -0.74900 47.45400
C  45.28300 0.60500 47.46600
C  42.25600 -1.60400 47.72700
C  45.39600 -2.13400 47.16400
O  44.77400 -3.20700 47.14700
C  46.89700 -2.22600 46.89700
N  46.61900 3.39400 47.67900
C  47.25300 2.16800 47.64500
C  48.81700 2.31400 47.71500
C  48.99000 3.82400 47.78800
C  47.57000 4.36700 47.93800
C  49.31000 1.47600 48.90700
C  49.76100 4.37000 46.49000
C  51.28800 4.08600 46.51200
N  44.87900 5.68000 47.92700
C  46.09200 6.36100 47.95300
C  45.75400 7.85000 47.87500
C  44.39800 7.88200 47.74200
C  43.92200 6.55600 47.74900
C  46.80800 8.95600 48.00000
C  43.22000 8.79400 47.66300
O  43.18200 9.98700 47.63600
C  41.98800 7.85600 47.56900
C  41.15900 8.06400 48.72100
O  41.29100 7.50400 49.83400
O  40.24800 9.02900 48.36800
C  39.22600 9.47200 49.40200
H  40.96600 1.02300 47.96900
H  47.42700 0.14600 47.45100
H  48.19800 6.43100 48.15000
H  39.67100 5.65200 47.99700
H  39.54000 2.92600 46.93700
H  38.77800 4.18800 49.32700
H  40.02500 2.86100 49.74600
H  38.55600 2.51700 48.84300
H  39.88500 4.43800 45.29500
H  40.65700 5.99800 45.32400
H  38.94500 7.10600 45.76900
H  37.86500 5.86400 46.43300
H  42.44500 -2.38300 46.98800
H  41.33100 -1.13700 47.38800
H  42.29900 -2.08900 48.70200
H  47.47600 -1.91900 47.76800
H  47.19000 -1.52600 46.11600
H  47.31200 -3.21000 46.67900
H  49.19000 1.78300 46.83900
H  49.55900 4.14700 48.65900
H  49.67300 2.13500 49.69600
H  50.06600 0.75300 48.60000
H  48.51100 1.02000 49.49100
H  49.55100 5.39600 46.18700
H  49.36300 3.82500 45.63400
H  51.79400 4.73000 45.79200
H  51.60000 3.08700 46.20700
H  51.60300 4.38500 47.51200
H  46.60000 9.67500 47.20800
H  47.82000 8.55400 48.02800
H  46.72500 9.40000 48.99200
H  41.56400 8.12300 46.60100
H  38.25000 9.01900 49.22900
H  39.15400 10.55100 49.27000
H  39.45600 9.29000 50.45200
Mg 17.04100 52.69000 26.86100
C  18.96000 51.08600 29.24900
C  14.76200 53.50000 29.22400
C  15.17300 53.96200 24.47000
C  19.22300 51.27100 24.41000
N  16.84800 52.26500 29.02400
C  17.80300 51.69400 29.84400
C  17.49200 51.84300 31.24000
C  15.99000 52.47000 31.20900
C  15.83200 52.75700 29.71300
C  14.89200 51.55400 31.67600
C  18.49200 52.89400 31.82600
C  18.26000 53.54900 33.17300
H  17.38900 52.78200 34.13700
N  15.22800 53.59400 26.85300
C  14.49500 53.90500 27.95100
C  13.34200 54.74100 27.55300
C  13.33800 54.83400 26.14800
C  14.63800 54.15000 25.78100
C  12.39900 55.27600 28.54000
C  12.26500 55.58400 25.29500
O  12.31500 55.59900 24.04400
C  11.05200 56.25900 25.95300
N  17.12700 52.51600 24.70600
C  16.26400 53.19200 23.96100
C  16.64700 53.19500 22.50100
C  17.91300 52.29600 22.43400
C  18.15300 52.02900 23.93300
C  15.51800 52.54300 21.58900
C  19.10600 52.89000 21.68800
C  19.10400 52.54900 20.17500
N  18.67500 51.37600 26.79400
C  19.46600 50.92700 25.73200
C  20.58000 50.18700 26.20200
C  20.37800 50.11600 27.59800
C  19.22500 50.90300 27.90300
C  21.60100 49.50600 25.36800
C  20.97100 49.68600 28.87200
O  21.90100 48.90200 29.11600
C  20.07100 50.26800 30.03300
C  19.48800 49.19500 30.85700
O  18.91800 48.20100 30.45600
O  19.61100 49.51500 32.19400
C  19.26800 48.44000 33.18400
H  14.01100 53.75000 29.97600
H  14.59100 54.47600 23.70200
H  19.88000 50.83900 23.65200
H  17.54000 50.85200 31.69200
H  15.92200 53.38900 31.79300
H  14.71800 51.85100 32.71100
H  15.34800 50.56900 31.57900
H  14.01400 51.61200 31.03300
H  18.57100 53.69500 31.09200
H  19.42200 52.33900 31.94900
H  17.80900 54.53500 33.06500
H  19.21300 53.83100 33.62100
H  12.48400 56.36200 28.51600
H  12.71300 55.05400 29.56000
H  11.37700 54.98000 28.30200
H  10.47000 55.56500 26.55800
H  10.41400 56.55100 25.11800
H  11.27000 57.13400 26.56400
H  16.84400 54.25600 22.34500
H  17.74600 51.28500 22.06400
H  14.82100 52.03500 22.25600
H  15.89500 51.78000 20.90800
H  14.99600 53.31200 21.01900
H  20.07400 52.51500 22.01800
H  19.13000 53.95500 21.92300
H  19.29900 53.46300 19.61300
H  18.09700 52.27000 19.86400
H  19.85200 51.80500 19.90200
H  21.01400 48.65000 25.03500
H  22.44200 49.06000 25.89800
H  21.89100 50.25600 24.63100
H  20.77300 50.66700 30.76600
H  19.58800 48.89400 34.12100
H  19.72000 47.46500 33.00200
H  18.18200 48.34300 33.19100

