158

Mg 1.28100 7.81300 25.79400
C  1.87000 9.82700 28.67300
C  1.63700 5.02700 27.78200
C  0.51300 5.96000 23.11100
C  1.15200 10.72400 23.96000
N  1.76700 7.60700 27.92900
C  1.87200 8.52600 28.98800
C  2.00200 7.84000 30.35900
C  2.18700 6.31700 29.98300
C  1.89300 6.26100 28.42500
C  3.52700 5.71900 30.35800
C  0.72700 8.24100 31.25500
C  0.99600 8.63000 32.70200
H  2.07500 7.75100 33.45100
N  1.10500 5.77100 25.43800
C  1.21400 4.75000 26.38500
C  0.71100 3.47100 25.86600
C  0.46000 3.74700 24.46000
C  0.61500 5.21900 24.28400
C  0.55300 2.23500 26.75800
C  0.07900 2.74800 23.40000
O  -0.07000 3.10500 22.22600
C  -0.23000 1.33900 23.70500
N  1.01600 8.21700 23.74700
C  0.63000 7.36700 22.82200
C  0.47700 8.07000 21.48300
C  0.70700 9.59700 21.78200
C  0.94200 9.56200 23.28600
C  1.40400 7.34600 20.40800
C  -0.52600 10.53100 21.37400
C  -0.10900 11.81500 20.70300
N  1.48200 9.89200 26.19000
C  1.27700 10.96900 25.33800
C  1.51500 12.21800 26.01900
C  1.75900 11.81000 27.40800
C  1.64700 10.40400 27.42700
C  1.36400 13.65100 25.50400
C  2.09800 12.26500 28.67800
O  2.40400 13.35700 29.03200
C  2.09100 10.96600 29.60900
C  3.30900 10.88800 30.31900
O  4.41100 10.65700 29.78900
O  3.06500 11.15300 31.66300
C  4.25100 11.30500 32.54700
H  1.90900 4.11300 28.31300
H  0.16100 5.43900 22.21800
H  1.04200 11.61600 23.33900
H  2.87100 8.37200 30.74800
H  1.38800 5.79300 30.50700
H  3.38500 4.97100 31.13800
H  4.05200 6.55800 30.81600
H  4.14300 5.43200 29.50700
H  -0.06100 7.48900 31.29200
H  0.28500 9.16200 30.87200
H  0.02100 8.38000 33.12100
H  1.03100 9.71400 32.81600
H  -0.32400 1.77500 26.30100
H  0.33800 2.56200 27.77500
H  1.34200 1.48200 26.77000
H  0.55100 0.94300 24.35400
H  -0.38500 0.68600 22.84600
H  -1.14200 1.33200 24.30100
H  -0.56300 7.96500 21.17500
H  1.62700 10.00200 21.36100
H  2.24800 6.80400 20.83500
H  1.80400 8.03100 19.65900
H  0.70500 6.62100 19.99300
H  -1.04600 10.78600 22.29700
H  -1.17900 10.02400 20.66200
H  0.91000 12.08100 20.42000
H  -0.59900 12.58900 21.29400
H  -0.68800 11.78400 19.78000
H  1.40700 14.41900 26.27700
H  0.58200 13.88800 24.78300
H  2.22800 13.84100 24.86800
H  1.25100 11.03100 30.30000
H  4.78800 12.23500 32.35900
H  5.01800 10.54900 32.37700
H  4.02200 11.07900 33.58800
Mg 17.11500 -1.87600 27.70300
C  16.36700 0.41800 30.42500
C  18.92600 -3.67900 29.89800
C  18.31000 -3.48400 25.13300
C  15.64200 0.59200 25.59800
N  17.54300 -1.66400 29.99700
C  17.08000 -0.78600 30.90600
C  17.40100 -1.13900 32.39700
C  18.38000 -2.38600 32.18100
C  18.31900 -2.60300 30.61300
C  19.81500 -2.26100 32.80300
C  16.21000 -1.35900 33.37900
C  16.47100 -1.07500 34.87600
H  17.86200 -0.44200 35.32300
N  18.17500 -3.52500 27.59200
C  18.87000 -4.13000 28.58500
C  19.43200 -5.37900 28.06000
C  19.39600 -5.27000 26.65700
C  18.64900 -3.99600 26.36700
C  20.27500 -6.39900 28.84100
C  20.18400 -6.11400 25.57700
O  20.30400 -5.65300 24.50700
C  21.10800 -7.23600 25.92700
N  16.79500 -1.60800 25.73600
C  17.57700 -2.35800 24.83500
C  17.30600 -1.87500 23.37600
C  16.42100 -0.63700 23.55800
C  16.21200 -0.58400 25.05200
C  18.57800 -1.66600 22.59800
C  15.01800 -0.62300 22.85900
C  14.86300 0.42300 21.71600
N  16.15300 0.15900 27.88400
C  15.57500 0.92400 26.94200
C  15.06700 2.10600 27.53500
C  15.32100 1.91800 28.89100
C  16.02300 0.75200 29.05200
C  14.32300 3.16600 26.86000
C  15.20300 2.55400 30.12700
O  14.50500 3.54800 30.38500
C  15.91800 1.67400 31.18800
C  16.96300 2.39900 31.99400
O  18.17300 2.25200 31.89900
O  16.32900 3.30900 32.73600
C  17.11400 3.83900 33.81600
H  19.47600 -4.29100 30.61600
H  18.84500 -3.97000 24.31500
H  15.19400 1.29800 24.89600
H  18.05000 -0.35800 32.79300
H  17.95900 -3.34100 32.49500
H  19.79000 -1.53400 33.61500
H  20.55300 -1.93900 32.06700
H  20.13600 -3.19700 33.26000
H  15.87000 -2.38400 33.22900
H  15.40200 -0.70800 33.04500
H  16.31300 -2.04200 35.35400
H  15.61400 -0.50200 35.23000
H  20.06900 -7.43300 28.56500
H  20.26400 -6.31900 29.92800
H  21.28500 -6.02200 28.67800
H  21.51500 -7.74600 25.05300
H  20.46200 -8.01900 26.32500
H  21.96100 -6.97500 26.55200
H  16.79100 -2.59800 22.74400
H  16.91700 0.28800 23.26200
H  19.47300 -1.86900 23.18600
H  18.85100 -0.61900 22.47000
H  18.56000 -2.16500 21.62900
H  14.20600 -0.36500 23.53900
H  14.87000 -1.63900 22.49200
H  15.86600 0.65900 21.36100
H  14.45400 1.35400 22.11000
H  14.29200 0.04900 20.86600
H  14.93700 3.39700 25.98900
H  14.24800 4.02500 27.52700
H  13.36300 2.80900 26.48800
H  15.20100 1.44800 31.97600
H  17.56500 4.72500 33.37000
H  17.83300 3.14700 34.25500
H  16.40400 4.19500 34.56200

