158

Mg 40.20400 9.31100 28.75700
C  42.13300 10.66800 31.37300
C  37.89100 8.35300 31.28200
C  38.49300 7.96700 26.38500
C  42.76400 10.19700 26.52800
N  39.99700 9.71900 31.10100
C  40.91600 10.31100 31.91000
C  40.55600 10.14400 33.38800
C  39.30800 9.18100 33.30500
C  39.02200 9.14000 31.76300
C  39.58800 7.78100 33.97600
C  40.25600 11.53100 34.11200
C  39.81500 11.30300 35.57000
H  40.80100 11.56300 36.66400
N  38.43700 8.30900 28.80600
C  37.67600 8.01300 29.88800
C  36.57900 7.13400 29.50300
C  36.70000 6.99200 28.07800
C  37.91300 7.76600 27.67300
C  35.65700 6.46200 30.46700
C  35.86200 6.15700 27.07400
O  36.07900 6.04700 25.89100
C  34.64300 5.47200 27.50300
N  40.63300 8.94500 26.72100
C  39.74000 8.47800 25.93500
C  40.01100 8.69600 24.43800
C  41.35500 9.47400 24.55500
C  41.61300 9.52700 26.01200
C  40.03200 7.48200 23.54500
C  41.40800 10.83200 23.80400
C  41.02200 12.16700 24.49800
N  42.09300 10.12000 28.84500
C  42.97800 10.47600 27.90700
C  44.16600 11.12300 28.49300
C  43.90400 11.20100 29.87200
C  42.59900 10.68100 29.99400
C  45.38700 11.46800 27.75200
C  44.42800 11.57800 31.08100
O  45.50600 12.00500 31.42200
C  43.35600 11.21500 32.11600
C  43.91400 10.29000 33.23100
O  43.97800 9.04600 33.15700
O  44.17900 10.94400 34.40100
C  44.58700 10.19300 35.54700
H  37.27700 7.84200 32.02700
H  37.83100 7.65800 25.57500
H  43.53000 10.57900 25.85000
H  41.48800 9.78400 33.82400
H  38.39800 9.60700 33.72900
H  38.99100 7.76000 34.88800
H  40.65300 7.72900 34.19900
H  39.29500 6.94500 33.34100
H  39.47400 12.06600 33.57300
H  41.15200 12.15100 34.07800
H  39.57300 10.24400 35.65500
H  38.95700 11.90100 35.87900
H  36.15300 5.61200 30.93500
H  34.77000 5.95700 30.08500
H  35.27700 7.14400 31.22700
H  34.03800 5.09100 26.68000
H  34.05500 6.08500 28.18500
H  34.88000 4.57500 28.07500
H  39.21800 9.39600 24.17700
H  42.22500 9.00700 24.09500
H  40.68200 7.60600 22.67900
H  39.03200 7.44700 23.11200
H  40.18900 6.56600 24.11500
H  41.01200 10.69900 22.79800
H  42.48300 10.89900 23.63600
H  40.90000 11.92400 25.55300
H  40.21400 12.60000 23.90700
H  41.87000 12.85200 24.50100
H  45.59800 12.53600 27.81100
H  45.33900 11.19500 26.69700
H  46.08600 10.87400 28.33900
H  43.15400 12.11700 32.69400
H  45.43100 10.72200 35.98800
H  44.78800 9.14200 35.33800
H  43.83000 10.18200 36.33100
Mg 36.00200 49.89300 25.84600
C  36.46200 48.05500 28.80800
C  35.11200 52.50400 27.64500
C  35.24000 51.22800 22.86700
C  37.15400 46.89800 24.03600
N  35.66700 50.09500 27.96500
C  35.92200 49.33000 29.02800
C  35.58300 49.93000 30.40100
C  35.03400 51.33700 29.90400
C  35.28000 51.32200 28.40200
C  33.60600 51.68800 30.33000
C  36.80400 50.03700 31.36500
C  36.65800 49.73100 32.86900
H  35.31600 49.50900 33.54100
N  35.32600 51.62600 25.34400
C  35.09800 52.67300 26.22200
C  34.80100 53.81500 25.44400
C  34.74200 53.45800 24.07700
C  35.04500 52.01500 24.06500
C  34.67300 55.14900 26.12900
C  34.51400 54.31500 22.85900
O  34.47000 53.84900 21.71500
C  34.32700 55.77900 22.86200
N  36.08800 49.12600 23.73400
C  35.78000 49.97300 22.74100
C  36.11500 49.33300 21.38600
C  37.08500 48.15700 21.76900
C  36.71900 47.97800 23.25300
C  34.81700 48.90400 20.64300
C  38.63500 48.54200 21.63900
C  39.63600 47.34700 21.76500
N  36.73500 47.90600 26.24500
C  37.14600 46.82500 25.44500
C  37.60000 45.76100 26.29000
C  37.30900 46.21200 27.59500
C  36.80700 47.50300 27.52000
C  38.30300 44.48400 25.88400
C  37.34900 45.77200 29.00600
O  37.60100 44.67100 29.54500
C  36.82000 47.00200 29.85700
C  35.70600 46.57500 30.69400
O  34.57600 46.33200 30.32100
O  36.15600 46.18600 31.95900
C  35.15300 45.52900 32.84700
H  34.92900 53.37600 28.27500
H  35.11000 51.71700 21.89900
H  37.61700 46.10000 23.45100
H  34.81400 49.29700 30.84400
H  35.67600 52.13700 30.27300
H  33.16800 50.84300 30.86100
H  32.99600 51.65900 29.42800
H  33.55300 52.67500 30.79100
H  37.27100 51.01300 31.23900
H  37.57300 49.36800 30.97800
H  37.14100 50.53800 33.42000
H  37.27500 48.87100 33.12900
H  35.53400 55.78800 25.93000
H  34.53300 55.14200 27.21000
H  33.73800 55.62800 25.84000
H  34.83600 56.22500 23.71700
H  33.26500 55.96200 23.02300
H  34.74100 56.18100 21.93700
H  36.52600 50.13800 20.77600
H  36.82900 47.21100 21.29300
H  34.78100 49.51300 19.74000
H  33.92800 49.31100 21.12500
H  34.71700 47.88400 20.27300
H  38.80800 49.25200 22.44800
H  38.81400 49.06900 20.70100
H  39.03000 46.47100 21.53300
H  40.20300 47.43300 22.69200
H  40.26600 47.60900 20.91500
H  38.99600 44.66100 25.06100
H  37.58500 43.73400 25.55200
H  38.88800 44.09700 26.71900
H  37.53100 47.38400 30.58900
H  34.82300 44.56500 32.46100
H  34.23400 46.07600 33.05700
H  35.51100 45.37100 33.86400

