158

Mg 24.16500 -5.58600 45.21600
C  26.50300 -3.42400 43.51200
C  21.77400 -4.46400 43.12300
C  22.63700 -8.45000 45.77500
C  26.99900 -6.68500 47.03800
N  24.19700 -4.25400 43.48100
C  25.14900 -3.37500 43.00900
C  24.59000 -2.24700 42.03400
C  23.06300 -2.35100 42.33000
C  22.98000 -3.79800 43.01700
C  22.48000 -1.25100 43.19500
C  25.04200 -2.54400 40.60800
C  24.87600 -1.47300 39.50800
H  25.06900 -1.93800 38.05800
N  22.34700 -6.32100 44.64100
C  21.48200 -5.64100 43.84900
C  20.29500 -6.41200 43.71300
C  20.45000 -7.58400 44.53500
C  21.81900 -7.53000 45.04300
C  19.20100 -5.93400 42.78700
C  19.36900 -8.44000 44.91300
O  18.24100 -8.34500 44.44300
C  19.58700 -9.58100 45.80300
N  24.77600 -7.35000 46.26500
C  23.89300 -8.35800 46.43200
C  24.45600 -9.43300 47.37900
C  25.74200 -8.70600 47.97300
C  25.87400 -7.54100 47.05500
C  23.47500 -10.21800 48.41800
C  27.11600 -9.57200 48.03500
C  28.03800 -9.43200 49.27600
N  26.29900 -5.05000 45.38700
C  27.29200 -5.66900 46.14300
C  28.58100 -5.02400 45.85700
C  28.28300 -4.11300 44.79000
C  26.94200 -4.20300 44.53600
C  29.92800 -5.32900 46.50900
C  28.87500 -3.14300 43.86700
O  30.08100 -2.82000 43.77900
C  27.68000 -2.58200 43.03700
C  27.63600 -1.20300 43.54900
O  27.01800 -0.79700 44.47000
O  28.50600 -0.39700 42.86200
C  28.96300 0.88300 43.54400
H  20.93200 -4.02100 42.58600
H  22.14700 -9.36700 46.10900
H  27.94200 -6.96800 47.51200
H  24.95700 -1.26100 42.32200
H  22.41700 -2.37100 41.45200
H  21.76700 -1.74100 43.85800
H  21.91300 -0.53500 42.60000
H  23.24500 -0.71200 43.75500
H  24.46300 -3.41300 40.29200
H  26.06900 -2.87300 40.45000
H  25.77000 -0.89000 39.72900
H  23.96500 -0.88600 39.61700
H  19.55800 -6.19500 41.79100
H  18.97700 -4.88200 42.96400
H  18.23400 -6.37100 43.03700
H  18.65400 -10.09800 46.02700
H  19.97500 -9.29400 46.78000
H  20.33000 -10.24300 45.35900
H  24.82700 -10.23800 46.74400
H  25.59700 -8.35900 48.99700
H  22.44500 -9.86100 48.42300
H  23.90200 -9.99700 49.39600
H  23.59500 -11.28000 48.20600
H  27.68500 -9.34300 47.13400
H  26.92300 -10.64100 47.94100
H  29.03400 -9.10900 48.97300
H  28.14100 -10.37700 49.80900
H  27.65700 -8.80300 50.08000
H  29.99400 -5.79500 47.49100
H  30.40600 -4.34900 46.52200
H  30.58200 -5.96100 45.90800
H  27.91000 -2.64900 41.97400
H  29.43200 0.65400 44.50100
H  28.03900 1.38400 43.83100
H  29.54200 1.47100 42.83100
Mg 9.91900 48.10300 25.64500
C  7.92400 48.21800 28.56200
C  12.49300 49.47500 27.32100
C  11.73400 47.86100 22.85200
C  7.02700 47.35200 23.82800
N  10.15500 48.68000 27.70700
C  9.23800 48.65100 28.75300
C  9.92400 49.09000 29.99200
C  11.09700 49.93700 29.56400
C  11.24700 49.37300 28.04600
C  10.89500 51.47000 29.53000
C  10.31400 47.83000 30.82900
C  10.31000 47.99500 32.43700
H  10.14900 46.72100 33.25100
N  11.91600 48.51800 25.18700
C  12.84600 49.08900 26.03700
C  14.16400 49.00200 25.39700
C  13.91000 48.56600 24.01500
C  12.47600 48.27300 23.97200
C  15.41300 49.29300 26.11700
C  14.80400 48.32400 22.79900
O  14.40500 47.84300 21.77000
C  16.21400 48.65900 22.95900
N  9.42300 47.72600 23.62500
C  10.36000 47.67100 22.68200
C  9.74000 47.33600 21.31300
C  8.25400 46.90800 21.70600
C  8.24200 47.34700 23.09600
C  9.75400 48.61600 20.38700
C  7.84400 45.38000 21.56400
C  8.70600 44.37000 22.30900
N  7.86300 47.88300 26.02800
C  6.78600 47.64800 25.19000
C  5.58500 47.61800 25.96800
C  6.01600 47.73200 27.31900
C  7.37500 47.98500 27.30100
C  4.24600 47.29400 25.42600
C  5.53600 47.75200 28.65000
O  4.43000 47.54500 29.10000
C  6.79200 48.05700 29.55800
C  7.02700 46.90600 30.55400
O  7.52800 45.82200 30.31500
O  6.41600 47.25200 31.77900
C  6.39400 46.08700 32.67400
H  13.30600 50.00900 27.81600
H  12.15900 47.74800 21.85300
H  6.18700 47.11700 23.17200
H  9.22600 49.70000 30.56600
H  11.92200 49.68300 30.23100
H  9.94700 51.70700 30.01400
H  10.75400 51.83600 28.51300
H  11.72100 51.93900 30.06500
H  11.35000 47.64600 30.54600
H  9.74900 46.98200 30.44200
H  9.54900 48.67800 32.81400
H  11.29000 48.46100 32.53900
H  15.36500 48.99200 27.16300
H  15.64700 50.35600 26.05200
H  16.21000 48.69900 25.66900
H  16.73600 48.54900 22.00800
H  16.58000 47.98000 23.72900
H  16.21200 49.70300 23.27100
H  10.11600 46.47400 20.76000
H  7.53600 47.53300 21.17500
H  10.56400 48.64200 19.65800
H  9.69400 49.52700 20.98300
H  8.80500 48.52200 19.85900
H  7.79500 45.02900 20.53300
H  6.83300 45.33200 21.96700
H  9.42500 44.89000 22.94200
H  9.38800 43.80700 21.67200
H  8.17000 43.63100 22.90600
H  3.82500 46.47500 26.00800
H  4.27200 46.99200 24.37900
H  3.53200 48.08900 25.64200
H  6.64400 48.97600 30.12500
H  5.51600 45.48900 32.43200
H  6.17300 46.33900 33.71100
H  7.25900 45.42600 32.60600

