158

Mg 35.75200 1.44900 29.71000
C  33.21900 2.46300 32.07000
C  38.03900 1.53700 32.35100
C  38.20000 1.07800 27.42000
C  33.40300 2.09900 27.25900
N  35.58800 1.95700 31.89200
C  34.50100 2.26900 32.70800
C  34.72300 2.26500 34.23500
C  36.32100 2.23400 34.19400
C  36.73300 1.85300 32.68900
C  37.02700 3.49700 34.68300
C  34.00000 1.12700 34.89400
C  33.50700 1.41000 36.34600
H  33.75800 2.79000 37.04000
N  37.85300 1.21000 29.86400
C  38.55600 1.16100 31.05900
C  39.91900 0.69600 30.74600
C  39.96600 0.63600 29.31400
C  38.66300 0.96000 28.82100
C  40.93800 0.40800 31.82500
C  41.12000 0.45700 28.37500
O  41.09400 0.51600 27.15900
C  42.47200 0.19200 28.91700
N  35.79100 1.64000 27.63700
C  36.92900 1.41200 26.87500
C  36.63500 1.63400 25.39900
C  35.05500 1.53300 25.34700
C  34.67500 1.77000 26.82800
C  37.14600 2.99800 24.95700
C  34.38100 0.25400 24.76100
C  33.67300 -0.71000 25.74700
N  33.66300 2.04000 29.62600
C  32.90000 2.26300 28.50700
C  31.53700 2.78700 28.93100
C  31.57600 2.79700 30.34200
C  32.89500 2.40700 30.75300
C  30.28600 3.00100 28.09500
C  30.85400 3.13500 31.57800
O  29.72100 3.62800 31.68700
C  31.89400 2.87900 32.77100
C  32.06600 4.16200 33.54000
O  32.85500 5.09200 33.36000
O  31.01700 4.20800 34.40700
C  30.85300 5.51000 35.01000
H  38.69000 1.56700 33.22700
H  38.83000 1.02600 26.53000
H  32.68600 2.44500 26.51100
H  34.50600 3.28500 34.55300
H  36.85700 1.50300 34.79900
H  36.87100 4.24500 33.90500
H  38.10400 3.32900 34.69300
H  36.59800 3.81200 35.63400
H  34.70300 0.29400 34.88700
H  33.10100 0.89100 34.32500
H  34.01200 0.60500 36.87900
H  32.44100 1.18300 36.36400
H  41.52400 1.26700 32.15100
H  41.52700 -0.38400 31.36200
H  40.49700 -0.09100 32.68800
H  42.67000 -0.87600 29.00900
H  42.74200 0.67400 29.85700
H  43.11800 0.60900 28.14400
H  37.10600 0.89600 24.75000
H  34.63800 2.36800 24.78400
H  36.56000 3.60400 24.26700
H  38.10700 2.90900 24.45100
H  37.49300 3.62100 25.78100
H  35.17200 -0.16500 24.13900
H  33.66400 0.55600 23.99700
H  33.44900 -1.68300 25.31000
H  32.66300 -0.36900 25.97300
H  34.08400 -0.84800 26.74700
H  29.56700 2.21800 28.33500
H  30.66000 2.80800 27.08900
H  29.96500 4.03100 28.24700
H  31.48400 2.12700 33.44400
H  30.63200 6.35500 34.35700
H  31.65100 5.79300 35.69500
H  29.97400 5.54500 35.65300
Mg -1.82900 33.89300 26.32400
C  -3.00400 32.13400 29.24900
C  0.13600 35.78200 28.41800
C  -1.00400 35.65500 23.64400
C  -3.78300 31.74300 24.39100
N  -1.49900 34.02600 28.60200
C  -2.00700 33.12400 29.52300
C  -1.45600 33.41700 30.92700
C  -0.58500 34.71600 30.68300
C  -0.62600 34.82000 29.19700
C  -1.06800 36.02300 31.36800
C  -0.76000 32.17500 31.56800
C  -1.30500 31.66300 32.93400
H  -0.26400 31.53500 34.07800
N  -0.58500 35.53300 26.03900
C  0.11500 36.21000 27.04500
C  0.90700 37.24700 26.42600
C  0.60300 37.22000 25.00600
C  -0.39000 36.14400 24.84200
C  1.93000 38.17000 27.18300
C  1.24700 37.95000 23.86400
O  0.90200 37.96200 22.71800
C  2.36900 38.98400 24.24700
N  -2.51900 33.92700 24.37400
C  -1.92300 34.66900 23.40400
C  -2.41300 34.26300 21.97100
C  -2.84400 32.77900 22.23800
C  -3.11500 32.78900 23.73600
C  -3.52800 35.18600 21.38200
C  -1.85200 31.62900 21.80300
C  -0.53200 31.62700 22.49800
N  -3.16900 32.35400 26.72400
C  -3.86200 31.58200 25.83600
C  -4.68200 30.61400 26.59100
C  -4.34600 30.85400 27.95600
C  -3.44100 31.86700 27.96900
C  -5.72500 29.65100 26.00400
C  -4.70300 30.40300 29.30500
O  -5.49700 29.52700 29.71700
C  -3.73500 31.19500 30.17700
C  -4.46900 31.75000 31.35700
O  -4.82900 32.93000 31.48200
O  -4.68200 30.79800 32.29100
C  -5.23400 31.34600 33.58000
H  0.96900 36.23200 28.96200
H  -0.68300 36.19400 22.75000
H  -4.14300 30.94500 23.73800
H  -2.27900 33.68500 31.59000
H  0.41700 34.43600 31.01000
H  -2.15400 35.95600 31.43600
H  -0.71000 36.87000 30.78100
H  -0.67400 36.03700 32.38400
H  0.31400 32.35700 31.58500
H  -0.87900 31.33900 30.88000
H  -1.52400 30.60200 32.81600
H  -2.23500 32.08900 33.30900
H  2.90400 37.68900 27.26500
H  1.50700 38.30800 28.17800
H  1.98300 39.19800 26.82600
H  3.07800 39.36000 23.51000
H  3.02600 38.55200 25.00200
H  1.83800 39.85600 24.63000
H  -1.60300 34.27300 21.24200
H  -3.85200 32.53900 21.89800
H  -4.44500 34.60300 21.46700
H  -3.13200 35.47200 20.40800
H  -3.79600 36.03500 22.01100
H  -1.57200 31.81500 20.76600
H  -2.23800 30.61000 21.79000
H  -0.82900 31.98500 23.48400
H  0.08600 32.19800 21.80500
H  -0.14700 30.61000 22.57700
H  -5.87900 30.02300 24.99100
H  -6.63700 29.77100 26.58900
H  -5.41100 28.61100 26.10000
H  -2.98800 30.43200 30.39300
H  -4.49600 31.96400 34.09300
H  -5.45000 30.45000 34.16200
H  -6.13100 31.95600 33.47000

