158

Mg 0.89300 -0.63100 43.97900
C  4.19400 0.43500 43.61900
C  -0.06000 2.47800 42.64300
C  -2.07700 -1.97200 43.63100
C  2.14100 -3.87700 44.62100
N  1.96200 1.28300 43.23300
C  3.32700 1.45000 43.21400
C  3.63700 2.71800 42.48400
C  2.30000 3.50200 42.60500
C  1.27400 2.36900 42.87100
C  2.31200 4.69500 43.66900
C  4.22800 2.47700 41.05500
C  5.68000 3.08300 40.93800
H  6.60400 2.19600 40.07500
N  -0.90200 0.18600 43.21400
C  -1.05200 1.49700 42.80800
C  -2.46000 1.55300 42.45900
C  -3.09600 0.28500 42.77700
C  -2.05000 -0.56400 43.21900
C  -3.03400 2.79800 41.82900
C  -4.64000 0.02500 42.57200
O  -5.34800 0.86800 41.99900
C  -5.22200 -1.34500 42.86300
N  0.17600 -2.64100 44.08400
C  -1.12800 -2.86100 43.94200
C  -1.50300 -4.26300 44.45900
C  -0.11800 -4.94700 44.42200
C  0.76700 -3.75100 44.48700
C  -2.35300 -4.25300 45.80100
C  0.14500 -5.80300 43.13700
C  -0.16000 -7.30200 43.29200
N  2.74300 -1.50300 44.30800
C  3.05500 -2.84900 44.51400
C  4.53300 -2.94600 44.57100
C  5.05800 -1.67000 44.30200
C  3.86100 -0.91300 44.03500
C  5.43900 -4.11200 44.94100
C  6.17900 -0.79200 44.16800
O  7.34000 -1.09600 44.32900
C  5.74200 0.61600 43.75400
C  6.15000 1.65400 44.78900
O  5.56600 1.85100 45.80600
O  7.20500 2.40200 44.41700
C  7.86100 3.32400 45.37600
H  -0.42400 3.44000 42.27400
H  -3.06200 -2.44400 43.64300
H  2.32400 -4.92800 44.85700
H  4.34000 3.23500 43.13800
H  2.07200 3.99400 41.65900
H  3.35500 4.77700 43.97600
H  1.77900 4.56600 44.61100
H  2.04700 5.64600 43.20700
H  3.57900 2.90300 40.28900
H  4.24800 1.43400 40.73700
H  6.15700 3.23000 41.90700
H  5.73700 4.05600 40.44900
H  -3.93400 2.59900 41.24800
H  -2.29500 3.30900 41.21200
H  -3.20500 3.44900 42.68700
H  -4.64700 -2.13500 42.37900
H  -6.23700 -1.27900 42.47200
H  -5.27400 -1.51800 43.93800
H  -2.22300 -4.61700 43.72100
H  0.00000 -5.46300 45.37500
H  -1.90400 -4.84200 46.60100
H  -3.34100 -4.63200 45.54000
H  -2.42400 -3.20100 46.07500
H  1.20600 -5.82400 42.88800
H  -0.34800 -5.37600 42.26400
H  0.61100 -8.01100 42.99000
H  -0.96900 -7.43200 42.57300
H  -0.43900 -7.53400 44.31900
H  4.99900 -5.05200 44.60800
H  5.64500 -4.21200 46.00700
H  6.40200 -4.11400 44.43000
H  6.15000 0.87100 42.77500
H  8.30200 2.75800 46.19600
H  7.07300 3.94100 45.80700
H  8.60000 3.94700 44.87200
Mg -3.03400 34.16500 27.36700
C  -4.31600 32.22100 29.93400
C  -1.37700 36.12100 29.69200
C  -1.87000 35.92400 24.78300
C  -4.80700 32.12700 25.06900
N  -3.07500 34.27300 29.54500
C  -3.67700 33.35500 30.40500
C  -3.34900 33.77800 31.88300
C  -2.52900 35.14600 31.73100
C  -2.28900 35.17300 30.25600
C  -3.35800 36.39800 32.18200
C  -2.48100 32.70900 32.63500
C  -2.91500 32.26900 34.08000
H  -2.00000 32.52100 35.31000
N  -1.79700 35.72800 27.21800
C  -1.09900 36.33300 28.34300
C  -0.23900 37.37200 27.83600
C  -0.40200 37.36700 26.42700
C  -1.33000 36.28100 26.05500
C  0.55600 38.19700 28.77600
C  0.22000 38.28200 25.37400
O  -0.07700 38.26300 24.22600
C  1.20100 39.18300 25.79700
N  -3.37200 34.13700 25.22700
C  -2.83600 35.09100 24.41000
C  -3.22100 34.83500 22.95600
C  -4.09900 33.52600 23.00600
C  -4.07500 33.22500 24.53200
C  -3.86700 36.06600 22.28000
C  -3.60400 32.31600 22.11000
C  -2.23900 31.71000 22.56000
N  -4.33300 32.50900 27.39400
C  -4.88100 31.74800 26.39800
C  -5.41100 30.56500 26.99700
C  -5.37500 30.76000 28.36600
C  -4.63100 31.94500 28.60900
C  -6.09600 29.43900 26.36900
C  -5.69900 30.20900 29.64000
O  -6.27600 29.17300 29.89000
C  -5.09400 31.19000 30.73700
C  -6.18300 31.77400 31.55000
O  -7.05300 32.49700 31.11100
O  -6.10800 31.45900 32.85400
C  -6.93800 32.09400 33.89300
H  -0.95000 36.81200 30.42200
H  -1.50800 36.51100 23.93600
H  -5.31500 31.45300 24.37600
H  -4.32200 34.02700 32.30500
H  -1.53100 35.11000 32.16700
H  -4.42200 36.23500 32.35700
H  -3.24900 37.25000 31.51100
H  -3.04600 36.67100 33.19000
H  -1.41700 32.90400 32.76400
H  -2.46200 31.82200 32.00200
H  -3.11900 31.20200 33.98500
H  -3.91600 32.69400 34.14700
H  0.68300 37.75600 29.76400
H  0.13600 39.18000 28.99100
H  1.50400 38.23500 28.24000
H  0.77100 39.95200 26.43900
H  1.55400 39.70600 24.90800
H  2.15200 38.71900 26.06000
H  -2.30400 34.81500 22.36800
H  -5.14000 33.77500 22.79900
H  -3.18100 36.48200 21.54100
H  -4.08100 36.88100 22.97100
H  -4.80100 35.83000 21.77000
H  -3.51400 32.72400 21.10400
H  -4.36100 31.53500 22.03800
H  -1.57600 31.93400 21.72400
H  -2.34900 30.64700 22.77500
H  -1.87800 32.25100 23.43400
H  -5.58800 28.98700 25.51800
H  -7.10900 29.76800 26.13300
H  -6.11500 28.67600 27.14700
H  -4.35700 30.62300 31.30500
H  -6.40600 32.27600 34.82700
H  -7.75900 31.41900 34.13500
H  -7.32800 33.03800 33.51400

