158

Mg 46.91600 16.74900 28.07000
C  44.82400 16.18700 30.91200
C  49.00500 18.47900 30.32700
C  48.82200 17.85500 25.42000
C  44.75300 15.27100 26.00600
N  46.79700 17.36500 30.38000
C  45.88700 17.02500 31.33800
C  46.28400 17.43500 32.79500
C  47.52100 18.34500 32.41600
C  47.83500 18.07200 30.93700
C  47.28300 19.87400 32.78400
C  46.72200 16.21000 33.58900
C  46.54000 16.17200 35.15300
H  45.98400 17.44900 35.90500
N  48.67900 17.91300 27.89800
C  49.39000 18.45100 28.95600
C  50.60900 18.99100 28.46600
C  50.59300 18.95500 27.02600
C  49.33800 18.18000 26.71600
C  51.73200 19.56300 29.28300
C  51.67600 19.49800 26.03400
O  51.46300 19.48000 24.86000
C  52.96200 20.07700 26.48900
N  46.71600 16.76300 25.90900
C  47.65800 17.22500 25.06000
C  47.16900 16.95100 23.59200
C  45.95400 16.03700 23.82500
C  45.81000 15.95300 25.34200
C  46.85700 18.20800 22.73800
C  46.04900 14.60600 23.20100
C  44.83200 14.05200 22.42100
N  45.18400 15.86000 28.30500
C  44.37500 15.27400 27.39300
C  43.17500 14.74200 28.03200
C  43.33700 14.98500 29.44600
C  44.49000 15.79900 29.57400
C  42.00400 14.12300 27.36100
C  42.77400 14.85100 30.73100
O  41.77500 14.33600 31.09900
C  43.71100 15.64400 31.74600
C  42.85300 16.66500 32.37900
O  42.60400 17.80100 31.94600
O  42.40300 16.19200 33.60500
C  41.61600 17.07000 34.39500
H  49.81400 18.97300 30.87000
H  49.46500 18.26100 24.63700
H  44.08200 14.70000 25.36000
H  45.43700 17.96000 33.23500
H  48.37300 18.04600 33.02800
H  46.30200 20.12200 33.19000
H  47.63800 20.53600 31.99400
H  47.90900 20.14600 33.63400
H  47.78400 16.01200 33.44200
H  46.12200 15.36000 33.26400
H  47.48000 15.99900 35.67700
H  45.94400 15.31600 35.46900
H  51.98800 20.57700 28.97600
H  52.72800 19.17900 29.06200
H  51.51100 19.49500 30.34900
H  52.78900 21.03800 26.97300
H  53.47400 20.18800 25.53300
H  53.51500 19.34200 27.07400
H  47.93100 16.31500 23.14000
H  44.98600 16.39200 23.47200
H  47.19400 19.12300 23.22500
H  45.77500 18.19900 22.60700
H  47.31400 18.06700 21.75800
H  46.24800 13.94100 24.04200
H  46.87000 14.60500 22.48400
H  44.88500 12.96600 22.50100
H  45.02200 14.44700 21.42300
H  43.84300 14.42500 22.68700
H  41.93200 13.03800 27.43600
H  41.95100 14.48200 26.33300
H  41.13400 14.57900 27.83400
H  44.02600 14.94800 32.52300
H  42.01700 18.08300 34.42300
H  41.70700 16.72600 35.42600
H  40.58600 17.04800 34.03900
Mg -11.72900 38.74900 42.87600
C  -9.50100 36.42500 41.56100
C  -9.79400 41.27800 41.15200
C  -14.01400 41.10600 43.82700
C  -13.75400 36.19000 43.94700
N  -10.03200 38.84400 41.37100
C  -9.19700 37.73200 41.10100
C  -8.01700 38.10400 40.18200
C  -8.04700 39.66100 40.26600
C  -9.35400 39.95300 40.89900
C  -6.77900 40.23500 40.87300
C  -8.23600 37.35500 38.78900
C  -7.09300 36.51600 38.38000
H  -6.15500 37.23900 37.40000
N  -11.89300 40.94200 42.54100
C  -11.00000 41.75600 41.86500
C  -11.45000 43.08800 41.96700
C  -12.62000 43.08900 42.79100
C  -12.91300 41.67500 43.11600
C  -10.78300 44.24300 41.23400
C  -13.48700 44.32200 43.21500
O  -13.24500 45.41900 42.71500
C  -14.61400 44.27800 44.13600
N  -13.80300 38.63300 43.46600
C  -14.34000 39.74900 44.02700
C  -15.58900 39.19400 44.66400
C  -15.50000 37.69200 44.91900
C  -14.29600 37.48000 44.00800
C  -16.25700 39.96500 45.84900
C  -16.78000 36.90500 44.51900
C  -17.14600 35.67300 45.25000
N  -11.63400 36.68700 42.91800
C  -12.46700 35.79100 43.47400
C  -11.92300 34.41900 43.31000
C  -10.70400 34.61400 42.69300
C  -10.60500 36.01000 42.36000
C  -12.47200 33.08800 43.73700
C  -9.50900 34.01700 42.17100
O  -9.09300 32.86800 42.25800
C  -8.74300 35.13400 41.36900
C  -7.36700 35.05400 42.02100
O  -7.06900 35.50200 43.10800
O  -6.63100 34.25300 41.21700
C  -5.27700 34.07500 41.74200
H  -9.24600 42.06200 40.62400
H  -14.76800 41.80400 44.19800
H  -14.18100 35.35700 44.50900
H  -7.08700 37.77000 40.64300
H  -8.05700 40.10900 39.27200
H  -6.99700 40.96900 41.64900
H  -6.30100 40.79600 40.07000
H  -6.00900 39.54800 41.22300
H  -8.43900 38.06400 37.98600
H  -9.17900 36.80800 38.81100
H  -7.56000 35.66400 37.88600
H  -6.50000 36.14300 39.21500
H  -10.51800 43.82000 40.26500
H  -9.87600 44.52800 41.76700
H  -11.37300 45.14800 41.08700
H  -15.52100 44.00000 43.60000
H  -14.70300 45.25800 44.60600
H  -14.40700 43.66000 45.00900
H  -16.25200 39.20900 43.80000
H  -15.24600 37.51900 45.96500
H  -15.73100 40.79100 46.32700
H  -16.38700 39.29100 46.69500
H  -17.21900 40.31000 45.47100
H  -16.65700 36.53600 43.50100
H  -17.69000 37.50000 44.58700
H  -18.00400 35.92700 45.87200
H  -16.39100 35.33100 45.95800
H  -17.40400 34.91100 44.51400
H  -12.49000 32.36100 42.92500
H  -13.44000 33.18600 44.22900
H  -11.81500 32.55400 44.42300
H  -8.71600 34.79900 40.33200
H  -4.92200 35.08000 41.97100
H  -4.78400 33.70200 40.84400
H  -5.21400 33.29000 42.49600

