158

Mg 29.31600 58.16100 40.94200
C  26.31500 56.77200 39.75000
C  31.06200 55.45100 39.58500
C  32.10600 59.93200 41.27900
C  27.42700 61.26200 41.39000
N  28.73900 56.37700 39.75700
C  27.43700 55.99100 39.36500
C  27.39100 54.65200 38.66600
C  28.92400 54.16600 38.88100
C  29.61500 55.38000 39.50700
C  29.05200 53.02100 39.93600
C  26.99700 54.79100 37.19800
C  26.03800 53.79500 36.67700
H  26.25400 53.48100 35.18800
N  31.32000 57.74100 40.48900
C  31.84100 56.53300 39.99700
C  33.33200 56.65000 40.07900
C  33.66500 57.94200 40.57900
C  32.34900 58.59300 40.87500
C  34.25700 55.45100 39.74600
C  35.08900 58.51000 40.77200
O  36.05200 57.78900 40.50300
C  35.35100 59.90900 41.32000
N  29.74000 60.31400 41.29800
C  31.02000 60.73600 41.44200
C  31.04100 62.25900 41.85200
C  29.56700 62.69600 41.76200
C  28.83800 61.35400 41.56800
C  31.70500 62.69300 43.25800
C  29.22600 63.80100 40.73400
C  28.71700 65.11400 41.37100
N  27.33100 58.84200 40.87900
C  26.71800 60.08500 41.02200
C  25.32200 60.00300 40.83500
C  25.08500 58.66500 40.43700
C  26.39700 58.04700 40.37800
C  24.34200 61.14300 41.04900
C  24.08900 57.68400 40.09600
O  22.87400 57.70400 40.09700
C  24.86600 56.44200 39.57100
C  24.56100 55.24800 40.39700
O  24.78300 55.19100 41.61100
O  24.01200 54.25200 39.63800
C  23.52100 52.99600 40.32000
H  31.64600 54.56400 39.33200
H  32.95100 60.60400 41.44600
H  26.87600 62.20500 41.35200
H  26.61200 54.02200 39.09500
H  29.51600 53.95600 37.99000
H  28.26900 52.28300 39.76100
H  28.99100 53.49600 40.91500
H  29.95100 52.44200 39.72500
H  27.94400 54.83200 36.66000
H  26.55200 55.74800 36.92500
H  24.99200 54.07700 36.79700
H  26.22700 52.81200 37.10800
H  34.86800 55.64100 38.86400
H  33.69900 54.51800 39.66500
H  34.90200 55.29900 40.61100
H  35.09800 60.74500 40.66700
H  36.42600 59.98600 41.48000
H  34.92100 59.98400 42.31900
H  31.59400 62.80900 41.09100
H  29.22000 63.07700 42.72300
H  32.72200 62.31400 43.35900
H  31.15100 62.35000 44.13200
H  31.79400 63.77800 43.30600
H  28.64200 63.42100 39.89600
H  30.11400 64.16900 40.22000
H  29.42500 65.27400 42.18500
H  27.70300 64.99800 41.75400
H  28.71700 65.97900 40.70800
H  23.31200 60.79000 40.99300
H  24.48200 61.88600 40.26300
H  24.44400 61.48500 42.07900
H  24.54600 56.19900 38.55800
H  22.54200 53.23800 40.73300
H  24.12900 52.82600 41.20900
H  23.44400 52.14500 39.64300
Mg -8.86600 18.51800 42.39900
C  -5.34000 18.23500 42.10800
C  -8.43600 21.92800 41.76900
C  -12.00900 18.68300 42.02200
C  -8.94600 14.92700 42.25000
N  -7.04800 19.89900 42.03200
C  -5.76400 19.54800 41.95800
C  -4.87200 20.77300 41.73600
C  -5.81200 21.99200 41.81100
C  -7.15600 21.26300 41.96500
C  -5.54000 23.06300 42.94300
C  -4.09400 20.76800 40.39800
C  -4.87800 20.56800 39.09400
H  -4.26000 19.81200 37.92800
N  -10.05700 20.12600 42.12500
C  -9.76100 21.39500 41.78400
C  -10.99000 22.17000 41.41700
C  -12.02800 21.23600 41.62700
C  -11.39100 19.91400 41.91800
C  -10.96800 23.63000 41.06200
C  -13.42100 21.60500 41.44700
O  -13.73700 22.76600 41.25700
C  -14.66500 20.70000 41.44500
N  -10.19600 16.89600 41.85600
C  -11.52700 17.34400 42.01700
C  -12.55700 16.12700 41.83000
C  -11.52200 14.92200 41.76500
C  -10.13700 15.62600 41.88300
C  -13.68300 16.06700 43.02600
C  -11.56300 14.02400 40.50200
C  -11.86400 12.49500 40.76800
N  -7.49000 16.83100 42.29700
C  -7.66800 15.48500 42.36600
C  -6.33500 14.84800 42.51200
C  -5.35400 15.87900 42.29600
C  -6.17500 17.07000 42.23900
C  -6.09900 13.38800 42.70500
C  -3.95600 16.17900 42.23800
O  -2.93900 15.48500 42.32000
C  -3.88000 17.69300 42.07000
C  -3.14100 18.28900 43.28300
O  -2.12300 18.97900 43.22500
O  -3.74800 18.12300 44.51000
C  -3.16800 18.76600 45.68500
H  -8.32000 22.99300 41.55400
H  -13.08700 18.81500 41.91000
H  -9.05700 13.84300 42.31200
H  -4.18400 20.70200 42.57900
H  -5.77000 22.52400 40.86000
H  -6.45200 23.26700 43.50400
H  -5.10700 23.95300 42.48700
H  -4.75000 22.77800 43.63800
H  -3.28800 20.04600 40.53600
H  -3.56600 21.70300 40.21300
H  -4.97200 21.59600 38.74300
H  -5.88800 20.19300 39.26100
H  -10.94900 23.80400 39.98600
H  -10.00600 24.06900 41.32900
H  -11.80100 24.16000 41.52300
H  -14.63900 20.13100 42.37400
H  -14.76400 20.04000 40.58300
H  -15.47600 21.41700 41.31200
H  -12.97000 16.36200 40.84900
H  -11.55300 14.30800 42.66500
H  -13.40300 16.65300 43.90100
H  -13.77400 15.00000 43.23000
H  -14.66600 16.29000 42.61000
H  -10.65600 14.02600 39.89900
H  -12.23800 14.54300 39.82100
H  -12.17100 12.32100 41.79900
H  -10.97200 11.91300 40.53700
H  -12.59700 12.05100 40.09400
H  -6.99400 12.82600 42.43500
H  -5.89900 13.35700 43.77600
H  -5.16900 13.10800 42.21200
H  -3.39100 18.01900 41.15200
H  -3.77600 19.50200 46.21100
H  -2.18800 19.23500 45.58500
H  -3.21600 17.87800 46.31500

