158

Mg 2.40100 -3.04100 45.67300
C  5.78400 -2.20100 45.23700
C  1.58600 -0.53800 43.42600
C  -0.79800 -4.35400 45.45800
C  3.42500 -5.77700 47.60100
N  3.55400 -1.58000 44.49300
C  4.95600 -1.38300 44.51200
C  5.36800 -0.25800 43.55300
C  3.97400 0.43100 43.22800
C  2.95000 -0.66300 43.78000
C  3.74300 1.81200 44.04300
C  6.03500 -0.74800 42.27100
C  7.47400 -0.17000 42.00700
H  7.44400 0.69700 40.77700
N  0.67800 -2.49900 44.61500
C  0.49700 -1.37100 43.84000
C  -0.87100 -1.23400 43.41700
C  -1.59800 -2.33800 43.97200
C  -0.55500 -3.11900 44.73400
C  -1.25600 -0.02300 42.53200
C  -3.12000 -2.63900 43.80800
O  -3.81400 -1.87200 43.16200
C  -3.93700 -3.55400 44.66100
N  1.45400 -4.77100 46.40600
C  0.12300 -5.02000 46.27400
C  -0.44700 -6.24800 47.05400
C  0.97800 -6.76600 47.65500
C  2.02900 -5.73700 47.22300
C  -1.56700 -5.86000 48.09700
C  1.47300 -8.01300 47.02300
C  1.87900 -9.08600 48.17600
N  4.22100 -3.87500 46.40400
C  4.45900 -4.91100 47.20300
C  5.85700 -5.02400 47.43100
C  6.41100 -4.01900 46.60900
C  5.35500 -3.34500 46.02800
C  6.61100 -6.06900 48.28700
C  7.64700 -3.42200 46.13200
O  8.78300 -3.82700 46.47200
C  7.29200 -2.17000 45.26200
C  7.68400 -0.99000 45.93300
O  7.07300 -0.44300 46.82400
O  8.75900 -0.42300 45.23700
C  8.70600 1.06100 45.27300
H  1.36100 0.27600 42.73300
H  -1.76800 -4.81400 45.25600
H  3.76700 -6.70800 48.05700
H  6.07300 0.35000 44.12000
H  3.76900 0.66000 42.18200
H  4.56500 2.45600 43.73000
H  3.79600 1.64700 45.11900
H  2.82200 2.29800 43.72200
H  5.45700 -0.40900 41.41200
H  5.95700 -1.83300 42.34800
H  8.19100 -0.95300 41.76100
H  7.87300 0.42900 42.82600
H  -2.32400 0.16700 42.64400
H  -1.16300 -0.32600 41.49000
H  -0.65700 0.85800 42.76400
H  -3.46900 -3.71800 45.63200
H  -4.09800 -4.53500 44.21300
H  -4.92800 -3.11400 44.76800
H  -0.96800 -7.03100 46.50200
H  0.87700 -6.80500 48.73900
H  -2.15200 -5.02000 47.72200
H  -1.16400 -5.59700 49.07500
H  -2.31100 -6.62800 48.30800
H  2.29400 -7.83000 46.32900
H  0.66100 -8.48800 46.47200
H  1.42100 -9.99500 47.78700
H  1.38200 -8.92100 49.13200
H  2.93000 -9.37200 48.21700
H  5.91300 -6.50100 49.00500
H  7.48100 -5.51000 48.63100
H  6.97600 -6.92200 47.71500
H  7.73300 -2.27600 44.27100
H  9.45900 1.42900 44.57600
H  9.03100 1.47800 46.22600
H  7.76500 1.48400 44.92100
Mg 16.63600 52.07400 26.71000
C  18.61500 50.55400 28.99800
C  14.46300 53.10600 29.23700
C  14.63300 53.61400 24.39200
C  18.70900 51.04600 24.13900
N  16.57300 51.79100 28.89200
C  17.55600 51.15400 29.57800
C  17.24100 51.27900 31.04500
C  15.74300 51.85000 31.09400
C  15.57700 52.28400 29.63400
C  14.64000 50.83100 31.44100
C  18.40200 51.99900 31.73400
C  18.11000 52.53400 33.13600
H  17.35100 51.61200 34.10500
N  14.77700 53.17600 26.83800
C  14.08900 53.44700 27.93100
C  12.94900 54.34700 27.54900
C  12.94700 54.43600 26.16500
C  14.16400 53.73000 25.72500
C  12.09900 54.93300 28.70800
C  11.89700 55.22200 25.28800
O  11.97100 55.35600 24.04900
C  10.82600 56.05700 25.90100
N  16.62000 52.25600 24.59200
C  15.80700 53.09900 23.86200
C  16.07600 53.10700 22.34200
C  17.48100 52.42400 22.28200
C  17.61900 51.81000 23.70900
C  15.11300 52.46900 21.36100
C  18.65300 53.45300 22.10900
C  19.59800 53.21400 20.95800
N  18.35400 50.93700 26.53900
C  19.07100 50.62300 25.41500
C  20.24900 49.87200 25.86300
C  20.07100 49.75200 27.26200
C  18.95200 50.52300 27.65200
C  21.36900 49.30100 24.90900
C  20.58500 49.14800 28.51100
O  21.52500 48.40000 28.74200
C  19.69500 49.74600 29.68300
C  19.17600 48.70200 30.68200
O  18.29200 47.93800 30.49100
O  20.09500 48.74700 31.70600
C  19.71500 47.84600 32.76600
H  13.95900 53.36200 30.17100
H  14.00600 54.12300 23.65700
H  19.52900 50.80600 23.45800
H  17.22900 50.24900 31.40200
H  15.59000 52.83700 31.53000
H  15.02900 50.02300 32.06000
H  14.22500 50.38800 30.53600
H  13.81200 51.33600 31.93900
H  18.80000 52.83900 31.16300
H  19.19800 51.27000 31.88700
H  17.60500 53.49100 33.00100
H  19.04600 52.66800 33.67700
H  11.16400 54.38100 28.80100
H  11.85600 55.97100 28.47900
H  12.64900 54.90800 29.64900
H  10.09600 56.48400 25.21300
H  11.39500 56.83800 26.40500
H  10.38300 55.37300 26.62500
H  16.09000 54.15500 22.04300
H  17.37400 51.59800 21.57900
H  14.43000 51.81500 21.90200
H  15.61800 51.85800 20.61300
H  14.70200 53.34100 20.85200
H  19.25000 53.34800 23.01500
H  18.41600 54.51000 21.98700
H  19.46800 53.98300 20.19700
H  19.34400 52.31900 20.39000
H  20.61900 53.18200 21.33900
H  22.18900 49.87900 25.33300
H  21.34200 49.65400 23.87800
H  21.55300 48.22700 24.94800
H  20.35900 50.46100 30.16800
H  18.65300 47.95800 32.98600
H  20.25000 48.20200 33.64700
H  19.77800 46.79100 32.49800

