158

Mg 47.10100 34.70200 28.45100
C  45.59100 32.87100 31.00200
C  47.54700 37.29700 30.51500
C  47.90900 36.57400 25.79100
C  46.30200 31.99000 26.21600
N  46.80300 34.95700 30.59700
C  46.17900 34.09500 31.45000
C  46.20500 34.68800 32.83800
C  46.39700 36.22900 32.54300
C  47.04200 36.15000 31.14500
C  45.15800 37.20800 32.67400
C  47.47600 34.10500 33.53000
C  47.76000 34.64300 34.98500
H  46.69000 35.54000 35.65300
N  47.81000 36.67300 28.23500
C  47.98500 37.56200 29.20200
C  48.54300 38.80700 28.64900
C  48.63900 38.60200 27.22300
C  48.06700 37.22900 27.01000
C  48.86500 39.88700 29.63300
C  49.17700 39.50500 26.14800
O  49.40600 39.13300 25.00500
C  49.65200 40.85100 26.59100
N  47.06400 34.33400 26.34700
C  47.46700 35.27900 25.44100
C  47.25000 34.75400 23.94600
C  47.13900 33.24400 24.16800
C  46.75100 33.16800 25.69400
C  45.94300 35.55000 23.32400
C  48.42600 32.34400 23.82600
C  48.17200 31.21100 22.71900
N  46.12200 32.81100 28.56200
C  45.87600 31.85600 27.59100
C  45.12000 30.74100 28.17600
C  44.96500 31.10400 29.52400
C  45.58800 32.36500 29.69500
C  44.64200 29.46500 27.42100
C  44.44500 30.71400 30.79100
O  43.94700 29.62900 31.15900
C  44.55500 31.98100 31.76100
C  44.81100 31.57200 33.19600
O  45.79100 31.06000 33.64200
O  43.62600 31.80000 33.91700
C  43.57900 31.54600 35.37200
H  47.55800 38.14200 31.20600
H  48.06100 37.20900 24.91600
H  45.94400 31.18900 25.56600
H  45.28400 34.51100 33.39500
H  47.10200 36.64200 33.26400
H  44.27700 36.59100 32.85100
H  45.02900 37.86100 31.81100
H  45.36100 37.70000 33.62500
H  48.39700 34.42700 33.04400
H  47.48000 33.01700 33.58300
H  48.73600 35.12800 35.02100
H  47.80900 33.74500 35.60100
H  49.83800 40.23800 29.29200
H  49.18200 39.44900 30.57900
H  48.12400 40.64500 29.88800
H  48.84200 41.23500 27.21200
H  49.78200 41.47300 25.70600
H  50.56700 40.92000 27.17900
H  48.10800 35.01300 23.32700
H  46.34600 32.88000 23.51500
H  45.67300 36.39400 23.95900
H  45.13700 34.82100 23.40900
H  46.13400 35.77700 22.27500
H  48.65500 31.74500 24.70700
H  49.28100 33.01400 23.73100
H  47.24700 31.28500 22.14700
H  48.28000 30.23900 23.20000
H  49.06400 31.35500 22.10900
H  43.56900 29.33200 27.28800
H  45.00000 28.60400 27.98400
H  45.05200 29.48700 26.41100
H  43.54700 32.37900 31.64400
H  42.67900 30.96800 35.58700
H  43.54100 32.52600 35.84700
H  44.49000 31.00900 35.63600
Mg 16.35400 51.65400 25.64000
C  18.07800 50.65200 28.50100
C  13.64300 52.30400 27.59300
C  14.60100 51.81600 22.89400
C  19.08000 50.47100 23.67400
N  15.95300 51.52100 27.86900
C  16.84600 51.17800 28.83800
C  16.21500 51.30000 30.17900
C  14.69800 51.65100 29.91700
C  14.71800 51.83700 28.35100
C  13.65200 50.59200 30.43100
C  17.01100 52.26400 31.04200
C  16.94500 52.11900 32.56500
H  15.92900 51.28100 33.27700
N  14.49100 52.11900 25.33000
C  13.52000 52.39600 26.22400
C  12.28200 52.81000 25.60400
C  12.47900 52.52500 24.23300
C  13.91800 52.12500 24.12300
C  11.07600 53.33200 26.38800
C  11.47000 52.52700 23.09400
O  11.74200 52.19600 21.94700
C  10.09800 52.88300 23.42100
N  16.76000 51.08800 23.54900
C  15.85200 51.40800 22.59200
C  16.42700 51.19700 21.18300
C  17.91900 50.96400 21.48100
C  17.99800 50.89300 22.99100
C  15.72000 50.05300 20.40900
C  18.85200 52.08900 20.80200
C  20.18000 51.56300 20.14800
N  18.24500 50.82900 25.92800
C  19.20700 50.39700 25.09500
C  20.30900 49.71300 25.83500
C  19.87000 49.74900 27.13300
C  18.65400 50.48900 27.14300
C  21.46300 48.93500 25.26900
C  20.27500 49.43400 28.49500
O  21.33000 48.91900 28.93000
C  19.10500 49.93700 29.45400
C  18.61800 48.81300 30.32400
O  17.96000 47.88500 29.93300
O  19.03300 48.97200 31.61900
C  18.41300 48.05000 32.58000
H  12.79700 52.45500 28.26700
H  14.05400 52.01000 21.96900
H  19.95100 50.16200 23.09100
H  16.30100 50.34300 30.69400
H  14.45800 52.61400 30.36800
H  12.82800 51.15200 30.87300
H  14.07700 49.90400 31.16200
H  13.35700 50.02500 29.54900
H  16.65500 53.27000 30.81700
H  18.03400 52.32000 30.67100
H  16.62400 53.04900 33.03500
H  17.94100 51.86800 32.92900
H  10.75000 54.27800 25.95500
H  11.36500 53.50300 27.42500
H  10.21600 52.67800 26.52600
H  9.93300 53.82600 23.94200
H  9.60700 52.07300 23.96000
H  9.46800 53.03400 22.54500
H  16.36500 52.13800 20.63600
H  18.19500 49.98300 21.09400
H  16.46100 49.59600 19.75300
H  14.88300 50.47600 19.85300
H  15.14800 49.37900 21.04600
H  19.11700 52.94300 21.42500
H  18.33500 52.45300 19.91300
H  20.68400 50.70800 20.59700
H  20.93900 52.31700 20.35900
H  19.99600 51.31000 19.10400
H  22.36900 49.51800 25.10500
H  21.18200 48.40700 24.35800
H  21.78100 48.12700 25.92800
H  19.63500 50.65900 30.07500
H  17.32400 48.01700 32.58700
H  18.76400 48.31800 33.57600
H  18.84500 47.05800 32.44600

