158

Mg -2.12100 17.49400 26.65200
C  -2.58300 15.30600 29.56500
C  -2.31900 20.11300 28.85100
C  -2.15800 19.62700 24.06200
C  -2.44400 14.81900 24.64900
N  -2.29200 17.65100 29.02600
C  -2.39700 16.65500 29.92800
C  -2.53400 17.29300 31.36700
C  -2.45600 18.81300 31.10000
C  -2.33000 18.89700 29.56000
C  -3.62300 19.72900 31.66300
C  -1.51900 16.72800 32.40100
C  -0.93500 17.60900 33.57200
H  -0.56300 16.81700 34.86000
N  -1.99900 19.62600 26.47300
C  -2.11600 20.48900 27.44100
C  -1.94700 21.81900 26.88900
C  -1.79300 21.78200 25.51200
C  -2.00300 20.30000 25.33300
C  -1.80300 23.04800 27.73100
C  -1.52500 22.78200 24.48100
O  -1.52200 22.54300 23.27100
C  -1.15300 24.19700 24.75400
N  -2.36800 17.23300 24.65600
C  -2.33000 18.26700 23.72400
C  -2.51200 17.76800 22.29400
C  -2.18700 16.23300 22.53800
C  -2.32700 16.06200 24.04700
C  -3.85400 18.13700 21.71300
C  -0.81800 15.73900 21.99100
C  0.46400 15.80100 22.91100
N  -2.43400 15.44400 27.01200
C  -2.58200 14.45000 26.03200
C  -2.64900 13.16700 26.65600
C  -2.60700 13.48700 28.05700
C  -2.54300 14.83900 28.18500
C  -2.70800 11.88400 25.94000
C  -2.60700 12.91300 29.42000
O  -2.55300 11.76200 29.75900
C  -2.65400 14.06000 30.44000
C  -1.45000 13.72700 31.26900
O  -0.32500 14.05200 30.93600
O  -1.85400 13.25400 32.50600
C  -0.71900 12.86100 33.32900
H  -2.19300 20.95100 29.53900
H  -2.07300 20.23900 23.16100
H  -2.41700 13.91800 24.03200
H  -3.51000 16.99700 31.75100
H  -1.50600 19.31800 31.27500
H  -3.33500 20.77000 31.51300
H  -3.57900 19.47300 32.72100
H  -4.55600 19.32600 31.27000
H  -0.68700 16.34700 31.80800
H  -1.87700 15.86000 32.95400
H  -1.44200 18.55300 33.77200
H  0.03600 17.98600 33.25000
H  -0.88600 23.62400 27.60200
H  -1.96900 22.82400 28.78500
H  -2.66100 23.67000 27.47600
H  -0.16500 24.09200 25.20300
H  -1.90200 24.62100 25.42300
H  -1.06200 24.70100 23.79100
H  -1.68000 18.25200 21.78200
H  -2.98500 15.63700 22.09500
H  -4.34900 18.80800 22.41500
H  -4.36100 17.18900 21.53400
H  -3.67100 18.58200 20.73500
H  -0.64800 16.31300 21.07900
H  -0.94700 14.68400 21.75000
H  0.69200 14.77000 23.17800
H  0.33000 16.33100 23.85400
H  1.34300 16.20000 22.40500
H  -1.85900 11.21300 25.81000
H  -3.21100 11.94400 24.97400
H  -3.44300 11.34900 26.54200
H  -3.55900 14.21300 31.02800
H  -0.49700 11.81700 33.11100
H  -0.97500 13.01500 34.37700
H  0.23600 13.37600 33.22400
Mg 10.70900 47.95800 25.64800
C  7.97100 48.10900 27.89400
C  12.72500 49.23700 28.04400
C  13.02800 47.92200 23.30400
C  8.19200 47.44100 22.97500
N  10.37000 48.62300 27.70000
C  9.28700 48.36900 28.47800
C  9.53800 48.46400 30.04700
C  10.99300 49.22700 29.97600
C  11.38500 49.08100 28.44200
C  11.00100 50.72800 30.29500
C  9.45300 47.15800 30.90600
C  10.10400 47.07100 32.33400
H  9.39200 46.53800 33.51900
N  12.59000 48.44700 25.67100
C  13.26900 48.93400 26.79500
C  14.67000 49.10900 26.38100
C  14.84500 48.65900 25.04900
C  13.45900 48.25200 24.64300
C  15.67100 49.71000 27.30800
C  16.10600 48.58900 24.22500
O  16.15900 48.12200 23.11200
C  17.38500 48.98100 24.84100
N  10.54800 47.67400 23.40800
C  11.72500 47.78600 22.77600
C  11.51700 47.29200 21.32600
C  9.97900 47.28700 21.15500
C  9.51500 47.39700 22.58700
C  12.17800 48.15100 20.21900
C  9.45500 45.98500 20.48800
C  8.49400 46.12100 19.27000
N  8.56200 47.78800 25.41500
C  7.75100 47.61600 24.29100
C  6.37800 47.54200 24.73000
C  6.40600 47.64000 26.14600
C  7.79200 47.73300 26.50000
C  5.14700 47.33900 23.78500
C  5.59300 47.61900 27.38700
O  4.34100 47.56100 27.41000
C  6.58100 47.92800 28.56800
C  6.48000 46.69200 29.28800
O  7.14900 45.68300 29.06100
O  5.63400 46.87100 30.28300
C  5.54500 45.78600 31.22700
H  13.42300 49.50000 28.84100
H  13.77000 47.95100 22.50300
H  7.46100 47.27200 22.18100
H  8.61800 48.95900 30.35800
H  11.67600 48.73300 30.66600
H  10.79800 50.91500 31.35000
H  10.24500 51.16000 29.63900
H  11.87800 51.34600 30.10500
H  9.66600 46.31500 30.24800
H  8.37800 47.05900 31.05900
H  10.32700 48.11400 32.55700
H  11.06500 46.56200 32.26600
H  15.25800 49.93800 28.29000
H  16.07900 50.61600 26.85900
H  16.46900 48.99400 27.50600
H  17.56400 48.31000 25.68100
H  17.15000 49.91200 25.35600
H  18.20500 49.03600 24.12500
H  11.87700 46.26300 21.31100
H  9.65100 48.18600 20.63200
H  11.46700 48.73900 19.63900
H  12.48900 47.34000 19.56100
H  13.05100 48.74700 20.48600
H  8.79700 45.43900 21.16300
H  10.34200 45.46600 20.12400
H  7.59900 45.51600 19.41400
H  9.04500 45.68800 18.43500
H  8.20100 47.12500 18.96600
H  4.65900 48.30500 23.91900
H  4.49700 46.53200 24.12400
H  5.41600 47.25600 22.73200
H  6.28800 48.77700 29.18600
H  5.22700 44.89200 30.69100
H  4.83100 46.10600 31.98700
H  6.50500 45.56300 31.69200

