158

Mg 48.42500 46.21200 43.41800
C  45.21800 46.71800 41.91100
C  48.69500 43.37100 41.68400
C  51.68200 46.12600 44.26900
C  48.31800 49.63800 44.39700
N  47.06200 45.12700 41.97500
C  45.74200 45.44000 41.65300
C  45.16200 44.38300 40.64100
C  46.29300 43.27300 40.66400
C  47.48800 43.99600 41.45200
C  45.80200 41.89500 41.11900
C  44.86900 44.90300 39.20200
C  43.60600 44.37300 38.57800
H  43.61400 43.96000 37.13600
N  49.94500 44.87700 43.02900
C  49.76400 43.68700 42.42200
C  51.05200 42.97500 42.40800
C  51.98100 43.80100 43.13000
C  51.23600 45.02400 43.52800
C  51.22900 41.62200 41.71800
C  53.42700 43.37600 43.30600
O  53.91100 42.40600 42.76300
C  54.45100 44.12600 44.10800
N  49.83600 47.71400 44.25800
C  51.11200 47.36200 44.57100
C  51.85100 48.54900 45.31000
C  50.80800 49.71700 45.19200
C  49.57000 49.02100 44.56500
C  52.28800 48.24100 46.80000
C  51.20600 50.90800 44.30400
C  51.16400 52.29300 45.05500
N  47.13100 47.84600 43.27500
C  47.16700 49.13100 43.79800
C  45.92200 49.80300 43.52900
C  45.14200 48.93100 42.75600
C  45.93000 47.71500 42.65800
C  45.50300 51.32800 43.81500
C  43.85900 48.72400 42.01600
O  42.88800 49.47200 41.80500
C  43.87600 47.26900 41.48600
C  42.74100 46.48800 42.02000
O  42.50800 46.22100 43.16200
O  41.96900 45.96300 41.02200
C  41.00100 44.92900 41.34500
H  48.75600 42.37900 41.23100
H  52.68500 45.98500 44.67700
H  48.39600 50.68500 44.69800
H  44.19900 44.04900 41.02700
H  46.68100 43.16500 39.65100
H  45.99100 41.93000 42.19200
H  46.26300 41.00200 40.69600
H  44.73200 41.88600 40.91100
H  45.73300 44.56900 38.62700
H  44.88300 45.98900 39.10500
H  42.91400 45.21400 38.60200
H  43.14800 43.65800 39.26100
H  50.37900 40.98900 41.46200
H  51.66600 40.99800 42.49800
H  51.91500 41.79100 40.88800
H  54.11200 44.18900 45.14200
H  54.45100 45.08400 43.58800
H  55.42400 43.63700 44.06200
H  52.76100 48.77300 44.75200
H  50.49500 50.00800 46.19400
H  52.16200 47.18200 47.02900
H  51.80200 48.90000 47.51900
H  53.36300 48.40100 46.87900
H  50.52500 50.98400 43.45600
H  52.21100 50.82200 43.89300
H  52.14600 52.74800 45.18200
H  50.88100 52.17700 46.10200
H  50.46300 52.91900 44.50300
H  44.44200 51.37800 44.05800
H  45.78600 51.85800 42.90500
H  46.00100 51.78400 44.67100
H  43.88100 47.24600 40.39600
H  41.42700 43.98800 40.99500
H  40.05000 45.16200 40.86600
H  40.83500 44.79100 42.41300
Mg -11.97900 38.41600 42.01600
C  -10.02200 35.61800 41.31800
C  -10.11800 40.33000 40.01700
C  -14.48700 40.63900 42.05100
C  -14.34200 36.07300 43.45800
N  -10.40100 37.90200 40.65400
C  -9.61800 36.72500 40.60200
C  -8.37700 36.93500 39.73200
C  -8.32000 38.51600 39.50300
C  -9.67800 38.98000 40.14200
C  -7.12600 39.16800 40.17900
C  -8.34800 36.00700 38.48500
C  -7.05100 35.27500 38.13500
H  -6.30100 35.87600 36.97900
N  -12.15400 40.32800 41.33000
C  -11.28800 40.95500 40.56400
C  -11.72500 42.33700 40.25600
C  -13.07800 42.49000 40.87100
C  -13.32400 41.11800 41.47700
C  -10.87400 43.31800 39.58500
C  -14.00500 43.72200 40.70000
O  -13.50300 44.74800 40.22200
C  -15.43400 43.61600 41.11100
N  -14.23600 38.29400 42.31800
C  -14.84200 39.37300 42.51800
C  -16.37400 39.08600 42.78800
C  -16.23600 37.64800 43.33500
C  -14.87500 37.26600 42.96100
C  -17.09500 40.02800 43.68500
C  -17.34000 36.61500 42.76200
C  -18.46300 36.11300 43.74900
N  -12.17200 36.31100 42.39700
C  -13.06500 35.62200 43.16500
C  -12.51600 34.36500 43.53100
C  -11.29700 34.28000 42.79300
C  -11.17300 35.53800 42.13500
C  -13.11400 33.26000 44.39400
C  -10.22900 33.48100 42.53600
O  -9.77900 32.35700 42.81600
C  -9.44500 34.24600 41.43100
C  -7.99700 34.26300 41.75900
O  -7.11800 33.82900 40.99500
O  -7.72200 34.99300 42.95100
C  -6.32900 35.13800 43.28600
H  -9.52300 40.93000 39.32400
H  -15.32200 41.34100 42.09800
H  -14.96400 35.52200 44.16600
H  -7.54100 36.60300 40.34800
H  -8.24800 38.74500 38.43900
H  -6.47900 38.35900 40.51700
H  -7.41600 39.72200 41.07200
H  -6.60200 39.89200 39.55500
H  -8.57600 36.55400 37.57000
H  -9.14200 35.27400 38.62300
H  -7.42800 34.29400 37.84300
H  -6.33500 35.30000 38.95600
H  -9.86400 42.96100 39.78300
H  -11.10500 44.31100 39.97100
H  -10.97200 43.22800 38.50300
H  -15.92600 42.75700 40.65400
H  -15.93100 44.48800 40.68700
H  -15.64400 43.63200 42.18000
H  -16.97400 39.07600 41.87800
H  -16.40600 37.64300 44.41100
H  -16.55500 40.89200 44.07500
H  -17.26100 39.48800 44.61700
H  -18.08600 40.29400 43.31900
H  -16.83900 35.71500 42.40500
H  -17.78500 36.92600 41.81700
H  -18.63300 35.03700 43.76700
H  -19.40200 36.63900 43.57500
H  -18.14900 36.39700 44.75300
H  -14.06000 32.96000 43.94200
H  -13.36600 33.48400 45.43100
H  -12.35000 32.48300 44.37900
H  -9.50400 33.54800 40.59500
H  -6.39900 35.68500 44.22700
H  -5.91700 35.86200 42.58300
H  -5.76800 34.20400 43.31800

