158

Mg 35.91900 1.01100 29.61400
C  33.57500 2.06000 31.93300
C  38.30400 0.95300 32.12000
C  38.13700 -0.05200 27.29800
C  33.52400 1.38400 27.21500
N  35.99400 1.44100 31.80400
C  34.87100 1.75400 32.51500
C  35.18400 1.78400 33.98200
C  36.80100 1.93500 33.96200
C  37.11700 1.43700 32.54100
C  37.31900 3.43900 34.16900
C  34.48100 0.52900 34.63100
C  34.15300 0.81100 36.18100
H  34.99700 1.83600 36.92200
N  37.93200 0.45600 29.71100
C  38.73200 0.45300 30.82900
C  39.93800 -0.24600 30.53300
C  39.97200 -0.42700 29.13500
C  38.64000 0.05200 28.62400
C  41.02100 -0.49200 31.58000
C  41.10100 -0.93200 28.26300
O  41.15200 -0.90200 27.00400
C  42.36800 -1.51100 28.95800
N  35.89300 0.90300 27.54300
C  36.88500 0.36300 26.80800
C  36.52200 0.11400 25.34100
C  34.99300 0.59500 25.28800
C  34.77600 0.99400 26.75800
C  37.43300 0.82700 24.27100
C  33.93000 -0.47600 24.78900
C  33.54700 -1.52500 25.84800
N  33.99100 1.75600 29.51400
C  33.09600 1.85700 28.46200
C  31.80000 2.30400 28.91400
C  31.98200 2.39500 30.26100
C  33.29800 1.99400 30.56900
C  30.61700 2.43100 28.14600
C  31.28200 2.73200 31.53600
O  30.09300 3.04500 31.80600
C  32.34600 2.50000 32.67700
C  32.42400 3.72800 33.49800
O  33.16500 4.67600 33.34100
O  31.72600 3.51600 34.66200
C  32.02400 4.50900 35.74300
H  39.04900 0.92200 32.91800
H  38.67200 -0.66500 26.57000
H  32.80700 1.52600 26.40400
H  34.69200 2.66300 34.39900
H  37.37900 1.33900 34.66700
H  37.90100 3.41300 35.09000
H  36.63000 4.28100 34.24000
H  37.98600 3.66500 33.33700
H  35.01200 -0.41300 34.49400
H  33.53100 0.47400 34.09900
H  34.22700 -0.21400 36.54300
H  33.11000 1.12700 36.21000
H  41.57600 -1.43000 31.55600
H  40.54400 -0.35400 32.55100
H  41.66500 0.38000 31.46800
H  43.07200 -0.73100 29.24700
H  42.96200 -1.92500 28.14300
H  42.14400 -2.27600 29.70000
H  36.59000 -0.96700 25.22000
H  34.81100 1.48400 24.68400
H  38.08100 1.53700 24.78500
H  36.78900 1.39100 23.59700
H  38.01400 0.08700 23.72100
H  34.21300 -0.84900 23.80500
H  32.99500 0.03300 24.55300
H  34.12000 -1.56600 26.77400
H  33.65300 -2.53000 25.44000
H  32.48600 -1.48200 26.09400
H  29.67100 2.31000 28.67400
H  30.62100 1.72200 27.31900
H  30.65400 3.46300 27.79600
H  31.96100 1.76000 33.37900
H  31.19500 4.34500 36.43200
H  32.09600 5.54700 35.41800
H  32.99700 4.33300 36.20200
Mg 40.96600 41.09500 27.87000
C  40.25800 43.41300 30.42300
C  41.52400 38.69400 30.28700
C  42.22100 39.05200 25.39500
C  40.93500 43.74100 25.69600
N  40.85200 41.10100 30.12500
C  40.36000 42.09800 30.90400
C  40.16500 41.59200 32.33200
C  40.71800 40.09400 32.28200
C  41.12900 39.95800 30.81800
C  41.90500 39.77900 33.28300
C  38.68200 41.61500 32.80500
C  38.46300 40.94000 34.20000
H  37.95700 41.76500 35.38800
N  41.56200 39.04700 27.82600
C  41.70500 38.26500 28.91900
C  42.20800 36.98800 28.43700
C  42.35600 37.01300 27.05500
C  42.03000 38.46200 26.66400
C  42.51900 35.86100 29.46800
C  42.85300 35.96200 26.06100
O  43.10500 36.18300 24.87600
C  42.99700 34.54400 26.52500
N  41.41200 41.30100 25.89600
C  41.87600 40.35400 24.98900
C  41.87400 40.83300 23.49200
C  41.54500 42.34200 23.68300
C  41.20700 42.48200 25.23200
C  43.15400 40.53300 22.70800
C  40.51100 42.97700 22.70000
C  39.17100 42.25700 22.44600
N  40.83700 43.16700 28.01400
C  40.77800 44.08900 27.04200
C  40.46300 45.36800 27.56100
C  40.22500 45.16100 28.94400
C  40.44400 43.82000 29.10200
C  40.30400 46.60200 26.74400
C  39.71600 45.78000 30.08100
O  39.23000 46.89300 30.25600
C  39.86400 44.67700 31.15700
C  40.91800 45.15700 32.13700
O  42.09700 45.25900 31.90400
O  40.30800 45.07700 33.38100
C  41.34400 45.33600 34.43900
H  41.64100 37.89500 31.02200
H  42.78800 38.47700 24.66000
H  40.91200 44.61600 25.04300
H  40.73000 42.24700 32.99500
H  40.00800 39.32600 32.58900
H  41.54200 38.95400 33.89700
H  42.18500 40.67500 33.83700
H  42.84400 39.43300 32.85200
H  37.98700 41.22200 32.06400
H  38.34000 42.65000 32.77700
H  39.37500 40.45900 34.55400
H  37.73200 40.13200 34.17800
H  41.58400 35.33400 29.65500
H  42.91000 36.21800 30.42100
H  43.24300 35.11600 29.13600
H  42.05300 34.17600 26.92800
H  43.78700 34.35000 27.25100
H  43.09300 33.96600 25.60600
H  40.96500 40.43100 23.04500
H  42.51400 42.83400 23.60300
H  43.94900 40.13900 23.34100
H  43.39700 41.38600 22.07500
H  42.90500 39.72300 22.02200
H  41.03500 43.13700 21.75700
H  40.27900 43.99700 23.00700
H  39.03700 41.58400 21.60000
H  38.43200 43.05800 22.47500
H  38.90600 41.57900 23.25700
H  39.24600 46.85100 26.66200
H  40.81100 46.51600 25.78300
H  40.74100 47.43900 27.28700
H  38.85600 44.53800 31.54800
H  40.88600 45.05200 35.38600
H  41.49000 46.41600 34.48600
H  42.21000 44.68500 34.32200

