158

Mg 16.67700 -2.31200 28.89000
C  15.70200 -0.14400 31.48000
C  18.97600 -3.69900 31.00100
C  17.75800 -4.02000 26.26300
C  14.59700 -0.42600 26.64700
N  17.17600 -1.98700 31.05200
C  16.55100 -1.14800 31.92700
C  16.97400 -1.36800 33.32500
C  18.05300 -2.50200 33.19500
C  18.18300 -2.70700 31.65500
C  19.38900 -2.27700 33.96400
C  15.82900 -1.81800 34.36200
C  15.69500 -1.17200 35.72300
H  17.04000 -0.65800 36.24000
N  18.13000 -3.69600 28.67600
C  19.01300 -4.17300 29.61500
C  19.81500 -5.24000 29.06100
C  19.52600 -5.23600 27.68300
C  18.42200 -4.35000 27.46200
C  20.74100 -6.10000 29.91200
C  20.11400 -6.18000 26.58800
O  19.73800 -6.15200 25.41100
C  21.07500 -7.25300 26.98100
N  16.18200 -2.37600 26.79400
C  16.75800 -3.14200 25.91900
C  16.28000 -2.93600 24.49400
C  15.04600 -2.05600 24.73400
C  15.32000 -1.53100 26.15600
C  17.46300 -2.24500 23.63900
C  13.70100 -2.73600 24.63200
C  12.96500 -2.47300 23.25300
N  15.38000 -0.62700 28.98400
C  14.69800 0.03800 27.95500
C  13.91400 1.09800 28.54200
C  14.32900 1.09000 29.93500
C  15.21400 0.05800 30.14300
C  12.93400 2.04300 27.93700
C  14.20400 1.75000 31.20600
O  13.59800 2.73700 31.57100
C  14.93500 0.90700 32.23800
C  15.69100 1.77600 33.26700
O  16.70100 2.42000 33.04500
O  14.91200 1.91400 34.40800
C  15.23400 3.01300 35.25600
H  19.61600 -4.18900 31.73700
H  18.05700 -4.68500 25.45000
H  13.95400 0.00700 25.87800
H  17.45900 -0.46300 33.68800
H  17.64900 -3.42900 33.60200
H  20.14000 -1.93900 33.25100
H  19.58000 -3.20800 34.49900
H  19.38700 -1.53100 34.75900
H  15.94600 -2.89000 34.52300
H  14.87400 -1.76600 33.84100
H  15.44100 -1.95000 36.44400
H  14.96800 -0.36400 35.64300
H  20.87100 -5.64100 30.89200
H  21.69100 -6.26600 29.40500
H  20.29200 -7.06700 30.13900
H  20.63700 -7.68300 27.88200
H  22.07400 -6.90300 27.24200
H  21.15600 -7.96600 26.16100
H  15.96400 -3.83400 23.96200
H  15.05700 -1.26500 23.98400
H  17.25900 -1.17500 23.60400
H  17.28400 -2.68200 22.65600
H  18.42000 -2.55500 24.05800
H  12.99700 -2.47000 25.42000
H  13.87300 -3.81000 24.69800
H  12.21300 -1.69000 23.34600
H  12.47800 -3.37300 22.87700
H  13.55500 -2.15800 22.39300
H  13.30500 2.50400 27.02200
H  12.61800 2.73600 28.71700
H  12.09800 1.42500 27.61100
H  14.32400 0.24500 32.85100
H  15.73700 3.77400 34.66000
H  15.89500 2.59800 36.01600
H  14.32400 3.43200 35.68600
Mg 47.64900 24.59500 28.14400
C  48.77500 26.63300 30.83900
C  46.97400 22.21100 30.67300
C  46.60100 22.67100 25.75800
C  48.76500 26.93500 25.95200
N  47.89000 24.41000 30.54100
C  48.20000 25.42000 31.37700
C  48.04700 25.02700 32.83200
C  47.70900 23.54200 32.69400
C  47.46800 23.37600 31.22300
C  48.88200 22.56800 33.14300
C  46.94700 25.95600 33.56100
C  47.25600 26.90700 34.70700
H  46.37000 26.83400 35.89400
N  46.68500 22.74700 28.20800
C  46.61200 21.89800 29.29200
C  45.92900 20.67400 28.82500
C  45.73000 20.80700 27.40100
C  46.35100 22.12300 27.05000
C  45.56200 19.59300 29.90600
C  45.06900 19.87900 26.37200
O  44.90900 20.23800 25.21800
C  44.38800 18.68000 26.90300
N  47.63200 24.78300 26.09600
C  47.16600 23.84700 25.31200
C  47.33200 24.22800 23.80600
C  47.96500 25.63600 23.90800
C  48.13100 25.85000 25.42600
C  48.14200 23.19500 22.99100
C  47.30800 26.87400 23.20100
C  48.17900 27.88700 22.57000
N  48.64200 26.31200 28.32200
C  49.00200 27.24300 27.35300
C  49.52600 28.43300 27.84100
C  49.46800 28.17500 29.26400
C  48.87700 26.89800 29.47000
C  50.08500 29.62500 27.13600
C  49.83800 28.81400 30.44500
O  50.53300 29.78100 30.65900
C  49.28300 27.86100 31.58500
C  50.35500 27.66200 32.64900
O  51.04900 26.64800 32.68900
O  50.44200 28.76000 33.47700
C  51.22000 28.58900 34.71400
H  46.68600 21.60100 31.53200
H  46.19900 22.05400 24.95200
H  49.34800 27.57100 25.28200
H  49.01900 25.19900 33.29500
H  46.79600 23.22400 33.19600
H  48.48700 21.61400 33.49400
H  49.46300 23.10300 33.89300
H  49.66800 22.37600 32.41200
H  46.22900 25.24300 33.96600
H  46.52000 26.52600 32.73600
H  47.08700 27.94100 34.40900
H  48.26400 26.81800 35.11300
H  45.15600 18.66000 29.51700
H  44.84100 19.95600 30.63900
H  46.48400 19.41200 30.45800
H  45.18900 18.07300 27.32500
H  43.92400 18.22000 26.03000
H  43.63600 18.91600 27.65600
H  46.35000 24.32600 23.34400
H  49.01600 25.61200 23.61900
H  48.31100 22.32000 23.61900
H  49.12900 23.40400 22.58000
H  47.58500 22.95800 22.08400
H  46.63300 27.37500 23.89500
H  46.65300 26.34600 22.50800
H  47.68900 28.06700 21.61300
H  49.13200 27.45300 22.26800
H  48.39600 28.79900 23.12600
H  50.37600 30.33100 27.91400
H  49.24400 29.94900 26.52200
H  50.89100 29.32900 26.46400
H  48.43500 28.41300 31.99300
H  51.22300 29.54000 35.24700
H  52.23500 28.19200 34.69200
H  50.52900 28.01600 35.33300

