158

Mg 46.93700 25.80400 28.76800
C  47.95200 27.80600 31.61200
C  46.01500 23.41900 31.08700
C  46.39500 23.68600 26.27500
C  48.32000 28.17700 26.77100
N  46.82600 25.71400 31.15900
C  47.24800 26.66900 32.00900
C  46.76200 26.32200 33.46100
C  46.30400 24.82500 33.27000
C  46.39200 24.59500 31.75400
C  47.18700 23.77500 34.09500
C  45.63500 27.28800 34.02500
C  45.85200 27.99900 35.36300
H  44.95600 27.67000 36.47800
N  46.29900 23.86400 28.70200
C  45.95200 23.03100 29.77600
C  45.45500 21.78900 29.27500
C  45.61400 21.80000 27.82900
C  46.19700 23.12400 27.52000
C  44.86600 20.74800 30.20400
C  45.27500 20.72100 26.86700
O  45.39200 20.77700 25.62200
C  44.64200 19.49100 27.31900
N  47.30000 25.87800 26.86600
C  46.96800 24.92200 25.91900
C  47.33000 25.36200 24.50900
C  47.72900 26.88500 24.77600
C  47.72200 27.02500 26.25400
C  48.50500 24.57100 23.86900
C  46.68800 27.89300 24.17100
C  47.29600 29.22600 23.64700
N  47.89900 27.70300 29.07100
C  48.38800 28.54500 28.11400
C  48.99800 29.71400 28.72700
C  48.79800 29.45800 30.15000
C  48.20600 28.21300 30.29400
C  49.72800 30.82400 28.03600
C  49.00200 30.02100 31.48300
O  49.59600 31.02800 31.92100
C  48.29300 28.93700 32.53700
C  49.20700 28.80400 33.66800
O  50.33900 28.44600 33.58700
O  48.58700 29.09200 34.84300
C  49.37700 28.78400 36.04100
H  45.51500 22.74300 31.78500
H  45.98300 23.06500 25.47600
H  48.75300 28.72000 25.92900
H  47.66500 26.51400 34.04100
H  45.25400 24.68800 33.52900
H  47.73900 24.12500 34.96700
H  47.78100 23.35700 33.28200
H  46.54600 22.99300 34.50300
H  44.76300 26.64600 34.14600
H  45.39000 28.03400 33.26900
H  45.75000 29.05500 35.11400
H  46.86200 27.87200 35.75400
H  45.10900 19.74300 29.85800
H  43.78700 20.90100 30.19600
H  45.24400 20.80100 31.22600
H  45.23900 18.89300 28.00900
H  44.22000 18.93500 26.48200
H  43.77300 19.84100 27.87600
H  46.43200 25.41700 23.89300
H  48.71200 27.15200 24.38900
H  49.26600 25.04200 23.24900
H  47.93700 23.92800 23.19600
H  48.95200 24.04100 24.71100
H  45.88700 28.13400 24.87100
H  46.13200 27.32800 23.42200
H  47.23900 29.38100 22.57000
H  48.35500 29.30300 23.89000
H  46.77100 29.99900 24.20900
H  49.89300 31.63000 28.75100
H  49.32700 31.21700 27.10200
H  50.67700 30.34700 27.79000
H  47.36300 29.41400 32.84600
H  49.84800 27.80100 36.02500
H  48.86600 28.86400 37.00000
H  50.13500 29.56300 36.11900
Mg -5.89500 24.90800 25.98000
C  -4.35000 26.32000 28.84400
C  -7.76200 22.93400 28.13300
C  -6.95500 23.36100 23.20000
C  -3.62700 26.66600 23.97900
N  -5.78500 24.49000 28.20900
C  -5.24000 25.28400 29.20100
C  -5.76000 24.85200 30.60900
C  -6.69600 23.60700 30.27600
C  -6.79800 23.72400 28.77400
C  -6.08000 22.14900 30.80400
C  -6.50800 26.05700 31.27900
C  -6.39100 26.17900 32.79400
H  -5.92500 24.95600 33.53600
N  -7.38600 23.56600 25.65700
C  -8.03100 22.85800 26.66700
C  -9.08200 22.07100 26.09200
C  -8.78400 22.03800 24.66500
C  -7.66200 22.97700 24.45600
C  -10.15700 21.50400 26.91100
C  -9.46300 21.30200 23.54100
O  -9.19800 21.49000 22.30100
C  -10.70800 20.41000 23.80600
N  -5.25700 24.82300 23.92300
C  -5.86600 24.21200 22.94300
C  -5.41000 24.59900 21.58600
C  -4.49600 25.81000 21.78000
C  -4.47900 25.76700 23.32900
C  -4.73300 23.41800 20.78400
C  -5.09100 27.09100 21.13200
C  -4.25700 27.57900 19.96600
N  -4.33900 26.27200 26.27500
C  -3.56800 26.89300 25.35100
C  -2.69600 27.84700 26.01500
C  -2.90600 27.57100 27.36800
C  -3.94500 26.61600 27.50300
C  -1.70900 28.87400 25.37000
C  -2.45400 27.86800 28.70000
O  -1.47900 28.49000 29.04700
C  -3.42500 27.12100 29.74200
C  -2.55200 26.37300 30.67100
O  -2.08800 25.27500 30.42500
O  -2.43700 26.97100 31.84700
C  -1.76500 26.21100 32.93400
H  -8.47900 22.43900 28.79100
H  -7.48100 22.97600 22.32400
H  -2.90300 27.10600 23.29000
H  -4.90100 24.50800 31.18500
H  -7.63700 23.64400 30.82500
H  -6.86600 21.75800 31.45000
H  -5.23900 22.21700 31.49400
H  -6.02800 21.46600 29.95600
H  -7.53000 25.99900 30.90400
H  -6.12700 26.96700 30.81500
H  -7.38400 26.42300 33.17300
H  -5.75600 27.05000 32.95400
H  -10.45500 22.19600 27.69900
H  -10.01200 20.57100 27.45400
H  -11.03200 21.25500 26.30900
H  -10.40500 19.62500 24.49900
H  -11.08400 20.05700 22.84600
H  -11.46000 20.97800 24.35300
H  -6.37600 24.83100 21.13700
H  -3.47400 25.61500 21.45400
H  -3.81900 23.64100 20.23400
H  -5.47900 23.06800 20.07000
H  -4.42400 22.60500 21.44200
H  -5.24200 27.81800 21.93000
H  -6.08900 26.95400 20.71600
H  -3.60600 26.76800 19.63800
H  -3.62600 28.40400 20.29600
H  -4.92900 27.88600 19.16500
H  -2.02700 29.87500 25.66000
H  -1.71300 28.68600 24.29600
H  -0.69600 28.64200 25.69800
H  -3.91900 27.89700 30.32700
H  -0.69200 26.30100 32.76600
H  -2.06400 25.18200 33.13300
H  -2.11400 26.67400 33.85700

