158

Mg 31.01700 58.67200 38.97800
C  28.20000 56.76900 38.15700
C  33.10000 56.05400 38.44900
C  33.65300 60.72300 39.35100
C  28.90700 61.46500 39.03600
N  30.64700 56.65500 38.16400
C  29.39500 56.08500 38.07500
C  29.60500 54.54200 37.72000
C  31.19400 54.36600 37.82700
C  31.70800 55.76400 38.20500
C  31.66300 53.10100 38.70700
C  29.02900 54.04000 36.35400
C  29.45300 54.71800 35.04600
H  28.33300 55.33900 34.14900
N  33.06200 58.43300 39.00700
C  33.77100 57.29700 38.76900
C  35.21400 57.56200 38.92300
C  35.35700 58.93200 39.23000
C  33.97100 59.44600 39.15000
C  36.22500 56.48700 38.66100
C  36.68900 59.53500 39.59600
O  37.72400 58.82000 39.56000
C  36.91200 61.06200 39.90800
N  31.32000 60.84400 39.01400
C  32.45600 61.40400 39.25100
C  32.37400 62.94300 39.23100
C  30.89800 63.13600 39.60800
C  30.29200 61.73000 39.29900
C  33.32900 63.72000 40.14000
C  30.21200 64.33100 38.81700
C  29.11300 65.09500 39.45000
N  28.98300 59.12900 38.67300
C  28.26500 60.27600 38.78200
C  26.81900 60.05300 38.52500
C  26.74500 58.65200 38.30200
C  28.13500 58.15000 38.34700
C  25.69600 61.08500 38.62500
C  25.82000 57.56400 38.13700
O  24.59900 57.53600 38.09800
C  26.74500 56.24000 38.00000
C  26.35600 55.19800 39.08900
O  26.90800 55.09500 40.18600
O  25.34700 54.40200 38.60300
C  24.73800 53.33100 39.39900
H  33.75900 55.19800 38.28800
H  34.48000 61.38900 39.09400
H  28.30600 62.37100 39.13200
H  29.22900 54.02500 38.60300
H  31.55400 54.09300 36.83500
H  32.35900 52.43800 38.19300
H  30.89000 52.46300 39.13600
H  32.17200 53.44700 39.60700
H  27.98800 54.35800 36.40900
H  29.03600 52.95100 36.31500
H  29.93500 53.99800 34.38500
H  30.22200 55.45000 35.29200
H  37.11600 56.87200 38.16500
H  35.81100 55.71300 38.01500
H  36.53700 55.98800 39.57900
H  36.11100 61.36700 40.58000
H  36.90700 61.59700 38.95800
H  37.90800 61.03900 40.35100
H  32.65700 63.10100 38.19000
H  30.81000 63.24200 40.68900
H  34.37400 63.56800 39.86900
H  33.08600 63.50000 41.18000
H  33.13000 64.77900 39.97700
H  29.89900 64.00300 37.82600
H  31.00000 65.04400 38.57100
H  29.13000 65.15200 40.53900
H  28.19600 64.59700 39.13400
H  29.50300 66.07000 39.15900
H  25.05700 61.11000 37.74300
H  26.19800 62.03500 38.81000
H  25.03500 60.81800 39.44900
H  26.58600 55.73200 37.04900
H  24.90000 52.30200 39.07700
H  23.68400 53.49500 39.62100
H  25.19400 53.39200 40.38800
Mg 35.05400 49.81600 26.27600
C  35.43900 47.75500 28.98800
C  33.94800 52.26400 28.30200
C  34.05900 51.45400 23.53500
C  36.12800 47.13300 24.16100
N  34.68900 49.97200 28.41800
C  34.90600 48.97200 29.30700
C  34.76800 49.52600 30.74000
C  33.93300 50.83700 30.44500
C  34.14100 51.05000 28.97600
C  32.40500 50.92000 30.98800
C  36.20500 49.87200 31.29500
C  36.42400 49.44400 32.80500
H  36.33800 50.55600 33.88300
N  34.37000 51.73900 25.97200
C  34.00300 52.58900 26.91700
C  33.75500 53.94200 26.30800
C  33.65000 53.61100 24.90100
C  34.06800 52.19900 24.74400
C  33.59800 55.19400 27.08900
C  33.38600 54.58600 23.63300
O  33.42100 54.16900 22.47200
C  32.98800 56.08600 23.89500
N  35.01500 49.24200 24.14700
C  34.55100 50.13100 23.27700
C  34.62000 49.61300 21.82500
C  35.50100 48.26800 21.90100
C  35.61200 48.19700 23.47700
C  33.26700 49.35600 21.01400
C  36.98100 48.32700 21.36700
C  37.46600 47.00100 20.75000
N  35.61600 47.73500 26.44700
C  36.10000 46.84700 25.55100
C  36.47400 45.63500 26.26000
C  36.30300 45.97600 27.62000
C  35.71300 47.26000 27.68200
C  36.98200 44.38100 25.66700
C  36.35800 45.42600 28.94900
O  36.79900 44.38600 29.41400
C  35.86700 46.57500 29.86600
C  34.87900 46.12900 30.87600
O  33.81900 45.53900 30.60300
O  35.39700 46.26700 32.16100
C  34.70700 45.41500 33.17400
H  33.44100 53.08500 28.81300
H  33.57100 51.91800 22.67500
H  36.56300 46.44200 23.43600
H  34.11300 48.83700 31.27300
H  34.35900 51.71700 30.92600
H  31.65000 50.72500 30.22700
H  32.27100 51.99100 31.14400
H  32.19700 50.38100 31.91200
H  36.30700 50.94900 31.16200
H  36.93100 49.37600 30.65100
H  37.42700 49.02400 32.88400
H  35.72000 48.65200 33.05900
H  34.56200 55.69300 27.19200
H  33.38500 54.98400 28.13700
H  32.96600 55.93600 26.60200
H  32.00900 56.21600 24.35600
H  32.92200 56.62900 22.95200
H  33.78800 56.61200 24.41500
H  35.27700 50.17400 21.16100
H  34.86900 47.44600 21.56600
H  33.23700 48.37800 20.53500
H  33.33600 50.08900 20.21000
H  32.35700 49.48900 21.60000
H  37.72100 48.50000 22.14900
H  37.20700 49.12700 20.66200
H  37.67000 47.15000 19.69000
H  36.61900 46.31600 20.80700
H  38.36100 46.64800 21.26200
H  37.96700 44.62000 25.26500
H  36.38100 44.11900 24.79600
H  36.95000 43.53100 26.34900
H  36.77200 46.98800 30.31200
H  34.08800 44.65400 32.69900
H  34.03800 45.97400 33.82800
H  35.32200 44.85000 33.87400

