158

Mg 24.52400 2.10600 29.77300
C  26.53000 2.18800 32.61500
C  21.75000 2.02300 31.83200
C  22.48600 2.06500 26.99700
C  27.27500 1.63900 27.85400
N  24.19800 2.17300 32.04000
C  25.19700 2.24200 32.99700
C  24.57100 2.31500 34.38600
C  23.04200 2.17400 34.12200
C  22.94300 2.09300 32.57700
C  22.42200 1.07000 34.96000
C  25.06100 3.67100 35.04500
C  25.65600 3.62900 36.46300
H  25.27500 4.57400 37.59900
N  22.42000 2.03900 29.44000
C  21.49300 2.09900 30.45500
C  20.18100 2.01900 29.88000
C  20.35200 1.86700 28.48300
C  21.81300 2.05000 28.25300
C  18.85000 1.96800 30.67800
C  19.39400 1.50300 27.32700
O  19.75200 1.36200 26.18500
C  17.93200 1.21100 27.61600
N  24.80100 1.93600 27.68400
C  23.79800 1.97700 26.73500
C  24.37000 1.91100 25.29800
C  25.95700 1.96900 25.62700
C  26.07700 1.81600 27.16800
C  23.94900 0.63500 24.46700
C  26.80400 3.26300 25.16700
C  26.05600 4.61400 25.30800
N  26.53200 1.94400 30.08800
C  27.56100 1.75800 29.15900
C  28.77900 1.66800 29.88100
C  28.40200 1.78400 31.21700
C  27.02100 1.98400 31.33300
C  30.11000 1.56200 29.27300
C  28.97100 1.77300 32.59300
O  30.13500 1.66000 32.98800
C  27.79900 2.07900 33.54900
C  27.72900 1.06000 34.56100
O  27.53200 -0.16500 34.41600
O  28.32300 1.49300 35.66500
C  28.44100 0.51700 36.79700
H  20.93300 2.06500 32.55600
H  21.88200 2.10500 26.08800
H  28.16900 1.39200 27.27700
H  24.88800 1.44700 34.96400
H  22.40400 3.04700 34.25900
H  21.38600 1.33200 35.17600
H  22.99300 0.90700 35.87400
H  22.55800 0.16300 34.37100
H  24.17500 4.30400 35.09600
H  25.71900 4.27000 34.41600
H  26.72100 3.73500 36.25500
H  25.54500 2.57800 36.72900
H  18.96300 2.58800 31.56800
H  18.74400 1.00300 31.17500
H  17.92900 2.27600 30.18300
H  17.35300 1.87400 28.25900
H  17.75300 0.31900 28.21600
H  17.40000 1.02600 26.68200
H  23.92100 2.74400 24.75700
H  26.36500 1.06600 25.17100
H  23.22100 0.18000 25.13900
H  24.70900 -0.12400 24.28600
H  23.47800 0.94800 23.53500
H  27.11500 3.21400 24.12300
H  27.66900 3.24600 25.82900
H  25.67100 4.74500 26.32000
H  25.21400 4.64900 24.61600
H  26.75100 5.41400 25.05500
H  30.09500 1.93000 28.24800
H  30.36900 0.50300 29.26300
H  30.78600 2.07000 29.96100
H  28.05700 3.05900 33.95200
H  29.40100 0.03100 36.62200
H  27.65200 -0.23000 36.87500
H  28.45000 1.02600 37.76100
Mg -12.00100 38.23700 42.43400
C  -9.99200 35.54000 41.25600
C  -9.76100 40.33200 40.83400
C  -14.23500 40.67100 43.01500
C  -14.24200 35.86900 43.65000
N  -10.01500 37.93700 41.21700
C  -9.50100 36.78000 40.85200
C  -8.22000 36.96400 40.09200
C  -7.96700 38.48500 40.10300
C  -9.27500 39.00400 40.77800
C  -6.72800 38.92400 40.82100
C  -8.22200 36.27700 38.67200
C  -6.99200 35.41100 38.37800
H  -5.95300 35.91300 37.33500
N  -11.96900 40.27300 42.00700
C  -10.96500 40.93000 41.35000
C  -11.29500 42.32900 41.30700
C  -12.63500 42.44200 41.79700
C  -13.02900 41.12100 42.25900
C  -10.42100 43.33600 40.68800
C  -13.34800 43.72700 41.85000
O  -12.91600 44.74000 41.35800
C  -14.67600 43.88200 42.43100
N  -13.95500 38.25800 43.28800
C  -14.68400 39.40600 43.40800
C  -16.08000 39.09900 44.04400
C  -15.95700 37.61400 44.47300
C  -14.60300 37.19800 43.76500
C  -16.54700 40.12300 45.10800
C  -17.05400 36.61100 44.17700
C  -17.57300 35.72300 45.28600
N  -12.12200 36.08700 42.48100
C  -13.11100 35.29800 43.06000
C  -12.68700 33.88200 42.95200
C  -11.45100 33.87900 42.20400
C  -11.18200 35.27700 41.99900
C  -13.45700 32.66300 43.47000
C  -10.39400 33.08600 41.53600
O  -10.21300 31.90600 41.50100
C  -9.37600 34.16700 40.95500
C  -8.02500 33.88700 41.52100
O  -7.16400 33.24900 40.94700
O  -7.79000 34.61500 42.69200
C  -6.45000 34.54300 43.28200
H  -9.01700 41.04600 40.47300
H  -15.03900 41.37300 43.24700
H  -14.95900 35.09900 43.94000
H  -7.45400 36.45100 40.67200
H  -7.87700 38.90900 39.10200
H  -6.95100 39.78800 41.44700
H  -6.01500 39.29400 40.08400
H  -6.39600 38.14000 41.50200
H  -8.20800 37.06700 37.92100
H  -9.09800 35.68500 38.40800
H  -7.37900 34.41200 38.17300
H  -6.40400 35.27300 39.28500
H  -10.67100 43.44300 39.63300
H  -9.34800 43.20000 40.82500
H  -10.56000 44.33200 41.10800
H  -14.76300 43.47700 43.43900
H  -15.33800 43.32500 41.76900
H  -15.02000 44.91000 42.54700
H  -16.79000 39.20900 43.22400
H  -15.72600 37.53100 45.53500
H  -16.96000 39.63600 45.99100
H  -17.33300 40.75300 44.69100
H  -15.72100 40.75600 45.43400
H  -16.83300 35.98200 43.31400
H  -17.86800 37.19200 43.74500
H  -17.48700 34.64600 45.13800
H  -18.58500 36.04700 45.53000
H  -17.03100 35.93300 46.20800
H  -14.32400 32.44100 42.84700
H  -14.03600 32.89900 44.36200
H  -12.80000 31.81800 43.67300
H  -9.33300 34.00600 39.87800
H  -5.57900 34.34100 42.65800
H  -6.45800 33.75000 44.02900
H  -6.29300 35.48400 43.81000

