158

Mg 8.69400 3.68200 27.24100
C  10.12300 1.98900 29.85100
C  6.94400 5.61800 29.42100
C  7.15300 5.08900 24.63200
C  9.77800 1.15700 25.02200
N  8.52100 3.72000 29.45300
C  9.40700 3.05800 30.30500
C  9.22400 3.58500 31.63300
C  8.05600 4.70800 31.57200
C  7.81500 4.72300 30.05500
C  6.79100 4.29500 32.40500
C  10.56100 4.13200 32.21600
C  11.08500 3.63100 33.56500
H  10.97800 4.69300 34.74300
N  7.36900 5.30000 27.01900
C  6.66700 5.96200 28.06600
C  5.82000 6.96300 27.59400
C  5.95100 6.88500 26.16200
C  6.87700 5.74800 25.85600
C  4.97100 7.85500 28.42800
C  5.37400 7.86400 25.02600
O  5.75600 7.76100 23.85800
C  4.42500 8.98000 25.36900
N  8.41700 3.17300 25.17300
C  7.86900 4.02100 24.32400
C  8.02700 3.47600 22.78000
C  9.07900 2.32900 22.94800
C  9.04900 2.19200 24.44700
C  6.71600 3.03600 22.05200
C  10.48700 2.56000 22.38200
C  11.22200 1.36700 21.83800
N  9.70500 1.87300 27.33100
C  10.17700 0.95400 26.36900
C  11.00500 -0.02200 27.00700
C  11.05100 0.40100 28.40600
C  10.19700 1.51500 28.52500
C  11.80100 -1.11200 26.39900
C  11.62500 0.15300 29.65200
O  12.33600 -0.76400 30.07000
C  10.99700 1.09000 30.64300
C  10.37800 0.24200 31.75400
O  9.50700 -0.58200 31.68800
O  11.03300 0.50100 32.89100
C  10.53300 -0.05500 34.16300
H  6.41200 6.35400 30.02700
H  6.62300 5.50100 23.77100
H  10.10500 0.32400 24.39700
H  8.99500 2.71900 32.25400
H  8.28100 5.72900 31.88000
H  6.02100 3.98900 31.69800
H  6.48500 5.14100 33.02100
H  7.05000 3.42000 33.00100
H  10.39700 5.20900 32.22000
H  11.36500 3.95100 31.50200
H  12.16500 3.54600 33.44200
H  10.61000 2.72200 33.93300
H  5.00000 7.67000 29.50200
H  3.93100 7.76300 28.11400
H  5.37100 8.86400 28.33200
H  3.49000 8.59200 25.77300
H  4.13800 9.53400 24.47600
H  4.99200 9.66700 25.99900
H  8.59700 4.22300 22.22600
H  8.74300 1.39800 22.49100
H  5.87000 3.41300 22.62700
H  6.65300 1.94900 21.99500
H  6.69300 3.42700 21.03500
H  11.17600 2.82400 23.18500
H  10.45500 3.31100 21.59300
H  12.23900 1.34900 22.22800
H  11.34900 1.34300 20.75600
H  10.74700 0.42200 22.10400
H  11.40800 -1.46500 25.44600
H  11.90900 -1.96200 27.07300
H  12.81400 -0.71000 26.37000
H  11.75600 1.67100 31.16700
H  9.62400 0.41200 34.54200
H  11.25700 0.15000 34.95200
H  10.37100 -1.13300 34.13700
Mg 26.86100 49.50200 27.39800
C  24.86700 50.96800 29.92500
C  29.25200 48.80800 29.77800
C  28.79100 48.46300 24.91200
C  24.54200 50.74700 25.05900
N  26.97000 49.76900 29.56600
C  26.04700 50.35000 30.40900
C  26.55900 50.31400 31.89000
C  27.99600 49.79400 31.78800
C  28.08700 49.46700 30.26800
C  29.16500 50.72800 32.28500
C  25.62100 49.45100 32.90300
C  25.07000 50.32500 34.11200
H  24.99700 49.59300 35.43300
N  28.76000 48.61100 27.35300
C  29.50500 48.35000 28.44500
C  30.66900 47.62900 27.99300
C  30.65800 47.62800 26.60400
C  29.36400 48.23200 26.22900
C  31.66800 46.98100 28.91500
C  31.63800 47.15900 25.54400
O  31.48600 47.27700 24.32700
C  32.95900 46.70800 26.00100
N  26.80500 49.86000 25.24400
C  27.66900 49.24200 24.48600
C  27.27700 49.32200 23.03800
C  25.82300 49.94400 22.97700
C  25.64200 50.12200 24.52300
C  28.31800 49.92700 22.02500
C  24.73100 49.08600 22.24500
C  24.17600 47.82300 23.01700
N  25.13300 50.72200 27.40200
C  24.31700 51.14000 26.40300
C  23.19200 51.93000 26.93000
C  23.34000 51.88600 28.31600
C  24.55600 51.16700 28.57100
C  22.07000 52.66300 26.21400
C  22.73500 52.21600 29.55900
O  21.75900 52.87200 29.88200
C  23.63800 51.58500 30.66100
C  23.97200 52.61200 31.60700
O  24.93400 53.35600 31.61400
O  23.04300 52.56400 32.60800
C  23.31300 53.34600 33.79300
H  30.02300 48.55500 30.50900
H  29.37300 47.96700 24.13300
H  23.66500 51.06400 24.49200
H  26.58700 51.37600 32.13200
H  28.23100 48.90800 32.37900
H  29.60700 51.22000 31.41900
H  29.91200 50.07000 32.72900
H  28.94300 51.46900 33.05200
H  26.07800 48.57600 33.36500
H  24.79400 49.02500 32.33500
H  24.07900 50.65000 33.79600
H  25.63500 51.24200 34.28300
H  31.29800 47.05700 29.93700
H  32.70600 47.28800 28.78200
H  31.61200 45.90600 28.74500
H  33.28900 47.53000 26.63600
H  33.63100 46.59200 25.15100
H  32.88100 45.80500 26.60600
H  27.16400 48.31200 22.64500
H  25.73500 50.93600 22.53500
H  29.02200 50.56100 22.56400
H  27.90700 50.54600 21.22800
H  28.86000 49.11800 21.53600
H  25.11600 48.65700 21.32000
H  23.80400 49.63200 22.07100
H  23.33500 48.09400 23.65500
H  25.05300 47.54700 23.60200
H  23.92200 47.06500 22.27600
H  21.95600 52.07600 25.30200
H  22.37500 53.65900 25.89300
H  21.20400 52.54100 26.86400
H  23.13800 50.78900 31.21300
H  24.37400 53.43700 34.02700
H  22.75300 52.84600 34.58300
H  22.89400 54.35000 33.72300

