158

Mg 24.28000 -5.18200 46.52000
C  26.20200 -2.83100 44.71500
C  21.67600 -4.67700 44.33800
C  22.73700 -7.96000 47.79200
C  27.07400 -5.95600 48.48400
N  24.11800 -4.00100 44.64600
C  24.93100 -2.96400 44.23400
C  24.29900 -2.15000 43.07600
C  22.83100 -2.60400 43.20200
C  22.84600 -3.86400 44.08900
C  21.87900 -1.40900 43.76200
C  25.00600 -2.38700 41.71400
C  25.49600 -1.09500 41.11700
H  24.98700 -0.94200 39.66100
N  22.45800 -6.14600 46.20600
C  21.48100 -5.75600 45.26500
C  20.26300 -6.55800 45.37100
C  20.54800 -7.49100 46.39700
C  22.01700 -7.27300 46.83300
C  19.07100 -6.43700 44.48400
C  19.59400 -8.58900 46.86600
O  18.45600 -8.77900 46.41200
C  19.94600 -9.45500 47.98700
N  24.77800 -6.73900 47.95200
C  23.93200 -7.78300 48.29400
C  24.72300 -8.84700 49.07000
C  26.12800 -8.13900 49.42700
C  26.01800 -6.90100 48.53400
C  24.05200 -9.54300 50.27800
C  27.37300 -9.00800 49.28100
C  28.50500 -8.88200 50.25900
N  26.24500 -4.53600 46.71300
C  27.27400 -4.86100 47.57800
C  28.37100 -4.04300 47.36800
C  28.02500 -3.28600 46.21000
C  26.71000 -3.61000 45.82900
C  29.58400 -3.80600 48.23400
C  28.53400 -2.24100 45.33900
O  29.63700 -1.66800 45.39200
C  27.44300 -2.02600 44.21000
C  27.08700 -0.58100 44.33500
O  26.45100 -0.03300 45.24700
O  27.68500 0.07400 43.30400
C  27.80200 1.52900 43.40400
H  20.85100 -4.28200 43.74300
H  22.23200 -8.91000 47.98200
H  27.93800 -6.22100 49.09800
H  24.21900 -1.09300 43.33100
H  22.55100 -2.94300 42.20500
H  20.92200 -1.31500 43.24800
H  22.26600 -0.39100 43.77600
H  21.57100 -1.60600 44.78900
H  24.31100 -2.95300 41.09300
H  25.83200 -3.08000 41.87400
H  26.58600 -1.09200 41.09900
H  25.20200 -0.19800 41.66200
H  19.17500 -7.28500 43.80700
H  19.08100 -5.48800 43.94700
H  18.16500 -6.55400 45.07900
H  20.42200 -8.89400 48.79100
H  20.67800 -10.17100 47.61200
H  19.18400 -10.13900 48.36000
H  24.87800 -9.60500 48.30200
H  26.07600 -7.78600 50.45700
H  23.72900 -10.50900 49.89100
H  23.26300 -8.90500 50.67600
H  24.80600 -9.64800 51.05800
H  27.75500 -8.86800 48.26900
H  27.03600 -10.04500 49.29100
H  28.78900 -9.74600 50.86000
H  28.21600 -8.03000 50.87400
H  29.46000 -8.67300 49.77700
H  29.96200 -4.81000 48.42800
H  29.31000 -3.34300 49.18200
H  30.52100 -3.50500 47.76600
H  27.83500 -2.25100 43.21800
H  28.76700 1.71900 43.87500
H  26.95400 1.95500 43.94000
H  27.85800 1.87500 42.37100
Mg 41.44400 8.79900 30.11200
C  43.30900 10.13800 32.76800
C  39.11300 7.65400 32.49000
C  39.51000 7.67100 27.57600
C  43.96900 9.62600 27.89700
N  41.24700 8.74900 32.34400
C  42.12100 9.43700 33.22800
C  41.68600 9.29800 34.69700
C  40.42800 8.46800 34.57000
C  40.25200 8.24300 33.06100
C  40.39800 7.09900 35.45800
C  41.46800 10.71700 35.33500
C  40.39600 10.90500 36.36500
H  40.77400 11.99800 37.32800
N  39.50800 8.05600 30.00300
C  38.69300 7.54100 31.07000
C  37.48600 6.99200 30.59500
C  37.56700 7.15000 29.14400
C  38.88700 7.59800 28.82300
C  36.38000 6.28700 31.42500
C  36.49900 6.88100 28.09500
O  36.63000 6.94300 26.87800
C  35.11300 6.63200 28.54900
N  41.72500 8.53000 27.95600
C  40.83100 7.93000 27.13500
C  41.43500 7.91200 25.70900
C  42.69900 8.82100 25.76900
C  42.86400 8.90800 27.30700
C  41.65600 6.45000 25.23700
C  42.54700 10.20500 25.07000
C  41.27400 10.94800 25.39300
N  43.26400 9.58800 30.22700
C  44.23600 9.87300 29.27200
C  45.19500 10.77300 29.81700
C  44.89700 10.86500 31.14400
C  43.73300 10.14600 31.40000
C  46.38500 11.32000 29.01200
C  45.28500 11.60800 32.37200
O  46.15800 12.42200 32.52100
C  44.38100 11.06700 33.46800
C  45.17300 10.39000 34.47500
O  45.80100 9.37100 34.41500
O  45.11600 11.10500 35.61500
C  46.02400 10.80400 36.65900
H  38.24800 7.43900 33.12100
H  38.91100 7.27000 26.75600
H  44.71400 9.95700 27.17100
H  42.49700 8.87800 35.29200
H  39.57900 9.05300 34.92400
H  39.96400 7.37000 36.42000
H  41.39500 6.72700 35.69200
H  39.89800 6.29900 34.91300
H  41.31100 11.42500 34.52200
H  42.41300 10.95100 35.82500
H  40.18300 9.95100 36.84700
H  39.50200 11.24200 35.84000
H  36.75700 6.08700 32.42800
H  36.21600 5.30200 30.98800
H  35.42100 6.80300 31.47600
H  35.06500 5.63800 28.99200
H  34.29000 6.78500 27.85100
H  34.86600 7.40800 29.27400
H  40.72400 8.29200 24.97500
H  43.57400 8.37100 25.29900
H  40.86800 5.83100 25.66600
H  42.60500 6.02300 25.56200
H  41.50600 6.41000 24.15800
H  42.78100 10.17500 24.00500
H  43.33100 10.87500 25.42100
H  40.77100 10.41400 26.19900
H  40.67600 11.03100 24.48600
H  41.48400 11.92000 25.84000
H  46.79200 12.20300 29.50400
H  46.09100 11.53300 27.98400
H  47.15300 10.56900 28.82900
H  43.97500 12.02500 33.79000
H  45.57100 10.16900 37.42100
H  46.46300 11.62600 37.22400
H  46.91800 10.27600 36.32800

