158

Mg -1.70800 16.96500 26.28600
C  -2.23200 15.01800 29.08000
C  -1.95700 19.76100 28.16200
C  -1.87400 18.78500 23.31200
C  -1.89700 14.07300 24.23500
N  -2.21000 17.26700 28.35200
C  -2.34900 16.36100 29.33300
C  -2.70800 17.05200 30.74200
C  -2.50400 18.61600 30.36500
C  -2.16000 18.53100 28.85700
C  -3.71600 19.54400 30.69300
C  -1.75300 16.50700 31.87200
C  -1.49400 17.39100 33.11600
H  -1.25500 16.58100 34.42500
N  -1.73500 18.97600 25.80300
C  -1.97800 19.98500 26.70000
C  -2.18600 21.24600 25.99600
C  -2.19000 20.95300 24.60100
C  -1.86300 19.54500 24.51700
C  -2.41900 22.55800 26.66400
C  -2.54600 21.87600 23.47900
O  -2.52800 21.53200 22.30500
C  -3.17900 23.18300 23.75700
N  -1.75000 16.43600 24.02700
C  -1.85100 17.42500 23.05200
C  -1.84300 16.75700 21.64900
C  -1.69900 15.21600 21.90100
C  -1.81600 15.17800 23.44800
C  -3.02300 17.21600 20.74000
C  -0.53500 14.36700 21.28800
C  0.89800 14.74000 21.79700
N  -1.99300 15.00200 26.53600
C  -2.03200 14.00400 25.63600
C  -2.07100 12.74800 26.36600
C  -2.15000 13.06900 27.68600
C  -2.10700 14.49700 27.77100
C  -2.06700 11.34300 25.80000
C  -2.19600 12.52900 28.99900
O  -2.20800 11.36200 29.37600
C  -2.32000 13.76600 30.02900
C  -1.25100 13.56800 31.01300
O  -0.05000 13.70300 30.81100
O  -1.77000 13.02300 32.15600
C  -0.79600 12.73100 33.13300
H  -1.96800 20.62700 28.82700
H  -1.94300 19.34200 22.37600
H  -1.86800 13.17300 23.61800
H  -3.75500 16.86500 30.97900
H  -1.58600 19.02800 30.78500
H  -3.26600 20.38600 31.21900
H  -4.37500 19.08500 31.43100
H  -4.30800 19.88000 29.84200
H  -0.83600 16.23700 31.34700
H  -2.18900 15.61200 32.31600
H  -2.31500 18.08100 33.30900
H  -0.61100 18.00200 32.92300
H  -1.53300 23.17300 26.50600
H  -2.60000 22.37700 27.72400
H  -3.32100 23.06700 26.32400
H  -4.11500 22.99900 24.28500
H  -3.30300 23.65900 22.78500
H  -2.58900 23.86900 24.36500
H  -0.85300 16.92300 21.22500
H  -2.55400 14.69800 21.46800
H  -3.52100 17.84000 21.48200
H  -3.73000 16.45700 20.40400
H  -2.76400 17.89100 19.92500
H  -0.54100 14.81600 20.29400
H  -0.72300 13.29300 21.28500
H  1.52200 15.22600 21.04700
H  1.39000 13.93000 22.33500
H  0.95000 15.51600 22.56100
H  -1.61900 10.74700 26.59500
H  -1.56500 11.31100 24.83300
H  -3.09600 11.03600 25.61600
H  -3.21000 13.82600 30.65500
H  -0.33000 13.68700 33.37400
H  -0.00700 12.06400 32.78400
H  -1.19300 12.28300 34.04400
Mg 0.46100 42.75900 26.11200
C  2.78200 42.56300 28.74100
C  -1.99300 41.80800 28.32200
C  -1.68000 42.56200 23.44900
C  3.08600 43.45100 24.04700
N  0.44200 42.05500 28.20100
C  1.48400 42.28600 29.13600
C  0.96500 42.23100 30.60300
C  -0.47000 41.60800 30.39600
C  -0.78100 41.84200 28.87700
C  -0.59600 40.12900 30.81700
C  1.07200 43.63400 31.32400
C  1.00900 43.78200 32.91100
H  0.60900 42.49600 33.76200
N  -1.51900 42.27600 25.92400
C  -2.37600 42.00300 26.96300
C  -3.70600 41.90800 26.46000
C  -3.67000 42.06400 25.01500
C  -2.23800 42.27000 24.68600
C  -4.91000 41.68000 27.30100
C  -4.80600 42.02800 24.03000
O  -4.59500 42.16300 22.84300
C  -6.18300 41.77100 24.56100
N  0.68600 42.82500 24.00200
C  -0.31900 42.87000 23.11200
C  0.10700 43.27800 21.67300
C  1.62600 43.56200 21.91200
C  1.84200 43.21400 23.41000
C  -0.21000 42.14500 20.70600
C  2.08600 44.96900 21.56300
C  1.70700 46.02900 22.57800
N  2.53400 43.03800 26.32600
C  3.42500 43.24500 25.36600
C  4.77900 43.27400 25.89400
C  4.62200 42.99400 27.26200
C  3.19500 42.87200 27.42800
C  6.04700 43.31200 25.10800
C  5.23700 42.81400 28.50400
O  6.41700 42.80000 28.76800
C  4.07100 42.54000 29.52400
C  4.30300 41.28900 30.30700
O  3.84200 40.15600 30.06700
O  5.21800 41.51500 31.28900
C  5.68200 40.36100 32.10200
H  -2.71800 41.65700 29.12400
H  -2.32700 42.62700 22.57200
H  3.82900 43.82600 23.34000
H  1.65700 41.58300 31.14100
H  -1.26700 42.14100 30.91400
H  0.38400 39.67100 30.94900
H  -0.98200 39.66500 29.90900
H  -1.25400 39.87500 31.64800
H  0.31300 44.34300 30.99600
H  1.99300 44.12100 31.00400
H  0.34200 44.57900 33.24100
H  1.91800 44.18400 33.35800
H  -5.61500 42.51000 27.27500
H  -4.61100 41.36000 28.30000
H  -5.47200 40.87500 26.82700
H  -6.29200 40.72800 24.85800
H  -6.90900 41.88600 23.75600
H  -6.46200 42.38100 25.42000
H  -0.50400 44.11500 21.33700
H  2.25400 42.86500 21.35800
H  0.33700 42.18000 19.76300
H  -1.28500 41.97400 20.66700
H  0.15700 41.24400 21.19700
H  1.55000 45.13500 20.62800
H  3.17300 45.05200 21.57900
H  1.07000 45.55900 23.32700
H  1.19100 46.85200 22.08400
H  2.66000 46.39900 22.95800
H  6.84900 43.86400 25.60000
H  5.74600 43.70900 24.13900
H  6.45500 42.31900 24.92100
H  4.15900 43.33400 30.26600
H  4.89300 39.62200 32.23700
H  5.84100 40.71100 33.12200
H  6.60900 39.91600 31.73900

