158

Mg 40.51700 7.44900 29.22600
C  42.23100 8.94900 32.01400
C  38.65200 5.84700 31.43700
C  39.28900 5.95600 26.68000
C  43.03500 8.83700 27.23200
N  40.45000 7.50900 31.50300
C  41.12600 8.30000 32.40800
C  40.61800 8.00900 33.81500
C  39.66500 6.78600 33.61300
C  39.59200 6.66300 32.12600
C  39.85100 5.52200 34.47000
C  39.97100 9.23100 34.58900
C  40.02500 9.09100 36.10400
H  40.85600 10.13600 36.89700
N  39.06900 6.12500 29.05100
C  38.32200 5.64100 30.06200
C  37.39300 4.69500 29.49300
C  37.54100 4.67300 28.08300
C  38.63500 5.60800 27.85300
C  36.48200 3.93700 30.43800
C  36.85000 3.80700 27.04500
O  37.16100 3.75000 25.85700
C  35.62800 2.97800 27.59100
N  41.19500 7.24400 27.28900
C  40.36800 6.73300 26.36300
C  40.95400 6.81100 24.95800
C  41.94300 7.96400 25.14900
C  42.03200 8.05500 26.67800
C  41.59000 5.61400 24.33700
C  41.44500 9.31100 24.56100
C  40.37000 10.10100 25.35500
N  42.27100 8.59600 29.51500
C  43.17000 9.07700 28.56100
C  44.22000 9.93000 29.22600
C  43.78700 9.97900 30.54500
C  42.67900 9.12000 30.66000
C  45.36900 10.67800 28.56400
C  44.16300 10.47800 31.84600
O  45.13700 11.16300 32.16700
C  43.06800 9.90100 32.85700
C  43.80200 9.14500 33.95600
O  44.49800 8.15000 33.79200
O  43.77100 9.84500 35.20200
C  44.81100 9.48600 36.16700
H  38.14000 5.26200 32.20400
H  38.74900 5.53200 25.83100
H  43.60900 9.45000 26.53300
H  41.45000 7.54800 34.34800
H  38.67200 7.18400 33.82200
H  40.62100 5.61200 35.23700
H  40.06800 4.59400 33.94200
H  38.92800 5.28500 34.99800
H  38.91100 9.14000 34.35100
H  40.35600 10.19500 34.25600
H  40.47000 8.17600 36.49400
H  39.00300 8.87300 36.41400
H  36.43300 4.35400 31.44400
H  36.68900 2.86800 30.48700
H  35.44200 4.15800 30.19900
H  35.02300 2.52900 26.80300
H  34.93100 3.69000 28.03200
H  35.99700 2.16400 28.21500
H  40.16300 7.12400 24.27700
H  42.89400 7.72700 24.67300
H  40.75700 4.91000 24.34600
H  42.35400 5.25600 25.02700
H  42.03600 5.70600 23.34600
H  40.90700 9.09200 23.63900
H  42.22600 10.05600 24.41000
H  39.57700 10.35100 24.65000
H  40.78700 11.02600 25.75500
H  39.90600 9.48300 26.12300
H  45.60500 11.48900 29.25300
H  44.94900 11.03800 27.62500
H  46.15000 9.91700 28.53300
H  42.47300 10.69900 33.30100
H  44.59200 8.49500 36.56400
H  44.84500 10.28300 36.90900
H  45.74200 9.36500 35.61400
Mg 7.08500 54.16600 40.21000
C  6.73300 50.69500 39.92000
C  10.31600 53.85200 39.20000
C  7.11200 57.44000 39.44100
C  3.70200 54.31200 41.00100
N  8.34200 52.45200 39.62200
C  8.02300 51.14700 39.57700
C  9.40300 50.32700 39.40000
C  10.39900 51.43400 39.56200
C  9.57400 52.65600 39.42300
C  11.05300 51.33100 41.00900
C  9.49800 49.49700 38.09500
C  9.29700 50.39200 36.88100
H  7.86000 50.67400 36.38800
N  8.55000 55.52700 39.61300
C  9.82200 55.16400 39.29300
C  10.62000 56.32100 39.00100
C  9.68500 57.40400 38.88100
C  8.36800 56.85900 39.36300
C  12.09900 56.35500 38.81200
C  10.09200 58.90300 38.52300
O  11.35600 59.13100 38.39700
C  9.19500 59.99100 38.49000
N  5.56200 55.56700 39.99000
C  5.86200 56.90300 39.82400
C  4.62600 57.82400 40.00800
C  3.50400 56.80500 40.51400
C  4.31700 55.46200 40.57400
C  4.87300 59.09600 41.00400
C  2.22900 56.80900 39.68600
C  0.94300 56.45400 40.38700
N  5.49900 52.75800 40.50800
C  4.22200 53.02100 40.92100
C  3.59000 51.78900 41.24700
C  4.49500 50.82600 40.74600
C  5.64600 51.50500 40.24100
C  2.28200 51.56100 41.87900
C  4.68900 49.40500 40.64300
O  3.94000 48.51900 40.94900
C  6.12200 49.28000 40.12000
C  6.11100 48.52400 38.87000
O  5.69400 48.91100 37.77200
O  6.71700 47.33800 39.00000
C  6.71600 46.45000 37.82900
H  11.32600 53.71400 38.80800
H  7.08800 58.52000 39.28400
H  2.70100 54.38100 41.43000
H  9.44900 49.60000 40.21100
H  11.18600 51.34400 38.81400
H  10.77200 50.41000 41.52100
H  10.91300 52.16300 41.69900
H  12.12100 51.15200 40.88900
H  8.75900 48.69600 38.10900
H  10.50900 49.10400 37.98700
H  9.88600 50.05300 36.02900
H  9.57100 51.41200 37.15100
H  12.20400 56.42400 37.72900
H  12.58000 55.41000 39.06400
H  12.52800 57.17600 39.38700
H  8.36700 59.66100 37.86200
H  9.68300 60.82200 37.98100
H  8.77000 60.14100 39.48300
H  4.41100 58.09800 38.97500
H  3.23100 56.95100 41.55900
H  4.23700 59.13600 41.88800
H  4.62800 60.04200 40.52200
H  5.92400 59.14700 41.29100
H  2.47800 56.01100 38.98600
H  2.16200 57.75900 39.15600
H  0.50700 55.55000 39.96200
H  0.28300 57.31200 40.26300
H  1.05300 56.37000 41.46800
H  1.46800 51.99500 41.29800
H  2.30200 51.92400 42.90700
H  2.00800 50.52600 42.08300
H  6.89500 48.87900 40.77600
H  6.22800 45.50300 38.05900
H  7.73100 46.19200 37.52500
H  6.39100 46.90700 36.89500

