158

Mg 50.01900 47.34300 43.37500
C  46.50600 47.69600 42.95500
C  49.91200 44.52500 41.67400
C  53.35100 47.29200 43.37300
C  50.06200 50.56200 44.84300
N  48.35400 46.41200 42.22800
C  47.03000 46.60000 42.28700
C  46.19700 45.50000 41.64500
C  47.24700 44.33100 41.50000
C  48.59700 45.12600 41.77500
C  47.04600 43.16800 42.56500
C  45.62600 45.92500 40.27000
C  44.24300 45.29000 39.96400
H  43.85800 45.07600 38.55300
N  51.50200 46.05400 42.56900
C  51.21600 44.89100 41.99900
C  52.40600 44.15500 41.77300
C  53.53100 44.97600 42.11800
C  52.84000 46.17400 42.76400
C  52.51300 42.86200 41.15600
C  54.96200 44.60900 42.09500
O  55.26700 43.56000 41.63000
C  56.12100 45.37200 42.50200
N  51.52600 48.73600 43.95700
C  52.83900 48.39300 43.98200
C  53.72200 49.42100 44.68200
C  52.66900 50.44400 45.13700
C  51.32400 49.89800 44.54900
C  54.71700 48.90600 45.74200
C  53.07300 51.89900 44.77300
C  54.03000 52.56500 45.80800
N  48.57700 48.87400 43.90800
C  48.78000 50.11400 44.44700
C  47.44700 50.70000 44.58300
C  46.53500 49.77300 44.09300
C  47.28400 48.70600 43.62700
C  47.07600 51.92600 45.29100
C  45.10600 49.43700 43.92400
O  44.04800 50.00900 44.23500
C  45.03300 48.08000 43.12900
C  44.40100 46.99600 43.99800
O  44.74600 46.60700 45.05300
O  43.25600 46.48000 43.36500
C  42.42100 45.55300 44.00200
H  49.86300 43.45800 41.44700
H  54.43400 47.15600 43.40600
H  50.19800 51.49200 45.39800
H  45.34500 45.34100 42.30600
H  47.32500 43.99600 40.46600
H  47.23800 42.21600 42.07000
H  45.97700 43.06700 42.75200
H  47.55300 43.38000 43.50600
H  46.31400 45.65300 39.47000
H  45.52800 47.00900 40.21300
H  43.50100 46.04500 40.22400
H  44.18400 44.35800 40.52700
H  53.06100 42.94100 40.21700
H  51.57700 42.46900 40.75900
H  52.91700 42.00800 41.69900
H  56.16900 46.34300 42.00900
H  56.99000 44.79700 42.18400
H  56.06300 45.70200 43.53900
H  54.25200 49.89700 43.85800
H  52.57800 50.36700 46.22100
H  55.73100 48.89800 45.34100
H  54.33300 47.93900 46.06700
H  54.70300 49.45900 46.68200
H  52.10800 52.40200 44.84600
H  53.55600 52.01900 43.80400
H  53.70600 53.56900 46.07900
H  54.96800 52.65600 45.26200
H  54.34300 51.89300 46.60700
H  46.78900 51.73100 46.32500
H  46.18900 52.26700 44.75700
H  47.92000 52.61500 45.26800
H  44.62300 48.23200 42.13100
H  42.43600 45.54500 45.09200
H  42.63000 44.53800 43.66300
H  41.39500 45.73600 43.68200
Mg 26.44100 49.11600 26.91300
C  24.35600 50.27900 29.48500
C  28.81400 48.38800 29.27900
C  28.50100 48.23700 24.42200
C  24.06600 50.43900 24.58400
N  26.56200 49.28400 29.15300
C  25.55100 49.65300 29.96700
C  25.91700 49.40900 31.44500
C  27.44900 49.01000 31.40000
C  27.64800 48.85700 29.83800
C  28.39600 50.04300 32.07400
C  25.07600 48.26000 32.12600
C  24.72800 48.18200 33.64800
H  25.55200 49.02100 34.58400
N  28.38400 48.36600 26.83000
C  29.18600 48.12500 27.91300
C  30.46100 47.60900 27.46700
C  30.42700 47.66500 26.02800
C  29.02600 48.10500 25.68100
C  31.47700 46.98000 28.43900
C  31.46500 47.26800 25.00500
O  31.28800 47.48400 23.81100
C  32.68500 46.73200 25.57100
N  26.26800 49.36200 24.82000
C  27.21100 48.76200 24.04600
C  26.66000 48.77500 22.62700
C  25.22900 49.40800 22.67100
C  25.14600 49.73800 24.11300
C  27.58600 49.47300 21.59000
C  23.99900 48.44200 22.28900
C  22.92000 49.19000 21.42600
N  24.63700 50.20900 26.95000
C  23.79300 50.65200 25.95800
C  22.75900 51.42900 26.52300
C  22.95400 51.33300 27.92700
C  24.11100 50.59200 28.13100
C  21.68900 52.29900 25.76000
C  22.39700 51.71100 29.18100
O  21.48900 52.49100 29.45400
C  23.24700 50.92200 30.32600
C  23.77400 51.89900 31.35900
O  24.72500 52.62100 31.24300
O  23.08700 51.62300 32.53300
C  23.17400 52.73600 33.39300
H  29.55500 48.22300 30.06300
H  28.98200 47.65800 23.63000
H  23.38500 50.85400 23.83800
H  25.78600 50.34500 31.98700
H  27.62400 48.01500 31.80700
H  29.07300 50.44200 31.31800
H  29.04500 49.51400 32.77200
H  27.94100 50.76800 32.74900
H  25.65400 47.35200 31.95500
H  24.14700 48.32700 31.56000
H  24.83100 47.15500 33.99800
H  23.69200 48.47400 33.82000
H  31.37100 47.20200 29.50100
H  32.48100 47.34700 28.22800
H  31.59200 45.89700 28.38800
H  33.20000 46.51400 24.63500
H  32.56300 45.74100 26.00800
H  33.09100 47.44200 26.29100
H  26.57300 47.72700 22.33900
H  25.35800 50.36700 22.17000
H  28.44700 49.92100 22.08600
H  27.19300 50.26200 20.94900
H  27.83400 48.79600 20.77300
H  23.51700 48.08300 23.19800
H  24.24900 47.61000 21.63100
H  23.30600 50.18300 21.19800
H  21.97400 49.24500 21.96600
H  22.72800 48.57500 20.54600
H  22.15300 52.46400 24.78800
H  21.66300 53.24900 26.29300
H  20.79600 51.68000 25.67100
H  22.71700 50.09000 30.79100
H  23.42500 53.72000 32.99600
H  23.77400 52.46600 34.26200
H  22.17000 52.95700 33.75400

