158

Mg 43.38200 3.31400 47.20000
C  41.31800 5.97600 46.59900
C  40.60600 1.29100 47.35900
C  45.48300 0.73800 47.52400
C  46.20600 5.55400 46.86600
N  41.22100 3.57700 46.85700
C  40.63000 4.74700 46.59400
C  39.15200 4.61400 46.63100
C  38.91000 3.16700 47.20900
C  40.29800 2.64700 47.17300
C  38.38800 3.15800 48.71600
C  38.53900 4.85300 45.22100
C  37.26200 5.79400 45.06900
H  36.76800 6.12000 43.70500
N  43.03000 1.24600 47.14100
C  41.84900 0.63600 47.26800
C  42.03900 -0.79200 47.25200
C  43.48600 -0.94300 47.27300
C  44.10800 0.41800 47.30500
C  40.98900 -1.94100 47.26000
C  44.24100 -2.29200 47.14200
O  43.56000 -3.35500 46.91700
C  45.76900 -2.41900 47.18100
N  45.52200 3.11400 47.09400
C  46.14800 1.92300 47.42500
C  47.68200 2.07700 47.56100
C  47.91900 3.64500 47.29400
C  46.48900 4.18500 47.06700
C  48.26200 1.68000 48.98600
C  48.92200 3.95500 46.15000
C  50.35300 4.50500 46.41900
N  43.71700 5.36300 46.92800
C  44.88500 6.13000 46.80300
C  44.47100 7.54900 46.66200
C  43.08000 7.49200 46.58700
C  42.67900 6.14600 46.72700
C  45.38800 8.70600 46.40100
C  41.84400 8.33300 46.40000
O  41.70800 9.50200 45.97500
C  40.65600 7.33500 46.53800
C  39.86200 7.85900 47.74100
O  39.93400 7.39400 48.87500
O  39.08000 8.93300 47.42700
C  38.19900 9.54000 48.45200
H  39.85400 0.56700 47.68200
H  46.22200 0.01500 47.87500
H  47.11500 6.15900 46.84200
H  38.62500 5.36000 47.22600
H  38.26100 2.54500 46.59200
H  38.04400 4.14600 49.02500
H  39.09600 2.68200 49.39400
H  37.52700 2.49000 48.73900
H  38.21100 3.86600 44.89400
H  39.28100 5.05600 44.44800
H  37.53100 6.67100 45.65800
H  36.49400 5.32900 45.68700
H  40.92100 -2.36200 46.25600
H  39.99900 -1.50600 47.39100
H  41.17500 -2.76600 47.94800
H  46.19200 -1.77300 46.41100
H  46.14300 -3.43700 47.08200
H  46.10900 -2.28200 48.20800
H  48.23600 1.53800 46.79300
H  48.30200 4.23100 48.13000
H  47.68700 0.89400 49.47500
H  48.25900 2.47600 49.73100
H  49.31000 1.38000 48.96200
H  48.58400 4.69700 45.42800
H  49.15100 3.06800 45.56000
H  50.46700 4.64500 47.49400
H  50.44300 5.43000 45.84900
H  51.14000 3.89600 45.97600
H  44.80500 9.61600 46.54000
H  45.74500 8.56100 45.38100
H  46.27000 8.63000 47.03700
H  40.03100 7.50200 45.66000
H  38.56900 9.27800 49.44300
H  37.21900 9.14000 48.19000
H  38.16900 10.62700 48.37700
Mg 36.63600 50.50300 25.32100
C  36.41000 48.68600 28.30700
C  35.39900 53.27600 26.96600
C  36.46800 52.07300 22.32800
C  37.16400 47.40600 23.61600
N  35.96200 50.88500 27.43200
C  36.11000 50.02100 28.52200
C  35.80900 50.76000 29.81400
C  35.26300 52.19100 29.33500
C  35.59000 52.13400 27.83400
C  33.83900 52.60900 29.69100
C  37.12900 50.79700 30.64200
C  36.94100 50.55200 32.13800
H  35.51400 50.46200 32.77000
N  36.05300 52.41200 24.68300
C  35.64000 53.42900 25.61400
C  35.50800 54.62900 24.85800
C  35.65500 54.31100 23.40000
C  36.04900 52.86200 23.36700
C  35.22200 55.91200 25.57200
C  35.63900 55.16800 22.07800
O  35.88400 54.77500 20.97000
C  35.29000 56.61100 22.11100
N  36.67800 49.85600 23.31600
C  36.73000 50.72200 22.24700
C  37.19500 50.05900 20.92200
C  37.63700 48.60800 21.46500
C  37.23500 48.60800 22.94300
C  36.23000 49.99400 19.75700
C  39.17100 48.32400 21.29500
C  40.20100 48.82100 22.30600
N  36.81600 48.45900 25.79400
C  36.99600 47.31600 25.00700
C  37.15400 46.22700 25.81300
C  36.91100 46.73500 27.10400
C  36.66400 48.11900 27.06900
C  37.56400 44.79200 25.38400
C  36.87200 46.34200 28.49900
O  37.06500 45.24100 29.01500
C  36.52600 47.67000 29.37100
C  35.27300 47.28900 30.17100
O  34.12500 47.53300 29.83600
O  35.63900 46.38400 31.10600
C  34.57500 45.96200 32.01200
H  35.04600 54.17300 27.47700
H  36.74100 52.50500 21.36300
H  37.34800 46.46900 23.08600
H  34.99800 50.22100 30.30400
H  35.97100 52.91400 29.74000
H  33.37400 52.61500 28.70500
H  33.70700 53.60200 30.12200
H  33.47800 51.84400 30.37800
H  37.56200 51.76600 30.39200
H  37.89900 50.14900 30.22200
H  37.35100 51.44200 32.61600
H  37.54100 49.71400 32.49400
H  35.99300 56.17500 26.29600
H  34.26600 55.83400 26.09000
H  35.17800 56.70300 24.82300
H  35.38100 57.05200 21.11900
H  35.95100 57.12300 22.81100
H  34.31800 56.77800 22.57600
H  38.08800 50.67600 20.81600
H  37.00100 47.86400 20.98600
H  35.21200 50.05600 20.14200
H  36.32400 49.10300 19.13600
H  36.49200 50.86100 19.15000
H  39.42300 48.66600 20.29100
H  39.19100 47.24100 21.17900
H  40.89900 47.98500 22.34000
H  39.75300 48.97300 23.28800
H  40.64200 49.77400 22.01300
H  36.85600 43.97000 25.48100
H  38.44700 44.60700 25.99500
H  37.93300 44.85700 24.36000
H  37.35300 47.82100 30.06600
H  34.91300 45.39000 32.87600
H  33.87300 45.30300 31.50200
H  34.12600 46.86200 32.43400

