158

Mg 41.54200 40.65600 27.68500
C  40.87200 43.28800 29.84200
C  42.72200 38.71700 30.36300
C  42.31300 38.20200 25.50400
C  40.74000 42.70800 24.98900
N  41.78900 41.02500 29.80900
C  41.36600 42.16700 30.51600
C  41.40700 41.90500 32.01900
C  42.34000 40.61400 32.15800
C  42.29000 40.02700 30.66400
C  43.75900 40.82200 32.54900
C  39.93400 41.84100 32.57100
C  39.39600 42.88600 33.64800
H  38.97900 42.29200 35.00800
N  42.30900 38.74200 27.86500
C  42.73600 38.14600 29.07300
C  43.32200 36.83400 28.70900
C  43.06300 36.58000 27.31300
C  42.59900 37.89400 26.80400
C  43.90300 35.94900 29.75100
C  43.35700 35.35000 26.57800
O  42.99100 35.07600 25.40000
C  43.98000 34.15300 27.24400
N  41.48400 40.51300 25.55300
C  41.81700 39.33100 24.88700
C  41.60100 39.45400 23.31200
C  41.02600 40.82100 23.22100
C  41.05000 41.38400 24.65000
C  42.92100 39.23500 22.54000
C  39.62000 40.89100 22.55000
C  38.48000 40.33500 23.42500
N  41.00300 42.58400 27.39200
C  40.77200 43.33500 26.25500
C  40.40300 44.74000 26.58100
C  40.41900 44.72800 28.01700
C  40.79500 43.37000 28.44100
C  40.09200 45.77900 25.55000
C  40.23000 45.54400 29.17300
O  39.89300 46.72800 29.30500
C  40.47700 44.58700 30.42900
C  41.51800 45.21600 31.22000
O  42.70000 45.17000 30.93500
O  40.98400 45.69700 32.38600
C  41.99800 46.18700 33.34900
H  43.17500 38.15600 31.18300
H  42.52000 37.36300 24.83600
H  40.43900 43.39800 24.19800
H  41.85000 42.74700 32.55100
H  41.89300 39.79100 32.71700
H  44.04000 41.84900 32.31900
H  44.34400 40.07300 32.01500
H  43.90900 40.60300 33.60600
H  39.75600 40.86300 33.01800
H  39.34100 41.77700 31.65900
H  38.50900 43.38400 33.25800
H  40.18000 43.62800 33.79700
H  43.36900 35.04900 30.05700
H  44.35400 36.40200 30.63300
H  44.72700 35.38300 29.31600
H  43.38300 33.82700 28.09600
H  44.99800 34.41800 27.52900
H  44.03700 33.38100 26.47700
H  40.83800 38.71000 23.08100
H  41.66100 41.48500 22.63400
H  43.68900 39.86100 22.99400
H  42.76100 39.54300 21.50600
H  43.23900 38.19300 22.49200
H  39.69500 40.28500 21.64700
H  39.37200 41.92600 22.31900
H  37.69900 41.06000 23.65300
H  38.74200 39.78500 24.32800
H  37.98300 39.59400 22.79800
H  40.15900 46.78300 25.96800
H  39.06600 45.76700 25.18000
H  40.75500 45.59200 24.70500
H  39.58900 44.42800 31.04100
H  42.45100 45.34400 33.87200
H  41.64500 46.85700 34.13200
H  42.77900 46.78100 32.87500
Mg 35.52200 48.00000 26.22000
C  35.79900 46.34500 29.30900
C  34.11900 50.68600 27.83100
C  34.93000 49.25500 23.18300
C  36.41000 44.83600 24.73100
N  35.00800 48.48400 28.30900
C  35.33600 47.70100 29.40000
C  35.07900 48.46700 30.71000
C  34.11100 49.60500 30.23000
C  34.50600 49.69200 28.72700
C  32.53100 49.37900 30.31300
C  36.48300 48.94400 31.26800
C  36.61600 48.85400 32.81700
H  35.75200 49.87600 33.74700
N  34.72600 49.80300 25.59100
C  34.16400 50.78200 26.40100
C  33.69300 51.89100 25.63700
C  34.00100 51.51000 24.24000
C  34.59100 50.15400 24.29200
C  33.13000 53.19800 26.18400
C  33.70300 52.22000 22.99000
O  34.07000 51.72200 21.94600
C  32.82400 53.50100 22.98300
N  35.57300 47.12200 24.25500
C  35.42700 47.90000 23.14100
C  35.72200 47.17500 21.82800
C  36.22100 45.78600 22.34400
C  36.05700 45.85900 23.84600
C  34.41200 47.16200 20.86000
C  37.71400 45.49500 22.00900
C  38.07900 45.39300 20.47500
N  36.03100 45.98000 26.89000
C  36.44600 44.90900 26.12600
C  36.83000 43.83600 26.99600
C  36.58200 44.37600 28.31300
C  36.02700 45.64400 28.19300
C  37.41000 42.49200 26.54300
C  36.77400 44.13000 29.77400
O  37.28100 43.29000 30.51500
C  36.24600 45.45000 30.40000
C  35.19000 44.97900 31.32300
O  34.25800 44.29600 30.97700
O  35.60900 45.24800 32.65300
C  34.52200 44.84200 33.62600
H  33.62300 51.49300 28.37500
H  34.94800 49.59900 22.14600
H  36.71500 43.91800 24.22500
H  34.46600 48.05900 31.51300
H  34.31300 50.57100 30.69100
H  32.26700 48.59600 31.02400
H  31.99600 49.15500 29.39000
H  32.00300 50.25600 30.68600
H  36.64900 49.99500 31.03000
H  37.26600 48.33100 30.82200
H  37.66300 49.07100 33.02900
H  36.28200 47.88500 33.18800
H  34.00600 53.80300 25.95200
H  32.96400 53.22200 27.26200
H  32.30600 53.65600 25.63700
H  31.80600 53.17100 23.19100
H  32.65600 53.87400 21.97300
H  33.17400 54.33100 23.59600
H  36.54400 47.68700 21.32600
H  35.60400 44.99000 21.92800
H  34.24800 46.12300 20.57400
H  34.58800 47.79200 19.98800
H  33.51300 47.41100 21.42500
H  38.09800 44.63200 22.55400
H  38.23000 46.35600 22.43400
H  37.14600 45.56900 19.94000
H  38.69700 44.51300 20.29600
H  38.61500 46.34000 20.41700
H  37.85300 42.54100 25.54900
H  36.61700 41.75900 26.68600
H  38.18500 42.27200 27.27800
H  37.09500 45.81700 30.97600
H  34.57700 43.76700 33.79900
H  33.48900 44.96300 33.29800
H  34.57400 45.56000 34.44400

