158

Mg 0.05700 7.45100 26.21100
C  0.64000 9.78400 28.90800
C  -0.42700 5.07300 28.49500
C  -0.14100 5.28000 23.72700
C  0.82200 10.03700 23.90200
N  -0.01300 7.46800 28.46800
C  0.20600 8.51300 29.37400
C  0.03900 7.96900 30.84400
C  0.10100 6.45600 30.56800
C  -0.15300 6.29700 29.12100
C  1.48000 5.82100 31.00700
C  -1.23500 8.50400 31.35200
C  -1.11500 8.93400 32.75300
H  -0.24100 8.04300 33.72100
N  -0.34500 5.47500 26.14200
C  -0.56400 4.63300 27.19600
C  -0.91500 3.33700 26.65700
C  -0.97100 3.44300 25.21400
C  -0.40200 4.76300 24.99100
C  -1.09300 2.10600 27.61200
C  -1.49300 2.46500 24.10500
O  -1.49100 2.63500 22.87200
C  -1.96100 1.05600 24.62300
N  0.21300 7.71400 24.09100
C  0.07700 6.65600 23.26000
C  0.04400 7.02200 21.84300
C  0.37300 8.53500 21.88700
C  0.37700 8.85200 23.40500
C  0.88600 6.26700 20.72700
C  -0.59800 9.41900 21.14400
C  -0.11400 10.28900 19.98000
N  0.71200 9.47700 26.34100
C  1.06500 10.37800 25.30200
C  1.50000 11.62200 25.97400
C  1.25500 11.45400 27.37300
C  0.78500 10.13000 27.53500
C  2.02400 12.84600 25.35300
C  1.29800 12.14500 28.66100
O  1.58500 13.31000 28.89000
C  0.86400 11.03600 29.71900
C  1.92000 10.93100 30.80000
O  2.94100 10.28100 30.71800
O  1.59000 11.72200 31.83400
C  2.62600 11.93200 32.88700
H  -0.52400 4.32000 29.27900
H  -0.21200 4.63500 22.84800
H  1.11500 10.79200 23.17000
H  0.89000 8.30200 31.43900
H  -0.64800 5.91000 31.14000
H  1.11700 5.08600 31.72400
H  2.09300 6.62500 31.41500
H  1.89800 5.37800 30.10300
H  -1.91200 7.65000 31.31800
H  -1.57100 9.26900 30.65300
H  -2.07800 8.72100 33.21700
H  -0.93900 10.00900 32.76000
H  -2.00700 1.65000 27.23100
H  -1.20400 2.57000 28.59200
H  -0.26300 1.40400 27.53600
H  -2.48400 0.61000 23.77700
H  -2.77700 1.22400 25.32600
H  -1.08800 0.55100 25.03700
H  -1.00500 6.82600 21.62500
H  1.42300 8.65600 21.62000
H  0.18300 5.68500 20.13100
H  1.58700 5.58400 21.20700
H  1.47900 6.95500 20.12600
H  -0.92900 10.15600 21.87500
H  -1.52000 8.93900 20.81700
H  -0.89300 10.37600 19.22300
H  0.90000 10.07400 19.64300
H  -0.02700 11.30500 20.36600
H  2.79700 12.55700 24.64100
H  2.37000 13.58400 26.07600
H  1.23400 13.32700 24.77700
H  -0.03700 11.28500 30.28000
H  2.57700 11.11900 33.61100
H  2.36500 12.84300 33.42400
H  3.66600 12.05200 32.58500
Mg 8.15700 2.32800 28.54200
C  9.65600 0.87900 31.44100
C  6.32000 4.38600 30.68800
C  6.69800 3.48800 25.95700
C  9.59100 -0.33900 26.69400
N  8.00100 2.60900 30.80800
C  8.81900 2.03400 31.76000
C  8.48800 2.59600 33.17000
C  7.29600 3.58300 32.90400
C  7.22400 3.57000 31.34900
C  6.07600 3.16100 33.59500
C  9.68000 3.13600 33.82800
C  10.11100 2.60000 35.15900
H  10.71200 3.52800 36.16700
N  6.60000 3.72100 28.28300
C  6.00300 4.48300 29.32700
C  5.15100 5.42800 28.65400
C  5.23800 5.26200 27.20400
C  6.15800 4.11400 27.08300
C  4.25800 6.34700 29.27300
C  4.71200 5.97700 26.09900
O  4.95200 5.64300 24.94900
C  3.84400 7.26300 26.29000
N  8.12100 1.62300 26.59800
C  7.53800 2.40100 25.69800
C  7.64800 1.73000 24.24700
C  8.73000 0.68800 24.50700
C  8.82600 0.66100 25.99900
C  6.30200 1.22400 23.66100
C  10.14300 1.06400 23.81500
C  11.34500 1.66000 24.70100
N  9.41300 0.60400 28.94900
C  9.88600 -0.37200 28.11100
C  10.73900 -1.22000 28.78600
C  10.70000 -0.78600 30.17300
C  9.86200 0.33600 30.18600
C  11.71900 -2.25800 28.17400
C  11.13800 -1.05800 31.50700
O  11.77600 -2.03800 31.89600
C  10.53600 0.04100 32.42400
C  9.74300 -0.69700 33.44500
O  8.60300 -1.13100 33.26100
O  10.39300 -0.67800 34.67400
C  9.66400 -1.07700 35.92600
H  5.74700 5.02000 31.36800
H  6.30300 3.77000 24.97900
H  9.96600 -1.07800 25.98200
H  8.09300 1.77200 33.76300
H  7.68800 4.54400 33.23900
H  5.50500 2.45100 32.99600
H  5.27800 3.90200 33.63000
H  6.27400 2.85600 34.62300
H  9.64400 4.22000 33.93700
H  10.50800 2.95100 33.14400
H  10.85700 1.84500 34.91200
H  9.29600 2.05300 35.63400
H  4.65100 7.33200 29.02200
H  4.12600 6.12200 30.33100
H  3.33500 6.13500 28.73300
H  2.82000 7.03300 26.58700
H  3.90300 7.69700 25.29200
H  4.30100 7.97400 26.97800
H  8.05400 2.50600 23.59800
H  8.35000 -0.25300 24.10900
H  5.48400 1.20500 24.38000
H  6.38900 0.18800 23.33600
H  5.98100 1.73600 22.75400
H  10.00400 1.71700 22.95300
H  10.39200 0.13000 23.31300
H  10.91400 1.75200 25.69800
H  11.53700 2.67300 24.34500
H  12.21300 1.00200 24.67000
H  12.34900 -1.82200 27.39800
H  11.24300 -3.12300 27.71300
H  12.34400 -2.52700 29.02600
H  11.35200 0.63100 32.84100
H  8.85300 -0.37900 36.13900
H  10.37300 -1.09900 36.75300
H  9.17400 -2.05000 35.90800

