158

Mg -1.96900 18.12500 26.94100
C  -2.56700 16.11900 29.57900
C  -2.56600 20.86800 28.95200
C  -2.08000 20.02600 24.17200
C  -2.00900 15.24600 24.74000
N  -2.49700 18.39800 28.99800
C  -2.59000 17.44100 29.94700
C  -2.73100 18.02600 31.41000
C  -3.18600 19.50800 30.99300
C  -2.67600 19.59300 29.55700
C  -4.65400 19.82400 31.29000
C  -1.42500 17.94500 32.24200
C  -1.70900 17.25300 33.58200
H  -0.52900 17.05700 34.53800
N  -2.14000 20.17500 26.63500
C  -2.28400 21.17600 27.58500
C  -2.35600 22.45600 26.94800
C  -2.12900 22.19700 25.49200
C  -2.07300 20.76000 25.37100
C  -2.80700 23.67200 27.69900
C  -2.01200 23.30700 24.35500
O  -1.88200 22.98800 23.20900
C  -1.71100 24.67600 24.70700
N  -2.08700 17.66000 24.81700
C  -2.04600 18.65600 23.90000
C  -1.88800 18.18200 22.42400
C  -1.76300 16.62900 22.65600
C  -1.94400 16.50900 24.14000
C  -2.95100 18.70300 21.47100
C  -0.46300 16.10700 21.90700
C  0.88500 16.56000 22.44500
N  -2.16800 16.04300 27.10400
C  -2.10900 15.01400 26.15700
C  -2.19600 13.72600 26.88100
C  -2.40000 14.19900 28.24900
C  -2.41500 15.56400 28.31900
C  -2.31500 12.31700 26.28700
C  -2.65600 13.77000 29.55500
O  -2.74700 12.62100 29.95400
C  -2.57900 14.95100 30.51400
C  -1.26900 14.76900 31.30900
O  -0.18300 14.96900 30.85300
O  -1.54100 14.06000 32.46300
C  -0.38500 13.56800 33.26000
H  -2.78400 21.70100 29.62300
H  -1.87100 20.70900 23.34600
H  -1.89600 14.45100 24.00000
H  -3.57500 17.51100 31.86800
H  -2.63100 20.25200 31.56400
H  -5.03400 19.79900 30.26800
H  -4.83300 20.82500 31.68300
H  -5.17400 19.07300 31.88500
H  -1.20100 18.95600 32.58200
H  -0.62100 17.51700 31.64400
H  -2.20400 16.31600 33.32900
H  -2.42800 17.83400 34.16000
H  -3.62600 23.30300 28.31700
H  -3.21800 24.49800 27.11900
H  -2.09000 23.97200 28.46300
H  -1.47800 25.24600 23.80800
H  -0.93400 24.63900 25.47100
H  -2.54500 25.14800 25.22800
H  -0.94500 18.58500 22.05500
H  -2.58500 16.04200 22.24500
H  -2.47400 19.29100 20.68600
H  -3.71800 19.23800 22.03100
H  -3.32300 17.84800 20.90700
H  -0.58800 16.42500 20.87200
H  -0.56100 15.02300 21.95700
H  0.79100 17.32700 23.21300
H  1.43900 17.03700 21.63700
H  1.44800 15.71700 22.84600
H  -1.81900 11.65300 26.99500
H  -1.77900 12.14400 25.35400
H  -3.38900 12.21500 26.13200
H  -3.45200 15.05000 31.16100
H  -0.25100 14.02200 34.24200
H  0.51500 13.79400 32.68800
H  -0.62000 12.51200 33.38700
Mg 9.47900 48.31400 25.78000
C  6.91400 49.04300 28.14600
C  11.79800 49.54200 27.95200
C  11.70100 48.07100 23.41300
C  6.95200 47.72200 23.44800
N  9.39700 49.14700 27.75900
C  8.26500 49.04100 28.60000
C  8.69900 48.99000 30.03700
C  10.22700 49.61900 29.98400
C  10.54200 49.46300 28.49100
C  10.36100 51.07800 30.51900
C  8.45400 47.54600 30.64000
C  8.11400 47.58700 32.17300
H  8.63800 46.62400 33.19600
N  11.48300 48.50100 25.77300
C  12.29800 48.98500 26.76500
C  13.69000 48.92200 26.37500
C  13.63100 48.34200 25.04100
C  12.23100 48.28300 24.73400
C  14.90500 49.24700 27.28900
C  14.77900 47.96600 24.06200
O  14.57300 47.48200 22.93600
C  16.17800 48.17900 24.49100
N  9.28300 48.15900 23.58600
C  10.39300 47.98400 22.92400
C  10.11000 47.64200 21.45200
C  8.53600 47.69900 21.38700
C  8.25600 47.77000 22.87100
C  10.77600 48.53600 20.44200
C  7.89300 46.50100 20.59300
C  7.17500 46.77600 19.29900
N  7.35200 48.27900 25.77800
C  6.49700 48.05700 24.70700
C  5.12900 48.26300 25.15100
C  5.28000 48.64400 26.47700
C  6.59700 48.66700 26.83800
C  3.90700 48.04300 24.31300
C  4.55400 49.02500 27.69900
O  3.33100 49.02600 27.83000
C  5.59100 49.28000 28.89800
C  5.09000 48.32800 30.01400
O  4.87700 47.12000 29.93500
O  4.87500 49.10200 31.12200
C  4.08400 48.53000 32.14200
H  12.57300 49.83800 28.66200
H  12.36300 47.75500 22.60400
H  6.20200 47.57700 22.66700
H  8.14800 49.72500 30.62400
H  10.85800 48.97900 30.60100
H  10.74600 51.75800 29.75900
H  11.06100 51.07300 31.35500
H  9.43400 51.54500 30.85400
H  9.36600 46.95100 30.59100
H  7.74700 46.98500 30.02900
H  7.02800 47.65900 32.23700
H  8.31200 48.59900 32.52900
H  14.60100 49.49600 28.30500
H  15.52700 50.05200 26.89700
H  15.57100 48.38500 27.25800
H  16.45900 47.43000 25.23100
H  16.29200 49.19000 24.88100
H  16.89100 48.03600 23.67900
H  10.38800 46.58800 21.44500
H  8.24900 48.65400 20.94600
H  11.34400 49.23300 21.05800
H  10.08600 49.05700 19.77900
H  11.45900 47.93000 19.84600
H  7.24500 45.97800 21.29600
H  8.66400 45.75600 20.39400
H  7.19100 47.79700 18.91800
H  6.12000 46.60200 19.50900
H  7.50800 46.10900 18.50300
H  4.19100 48.16200 23.26700
H  3.17200 48.83000 24.48000
H  3.42300 47.07000 24.39800
H  5.46600 50.33500 29.14400
H  3.61900 47.55700 31.98400
H  3.31100 49.24600 32.42100
H  4.72400 48.53100 33.02500

