158

Mg 48.69300 35.74200 26.46200
C  46.90400 34.17000 28.87200
C  48.66300 38.68800 28.34800
C  50.60900 37.26900 24.08300
C  48.29700 33.07700 24.36300
N  47.99600 36.30600 28.39600
C  47.39900 35.43200 29.30200
C  47.35700 36.12900 30.64800
C  47.49700 37.64200 30.33200
C  48.00900 37.58900 28.88700
C  46.22800 38.60300 30.56900
C  48.46100 35.69400 31.63200
C  47.99000 35.31900 33.10800
H  46.92700 36.19600 33.77300
N  49.54600 37.64600 26.25400
C  49.39400 38.71100 27.08800
C  50.23600 39.78600 26.72800
C  50.94900 39.35500 25.59700
C  50.33800 38.04200 25.23500
C  50.37000 41.07600 27.50200
C  52.03200 40.06000 24.74700
O  52.51300 39.46300 23.78600
C  52.52700 41.40800 25.19100
N  49.15200 35.27600 24.40400
C  50.06500 36.05500 23.67700
C  50.28300 35.44600 22.30700
C  49.52800 34.08600 22.38700
C  48.96900 34.09100 23.77800
C  49.72800 36.40600 21.16700
C  50.56400 32.89200 22.15600
C  51.03100 32.74100 20.66700
N  47.72200 34.02300 26.50600
C  47.64100 33.02800 25.60200
C  46.91900 31.91300 26.15300
C  46.54400 32.31900 27.43800
C  47.00800 33.65600 27.55100
C  46.70900 30.61000 25.51000
C  45.93200 31.87200 28.69400
O  45.42600 30.82400 29.10100
C  46.03100 33.14900 29.59900
C  46.61900 32.68600 30.86700
O  47.83600 32.44300 31.06300
O  45.60300 32.37700 31.79500
C  46.07000 31.57700 32.97200
H  48.58300 39.47900 29.09600
H  51.28900 37.68200 23.33500
H  48.37200 32.14200 23.80400
H  46.41500 35.95300 31.16700
H  48.23700 38.10500 30.98400
H  45.38000 38.06600 30.99400
H  46.08300 39.11700 29.61900
H  46.48600 39.39600 31.27000
H  49.17600 36.49800 31.80500
H  48.99000 34.80600 31.28500
H  48.83500 35.39200 33.79300
H  47.68700 34.27300 33.13300
H  51.35500 41.53000 27.61300
H  49.93600 40.97400 28.49700
H  49.70000 41.86600 27.16100
H  51.83100 42.24200 25.09900
H  53.37800 41.62900 24.54700
H  52.88000 41.30800 26.21700
H  51.33900 35.20100 22.18600
H  48.71100 33.97500 21.67400
H  49.75300 37.49300 21.23400
H  48.72400 36.08700 20.88800
H  50.47500 36.28600 20.38200
H  50.20800 31.88100 22.35600
H  51.40100 33.06900 22.83200
H  50.98000 31.72300 20.28100
H  52.08400 33.00000 20.55300
H  50.45900 33.39500 20.01000
H  45.75300 30.18100 25.81100
H  47.44800 29.89100 25.86300
H  46.61800 30.63900 24.42400
H  45.10800 33.69600 29.79300
H  46.79600 32.15300 33.54500
H  46.67500 30.68200 32.83000
H  45.17800 31.24300 33.50100
Mg -11.25300 39.27400 42.16200
C  -9.21800 36.39100 41.40800
C  -8.90200 41.07200 40.44200
C  -13.45900 41.79000 41.83500
C  -13.86900 37.00300 42.80500
N  -9.33200 38.74000 41.06300
C  -8.71700 37.55200 40.87700
C  -7.40600 37.65300 40.05400
C  -7.15700 39.23200 40.04600
C  -8.53700 39.76800 40.57100
C  -5.90400 39.72300 40.90700
C  -7.45300 36.97600 38.67700
C  -6.36100 35.92900 38.32600
H  -5.65000 36.08200 36.98100
N  -11.09200 41.28200 41.52500
C  -10.04000 41.76700 40.84300
C  -10.30100 43.16100 40.56900
C  -11.63000 43.42800 41.01600
C  -12.12200 42.14100 41.49200
C  -9.31200 44.07100 39.91800
C  -12.36000 44.78800 40.93300
O  -11.76800 45.71100 40.44900
C  -13.68400 45.08700 41.51400
N  -13.35600 39.29600 42.10800
C  -14.03400 40.50300 42.10300
C  -15.55100 40.37400 42.40900
C  -15.66800 38.78700 42.56600
C  -14.19800 38.32400 42.46500
C  -16.12300 41.22400 43.53700
C  -16.73100 38.20100 41.56000
C  -17.70300 37.20600 42.24700
N  -11.47500 37.13400 42.29600
C  -12.64000 36.39400 42.58800
C  -12.29800 35.06200 42.74800
C  -10.92200 34.99600 42.29700
C  -10.53500 36.26800 41.96500
C  -13.09900 34.03800 43.28800
C  -9.69800 34.18500 42.17200
O  -9.49400 32.99300 42.35300
C  -8.56000 35.04000 41.47900
C  -7.31200 35.02500 42.30300
O  -6.49800 34.12900 42.25300
O  -7.21100 36.07800 43.14700
C  -6.13200 36.05300 44.18600
H  -8.18000 41.62700 39.83900
H  -14.25600 42.53500 41.86000
H  -14.72000 36.32600 42.90500
H  -6.62000 37.13900 40.60700
H  -7.02700 39.50000 38.99700
H  -5.91800 39.43700 41.95900
H  -5.86200 40.81200 40.88300
H  -4.97800 39.34200 40.47500
H  -7.18300 37.75900 37.96800
H  -8.48400 36.68500 38.47300
H  -6.69700 34.90600 38.50000
H  -5.61900 36.09800 39.10600
H  -8.62700 43.42400 39.37000
H  -8.85800 44.73400 40.65500
H  -9.79700 44.68200 39.15800
H  -13.60800 44.92500 42.58900
H  -14.39900 44.44300 41.00100
H  -13.89900 46.15300 41.43800
H  -16.09500 40.77900 41.55600
H  -15.85800 38.72100 43.63700
H  -15.34500 41.51000 44.24400
H  -16.85700 40.62500 44.07600
H  -16.61900 42.08300 43.08500
H  -16.29300 37.59800 40.76500
H  -17.33100 38.98800 41.10400
H  -18.67100 37.26900 41.74900
H  -17.80500 37.37500 43.31900
H  -17.33500 36.18100 42.20400
H  -12.48000 33.19100 43.58200
H  -13.86800 33.80300 42.55200
H  -13.56900 34.43000 44.19000
H  -8.34800 34.60500 40.50200
H  -6.49800 35.70100 45.15000
H  -5.85000 37.09700 44.32200
H  -5.20600 35.56700 43.87700

