158

Mg 44.48600 5.49600 47.79300
C  42.59300 8.52400 47.60300
C  41.65100 3.89300 46.84800
C  46.27700 2.78500 47.50100
C  47.40500 7.46600 47.97900
N  42.32400 6.17900 47.34900
C  41.77600 7.40900 47.39600
C  40.28400 7.41100 47.07600
C  39.98200 5.89800 47.04800
C  41.38100 5.28200 47.06100
C  39.06100 5.38400 48.20900
C  39.76200 8.08300 45.77700
C  38.24800 7.90800 45.39000
H  37.96600 7.06700 44.17000
N  44.02700 3.55000 47.25100
C  42.83200 3.06900 46.92700
C  42.94300 1.61400 46.92500
C  44.30400 1.26500 47.02400
C  44.95900 2.53300 47.25900
C  41.70100 0.69100 46.77900
C  44.97900 -0.09900 46.94500
O  44.24400 -1.02800 46.65900
C  46.44500 -0.48200 47.22100
N  46.59500 5.22200 47.56900
C  46.99600 3.92600 47.62800
C  48.52000 3.85800 47.95700
C  48.92600 5.39900 48.08600
C  47.57200 6.12400 47.82500
C  48.82400 3.02800 49.27900
C  50.14000 5.85800 47.22200
C  51.19700 6.78100 47.96100
N  44.96600 7.54900 47.74800
C  46.17800 8.18900 47.88000
C  45.95600 9.54100 47.99500
C  44.60100 9.72400 47.86500
C  43.99700 8.45500 47.75500
C  47.01200 10.67300 48.31300
C  43.53900 10.69500 47.93800
O  43.69600 11.88900 48.07800
C  42.16700 9.95700 47.65000
C  41.11800 10.27100 48.64300
O  40.99000 9.63200 49.68000
O  40.26200 11.31300 48.35100
C  39.06700 11.44500 49.23800
H  40.74100 3.29500 46.76400
H  46.85200 1.86000 47.57900
H  48.31000 7.94800 48.35700
H  39.70000 7.77800 47.92000
H  39.45500 5.62600 46.13400
H  39.70200 4.88500 48.93500
H  38.39600 4.60300 47.84100
H  38.56100 6.18000 48.76100
H  40.43200 7.85200 44.94800
H  40.00800 9.14200 45.85200
H  37.77600 8.88100 45.25300
H  37.67100 7.52700 46.23300
H  40.80700 1.28100 46.57700
H  41.66200 0.07200 47.67500
H  41.82700 0.07500 45.88800
H  46.99500 -0.13000 46.34700
H  46.48000 -1.57100 47.18900
H  46.81500 -0.11500 48.17800
H  49.01100 3.28800 47.16800
H  49.21400 5.59800 49.11800
H  49.60100 2.26500 49.23900
H  47.90500 2.56500 49.64000
H  49.20000 3.70000 50.05000
H  49.70900 6.33000 46.33900
H  50.64800 4.96300 46.86200
H  51.39100 7.73200 47.46400
H  52.14200 6.25000 48.07500
H  50.81900 6.99100 48.96200
H  46.43300 11.57300 48.52000
H  47.68400 10.69200 47.45500
H  47.55200 10.44400 49.23100
H  41.77800 10.37400 46.72100
H  39.19200 11.97600 50.18200
H  38.78900 10.42500 49.50200
H  38.17300 11.82900 48.74500
Mg 36.29500 2.61500 30.33000
C  33.86100 3.43000 32.80800
C  38.61600 2.64100 32.71100
C  38.50400 2.17800 27.93400
C  33.72400 2.87100 27.89400
N  36.18700 2.84600 32.48100
C  35.13500 3.23000 33.29600
C  35.58500 3.21200 34.81400
C  37.08100 3.03900 34.72100
C  37.31000 2.78300 33.24300
C  38.02200 4.26400 35.21200
C  34.83000 2.12200 35.71400
C  34.04400 2.73700 36.84800
H  34.54900 3.96300 37.61900
N  38.33200 2.50300 30.29100
C  39.13000 2.49700 31.41000
C  40.46700 2.20700 30.99900
C  40.54400 2.12700 29.61200
C  39.07900 2.28200 29.17300
C  41.58900 1.94200 32.00900
C  41.66400 1.92500 28.68200
O  41.49600 1.75800 27.45600
C  43.03000 2.37200 29.18500
N  36.08700 2.48700 28.20400
C  37.19300 2.22000 27.43800
C  36.87500 2.21200 25.98400
C  35.26200 2.26300 26.05000
C  34.96600 2.49400 27.44900
C  37.42200 3.37400 25.08100
C  34.34800 1.23600 25.39400
C  35.02000 -0.16800 25.13400
N  34.24500 3.03100 30.27100
C  33.36300 3.21600 29.22000
C  32.09200 3.56600 29.73400
C  32.24000 3.73500 31.12100
C  33.54600 3.24600 31.42100
C  30.92500 3.94600 28.87300
C  31.55500 3.99000 32.36900
O  30.43300 4.43900 32.58400
C  32.56400 3.83800 33.57700
C  32.50100 5.16500 34.15300
O  32.98900 6.14200 33.63600
O  31.87600 5.02800 35.35300
C  31.51300 6.29500 36.01600
H  39.37700 2.48200 33.47800
H  39.30700 2.19600 27.19400
H  32.92500 2.79400 27.15400
H  35.33500 4.13800 35.33100
H  37.44200 2.25300 35.38400
H  37.39200 5.03200 35.66100
H  38.63600 4.83400 34.51400
H  38.71500 3.93500 35.98600
H  35.40800 1.24100 35.99300
H  34.08700 1.77100 34.99800
H  34.04000 1.95400 37.60700
H  33.00100 2.83700 36.54600
H  42.10400 2.90000 32.07700
H  42.33300 1.24200 31.63000
H  41.32200 1.53200 32.98300
H  43.61600 2.53000 28.27900
H  43.41900 1.48600 29.68700
H  42.88500 3.16300 29.92100
H  37.16200 1.29800 25.46300
H  35.00000 3.22500 25.60800
H  38.01400 4.01300 25.73600
H  36.57600 3.87200 24.60600
H  38.10900 2.98600 24.32900
H  34.09100 1.61200 24.40400
H  33.38400 1.16700 25.89800
H  34.38300 -0.83100 25.72000
H  36.00500 -0.31400 25.57700
H  35.08700 -0.48600 24.09400
H  30.12800 3.20300 28.84500
H  31.37400 4.09500 27.89100
H  30.53500 4.85700 29.32800
H  32.14500 3.00500 34.14000
H  30.90400 6.92600 35.36800
H  32.36900 6.96400 36.10000
H  31.06400 6.01800 36.97000

