158

Mg 0.29400 43.85700 26.16500
C  2.73500 43.35500 28.72800
C  -2.17300 43.53400 28.43500
C  -1.71100 43.15300 23.60000
C  3.11100 43.79300 23.92000
N  0.36800 43.43600 28.29600
C  1.41600 43.40300 29.17300
C  0.91900 43.50100 30.66300
C  -0.62300 43.38200 30.56800
C  -0.88600 43.47500 28.97700
C  -1.32400 42.15200 31.18800
C  1.29600 44.83700 31.37000
C  1.51400 44.97800 32.86100
H  1.12600 43.70600 33.67300
N  -1.71400 43.51300 26.03000
C  -2.57400 43.43900 27.06400
C  -3.84600 43.27900 26.56600
C  -3.70900 43.07000 25.14100
C  -2.35300 43.17800 24.88600
C  -5.08300 43.27700 27.33700
C  -4.86900 42.75400 24.11100
O  -4.58900 42.72100 22.89100
C  -6.24000 42.39900 24.59600
N  0.67300 43.29200 24.03800
C  -0.39600 43.34300 23.22700
C  -0.13200 43.52800 21.73900
C  1.39000 44.06300 21.89200
C  1.81200 43.71000 23.34000
C  -0.35800 42.38700 20.67600
C  1.66600 45.56300 21.61300
C  2.95000 45.85700 20.80700
N  2.43200 43.66500 26.24900
C  3.37500 43.69500 25.32200
C  4.67200 43.61000 25.83000
C  4.53000 43.50500 27.16700
C  3.07600 43.54900 27.37100
C  5.95100 43.73800 25.06200
C  5.17700 43.37000 28.52700
O  6.34900 43.23000 28.82800
C  4.00000 43.41600 29.51200
C  4.11100 42.47200 30.68000
O  3.83700 41.31800 30.68400
O  4.69200 43.15500 31.72800
C  5.20200 42.26800 32.75500
H  -3.03500 43.55200 29.10600
H  -2.37900 43.08100 22.73900
H  3.91000 43.94900 23.19300
H  1.23500 42.72800 31.36400
H  -1.08600 44.20300 31.11500
H  -1.76200 42.48400 32.12900
H  -0.57300 41.48000 31.60200
H  -1.99500 41.68200 30.47000
H  0.45000 45.48100 31.12900
H  2.20200 45.24700 30.92300
H  1.01800 45.87900 33.22200
H  2.58400 45.11200 33.01800
H  -5.89900 43.83100 26.87400
H  -4.87600 43.89400 28.21200
H  -5.32100 42.23200 27.53500
H  -6.20300 41.55900 25.29000
H  -6.91100 42.20200 23.76000
H  -6.56200 43.32100 25.08200
H  -0.75400 44.36700 21.42700
H  1.96300 43.41800 21.22600
H  0.22700 42.65100 19.79500
H  -1.42300 42.41300 20.44600
H  -0.10200 41.47100 21.21000
H  1.83800 46.04200 22.57700
H  0.76300 45.99400 21.18100
H  2.55700 46.07500 19.81400
H  3.59700 44.98000 20.83100
H  3.33400 46.68500 21.40200
H  5.85600 44.28600 24.12500
H  6.42500 42.85700 24.63000
H  6.69700 44.20800 25.70200
H  4.17500 44.42000 29.90100
H  4.34900 41.84200 33.28500
H  5.97000 42.70500 33.39400
H  5.74600 41.39000 32.40500
Mg -5.95100 25.54300 26.18800
C  -5.06600 27.05800 29.13800
C  -7.59100 23.08600 28.03400
C  -6.33500 23.72900 23.39500
C  -3.96300 27.89400 24.42000
N  -6.20200 25.09400 28.33700
C  -5.81900 25.90600 29.34600
C  -6.37300 25.38900 30.72000
C  -6.94600 23.98100 30.31800
C  -6.91400 24.08600 28.78700
C  -6.19500 22.61100 30.85700
C  -7.47800 26.28100 31.30800
C  -7.54700 26.35300 32.85600
H  -6.84300 25.28000 33.65500
N  -6.98100 23.73200 25.74700
C  -7.66400 22.95800 26.58400
C  -8.29900 21.93100 25.87900
C  -7.82200 22.03200 24.51600
C  -6.99000 23.18600 24.50900
C  -9.19600 20.93400 26.51300
C  -8.06800 21.08600 23.34900
O  -7.66100 21.25300 22.17500
C  -8.97900 19.90700 23.47200
N  -5.45100 25.90000 24.15300
C  -5.61000 24.89400 23.20100
C  -4.88300 25.27900 21.86700
C  -4.19200 26.68700 22.17800
C  -4.50700 26.79800 23.70100
C  -3.91000 24.22500 21.19400
C  -4.78900 27.85400 21.26200
C  -3.66500 28.57400 20.40500
N  -4.76500 27.18400 26.65500
C  -4.05000 28.09300 25.79700
C  -3.29400 28.97000 26.71200
C  -3.72300 28.67600 27.99400
C  -4.57400 27.57500 27.92400
C  -2.21400 29.96000 26.20000
C  -3.69900 29.07300 29.36900
O  -3.12500 30.04300 29.89100
C  -4.48600 27.97800 30.21200
C  -3.50700 27.32800 31.18000
O  -2.70600 26.44200 30.76600
O  -3.68300 27.77400 32.46400
C  -2.69600 27.20400 33.37300
H  -8.26200 22.50100 28.66700
H  -6.38400 23.18400 22.44900
H  -3.23500 28.56200 23.95500
H  -5.51200 25.27700 31.38000
H  -7.98800 23.85100 30.60800
H  -5.74400 22.16400 29.97000
H  -6.83000 21.78900 31.18600
H  -5.45500 22.71800 31.65000
H  -8.45300 26.06500 30.87200
H  -7.32900 27.24300 30.81900
H  -8.60500 26.41700 33.11100
H  -7.11500 27.33000 33.07100
H  -8.94300 20.81500 27.56700
H  -9.15800 20.00400 25.94500
H  -10.22600 21.28100 26.43900
H  -9.30700 19.62600 22.47100
H  -9.92500 20.10700 23.97700
H  -8.46100 19.11800 24.01900
H  -5.74400 25.29200 21.19900
H  -3.11800 26.50900 22.11800
H  -2.88400 24.55700 21.03300
H  -4.23500 24.08600 20.16400
H  -4.02600 23.25900 21.68400
H  -5.25300 28.67900 21.80300
H  -5.42000 27.39500 20.50100
H  -2.67200 28.25200 20.71700
H  -3.74500 29.63800 20.62700
H  -3.86400 28.49200 19.33600
H  -1.51900 29.46600 25.52100
H  -1.64200 30.25600 27.08000
H  -2.73100 30.71500 25.60700
H  -5.14700 28.47300 30.92400
H  -1.74300 27.71200 33.22200
H  -2.46200 26.15200 33.21100
H  -3.01000 27.33700 34.40800

