158

Mg 47.40100 35.75300 26.09700
C  45.53400 33.98400 28.65300
C  47.48300 38.32800 28.27500
C  49.08100 37.26000 23.79300
C  46.43800 33.15900 23.84900
N  46.55200 36.06100 28.26100
C  46.03100 35.15900 29.12400
C  46.02000 35.65800 30.54400
C  46.11400 37.21600 30.26100
C  46.82900 37.25600 28.88600
C  44.76900 37.97100 30.21400
C  47.23400 35.16800 31.36600
C  46.94400 34.78700 32.84800
H  45.77100 35.44400 33.63800
N  48.22000 37.51300 26.09100
C  48.11400 38.51800 27.03700
C  48.87500 39.71100 26.55000
C  49.31700 39.42300 25.16600
C  48.89500 38.02200 24.97600
C  48.78200 40.99600 27.21900
C  49.96800 40.24600 24.22700
O  50.38600 39.86100 23.15900
C  50.21400 41.72600 24.52700
N  47.78700 35.17300 24.19200
C  48.53200 36.04900 23.45200
C  48.81900 35.40100 22.07300
C  47.93200 34.10200 22.04400
C  47.31600 34.12700 23.38600
C  48.40500 36.39600 20.84800
C  48.78400 32.81600 21.83500
C  48.19200 31.56600 21.13000
N  46.17100 33.92400 26.13900
C  45.96500 32.93700 25.19200
C  45.27200 31.80100 25.81900
C  45.06500 32.20300 27.13200
C  45.63200 33.47700 27.30100
C  44.99100 30.48800 25.18500
C  44.40700 31.76700 28.33900
O  43.73800 30.73700 28.60300
C  44.62000 32.96900 29.43700
C  45.29600 32.30400 30.58600
O  46.49500 32.11900 30.66400
O  44.36700 31.83800 31.54200
C  44.78600 31.14600 32.69600
H  47.24100 39.16600 28.93200
H  49.68700 37.60600 22.95300
H  46.34100 32.39600 23.07300
H  45.08800 35.47400 31.07900
H  46.70100 37.57300 31.10800
H  43.99500 37.26100 30.50700
H  44.45000 38.35600 29.24500
H  44.90000 38.85100 30.84300
H  48.02600 35.91400 31.29700
H  47.60100 34.23000 30.94800
H  47.83200 35.06000 33.41900
H  46.81300 33.70600 32.89300
H  49.77100 41.43800 27.34100
H  48.37400 40.90500 28.22600
H  48.13200 41.71800 26.72500
H  49.42800 42.24000 25.07900
H  50.45800 42.13200 23.54500
H  51.11400 41.61100 25.13100
H  49.88000 35.15400 22.04200
H  47.18900 34.28600 21.26800
H  47.57800 37.04500 21.13900
H  48.17100 35.80300 19.96400
H  49.16600 37.13700 20.60400
H  49.09000 32.54200 22.84500
H  49.73700 33.02900 21.35000
H  48.74500 31.24200 20.24900
H  47.19400 31.76000 20.73700
H  48.15300 30.73700 21.83700
H  44.02400 30.55000 24.68600
H  45.07500 29.69000 25.92400
H  45.77200 30.32000 24.44400
H  43.65000 33.38600 29.71000
H  44.06300 31.50900 33.42700
H  45.80900 31.31900 33.02800
H  44.48800 30.11600 32.49900
Mg 1.28000 43.58100 25.98900
C  3.50000 43.80800 28.67700
C  -1.25900 42.94800 27.97500
C  -0.50200 42.93400 23.25900
C  4.19100 43.92900 23.83200
N  1.15500 43.40400 27.98100
C  2.13100 43.74800 28.92400
C  1.58100 43.81800 30.39200
C  0.23000 43.13100 30.20100
C  -0.01400 43.20200 28.64700
C  -0.03300 41.75700 30.80200
C  1.52900 45.27900 30.81500
C  1.47500 45.57200 32.37500
H  1.22000 44.45600 33.40000
N  -0.63400 43.12300 25.65400
C  -1.59500 42.99700 26.60400
C  -2.88000 42.72400 26.07200
C  -2.71700 42.62200 24.68000
C  -1.23200 42.88200 24.44100
C  -4.13900 42.50600 26.91300
C  -3.71800 42.37600 23.60500
O  -3.44300 42.21000 22.41000
C  -5.14700 42.28800 23.96200
N  1.77500 43.58500 23.85500
C  0.84700 43.15800 22.98900
C  1.43500 42.98100 21.58200
C  2.85500 43.53000 21.74200
C  2.97400 43.61600 23.26700
C  1.41300 41.49400 21.12100
C  3.00900 44.96800 20.92600
C  4.36800 45.57200 20.97100
N  3.40800 43.87300 26.16000
C  4.37900 44.03000 25.16700
C  5.62400 44.22500 25.85100
C  5.40400 44.13500 27.24300
C  4.00100 43.88200 27.35700
C  6.94300 44.61400 25.16900
C  5.92000 44.19500 28.56000
O  7.09200 44.37200 28.90300
C  4.74700 44.04400 29.53500
C  5.05700 43.06400 30.58000
O  4.84900 41.84800 30.50700
O  5.65700 43.63800 31.69200
C  5.68900 42.76700 32.98400
H  -2.02500 42.62100 28.68200
H  -1.12100 42.68000 22.39500
H  5.03600 43.96900 23.14200
H  2.12300 43.20300 31.11000
H  -0.60700 43.72500 30.56700
H  -0.87100 41.75400 31.49800
H  0.93000 41.48000 31.23200
H  -0.08900 40.99200 30.02700
H  0.61600 45.69600 30.39000
H  2.43800 45.80100 30.51600
H  0.58600 46.17800 32.55200
H  2.35000 46.03900 32.82800
H  -4.53300 41.52800 26.63600
H  -4.81900 43.28100 26.56100
H  -4.05900 42.62800 27.99300
H  -5.51400 43.21600 24.40100
H  -5.36900 41.38200 24.52600
H  -5.76400 42.35600 23.06600
H  0.82800 43.68900 21.01800
H  3.51700 42.76600 21.33400
H  1.36100 40.79200 21.95200
H  2.34600 41.35300 20.57600
H  0.57700 41.35500 20.43500
H  2.27200 45.75500 21.09100
H  2.78700 44.79500 19.87300
H  4.42400 46.22800 21.84000
H  4.61400 46.23400 20.14100
H  5.12500 44.80800 21.14800
H  6.86500 45.23100 24.27400
H  7.45100 43.68800 24.90200
H  7.57600 45.02500 25.95600
H  4.63700 45.01300 30.02200
H  4.98400 43.18500 33.70400
H  6.70000 42.55500 33.33000
H  5.20400 41.82200 32.74100

