158

Mg 40.96200 8.98600 30.05500
C  42.65200 10.33300 32.66100
C  38.63600 7.62900 32.28400
C  39.42900 7.34700 27.47600
C  43.67000 9.60100 27.92100
N  40.74800 8.98600 32.22300
C  41.48400 9.73700 33.10000
C  41.00600 9.61700 34.53400
C  39.68800 8.78100 34.40300
C  39.67000 8.38500 32.87500
C  39.55600 7.54600 35.31100
C  40.80500 10.97700 35.14600
C  40.32800 10.98400 36.62200
H  40.98000 11.89800 37.57700
N  39.17800 7.75100 29.91200
C  38.38000 7.34200 30.96400
C  37.19700 6.67100 30.35400
C  37.36600 6.67700 28.97900
C  38.72000 7.29000 28.70300
C  35.95600 6.31300 31.14800
C  36.38400 6.31300 27.84300
O  36.62300 6.49300 26.63300
C  35.01000 5.82100 28.19400
N  41.41000 8.53500 27.98000
C  40.63400 7.86600 27.13700
C  41.17700 7.77800 25.74800
C  42.42000 8.75000 25.83700
C  42.50800 8.99800 27.37800
C  41.55300 6.25600 25.43800
C  42.22900 10.08800 25.09000
C  43.33200 10.73900 24.25900
N  42.79000 9.85900 30.17300
C  43.79400 10.06800 29.24400
C  44.95200 10.73500 29.87200
C  44.53300 10.86500 31.24400
C  43.20200 10.26600 31.37000
C  46.16600 11.32200 29.27700
C  44.97000 11.29800 32.51700
O  46.00300 11.84400 32.80000
C  43.77000 11.07000 33.44700
C  44.27300 10.18900 34.55200
O  44.62700 8.98500 34.45900
O  44.14100 10.81500 35.76200
C  44.39800 9.95800 36.94200
H  37.91700 7.33600 33.05300
H  38.98400 6.79700 26.64500
H  44.43000 9.78700 27.16000
H  41.76500 9.05000 35.07200
H  38.75700 9.33600 34.51600
H  40.47500 7.27800 35.83300
H  39.25800 6.65300 34.76100
H  38.74000 7.81800 35.98000
H  39.97400 11.34600 34.54500
H  41.68100 11.62200 35.07500
H  40.37800 9.97300 37.02400
H  39.26400 11.22100 36.63700
H  35.74400 5.26400 30.93900
H  35.07700 6.94200 31.00800
H  36.23100 6.40300 32.19900
H  34.43700 6.65800 28.59100
H  35.01400 5.05600 28.97100
H  34.55800 5.44500 27.27600
H  40.44800 7.97400 24.96100
H  43.33700 8.24000 25.54300
H  41.22700 5.52300 26.17600
H  42.61500 6.11900 25.23500
H  41.11900 5.96600 24.48100
H  41.83300 10.81500 25.79900
H  41.42500 10.05200 24.35500
H  43.38000 11.81200 24.44200
H  43.13000 10.65900 23.19100
H  44.31000 10.26600 24.35000
H  46.42200 10.79300 28.35900
H  47.03700 11.26400 29.93000
H  46.04200 12.35200 28.94300
H  43.39700 11.99400 33.88900
H  45.43200 9.96900 37.28800
H  43.96500 8.95800 36.91500
H  43.93100 10.49700 37.76700
Mg 47.36900 25.82800 28.32500
C  48.03000 27.98500 30.91900
C  47.25100 23.17400 30.40400
C  47.54200 23.79400 25.55000
C  48.47800 28.52200 26.07200
N  47.46300 25.65500 30.38800
C  47.68600 26.68300 31.33700
C  47.68200 26.14100 32.75300
C  47.43100 24.59500 32.51900
C  47.34300 24.43300 30.97700
C  48.38300 23.58000 33.31800
C  46.75500 26.85700 33.66300
C  46.08200 26.18600 34.89400
H  45.73100 27.07900 36.09000
N  47.08600 23.82000 28.06200
C  47.14400 22.89200 29.02700
C  47.07000 21.57200 28.40800
C  47.00500 21.80900 27.05600
C  47.29500 23.22300 26.81800
C  46.85800 20.29500 29.20200
C  46.88000 20.76600 25.93000
O  46.99800 21.02400 24.71700
C  46.43600 19.39900 26.22600
N  48.13000 26.06300 26.15200
C  47.94700 25.08700 25.20000
C  47.94800 25.63700 23.67800
C  48.10000 27.20200 23.91900
C  48.24300 27.27000 25.45700
C  49.07700 25.01500 22.76100
C  46.84300 27.95300 23.42600
C  47.17100 29.26300 22.69000
N  48.11200 27.80700 28.42200
C  48.52500 28.77300 27.47500
C  48.91800 30.02500 28.16600
C  48.66800 29.72700 29.50700
C  48.20200 28.40000 29.63200
C  49.42500 31.22900 27.60300
C  48.71300 30.26500 30.80900
O  48.93400 31.37600 31.22800
C  48.21900 29.17100 31.81200
C  49.34200 28.89600 32.75700
O  50.32600 28.23200 32.60200
O  49.03900 29.54400 33.93200
C  49.90800 29.15600 35.07000
H  47.03900 22.41400 31.15800
H  47.56100 23.24700 24.60500
H  48.54800 29.40500 25.43300
H  48.70800 26.19900 33.11700
H  46.42300 24.45600 32.91000
H  49.21100 24.20900 33.64500
H  48.74300 22.74000 32.72300
H  47.92500 23.16100 34.21300
H  45.97000 27.27600 33.03300
H  47.23900 27.75100 34.05600
H  46.78000 25.44300 35.28000
H  45.15600 25.83600 34.43700
H  47.47000 19.51500 28.74900
H  45.80300 20.03500 29.12900
H  47.12200 20.48000 30.24300
H  47.27900 18.98300 26.77600
H  46.32200 18.88000 25.27400
H  45.45000 19.40400 26.69000
H  46.91000 25.47500 23.38700
H  49.06000 27.41600 23.45100
H  49.75200 24.49800 23.44400
H  49.64600 25.76100 22.20600
H  48.65200 24.33100 22.02600
H  46.20900 28.27900 24.25000
H  46.30900 27.37500 22.67100
H  46.51400 29.38900 21.82900
H  48.20900 29.43300 22.40700
H  47.00300 30.13600 23.32100
H  49.57900 31.23000 26.52400
H  50.33000 31.51000 28.14100
H  48.67800 31.97700 27.86800
H  47.29900 29.48800 32.30500
H  49.96800 29.99800 35.76000
H  50.95400 28.92900 34.86400
H  49.49600 28.26900 35.55000

