158

Mg 7.55700 2.65300 27.40100
C  9.22800 1.16400 30.15800
C  5.89600 4.74100 29.65600
C  6.12200 3.94700 24.78600
C  8.75000 0.01200 25.46400
N  7.42700 2.72200 29.67600
C  8.29800 2.14600 30.54800
C  8.17000 2.74700 31.98200
C  6.93000 3.77300 31.91900
C  6.76700 3.78300 30.29900
C  5.60700 3.30700 32.54200
C  9.45200 3.44600 32.50300
C  9.25000 4.32700 33.79200
H  10.27900 4.16000 34.87400
N  6.11100 4.17000 27.20800
C  5.53000 4.89500 28.22500
C  4.65400 5.91700 27.67400
C  4.79400 5.72100 26.25700
C  5.72100 4.57800 25.98200
C  3.84900 6.83500 28.43000
C  4.04800 6.41100 25.05400
O  4.29200 6.18100 23.85500
C  3.31600 7.55300 25.36500
N  7.33300 1.92600 25.45900
C  6.77700 2.73100 24.55200
C  6.94000 2.29700 23.06700
C  7.75600 1.02200 23.31000
C  8.01600 0.98200 24.80600
C  5.51100 1.92600 22.50400
C  9.15800 0.91900 22.60800
C  9.49600 -0.48000 21.95200
N  8.63600 0.93400 27.67600
C  9.02500 -0.08900 26.85600
C  9.88600 -1.04000 27.40800
C  10.01600 -0.54300 28.73200
C  9.25600 0.64400 28.87600
C  10.45800 -2.19700 26.73600
C  10.66000 -0.81400 29.98200
O  11.52200 -1.63300 30.40600
C  10.26500 0.39100 30.93200
C  9.74300 -0.16900 32.21600
O  8.71700 -0.86900 32.33800
O  10.70700 0.03500 33.22400
C  10.48000 -0.69300 34.46300
H  5.49000 5.58300 30.22100
H  5.67300 4.26800 23.84400
H  9.24000 -0.82500 24.96200
H  8.05700 1.96300 32.73100
H  7.15700 4.80300 32.19500
H  5.57600 2.25500 32.82700
H  4.92200 3.30400 31.69400
H  5.30400 4.04600 33.28400
H  9.85200 4.06800 31.70300
H  10.16400 2.63400 32.65200
H  8.29700 3.96900 34.18300
H  9.20000 5.37900 33.51400
H  3.80600 6.60000 29.49400
H  2.82100 6.66900 28.11100
H  4.30100 7.80100 28.20400
H  3.93500 8.35100 25.77600
H  2.44300 7.27200 25.95400
H  2.90400 8.02500 24.47300
H  7.46600 3.05800 22.49100
H  7.13300 0.17900 23.01200
H  4.76100 2.06200 23.28300
H  5.37400 0.89700 22.17200
H  5.38500 2.63500 21.68600
H  9.95700 1.16700 23.30700
H  9.18000 1.74700 21.90000
H  9.82000 -0.35100 20.91900
H  8.61700 -1.10700 22.10600
H  10.37100 -0.96900 22.38100
H  11.22100 -1.87200 26.02800
H  9.67800 -2.77300 26.23800
H  10.90700 -2.89100 27.44700
H  11.12600 1.03900 31.09800
H  9.88200 -1.59000 34.29600
H  9.87500 -0.13100 35.17400
H  11.47400 -0.76400 34.90400
Mg 47.99400 25.57800 29.98000
C  48.81500 28.03300 32.33000
C  46.77200 23.68200 32.60000
C  47.37700 23.19700 27.79100
C  49.45800 27.50800 27.53200
N  47.83500 25.90000 32.27400
C  48.20400 26.92100 33.00900
C  47.80000 26.77900 34.48500
C  47.35500 25.29100 34.51600
C  47.36000 24.90900 32.99800
C  48.29500 24.40000 35.31900
C  46.81200 27.79600 35.04600
C  47.33000 28.45300 36.39800
H  46.18800 28.60600 37.43400
N  47.12900 23.81100 30.19100
C  46.66800 23.18500 31.29900
C  45.95800 21.96900 30.94500
C  46.04600 21.85500 29.57200
C  46.94300 22.94900 29.12100
C  45.20600 21.12500 32.07000
C  45.43900 20.84800 28.71300
O  45.64100 20.84800 27.48800
C  44.58200 19.78600 29.29700
N  48.19800 25.45200 27.91900
C  48.01600 24.30300 27.27300
C  48.45500 24.38300 25.85900
C  48.81000 25.93900 25.72800
C  48.83200 26.33900 27.14100
C  49.59600 23.45100 25.44700
C  47.73700 26.87300 24.96300
C  48.44700 28.02000 24.19400
N  48.91800 27.37300 29.90500
C  49.55300 28.05600 28.84400
C  50.05700 29.32600 29.31700
C  49.81600 29.31500 30.63800
C  49.09600 28.13700 30.97200
C  50.85300 30.32500 28.45800
C  50.01600 30.10500 31.82200
O  50.52700 31.17600 31.99300
C  49.37000 29.30000 32.97400
C  50.45300 29.04100 34.00500
O  51.53700 28.48300 33.84300
O  50.03300 29.58600 35.22800
C  51.02200 29.71900 36.31500
H  46.65800 22.95200 33.40400
H  47.16000 22.38700 27.09100
H  49.83200 28.20200 26.77600
H  48.72200 26.72300 35.06400
H  46.33200 25.10900 34.84500
H  47.99700 23.35400 35.37400
H  48.50800 24.76800 36.32200
H  49.22600 24.46000 34.75400
H  45.86000 27.26500 35.06700
H  46.59800 28.57700 34.31600
H  47.62500 29.43300 36.02400
H  48.20800 28.01000 36.86800
H  45.61500 20.13400 32.26400
H  44.21800 20.89200 31.67200
H  44.93500 21.74200 32.92700
H  43.56100 20.08100 29.53700
H  45.06200 19.31800 30.15600
H  44.51400 18.99500 28.54900
H  47.60600 24.18300 25.20600
H  49.77700 26.08000 25.24500
H  50.49300 23.93800 25.06300
H  49.24300 22.81400 24.63500
H  49.91600 22.88800 26.32400
H  47.01500 27.37500 25.60800
H  47.24100 26.15000 24.31600
H  48.23100 28.01600 23.12600
H  49.52800 27.89700 24.24500
H  48.17500 28.98500 24.62300
H  50.89800 29.97100 27.42800
H  51.85000 30.50100 28.86200
H  50.34300 31.28400 28.36600
H  48.58500 29.93400 33.38600
H  52.03900 29.58500 35.94700
H  50.80100 28.95600 37.06100
H  50.87900 30.71900 36.72500

