158

Mg 29.42600 58.22500 40.46800
C  26.42000 56.58400 39.84100
C  31.08400 55.38400 39.98500
C  32.19900 60.02100 40.68300
C  27.50900 61.17100 41.09400
N  28.79000 56.30200 39.84900
C  27.54500 55.82800 39.54300
C  27.68900 54.45900 38.92400
C  29.06100 53.99300 39.44600
C  29.73000 55.29600 39.84900
C  29.10600 52.95000 40.62500
C  27.41600 54.45200 37.38400
C  26.14800 53.74600 36.85900
H  25.62100 54.11200 35.45200
N  31.44200 57.70900 40.29300
C  31.91100 56.47600 40.10800
C  33.41700 56.53800 40.02900
C  33.73600 57.88400 40.23100
C  32.44500 58.64200 40.40000
C  34.31200 55.35500 39.57600
C  35.19000 58.40000 40.14700
O  36.11700 57.56000 40.01200
C  35.41100 59.80600 40.23500
N  29.83300 60.34300 40.72900
C  31.08100 60.79100 40.84600
C  31.09200 62.33300 41.01600
C  29.58900 62.64600 41.18800
C  28.88300 61.32100 40.97600
C  32.01600 62.83700 42.27200
C  28.92400 63.85800 40.50500
C  28.17900 64.86300 41.33900
N  27.36000 58.79400 40.70600
C  26.75000 60.00100 40.97400
C  25.26700 59.83900 41.05500
C  25.12900 58.52300 40.59800
C  26.37100 57.95500 40.35800
C  24.25600 60.85000 41.44900
C  24.14600 57.52400 40.25300
O  22.93500 57.51200 40.32600
C  24.92700 56.26300 39.72900
C  24.41000 55.14500 40.49500
O  24.56500 54.99300 41.69200
O  23.78400 54.25200 39.69600
C  23.81700 52.84700 40.06900
H  31.57700 54.44800 39.71500
H  33.00400 60.75100 40.79300
H  26.90700 62.06900 41.24700
H  27.03400 53.71800 39.38200
H  29.68600 53.70700 38.60100
H  28.37400 52.14500 40.57400
H  29.13700 53.57600 41.51700
H  30.06600 52.43500 40.57800
H  28.23700 53.87400 36.96200
H  27.38800 55.43500 36.91200
H  25.37400 53.86000 37.61700
H  26.38000 52.68100 36.84100
H  35.09300 55.67000 38.88400
H  33.67000 54.56400 39.18800
H  34.75700 54.85100 40.43400
H  34.75800 60.31300 39.52500
H  36.44800 59.92900 39.92200
H  35.33100 60.06500 41.29100
H  31.48400 62.68000 40.05900
H  29.50200 62.77300 42.26700
H  32.70400 62.00500 42.42800
H  31.44800 63.15500 43.14600
H  32.65300 63.64700 41.91800
H  28.31200 63.35800 39.75400
H  29.66700 64.40900 39.92900
H  28.34400 64.77200 42.41200
H  27.14300 64.57200 41.16300
H  28.40700 65.87600 41.00900
H  24.57300 61.47200 42.28600
H  23.22100 60.51100 41.49700
H  24.36900 61.65100 40.71900
H  24.58200 56.06600 38.71400
H  24.46500 52.70600 40.93400
H  24.15500 52.17400 39.28100
H  22.82100 52.63400 40.45600
Mg 8.56500 47.03400 25.33600
C  6.86300 47.06100 28.30000
C  11.22300 48.27700 27.03600
C  10.26900 46.72600 22.48200
C  5.58300 46.87600 23.55400
N  8.92400 47.66200 27.37000
C  8.14200 47.50300 28.46900
C  8.79200 47.90500 29.81800
C  10.07400 48.57400 29.28700
C  10.09700 48.21200 27.78600
C  10.15800 50.13900 29.57700
C  9.04400 46.76800 30.81300
C  8.82000 47.12100 32.30500
H  8.48100 45.91900 33.19500
N  10.47800 47.43000 24.84000
C  11.48300 47.93800 25.63300
C  12.76400 47.78700 24.97300
C  12.53700 47.46500 23.59700
C  11.09500 47.23800 23.53900
C  14.10600 47.99200 25.71700
C  13.50500 47.08800 22.45600
O  13.18800 46.59200 21.39700
C  15.06600 47.41000 22.73600
N  7.98400 46.77400 23.27300
C  8.90300 46.59900 22.29600
C  8.30800 46.08400 21.02900
C  6.78900 46.48600 21.21900
C  6.72100 46.73200 22.77200
C  8.91800 46.56900 19.63800
C  5.93700 45.36000 20.67100
C  4.35800 45.50200 20.68900
N  6.64800 46.89200 25.75900
C  5.51000 46.87100 24.92700
C  4.25800 46.78300 25.75100
C  4.77900 46.77100 27.08900
C  6.24500 46.84800 27.03100
C  2.77300 46.59200 25.34800
C  4.38300 46.78900 28.47900
O  3.30700 46.73700 28.98800
C  5.73000 46.85300 29.27300
C  5.76200 45.59800 30.10200
O  6.08400 44.48600 29.73800
O  5.35300 45.82400 31.40700
C  5.46400 44.65800 32.31800
H  12.04700 48.57000 27.69000
H  10.82300 46.41400 21.59500
H  4.59800 46.90000 23.08300
H  8.19200 48.69500 30.27000
H  10.98600 48.09700 29.64500
H  10.70000 50.75100 28.85500
H  10.56500 50.24300 30.58300
H  9.13500 50.51100 29.53000
H  10.04500 46.36300 30.66400
H  8.40800 45.91600 30.57700
H  8.19700 48.01100 32.40200
H  9.82200 47.41500 32.61800
H  13.92400 48.35800 26.72700
H  14.67400 48.78500 25.23100
H  14.69000 47.07200 25.73100
H  15.41100 46.75300 23.53500
H  15.17300 48.47100 22.96100
H  15.69200 47.24500 21.85900
H  8.46900 45.00700 20.98800
H  6.64000 47.45500 20.74300
H  9.82500 47.14600 19.81600
H  8.18400 47.15300 19.08300
H  9.22800 45.68400 19.08300
H  6.25000 44.42400 21.13300
H  6.22700 45.31600 19.62100
H  4.16200 46.52300 21.01700
H  4.05200 44.77500 21.44200
H  3.83600 45.32200 19.75000
H  2.52800 45.62200 25.78100
H  2.58700 46.52500 24.27600
H  2.16600 47.40400 25.74700
H  5.55500 47.74400 29.87700
H  5.72000 45.06800 33.29500
H  6.34200 44.03200 32.15900
H  4.57500 44.03800 32.19700

