158

Mg 48.00800 15.84700 27.85900
C  45.71200 15.80100 30.49900
C  50.00900 17.88300 29.70600
C  50.12200 15.82000 25.31900
C  45.63100 14.16300 25.81000
N  47.85800 16.81700 29.78800
C  46.88300 16.46800 30.76100
C  47.21500 17.12200 32.15900
C  48.39300 18.10300 31.69800
C  48.80900 17.59100 30.29100
C  48.08700 19.59100 31.60800
C  47.69700 15.99700 33.19600
C  47.12400 16.03700 34.67700
H  48.13400 15.86600 35.81400
N  49.88300 16.68700 27.57800
C  50.50800 17.49000 28.41300
C  51.79700 17.81400 27.87600
C  51.93100 17.15900 26.62700
C  50.62100 16.48500 26.43800
C  52.74400 18.75900 28.61200
C  53.02000 17.29800 25.59700
O  52.85600 16.82700 24.47400
C  54.30500 17.93600 25.88900
N  47.78000 15.31200 25.77100
C  48.83800 15.39200 24.96700
C  48.60300 14.75000 23.62200
C  47.21400 14.02000 23.80300
C  46.78700 14.52100 25.21500
C  48.77400 15.64500 22.33800
C  47.23900 12.52800 23.73800
C  47.79100 11.68400 22.58700
N  46.10200 15.22000 27.97300
C  45.25500 14.48600 27.13600
C  43.98900 14.24300 27.82400
C  44.16500 14.70300 29.12400
C  45.44900 15.24800 29.22200
C  42.76300 13.48800 27.31500
C  43.50300 14.86100 30.44800
O  42.37000 14.56100 30.77800
C  44.56900 15.46900 31.43900
C  44.08900 16.54300 32.26600
O  43.53600 17.56800 31.83200
O  44.39200 16.27700 33.57100
C  43.94900 17.35000 34.45100
H  50.73200 18.50400 30.24000
H  50.82900 15.81400 24.48600
H  44.93600 13.57400 25.20700
H  46.34300 17.68300 32.49400
H  49.26100 17.96300 32.34200
H  48.78400 20.15900 32.22500
H  47.06900 19.80300 31.93600
H  48.28200 20.00400 30.61800
H  48.77700 16.03200 33.33300
H  47.72300 15.03500 32.68400
H  46.32800 15.30700 34.82100
H  46.73600 17.05100 34.77300
H  53.61700 18.17500 28.90300
H  52.57100 19.19200 29.59700
H  52.97800 19.55400 27.90400
H  54.03000 18.94200 26.20500
H  54.83000 17.95800 24.93400
H  54.87200 17.35500 26.61700
H  49.30200 13.92800 23.46700
H  46.54400 14.27000 22.98000
H  48.20500 15.21900 21.51200
H  49.78600 15.45500 21.98100
H  48.70500 16.71200 22.54700
H  46.25800 12.08400 23.90700
H  47.92600 12.33400 24.56200
H  47.15300 10.98500 22.04600
H  48.68300 11.14700 22.91100
H  48.18900 12.37600 21.84500
H  43.02300 12.44100 27.46900
H  42.66800 13.69900 26.25000
H  41.80200 13.79100 27.73200
H  44.74400 14.58500 32.05300
H  44.38900 17.24200 35.44300
H  42.88000 17.15000 34.52600
H  44.14000 18.36600 34.10500
Mg 16.14000 51.77400 26.72700
C  18.09900 50.61400 29.26500
C  13.60300 52.53700 28.85300
C  14.33500 52.61000 23.95100
C  18.50200 50.50100 24.46500
N  16.00200 51.53000 28.84400
C  16.86600 51.12100 29.72500
C  16.37100 51.27400 31.20500
C  14.87700 51.54100 30.97400
C  14.80500 51.95800 29.46900
C  14.01400 50.24800 31.18100
C  17.20000 52.41400 31.84700
C  17.40300 52.51500 33.27000
H  16.30500 51.84300 34.15100
N  14.25600 52.57500 26.45300
C  13.33400 52.80400 27.44400
C  12.11500 53.35900 26.83700
C  12.37200 53.50600 25.45000
C  13.66300 52.89900 25.23900
C  10.91700 53.79900 27.66400
C  11.51600 54.07900 24.36200
O  11.81900 54.07200 23.16800
C  10.18400 54.73700 24.65800
N  16.45500 51.68500 24.54200
C  15.54600 51.98900 23.62700
C  16.01900 52.04200 22.21000
C  17.38200 51.30300 22.37600
C  17.48900 51.20000 23.89100
C  14.96100 51.60200 21.15800
C  18.60300 52.00100 21.57200
C  18.87900 51.45200 20.21300
N  17.96400 50.77700 26.83700
C  18.80600 50.32900 25.82000
C  19.90900 49.61400 26.39500
C  19.70500 49.77000 27.72200
C  18.53900 50.49600 27.96100
C  20.99700 48.91600 25.63500
C  20.24800 49.46500 29.00700
O  21.31600 48.88200 29.29500
C  19.23400 50.04000 30.06800
C  18.84900 48.93300 31.01900
O  18.59900 47.82200 30.69500
O  18.81800 49.39000 32.31800
C  18.66500 48.37600 33.38700
H  12.74800 52.72500 29.50500
H  13.81000 52.98600 23.07000
H  19.23300 50.23100 23.70000
H  16.53600 50.34900 31.75800
H  14.60500 52.34500 31.65800
H  13.22000 50.44200 31.90300
H  14.55600 49.31700 31.35200
H  13.49800 50.04900 30.24200
H  16.78400 53.37500 31.54600
H  18.23300 52.32600 31.51000
H  17.43100 53.55600 33.59400
H  18.35400 52.07900 33.57600
H  10.09800 53.15200 27.34800
H  10.64500 54.84000 27.49300
H  10.96700 53.62400 28.73900
H  10.30300 55.62300 25.28200
H  9.56000 54.02200 25.19400
H  9.72800 55.09200 23.73300
H  16.24400 53.08200 21.97300
H  17.32400 50.29000 21.97900
H  15.51800 50.94800 20.48600
H  14.75700 52.44800 20.50200
H  14.11100 51.10300 21.62200
H  19.41500 51.87600 22.28900
H  18.52900 53.08500 21.48200
H  18.20000 50.68900 19.83300
H  19.88200 51.03600 20.30600
H  18.82900 52.32900 19.56600
H  21.62200 49.64600 25.12000
H  20.52800 48.25400 24.90700
H  21.53400 48.16900 26.22000
H  19.70300 50.82600 30.66000
H  18.12200 48.83100 34.21500
H  19.64900 48.02400 33.69400
H  18.12700 47.56700 32.89300

