158

Mg -3.17100 17.06000 27.07500
C  -3.55400 14.87000 29.84700
C  -3.17700 19.74100 29.35400
C  -2.89000 19.09800 24.55300
C  -3.45100 14.32900 25.02800
N  -3.16200 17.27300 29.37400
C  -3.33400 16.24400 30.26300
C  -3.33600 16.78500 31.67400
C  -3.36300 18.33900 31.46200
C  -3.22800 18.48500 29.97100
C  -4.50800 19.22300 32.25100
C  -2.14600 16.25500 32.53500
C  -1.70700 16.98400 33.74700
H  -1.55700 16.10200 35.02700
N  -2.91000 19.09100 27.00300
C  -2.99300 20.02700 28.00700
C  -2.85500 21.33300 27.45400
C  -2.57500 21.12600 26.08800
C  -2.84700 19.71200 25.81900
C  -2.92000 22.57400 28.31800
C  -2.10500 22.07200 25.02300
O  -1.81600 21.75600 23.87700
C  -1.78800 23.45500 25.39800
N  -3.22300 16.71700 25.13000
C  -3.09800 17.76600 24.27400
C  -3.16400 17.25700 22.78300
C  -3.17600 15.70000 22.93900
C  -3.28600 15.53500 24.45000
C  -4.21100 17.85600 21.78600
C  -2.11700 14.86100 22.26200
C  -0.67800 15.04400 22.78500
N  -3.39600 14.97200 27.33100
C  -3.50200 14.00600 26.36900
C  -3.75000 12.73100 26.98100
C  -3.80600 13.01500 28.39900
C  -3.53800 14.39900 28.51700
C  -3.91900 11.37400 26.34600
C  -3.99400 12.47200 29.74800
O  -4.20200 11.34900 30.16700
C  -3.86700 13.65100 30.74000
C  -2.70500 13.22400 31.56500
O  -1.54600 13.36700 31.29400
O  -3.19400 12.63700 32.77600
C  -2.16900 11.89500 33.50200
H  -3.37100 20.60000 30.00000
H  -2.87600 19.66600 23.62100
H  -3.83200 13.49800 24.43000
H  -4.18200 16.32400 32.18300
H  -2.44000 18.73700 31.88200
H  -4.92700 19.89900 31.50700
H  -4.04600 19.81900 33.03800
H  -5.24800 18.53000 32.65300
H  -1.29800 16.04100 31.88500
H  -2.69100 15.43200 32.99600
H  -2.48900 17.72200 33.92200
H  -0.74300 17.45800 33.55600
H  -3.35500 22.40300 29.30300
H  -3.65900 23.21400 27.83700
H  -1.96900 23.10500 28.36000
H  -2.68100 23.86800 25.86800
H  -1.36000 23.98000 24.54400
H  -1.01700 23.54900 26.16200
H  -2.21100 17.46300 22.29500
H  -4.12700 15.32100 22.56300
H  -3.70100 18.32800 20.94600
H  -4.81600 18.66400 22.19700
H  -4.72800 17.10400 21.19000
H  -2.20400 14.96800 21.18000
H  -2.35600 13.81400 22.44400
H  -0.11500 15.57400 22.01600
H  -0.20600 14.12800 23.13900
H  -0.79300 15.66800 23.67200
H  -4.88600 11.26700 25.85400
H  -4.00800 10.58300 27.09100
H  -3.16700 11.23000 25.57100
H  -4.67700 13.77000 31.46000
H  -1.36700 11.61100 32.82100
H  -2.60400 10.99100 33.92800
H  -1.73700 12.50900 34.29200
Mg 37.01400 49.77900 24.71500
C  37.26400 47.98700 27.63600
C  35.45200 52.27900 26.28700
C  36.54300 51.32500 21.68800
C  38.09200 46.91100 22.93900
N  36.43100 49.99500 26.68800
C  36.76000 49.25000 27.79000
C  36.44100 49.96600 29.08000
C  35.65000 51.23400 28.57300
C  35.84700 51.17400 27.06800
C  34.23800 51.41800 29.03400
C  37.68600 50.20100 29.90100
C  37.43100 50.06800 31.42300
H  35.99200 50.34800 32.00600
N  36.28400 51.58700 24.10400
C  35.65400 52.49700 24.95000
C  35.17800 53.65900 24.20900
C  35.55200 53.40900 22.85000
C  36.17700 52.07600 22.83300
C  34.38300 54.83500 24.82300
C  35.42100 54.28000 21.63100
O  35.80800 53.89800 20.52000
C  34.89400 55.64100 21.66400
N  37.20900 49.14900 22.59300
C  36.98800 50.01200 21.55400
C  37.23000 49.39900 20.15800
C  37.92300 48.02800 20.62800
C  37.64500 47.98100 22.15700
C  35.92200 49.11700 19.33100
C  39.40300 47.86900 20.14600
C  40.51200 48.40700 21.11000
N  37.57100 47.86200 25.17300
C  38.08300 46.82900 24.36500
C  38.64800 45.80500 25.12600
C  38.26800 46.17000 26.43600
C  37.63900 47.41600 26.39800
C  39.52500 44.65500 24.57200
C  38.33500 45.84400 27.80900
O  38.80200 44.87600 28.40300
C  37.63600 47.00800 28.61700
C  36.41500 46.48000 29.26500
O  35.35700 46.18900 28.70900
O  36.65700 46.42100 30.60000
C  35.56900 45.78600 31.39400
H  35.08700 53.18000 26.78400
H  36.26300 51.82700 20.76000
H  38.58700 46.16100 22.31900
H  35.75900 49.35100 29.66800
H  36.24600 52.04200 28.99800
H  33.87400 50.53500 29.55800
H  33.45600 51.53100 28.28200
H  34.12200 52.28400 29.68600
H  38.01100 51.23000 29.74400
H  38.49600 49.58100 29.51600
H  38.07300 50.84300 31.84100
H  37.75000 49.04400 31.61700
H  33.40400 54.67500 24.37000
H  34.68000 55.78600 24.38100
H  34.22000 54.87200 25.90000
H  34.93700 56.03700 20.64900
H  35.45100 56.32700 22.30400
H  33.86900 55.63000 22.03500
H  37.90900 50.02300 19.57700
H  37.35300 47.18100 20.24600
H  34.98800 49.19900 19.88700
H  36.08700 48.26200 18.67500
H  35.83100 49.97400 18.66500
H  39.42500 48.34000 19.16400
H  39.58800 46.79700 20.07500
H  40.13000 49.05500 21.89900
H  41.12300 48.97900 20.41200
H  41.20100 47.73900 21.62700
H  39.41500 44.47600 23.50300
H  39.29500 43.75700 25.14600
H  40.59600 44.81900 24.69000
H  38.28900 47.30600 29.43700
H  35.80300 44.73000 31.53000
H  34.59600 45.66400 30.91900
H  35.37700 46.31200 32.32900

