158

Mg 23.22200 -5.36200 44.58700
C  24.71600 -2.37700 43.45400
C  20.19600 -4.22000 43.33100
C  21.99200 -8.42600 44.96100
C  26.37100 -6.47800 45.67600
N  22.53100 -3.49800 43.47600
C  23.28400 -2.37700 43.11400
C  22.43100 -1.21900 42.60700
C  21.00000 -1.80300 42.81200
C  21.17100 -3.24300 43.27000
C  20.20200 -0.86700 43.77500
C  22.83000 -0.82300 41.16100
C  23.73700 0.41900 40.87900
H  24.74800 0.32300 39.69400
N  21.33500 -6.18400 44.24600
C  20.19000 -5.58600 43.66200
C  19.11000 -6.52500 43.59100
C  19.57200 -7.78100 44.07100
C  21.05400 -7.52700 44.45900
C  17.66700 -6.11000 43.05000
C  18.68100 -9.02800 44.23100
O  17.49500 -8.92500 44.04000
C  19.28800 -10.22700 44.83700
N  24.11100 -7.22000 45.26800
C  23.36300 -8.35600 45.35900
C  24.21100 -9.51300 45.96000
C  25.62200 -8.80000 46.20300
C  25.34300 -7.38700 45.69100
C  23.64300 -10.26700 47.20600
C  26.85600 -9.42700 45.50700
C  28.09600 -9.45800 46.47500
N  25.15100 -4.62900 44.63400
C  26.33000 -5.17800 45.07900
C  27.41800 -4.22800 44.94700
C  26.84000 -3.11400 44.33000
C  25.43000 -3.42000 44.13700
C  28.87600 -4.46200 45.17900
C  27.11000 -1.87800 43.71000
O  28.24200 -1.38400 43.47700
C  25.81500 -1.30800 43.23900
C  25.59600 0.04000 43.90200
O  24.99700 0.24000 44.94800
O  26.26400 1.02900 43.17400
C  26.25300 2.41500 43.60300
H  19.23500 -3.84000 42.97900
H  21.61100 -9.41900 45.21000
H  27.35400 -6.83800 45.98900
H  22.60200 -0.32500 43.20700
H  20.37900 -1.89100 41.92000
H  20.80600 -0.00700 44.06200
H  20.15500 -1.51800 44.64900
H  19.20600 -0.51600 43.50500
H  21.90600 -0.48800 40.68800
H  23.24600 -1.66300 40.60400
H  24.27200 0.66500 41.79600
H  23.04300 1.24700 40.73700
H  17.29100 -6.87400 42.37000
H  17.71600 -5.20600 42.44400
H  16.93300 -6.00100 43.84700
H  18.51300 -10.99000 44.90200
H  19.77100 -10.08800 45.80400
H  20.05400 -10.63300 44.17500
H  24.39900 -10.27500 45.20400
H  25.72900 -8.58900 47.26700
H  24.21100 -9.98800 48.09400
H  23.54400 -11.33200 46.99700
H  22.63000 -9.93300 47.43000
H  27.09100 -8.72100 44.71100
H  26.63400 -10.35400 44.98000
H  28.75700 -10.26600 46.16400
H  27.93300 -9.58800 47.54500
H  28.69100 -8.58300 46.21400
H  29.16900 -5.13600 44.37500
H  29.09100 -5.00000 46.10300
H  29.39200 -3.52600 44.96700
H  25.75500 -1.06000 42.18000
H  25.59400 2.64400 44.44100
H  26.07900 3.07100 42.75000
H  27.29100 2.67300 43.81000
Mg 49.53300 46.16800 42.88400
C  45.97200 46.46900 41.89700
C  49.23300 42.87400 42.01000
C  52.80500 45.96100 43.08000
C  49.63400 49.64100 43.03000
N  47.81500 44.87800 42.00700
C  46.47200 45.21500 41.54800
C  45.70300 43.95500 41.08000
C  46.64000 42.77600 41.48300
C  47.96400 43.59800 41.87000
C  46.15600 42.00000 42.75600
C  45.23700 43.84000 39.57500
C  46.31400 44.38800 38.52800
H  46.69800 43.54100 37.30000
N  50.87900 44.63300 42.55100
C  50.53600 43.30400 42.28000
C  51.77800 42.50500 42.34500
C  52.87900 43.38600 42.53700
C  52.23000 44.76800 42.76700
C  51.76600 41.02700 42.10300
C  54.28400 42.97000 42.36900
O  54.54100 41.84100 41.93100
C  55.40900 43.93200 42.52500
N  50.97100 47.59900 42.87500
C  52.28200 47.28300 43.15100
C  53.09900 48.51100 43.56800
C  52.03800 49.65200 43.35900
C  50.79300 48.92500 42.95300
C  53.53700 48.32200 45.09300
C  52.31900 50.76700 42.28200
C  52.11400 52.21100 42.82400
N  48.06700 47.80500 42.73900
C  48.34100 49.13500 42.76900
C  46.99400 49.82400 42.67600
C  46.12900 48.86300 42.23500
C  46.79000 47.55100 42.34200
C  46.73900 51.28500 42.79500
C  44.75600 48.60900 41.81100
O  43.84600 49.34600 41.69000
C  44.64800 47.06700 41.44000
C  43.41300 46.44200 42.01900
O  42.42200 46.05100 41.40400
O  43.50600 46.52500 43.40000
C  42.25100 46.08800 44.11500
H  49.10000 41.83000 41.72000
H  53.86700 45.88900 43.32600
H  49.72800 50.71800 43.18700
H  44.82100 43.98200 41.72000
H  46.75100 42.20300 40.56200
H  46.88200 42.04900 43.56700
H  46.22800 40.92700 42.57500
H  45.22400 42.40700 43.14900
H  44.39900 44.49600 39.33700
H  44.88200 42.82600 39.39300
H  47.29300 44.59900 38.95900
H  45.91900 45.32000 38.12300
H  52.48300 40.48100 42.71700
H  52.15400 40.86500 41.09700
H  50.81900 40.49000 42.15400
H  55.34500 44.71100 41.76500
H  56.35000 43.39200 42.42000
H  55.40900 44.40000 43.50900
H  53.95200 48.59000 42.89400
H  51.97300 50.24900 44.26800
H  54.05500 47.40000 45.35800
H  52.62100 48.26500 45.68100
H  54.13700 49.17500 45.41000
H  51.64100 50.72500 41.42900
H  53.34300 50.73200 41.91100
H  52.07100 52.23800 43.91300
H  51.19900 52.69600 42.48400
H  53.01100 52.76600 42.54700
H  46.81200 51.57800 41.74800
H  47.46700 51.68300 43.50200
H  45.75000 51.52700 43.18200
H  44.60100 46.96900 40.35500
H  41.83500 45.25600 43.54900
H  41.66000 47.00300 44.08400
H  42.35200 45.84700 45.17300

