158

Mg -1.30800 17.71500 25.98100
C  -1.92500 15.73400 28.60800
C  -2.03500 20.44700 28.05500
C  -0.76200 19.82300 23.41900
C  -1.40300 15.02700 23.87100
N  -1.79900 18.00400 28.12800
C  -1.89000 17.03900 29.03900
C  -2.18000 17.58000 30.43300
C  -2.57900 19.11600 30.14900
C  -2.14200 19.19800 28.68000
C  -4.09200 19.40200 30.22900
C  -1.09000 17.41600 31.41700
C  -1.50300 16.81400 32.76400
H  -0.23000 16.31300 33.51300
N  -1.17700 19.76400 25.81600
C  -1.55800 20.70900 26.76000
C  -1.36000 22.03100 26.20300
C  -0.82100 21.91600 24.90400
C  -0.82700 20.44300 24.66700
C  -1.61900 23.33400 26.94700
C  -0.44200 22.98300 23.92600
O  0.03600 22.75900 22.82600
C  -0.56900 24.39900 24.27300
N  -1.26100 17.44300 23.88900
C  -0.98100 18.45800 23.06500
C  -0.85200 17.89700 21.55900
C  -0.71600 16.34900 21.78900
C  -1.14500 16.23800 23.28700
C  -1.95300 18.36300 20.57400
C  0.62900 15.68200 21.35900
C  1.72000 15.70200 22.42200
N  -1.61000 15.76300 26.15400
C  -1.65700 14.77900 25.19600
C  -1.85800 13.52400 25.87200
C  -1.92200 13.84700 27.21800
C  -1.86400 15.20400 27.29700
C  -1.96300 12.22200 25.19500
C  -2.07000 13.31200 28.47000
O  -2.17500 12.07500 28.72600
C  -2.31300 14.50400 29.40600
C  -1.64700 14.12200 30.63500
O  -0.47400 14.19600 30.90000
O  -2.63200 13.50800 31.43300
C  -2.19100 12.95200 32.69300
H  -2.29900 21.29000 28.69600
H  -0.72400 20.52100 22.58000
H  -1.22100 14.16300 23.22900
H  -2.98300 16.95300 30.82000
H  -2.11000 19.81400 30.84200
H  -4.38400 20.25500 29.61600
H  -4.40100 19.61700 31.25200
H  -4.62700 18.56000 29.79000
H  -0.66300 18.38400 31.67600
H  -0.26800 16.84100 30.99100
H  -2.28000 16.07200 32.58400
H  -1.89900 17.66500 33.31900
H  -0.70700 23.89300 27.16100
H  -2.14900 23.17500 27.88600
H  -2.29800 23.95600 26.36400
H  0.03400 24.46200 25.17800
H  -1.59600 24.74500 24.38300
H  -0.15200 25.04400 23.50000
H  0.14400 18.16000 21.20200
H  -1.51400 15.78500 21.30500
H  -2.57000 18.95400 21.25100
H  -2.60600 17.58800 20.17100
H  -1.54500 19.04600 19.82900
H  1.16400 16.05600 20.48600
H  0.44900 14.65400 21.04500
H  1.56900 16.42600 23.22200
H  2.67100 15.94100 21.94600
H  1.80800 14.69500 22.83200
H  -1.66800 11.41600 25.86700
H  -1.32400 12.32700 24.31800
H  -2.98800 12.06900 24.85500
H  -3.38400 14.62200 29.57500
H  -3.05300 12.45000 33.13400
H  -1.86100 13.82200 33.26100
H  -1.29600 12.33100 32.66000
Mg 1.58900 43.14000 25.54100
C  3.24000 43.12700 28.62300
C  -1.21400 41.94200 27.24700
C  0.29900 42.54900 22.53100
C  4.58000 43.96700 24.01600
N  1.03100 42.77500 27.74800
C  1.83100 42.88500 28.84800
C  1.05600 42.55800 30.10200
C  -0.24800 41.95000 29.54900
C  -0.19100 42.27400 28.09900
C  -0.40900 40.40300 29.83200
C  1.00000 43.80800 30.96800
C  1.54300 43.69100 32.39800
H  0.58100 43.03800 33.42200
N  -0.20600 42.32600 24.93100
C  -1.26100 41.90100 25.80400
C  -2.43700 41.54800 24.93400
C  -2.02800 41.70800 23.54200
C  -0.59100 42.19700 23.61300
C  -3.66700 41.13400 25.60500
C  -2.82600 41.59200 22.20200
O  -2.42200 41.68000 21.05600
C  -4.29700 41.39700 22.28000
N  2.37300 43.17400 23.55300
C  1.60200 43.01700 22.49300
C  2.38100 43.32400 21.14100
C  3.64100 44.06500 21.70400
C  3.51600 43.74000 23.20900
C  2.57200 42.11700 20.15600
C  3.63700 45.62400 21.26400
C  4.67200 45.97900 20.22100
N  3.48300 43.55000 26.10000
C  4.63300 43.78200 25.38600
C  5.77600 43.98000 26.27900
C  5.24700 43.68100 27.52400
C  3.87000 43.43700 27.41300
C  7.23300 44.28300 25.88500
C  5.72300 43.35400 28.83700
O  6.88000 43.21200 29.30400
C  4.35800 43.16400 29.66800
C  4.50300 41.85600 30.46100
O  4.52100 40.70400 30.01700
O  4.69600 42.21500 31.83400
C  4.67300 41.23000 32.88100
H  -2.05300 41.56800 27.83700
H  -0.17200 42.54200 21.54600
H  5.41700 44.32200 23.41200
H  1.75100 41.88900 30.60800
H  -1.04900 42.52800 30.01000
H  0.48900 40.08900 30.36500
H  -0.41700 39.89000 28.87000
H  -1.29500 40.11200 30.39500
H  -0.04500 44.07300 31.13100
H  1.46500 44.66600 30.48300
H  1.78900 44.72700 32.63000
H  2.43900 43.08000 32.29200
H  -3.45700 40.79000 26.61800
H  -4.06200 40.25100 25.10200
H  -4.49100 41.82500 25.78600
H  -4.77700 41.58200 21.31900
H  -4.77500 42.11000 22.95100
H  -4.46600 40.42700 22.74600
H  1.75500 43.99100 20.54800
H  4.63900 43.70600 21.45500
H  3.60900 41.86500 20.37400
H  2.65100 42.48800 19.13400
H  1.86600 41.30300 20.32100
H  3.81400 46.15700 22.19800
H  2.68800 45.95700 20.84500
H  4.11400 46.29100 19.33800
H  5.34900 45.13900 20.06800
H  5.27000 46.82000 20.57100
H  7.44600 45.33600 25.70200
H  7.43900 43.78200 24.93900
H  7.87700 43.97400 26.70900
H  4.16400 44.00200 30.33700
H  5.13400 41.55900 33.81300
H  5.21600 40.36400 32.50300
H  3.67800 40.80900 33.02900

