158

Mg -2.13300 17.29600 26.52200
C  -2.50600 15.04000 29.26200
C  -2.65900 19.78800 28.70200
C  -1.77900 19.26100 23.94900
C  -1.94500 14.48400 24.41900
N  -2.59200 17.34900 28.75200
C  -2.66200 16.35000 29.68300
C  -3.16200 16.88800 31.03600
C  -3.15300 18.43900 30.82100
C  -2.71000 18.55700 29.31700
C  -4.56700 19.08800 31.11600
C  -2.50500 16.32200 32.26800
C  -2.82800 16.97200 33.58000
H  -2.13000 16.30600 34.79800
N  -2.09200 19.28800 26.35300
C  -2.38700 20.16000 27.35700
C  -2.18100 21.46400 26.78300
C  -1.85500 21.35100 25.43500
C  -1.85200 19.93200 25.19900
C  -2.29800 22.73700 27.68200
C  -1.40600 22.55300 24.42300
O  -0.94100 22.28500 23.27500
C  -1.45800 23.92700 24.87000
N  -1.93000 16.90600 24.47500
C  -1.84700 17.92500 23.62800
C  -1.91400 17.50200 22.16900
C  -1.89900 15.90700 22.29000
C  -1.87600 15.72800 23.83400
C  -3.22000 18.09700 21.55900
C  -0.69000 15.18500 21.59400
C  0.67300 15.07700 22.33800
N  -2.14300 15.14800 26.73700
C  -2.08000 14.16300 25.80400
C  -2.25300 12.88600 26.38600
C  -2.44600 13.12300 27.76200
C  -2.35500 14.54800 27.93800
C  -2.26500 11.60200 25.60900
C  -2.70800 12.55600 29.05700
O  -2.82600 11.37500 29.35600
C  -2.74200 13.77300 30.00100
C  -1.68100 13.48200 30.97100
O  -0.51000 13.86400 30.90500
O  -2.15600 12.59300 31.88900
C  -1.25200 12.01900 32.85100
H  -2.83000 20.61300 29.39700
H  -1.68700 19.91400 23.07800
H  -2.04900 13.69000 23.67700
H  -4.15900 16.45600 31.12000
H  -2.34700 18.87500 31.41200
H  -5.23600 18.27900 31.41100
H  -4.90800 19.56500 30.19800
H  -4.46300 19.92100 31.81100
H  -1.42000 16.22900 32.25400
H  -2.77200 15.27600 32.42000
H  -3.90000 16.80800 33.69100
H  -2.64100 18.04600 33.56900
H  -1.29000 23.02900 27.98000
H  -2.82400 22.61700 28.62900
H  -2.98200 23.47300 27.26000
H  -1.07200 24.68000 24.18400
H  -0.93900 23.99500 25.82600
H  -2.53100 24.11600 24.89600
H  -0.96100 17.85800 21.77700
H  -2.81500 15.41100 21.97000
H  -3.62900 18.94700 22.10600
H  -3.89900 17.25200 21.44800
H  -3.05700 18.47500 20.55000
H  -0.46500 15.74600 20.68700
H  -0.88600 14.17600 21.23100
H  1.01600 14.04800 22.23100
H  0.58400 15.31600 23.39800
H  1.27100 15.88500 21.91700
H  -1.53900 11.53200 24.79900
H  -3.24100 11.64300 25.12400
H  -2.28000 10.76800 26.31000
H  -3.72500 13.84100 30.46700
H  -1.63700 11.11200 33.31700
H  -1.08900 12.74100 33.65200
H  -0.32100 11.87700 32.30200
Mg 6.89000 54.47500 41.18300
C  4.59200 51.83800 41.01100
C  9.15900 52.54600 39.82500
C  8.64600 57.26100 40.90000
C  4.02500 56.56200 41.94400
N  6.71100 52.49000 40.25100
C  5.75100 51.50500 40.35200
C  6.22700 50.19500 39.72200
C  7.75300 50.42000 39.58800
C  7.91000 51.93500 39.91200
C  8.61100 49.52500 40.52000
C  5.54700 49.92200 38.34000
C  5.23400 48.47600 38.03200
H  5.71900 47.80800 36.66300
N  8.74400 54.83600 40.53100
C  9.51900 53.89000 40.02000
C  10.81200 54.41400 39.85000
C  10.69200 55.84000 40.04500
C  9.30500 56.08100 40.51100
C  12.05700 53.70600 39.45600
C  11.77100 56.86700 39.72300
O  12.83700 56.46400 39.27000
C  11.50400 58.31900 39.70400
N  6.34000 56.64400 41.36900
C  7.35800 57.56500 41.26900
C  6.87600 59.04300 41.43000
C  5.33900 58.78900 41.49600
C  5.17400 57.21100 41.60200
C  7.53800 59.81500 42.67400
C  4.55400 59.27300 40.26300
C  3.48000 60.39200 40.36500
N  4.75600 54.25000 41.54000
C  3.80000 55.20800 41.86400
C  2.50200 54.53800 42.04800
C  2.82000 53.16500 41.84300
C  4.15700 53.03700 41.45900
C  1.21900 55.10900 42.53300
C  2.26000 51.80500 41.89100
O  1.13400 51.40000 42.19200
C  3.42400 50.90200 41.40500
C  2.84900 49.96100 40.32900
O  2.32600 50.19800 39.26400
O  2.89300 48.68700 40.93900
C  2.44100 47.53400 40.06100
H  9.93200 51.85500 39.48200
H  9.21100 58.19200 40.81800
H  3.21200 57.27800 42.07700
H  6.03700 49.42000 40.46400
H  8.06800 50.22900 38.56200
H  9.34900 48.98700 39.92500
H  7.96100 48.83000 41.05200
H  9.14000 50.17400 41.21800
H  6.18800 50.36500 37.57700
H  4.62300 50.49800 38.39300
H  4.15100 48.58700 37.97900
H  5.50900 47.84200 38.87500
H  12.26300 53.70600 38.38600
H  12.03400 52.68500 39.83900
H  12.89200 54.12700 40.01700
H  10.57900 58.53900 39.17100
H  12.30600 58.80100 39.14500
H  11.54400 58.62700 40.74900
H  7.14100 59.59500 40.52800
H  4.98700 59.23300 42.42700
H  6.79200 60.27400 43.32300
H  8.08700 60.60700 42.16600
H  8.24600 59.18000 43.20700
H  4.15000 58.41100 39.73200
H  5.29700 59.67000 39.57200
H  3.78300 61.25400 39.77100
H  3.30800 60.61800 41.41700
H  2.60200 59.93700 39.90500
H  0.35000 54.71800 42.00200
H  1.34900 56.18700 42.44300
H  1.08200 54.88800 43.59100
H  3.69800 50.28100 42.25800
H  3.26800 46.82900 39.97300
H  2.07700 47.87900 39.09300
H  1.56900 47.14000 40.58400

