158

Mg 47.11500 25.59600 28.13300
C  48.10800 27.67100 30.68200
C  46.05000 23.37700 30.37800
C  46.60700 23.38200 25.58100
C  49.13900 27.45400 25.95700
N  46.97300 25.59700 30.29900
C  47.40300 26.60100 31.16700
C  47.08500 26.24700 32.64100
C  46.46900 24.85300 32.54400
C  46.48300 24.55400 30.94800
C  47.21500 23.78300 33.44000
C  46.11000 27.23200 33.29600
C  46.41000 27.83500 34.61900
H  45.41400 27.74100 35.77600
N  46.17300 23.76200 28.00600
C  45.82900 22.96400 29.08200
C  45.30900 21.66400 28.57800
C  45.39300 21.73900 27.11900
C  46.09900 22.99000 26.84400
C  44.73500 20.56000 29.50700
C  44.82100 20.83900 26.11600
O  44.88300 20.96100 24.87400
C  44.06700 19.68700 26.58800
N  47.77600 25.45400 26.06600
C  47.35200 24.52600 25.18700
C  47.93700 24.71300 23.76400
C  48.60000 26.12100 23.91600
C  48.52400 26.37900 25.41500
C  48.86400 23.53400 23.39300
C  47.92800 27.29600 23.13300
C  48.77900 28.02600 22.08300
N  48.29800 27.22200 28.25900
C  49.12300 27.83000 27.31400
C  49.72500 29.06200 27.90100
C  49.37700 28.94700 29.23000
C  48.49800 27.84700 29.40600
C  50.65000 29.97000 27.21000
C  49.64500 29.55000 30.49300
O  50.40100 30.47300 30.75300
C  48.83800 28.73200 31.52400
C  49.80700 28.18200 32.49100
O  50.58800 27.22800 32.33600
O  49.70100 28.82700 33.71300
C  50.32100 28.15900 34.91800
H  45.82600 22.58700 31.09800
H  46.51700 22.61800 24.80600
H  49.64000 28.14100 25.27200
H  48.07000 26.36400 33.09400
H  45.40200 24.82000 32.76200
H  47.60700 24.36800 34.27100
H  48.07300 23.43400 32.86400
H  46.57800 22.99500 33.84200
H  45.10500 26.81300 33.33900
H  45.98200 28.09000 32.63600
H  46.70600 28.88300 34.57400
H  47.30900 27.38800 35.04300
H  43.64600 20.57500 29.49300
H  45.08800 20.64100 30.53500
H  45.00400 19.56600 29.15000
H  44.94800 19.10900 26.86700
H  43.52400 19.18500 25.78800
H  43.37200 19.86800 27.40800
H  47.06500 24.69700 23.11000
H  49.63300 26.12700 23.56800
H  49.15500 23.09500 24.34700
H  49.76700 23.78300 22.83400
H  48.38200 22.76600 22.78800
H  47.52300 28.00300 23.85800
H  47.10100 26.91800 22.53200
H  48.32600 27.90000 21.09900
H  49.80700 27.66400 22.07400
H  48.82600 29.10400 22.24000
H  50.06400 30.45200 26.42700
H  51.47100 29.46600 26.70100
H  51.02900 30.54500 28.05500
H  48.11800 29.41300 31.97700
H  50.67500 27.16000 34.66200
H  49.51400 28.08300 35.64800
H  50.99600 28.80500 35.47800
Mg -5.42000 24.68700 25.96300
C  -4.09400 26.08100 28.84100
C  -7.17500 22.41700 27.96400
C  -6.43900 23.21500 23.30500
C  -3.39100 26.77200 24.12300
N  -5.63600 24.42100 28.17700
C  -5.01600 25.13500 29.14900
C  -5.55600 24.78700 30.55900
C  -6.32000 23.41200 30.26300
C  -6.36500 23.36900 28.70000
C  -5.67700 22.10500 30.86300
C  -6.48200 25.81600 31.24300
C  -6.21200 26.12500 32.72800
H  -7.19400 25.41400 33.69100
N  -6.70300 23.20000 25.68200
C  -7.39100 22.43200 26.57400
C  -8.39400 21.72000 25.94200
C  -8.24000 21.92400 24.55400
C  -7.03500 22.79500 24.45700
C  -9.44100 20.93700 26.60600
C  -9.01200 21.35500 23.40000
O  -8.59200 21.40000 22.22400
C  -10.33600 20.54600 23.54000
N  -4.76500 24.79300 24.01400
C  -5.41900 24.10800 23.09500
C  -4.89700 24.48500 21.72400
C  -4.09100 25.72500 21.96800
C  -4.05500 25.79700 23.44300
C  -4.20800 23.37500 20.91600
C  -4.41900 27.05200 21.14300
C  -3.24000 27.85100 20.56400
N  -3.89100 26.10700 26.34200
C  -3.24900 26.99300 25.51900
C  -2.30500 27.86600 26.22900
C  -2.70000 27.57200 27.57700
C  -3.65500 26.51700 27.59200
C  -1.27300 28.87600 25.65700
C  -2.51800 28.07000 28.96400
O  -1.82800 28.98200 29.41100
C  -3.40600 27.13300 29.84300
C  -2.53800 26.49200 30.92800
O  -1.68400 25.64600 30.77100
O  -2.79800 27.18900 32.10200
C  -1.79600 26.91600 33.15800
H  -7.64500 21.65400 28.58700
H  -6.70800 22.65600 22.40600
H  -2.81400 27.43600 23.47700
H  -4.65200 24.53900 31.11500
H  -7.38700 23.55600 30.43400
H  -6.46400 21.52000 31.33900
H  -4.98900 22.39100 31.65900
H  -5.06900 21.51700 30.17600
H  -7.49600 25.42700 31.14500
H  -6.44600 26.74900 30.68000
H  -6.28700 27.19700 32.90900
H  -5.23000 25.73500 32.99800
H  -10.41900 21.14800 26.17400
H  -9.43300 21.10900 27.68300
H  -9.27900 19.87100 26.44100
H  -10.78900 20.37400 22.56300
H  -11.00600 21.28300 23.98200
H  -10.27000 19.62500 24.11800
H  -5.80500 24.68800 21.15500
H  -3.08200 25.41300 21.70000
H  -4.45700 22.40500 21.34700
H  -3.12500 23.49100 20.94700
H  -4.48200 23.41900 19.86100
H  -5.15300 27.71200 21.60400
H  -5.06100 26.59800 20.38900
H  -3.53900 27.97200 19.52200
H  -2.34000 27.23600 20.55600
H  -2.98700 28.82700 20.97800
H  -0.63400 29.18100 26.48600
H  -1.79000 29.80800 25.43100
H  -0.71200 28.44100 24.83000
H  -4.06300 27.80700 30.39200
H  -2.10900 26.08200 33.78500
H  -1.94900 27.77200 33.81600
H  -0.77400 26.78800 32.80100

