158

Mg 25.61900 -0.23900 29.42500
C  27.44200 -0.76100 32.25000
C  22.78100 -0.09600 31.35400
C  23.62900 -0.27700 26.55500
C  28.43000 -0.82200 27.47300
N  25.19200 -0.61300 31.52600
C  26.15800 -0.56400 32.52400
C  25.59600 -0.29400 33.98900
C  24.03700 -0.27800 33.64300
C  23.95600 -0.42000 32.10800
C  23.14800 -1.25600 34.44500
C  26.19900 0.96200 34.69100
C  26.79000 0.64600 36.05400
H  26.47000 1.70300 37.13900
N  23.56300 -0.06700 29.01400
C  22.50900 0.13400 29.95800
C  21.28500 0.47800 29.28600
C  21.55000 0.37100 27.90600
C  22.96100 -0.06200 27.76100
C  20.04100 0.82800 30.00200
C  20.61700 0.57200 26.72900
O  20.87600 0.36400 25.53300
C  19.26400 1.24700 27.00500
N  25.91000 -0.40000 27.32900
C  25.00700 -0.38400 26.34200
C  25.69300 -0.51900 24.94500
C  27.19300 -0.41800 25.28000
C  27.22000 -0.54000 26.83500
C  25.28100 -1.73600 24.09900
C  27.85600 0.92700 24.87800
C  29.14500 0.98700 24.10700
N  27.59900 -0.57200 29.78600
C  28.59500 -0.84200 28.90200
C  29.76600 -1.12000 29.69800
C  29.50100 -0.93800 31.02600
C  28.08400 -0.79900 31.01700
C  31.12300 -1.49800 29.13400
C  29.95900 -0.92000 32.34700
O  31.06600 -0.90700 32.83500
C  28.62100 -0.96200 33.20800
C  28.44100 -2.21500 33.96000
O  27.66600 -3.14200 33.75400
O  29.36500 -2.08000 35.01200
C  29.11800 -2.97500 36.14900
H  21.93200 0.00900 32.03300
H  22.94200 -0.37700 25.71200
H  29.25400 -1.00500 26.78000
H  25.85300 -1.14900 34.61600
H  23.65100 0.72700 33.81400
H  23.34500 -1.43700 35.50200
H  23.10700 -2.19800 33.89900
H  22.15900 -0.80200 34.39400
H  25.34100 1.61600 34.84700
H  26.93300 1.41800 34.02600
H  27.84200 0.45700 35.84100
H  26.39200 -0.23900 36.55200
H  19.80300 1.86600 29.77300
H  20.30700 0.83000 31.05900
H  19.22500 0.10700 29.93800
H  19.40500 2.10400 27.66400
H  18.55400 0.49600 27.35200
H  18.87900 1.67200 26.07700
H  25.37200 0.36000 24.38600
H  27.73300 -1.27300 24.87400
H  24.79200 -2.48100 24.72600
H  26.16400 -2.21200 23.67200
H  24.57000 -1.44300 23.32500
H  28.14900 1.53900 25.73100
H  27.10300 1.42500 24.26700
H  29.06300 1.62900 23.22900
H  29.52600 0.01400 23.79500
H  29.85500 1.36000 24.84500
H  31.93100 -1.32600 29.84500
H  31.34600 -1.03700 28.17200
H  31.04000 -2.55100 28.86200
H  28.61100 -0.15700 33.94200
H  28.81500 -3.96300 35.80300
H  28.48600 -2.50200 36.90100
H  30.08100 -3.09100 36.64600
Mg 35.23200 1.39600 29.38500
C  32.97600 2.26200 31.88600
C  37.85400 1.80800 31.52300
C  37.31800 0.99800 26.71500
C  32.56800 1.99500 27.09300
N  35.34500 2.05100 31.38300
C  34.29600 2.18300 32.27300
C  34.79700 2.31800 33.73100
C  36.34000 2.48900 33.46600
C  36.51100 2.03600 32.00200
C  36.91200 3.91500 33.82000
C  34.42500 1.07600 34.56400
C  34.06100 1.32000 36.06700
H  34.50500 2.62700 36.84300
N  37.28400 1.33000 29.17600
C  38.20100 1.49100 30.18000
C  39.55400 1.45300 29.66500
C  39.38100 1.34100 28.28300
C  37.94800 1.23800 27.99000
C  40.76100 1.80300 30.56500
C  40.53800 1.27400 27.22600
O  40.31800 1.16000 26.05800
C  41.99300 1.36900 27.63100
N  34.93400 1.36900 27.22200
C  36.00100 1.20700 26.31900
C  35.48100 1.29000 24.87300
C  33.98900 1.70400 25.00500
C  33.80800 1.72200 26.51000
C  36.28300 2.32900 23.95600
C  33.01400 0.75800 24.31800
C  32.98400 -0.65900 24.92700
N  33.16100 1.81200 29.43300
C  32.23100 2.02900 28.44100
C  30.93100 2.39800 29.03900
C  31.15900 2.40400 30.42400
C  32.53400 2.13800 30.59000
C  29.68300 2.90200 28.35700
C  30.57800 2.77200 31.65300
O  29.45600 3.21500 31.93200
C  31.70000 2.50100 32.71700
C  31.73700 3.83000 33.45900
O  32.07800 4.90500 32.98500
O  31.24300 3.67500 34.68800
C  31.27800 4.94200 35.44000
H  38.66800 1.99900 32.22500
H  38.08000 0.77700 25.96500
H  31.73900 2.40700 26.51400
H  34.37300 3.20200 34.20700
H  36.84000 1.74400 34.08600
H  36.05700 4.59100 33.78400
H  37.64500 4.30500 33.11400
H  37.35500 3.79600 34.80900
H  35.22600 0.33800 34.60500
H  33.49700 0.68500 34.14600
H  34.51000 0.42500 36.49800
H  32.98000 1.19900 36.13800
H  41.40800 2.28900 29.83500
H  41.26400 0.84900 30.72400
H  40.53900 2.19800 31.55600
H  42.24600 0.65300 28.41300
H  42.42100 2.34700 27.85500
H  42.56200 1.00700 26.77500
H  35.71900 0.31400 24.45100
H  33.94400 2.75000 24.70200
H  36.98100 2.00300 23.18500
H  36.94200 2.92400 24.58800
H  35.56900 2.94200 23.40700
H  33.33800 0.52600 23.30300
H  32.01500 1.19400 24.34800
H  32.85900 -1.37100 24.11100
H  31.99800 -0.81400 25.36600
H  33.79600 -0.96800 25.58500
H  29.88200 3.80200 27.77600
H  28.83800 3.16500 28.99300
H  29.42400 2.14200 27.62000
H  31.42100 1.71800 33.42200
H  30.50200 5.58000 35.01600
H  32.27000 5.39300 35.47500
H  31.04600 4.55800 36.43300

