158

Mg -1.22500 17.60000 25.65600
C  -1.91300 15.49100 28.53200
C  -2.14500 20.25600 27.62900
C  -1.25500 19.45600 22.92600
C  -1.13100 14.61900 23.72900
N  -1.71900 17.85000 27.91200
C  -2.02800 16.91100 28.83600
C  -2.52800 17.50300 30.16700
C  -2.53200 18.99600 29.87800
C  -2.07100 19.06800 28.38800
C  -3.89600 19.65000 30.16000
C  -1.75100 17.00700 31.44600
C  -2.03200 17.78400 32.75800
H  -1.85700 16.91200 33.99700
N  -1.63800 19.54600 25.36300
C  -1.89400 20.51000 26.27600
C  -1.80200 21.84600 25.62000
C  -1.74400 21.59800 24.20500
C  -1.53100 20.15800 24.10200
C  -1.80800 23.02800 26.52900
C  -1.60500 22.57200 23.09900
O  -1.48400 22.31400 21.91200
C  -1.64600 24.05700 23.47000
N  -1.21800 17.14000 23.64500
C  -1.14500 18.09900 22.69900
C  -0.81700 17.54800 21.29100
C  -0.63700 16.06700 21.61400
C  -1.00500 15.93700 23.05400
C  -2.03700 17.73100 20.35300
C  0.80600 15.51200 21.30700
C  1.95500 15.49800 22.38100
N  -1.44400 15.50600 26.06000
C  -1.38600 14.45800 25.14200
C  -1.49100 13.18000 25.88000
C  -1.71900 13.54300 27.20800
C  -1.67300 14.97500 27.23200
C  -1.47100 11.74900 25.32200
C  -1.94800 13.06600 28.55000
O  -2.14300 11.94500 29.06100
C  -2.05000 14.32800 29.41900
C  -0.85400 14.23100 30.24900
O  0.26000 14.70000 30.03800
O  -1.18000 13.47800 31.37800
C  -0.13200 13.13400 32.33500
H  -2.54100 21.09600 28.20200
H  -1.20100 20.07800 22.03000
H  -0.97500 13.89700 22.92500
H  -3.52100 17.10700 30.37500
H  -1.78100 19.45800 30.51900
H  -4.52200 19.18200 30.91900
H  -4.52700 19.55800 29.27600
H  -3.77100 20.64100 30.59600
H  -0.70800 17.02100 31.12800
H  -1.96200 15.97000 31.70900
H  -3.06600 18.03200 32.51800
H  -1.47000 18.71800 32.71900
H  -0.99100 23.00600 27.24900
H  -2.70800 22.89600 27.13000
H  -1.97200 24.05100 26.19100
H  -1.74700 24.57200 22.51500
H  -0.67000 24.11700 23.95100
H  -2.44400 24.45200 24.09800
H  0.10600 17.96800 20.89300
H  -1.29200 15.34000 21.13400
H  -1.75300 18.40600 19.54500
H  -2.81700 18.11800 21.00800
H  -2.33800 16.74000 20.01500
H  1.15200 16.08800 20.44900
H  0.71800 14.47000 20.99700
H  2.42900 14.52000 22.46700
H  1.56900 15.80300 23.35400
H  2.68200 16.23000 22.03000
H  -0.65200 11.72700 24.60200
H  -2.36500 11.50700 24.74800
H  -1.41000 11.02800 26.13700
H  -2.85500 14.29500 30.15400
H  0.83200 13.60600 32.14800
H  0.04700 12.06000 32.38400
H  -0.43300 13.33400 33.36300
Mg 47.45200 24.81800 28.37100
C  48.36100 27.07100 31.00900
C  46.21500 22.70300 30.75600
C  46.72600 22.67200 25.86700
C  48.99100 26.93800 26.17200
N  47.31100 24.93600 30.63500
C  47.70900 25.94000 31.48700
C  47.34500 25.65300 32.92700
C  46.78100 24.18700 32.86600
C  46.79800 23.88800 31.35500
C  47.78800 23.17300 33.55400
C  46.39900 26.70200 33.54000
C  46.75700 27.32500 34.89900
H  47.43600 26.45200 35.99800
N  46.62300 22.86600 28.28100
C  46.11200 22.16100 29.35700
C  45.64600 20.89700 28.93700
C  45.70500 20.87700 27.44300
C  46.34800 22.16500 27.14500
C  45.08600 19.87500 29.81500
C  45.28500 19.86600 26.47600
O  45.45100 19.96900 25.27000
C  44.60700 18.69600 26.93600
N  47.91800 24.73500 26.30800
C  47.34800 23.83600 25.50900
C  47.83300 24.18100 24.02600
C  48.32100 25.60600 24.08200
C  48.51800 25.73600 25.60700
C  48.90400 23.22900 23.58100
C  47.29000 26.66700 23.58300
C  45.89900 26.76300 24.13800
N  48.47800 26.61400 28.46700
C  49.01600 27.41100 27.48800
C  49.60800 28.60000 27.99400
C  49.28600 28.53600 29.39700
C  48.64900 27.27000 29.62000
C  50.32100 29.57300 27.22600
C  49.42000 29.23900 30.67400
O  50.03000 30.26400 30.93900
C  48.81500 28.24900 31.79900
C  49.91200 27.89200 32.76400
O  50.65100 26.93600 32.66600
O  49.90800 28.78800 33.73900
C  50.70300 28.50400 34.97400
H  45.79100 22.08500 31.55000
H  46.41700 22.08500 25.00000
H  49.52000 27.61600 25.49900
H  48.27500 25.75200 33.48700
H  45.79700 24.00900 33.29900
H  47.27300 22.62400 34.34200
H  48.55800 23.75500 34.06100
H  48.07100 22.33100 32.92200
H  45.39400 26.35900 33.78700
H  46.19300 27.40700 32.73400
H  45.87600 27.81500 35.31400
H  47.44100 28.15100 34.70200
H  45.55100 18.89600 29.69900
H  44.06900 19.79100 29.43300
H  44.93300 20.19500 30.84500
H  44.19800 18.22400 26.04200
H  43.71400 18.88000 27.53400
H  45.32600 18.09800 27.49400
H  46.99400 24.05000 23.34300
H  49.30700 25.70000 23.62600
H  48.97100 23.43300 22.51300
H  48.69300 22.19400 23.85400
H  49.80300 23.57600 24.09000
H  47.29100 26.47300 22.51100
H  47.69600 27.67600 23.64700
H  45.76400 27.80200 24.43800
H  45.78100 26.14500 25.02700
H  45.26400 26.46000 23.30500
H  50.92700 29.14400 26.42800
H  50.97100 30.11000 27.91700
H  49.59900 30.28500 26.82600
H  47.95900 28.68200 32.31700
H  50.02300 28.05700 35.69800
H  50.94000 29.50300 35.34200
H  51.64800 27.96100 34.98300

