158

Mg 8.48200 47.95800 27.88500
C  6.91900 46.92100 30.82200
C  11.33300 48.28600 29.56200
C  9.88200 49.02700 24.94000
C  5.39300 47.86300 26.24100
N  8.92500 47.82100 29.99000
C  8.15300 47.30900 31.03300
C  8.89700 47.35700 32.33100
C  10.28700 48.08800 31.84200
C  10.20700 48.00600 30.35200
C  10.53500 49.53600 32.28800
C  9.17100 46.04800 33.07100
C  9.07700 46.16500 34.60500
H  9.89000 45.23300 35.50400
N  10.38200 48.35600 27.35800
C  11.43400 48.44000 28.17800
C  12.62300 48.77100 27.40300
C  12.25300 48.99500 26.07300
C  10.74600 48.79100 26.04000
C  13.95600 48.85500 27.99200
C  13.08200 49.37800 24.89300
O  12.62300 49.54400 23.76400
C  14.64900 49.44800 25.06400
N  7.71800 48.45400 25.90200
C  8.52200 48.91100 24.88900
C  7.68400 49.23300 23.62500
C  6.31500 48.55400 23.97600
C  6.48100 48.22100 25.43700
C  7.71300 50.76900 23.19600
C  5.94400 47.30200 23.11700
C  6.98400 46.19700 22.91400
N  6.51600 47.60500 28.39200
C  5.38500 47.51600 27.62500
C  4.22500 47.10400 28.43200
C  4.73900 46.86500 29.68200
C  6.16000 47.11500 29.60100
C  2.86900 46.93700 27.94100
C  4.39200 46.49000 31.00000
O  3.35200 46.32300 31.52600
C  5.76400 46.54200 31.80400
C  5.87400 45.17200 32.36900
O  6.25700 44.12500 31.83700
O  5.55600 45.27700 33.71100
C  5.79100 44.04800 34.57000
H  12.17300 48.37600 30.25300
H  10.28400 49.29200 23.96100
H  4.42400 47.57800 25.82700
H  8.29100 47.98900 32.98000
H  11.13700 47.54600 32.25600
H  10.43700 50.24000 31.46100
H  11.57600 49.64600 32.59000
H  9.87000 49.91000 33.06700
H  10.11100 45.54900 32.83900
H  8.43800 45.27000 32.85900
H  8.03100 46.06900 34.89800
H  9.38700 47.18900 34.81300
H  14.42000 47.99500 27.50800
H  13.94200 48.66700 29.06500
H  14.35500 49.83000 27.71300
H  14.87400 50.21500 25.80600
H  15.06000 49.72700 24.09400
H  15.08300 48.47200 25.28300
H  8.14000 48.62900 22.84000
H  5.52800 49.29600 23.84000
H  8.31600 50.77400 22.28800
H  8.28900 51.35500 23.91200
H  6.78900 51.29100 22.94600
H  5.56500 47.59600 22.13800
H  5.07800 46.86300 23.61200
H  7.25800 46.22400 21.86000
H  6.47200 45.23800 22.99600
H  7.76500 46.29600 23.66800
H  2.24300 46.47300 28.70300
H  2.83100 46.25100 27.09600
H  2.36200 47.85900 27.65800
H  5.66000 47.35600 32.52200
H  5.25100 43.14400 34.28800
H  5.45700 44.17500 35.60000
H  6.82600 43.72800 34.68900
Mg -0.65700 43.04100 26.82300
C  1.61000 42.90200 29.38400
C  -3.04000 41.81000 28.90100
C  -2.60600 42.57200 24.00300
C  2.11200 43.49400 24.49900
N  -0.65100 42.23600 28.86000
C  0.33200 42.51600 29.77600
C  -0.14500 42.36000 31.26300
C  -1.46900 41.53100 30.99700
C  -1.83200 41.94200 29.50700
C  -1.30200 40.00800 31.11300
C  -0.39600 43.57100 32.13100
C  0.49400 43.57700 33.40100
H  0.22300 42.50000 34.41400
N  -2.58100 42.48700 26.54500
C  -3.45100 42.08200 27.55000
C  -4.83000 41.96600 26.98700
C  -4.60900 42.21800 25.56100
C  -3.20400 42.42900 25.34900
C  -6.01800 41.48000 27.81400
C  -5.60500 42.30700 24.52700
O  -5.43100 42.47900 23.31500
C  -7.00900 42.01800 24.89700
N  -0.32600 43.28600 24.48600
C  -1.33700 43.05500 23.64500
C  -0.88800 43.16300 22.11400
C  0.61100 43.64200 22.32500
C  0.86600 43.43300 23.86500
C  -1.15000 41.92000 21.22900
C  0.76200 45.23800 21.93600
C  1.71700 45.56800 20.71100
N  1.44300 43.24300 26.90000
C  2.37300 43.49200 25.86600
C  3.66600 43.57700 26.48600
C  3.45600 43.30200 27.85800
C  2.08600 43.08400 28.03700
C  4.98000 43.92500 25.81500
C  4.05100 43.11600 29.18500
O  5.24600 43.12300 29.42500
C  2.87200 42.94900 30.21000
C  3.01400 41.68500 30.98800
O  2.89700 40.54300 30.51100
O  3.25500 42.00700 32.27100
C  3.55100 40.85000 33.12700
H  -3.82500 41.65000 29.64300
H  -3.22900 42.32300 23.14100
H  3.00200 43.62300 23.88000
H  0.58100 41.73900 31.78800
H  -2.30000 41.82500 31.63800
H  -0.25800 39.71800 30.99500
H  -1.80500 39.55200 30.26000
H  -1.63700 39.71200 32.10700
H  -1.40900 43.52500 32.52900
H  -0.31000 44.53000 31.62000
H  0.18600 44.53000 33.83200
H  1.55900 43.63300 33.17600
H  -6.28800 40.48900 27.44800
H  -6.85700 42.07000 27.44600
H  -5.86800 41.40400 28.89100
H  -6.96300 40.94500 25.08500
H  -7.66000 42.18300 24.03800
H  -7.16300 42.81400 25.62500
H  -1.36200 44.00400 21.60900
H  1.28200 43.06800 21.68600
H  -1.91400 42.38600 20.60700
H  -1.64900 41.11900 21.77500
H  -0.26600 41.69300 20.63300
H  1.18900 45.71800 22.81600
H  -0.17700 45.71400 21.65100
H  2.07700 44.59200 20.38500
H  2.59900 46.13500 21.01200
H  1.28700 46.09500 19.86000
H  5.27500 43.10100 25.16400
H  5.78200 43.99600 26.55000
H  5.12000 44.87800 25.30600
H  2.94200 43.84400 30.82900
H  3.57400 41.25600 34.13800
H  4.48200 40.33300 32.89100
H  2.74500 40.11700 33.14700

