158

Mg 53.81500 22.68400 44.81000
C  51.51700 25.39600 44.02500
C  51.39200 20.51500 44.14000
C  56.31500 20.36500 44.56800
C  56.35300 25.19900 45.23600
N  51.75700 22.93200 44.07800
C  51.00000 24.09500 43.95100
C  49.46200 23.70300 43.81600
C  49.47900 22.21800 44.28500
C  50.94600 21.84600 44.10400
C  49.01700 21.94900 45.73300
C  48.88900 23.94400 42.34200
C  49.82600 23.47000 41.17700
H  49.24300 23.07100 39.81700
N  53.89700 20.65200 44.33400
C  52.74200 19.96500 44.09400
C  53.10900 18.56700 43.89900
C  54.55100 18.49500 44.06100
C  54.99000 19.85800 44.34400
C  52.26500 17.52700 43.43400
C  55.37200 17.17100 43.99500
O  54.87500 16.07600 43.83800
C  56.87900 17.26800 44.16400
N  56.08500 22.79700 44.92700
C  56.84400 21.64900 44.85100
C  58.28800 21.90100 45.25000
C  58.31700 23.52200 45.52900
C  56.84000 23.92600 45.23400
C  58.70500 20.95800 46.42300
C  59.35500 24.36700 44.70300
C  60.09500 25.44300 45.56800
N  53.94200 24.80300 44.66200
C  55.04400 25.65800 44.88800
C  54.62200 27.05800 44.81900
C  53.24200 26.98200 44.52500
C  52.87100 25.61500 44.39800
C  55.54200 28.25400 45.06900
C  52.10300 27.78600 44.18700
O  51.93400 28.98800 44.15100
C  50.98500 26.78800 43.85400
C  50.74200 26.93300 42.39100
O  51.49300 26.52700 41.46400
O  49.56200 27.57600 42.17400
C  49.11500 27.74000 40.80100
H  50.59200 19.77400 44.18300
H  57.19600 19.72000 44.58900
H  57.17800 25.89400 45.40600
H  49.00900 24.35300 44.56400
H  48.89000 21.62200 43.58800
H  48.78500 22.80600 46.36600
H  49.86800 21.53300 46.27200
H  48.26100 21.16300 45.70800
H  48.75400 25.01900 42.22700
H  47.90400 23.49200 42.22200
H  50.17300 22.47100 41.44100
H  50.61200 24.20900 41.02200
H  51.25600 17.81400 43.13700
H  52.07500 16.89100 44.29900
H  52.70700 16.98900 42.59500
H  56.90400 17.70500 45.16300
H  57.18200 17.91100 43.33800
H  57.35900 16.31500 43.93900
H  58.86500 21.72600 44.34200
H  58.59900 23.65800 46.57300
H  58.98500 19.99200 46.00100
H  57.82900 20.83000 47.05800
H  59.58200 21.32400 46.95600
H  58.84400 24.96900 43.95200
H  60.10600 23.74000 44.22200
H  60.13200 26.44300 45.13700
H  61.15800 25.20300 45.59500
H  59.77100 25.58800 46.59900
H  55.83500 28.12100 46.11000
H  55.03900 29.20600 44.90200
H  56.41800 28.19100 44.42300
H  50.10100 26.93700 44.47300
H  49.89400 28.00700 40.08600
H  48.36700 28.53200 40.78000
H  48.65000 26.83000 40.42200
Mg 16.34100 51.79100 25.62800
C  18.00200 50.30600 28.50600
C  14.08500 53.03200 27.89200
C  14.62900 52.57900 22.99400
C  18.78700 50.08300 23.67800
N  16.14000 51.71700 27.90700
C  16.89600 51.04600 28.85000
C  16.55400 51.43800 30.28800
C  15.19400 52.12500 30.07700
C  15.11000 52.28400 28.51400
C  13.85400 51.54200 30.64300
C  17.53000 52.56000 30.83600
C  17.86400 52.46400 32.31100
H  16.96000 51.65400 33.29000
N  14.62300 52.65000 25.43100
C  13.77500 53.20300 26.44600
C  12.68100 53.87400 25.88200
C  12.82300 53.76000 24.49500
C  14.03800 52.94200 24.20900
C  11.68100 54.62600 26.69700
C  11.86000 54.15800 23.33700
O  12.14000 53.91000 22.14400
C  10.61600 54.93100 23.58000
N  16.61500 51.32900 23.63500
C  15.81100 51.91900 22.75100
C  16.30200 51.68200 21.34900
C  17.70900 51.13800 21.55800
C  17.72900 50.78400 23.03600
C  15.26800 50.68400 20.63600
C  18.82700 52.17000 21.33700
C  19.85100 51.86600 20.29500
N  18.11800 50.53400 25.97300
C  18.94700 49.90300 25.08100
C  20.03400 49.27500 25.82300
C  19.66200 49.42600 27.16600
C  18.46400 50.11400 27.18100
C  21.22500 48.50300 25.33900
C  20.07900 49.06900 28.51100
O  21.09300 48.47500 28.82800
C  19.01700 49.63900 29.49200
C  18.49700 48.46700 30.25600
O  17.48800 47.80500 30.02000
O  19.34300 48.19800 31.29700
C  19.01400 46.99300 32.09200
H  13.39800 53.47200 28.61800
H  14.09900 52.81800 22.06900
H  19.65300 49.75300 23.10200
H  16.55300 50.56700 30.94300
H  15.09900 53.06500 30.62000
H  14.12400 50.63300 31.17900
H  13.16500 51.23800 29.85500
H  13.32300 52.19600 31.33400
H  17.26300 53.56500 30.50900
H  18.43300 52.43800 30.23700
H  17.78500 53.47900 32.70100
H  18.91100 52.18500 32.43500
H  11.40600 55.53700 26.16600
H  11.99100 54.85500 27.71700
H  10.77700 54.01700 26.71200
H  9.92500 55.07500 22.74900
H  10.99500 55.92200 23.83000
H  10.09700 54.60200 24.48000
H  16.14200 52.59100 20.76900
H  17.87300 50.18900 21.04800
H  14.79500 49.99900 21.34000
H  15.81000 50.04200 19.94300
H  14.54100 51.29900 20.10600
H  19.35300 52.36700 22.27100
H  18.39900 53.12900 21.04400
H  20.27800 52.73700 19.79900
H  19.57700 51.17900 19.49400
H  20.64200 51.43500 20.90800
H  22.04200 49.17500 25.07500
H  21.03200 47.85500 24.48400
H  21.46100 47.72800 26.06700
H  19.56700 50.31600 30.14500
H  19.77800 46.78500 32.84100
H  19.02200 46.20900 31.33400
H  18.08500 47.20800 32.62000

