158

Mg 17.67000 -1.49400 28.15200
C  16.29200 0.52700 30.66200
C  19.38800 -3.12700 30.65300
C  19.32700 -3.29900 25.86000
C  15.97300 0.20500 25.74200
N  17.76500 -1.18000 30.43200
C  17.13300 -0.37500 31.25900
C  17.48500 -0.62000 32.77500
C  18.63400 -1.66700 32.68400
C  18.65200 -2.01400 31.18100
C  20.09200 -1.18100 33.07600
C  16.14500 -0.92500 33.51500
C  16.09100 -0.30700 34.93100
H  17.03400 -0.83600 35.99100
N  19.06600 -3.02100 28.27800
C  19.62900 -3.57300 29.38200
C  20.43900 -4.73100 28.97400
C  20.55300 -4.71000 27.53000
C  19.64000 -3.65900 27.15800
C  21.11400 -5.63000 29.99800
C  21.24600 -5.67900 26.63200
O  21.24500 -5.71800 25.39400
C  22.05800 -6.87500 27.21100
N  17.74300 -1.39500 26.07200
C  18.47800 -2.31900 25.39600
C  18.17600 -2.14900 23.85000
C  17.12400 -1.01000 23.75400
C  16.93000 -0.71600 25.26200
C  19.46200 -1.86000 23.06000
C  15.69400 -1.43900 23.08200
C  14.93000 -0.40700 22.15600
N  16.52800 0.10700 28.08300
C  15.84200 0.73200 27.06100
C  15.04700 1.80500 27.59200
C  15.19900 1.71200 28.93300
C  16.09200 0.67200 29.24900
C  14.00100 2.63600 26.87400
C  14.74500 2.38200 30.20500
O  13.93400 3.26400 30.47600
C  15.56500 1.70800 31.31500
C  16.55100 2.72600 31.87100
O  17.53600 3.08800 31.23200
O  16.22800 3.10600 33.14300
C  17.18400 3.95200 33.86300
H  19.88600 -3.63600 31.48100
H  19.91200 -3.82100 25.10000
H  15.34000 0.77600 25.06000
H  17.93700 0.28700 33.17800
H  18.37600 -2.57300 33.23200
H  20.67000 -2.06300 33.35200
H  20.14100 -0.46300 33.89400
H  20.54500 -0.68500 32.21800
H  16.23800 -2.00200 33.65000
H  15.23700 -0.61600 32.99800
H  15.12600 -0.63900 35.31400
H  16.05300 0.77700 34.82500
H  22.11800 -5.70400 29.58100
H  20.54500 -6.55800 30.06500
H  21.32500 -5.26700 31.00300
H  21.36100 -7.19700 27.98500
H  23.00500 -6.58600 27.66700
H  22.06600 -7.67300 26.46900
H  17.80400 -3.12100 23.52400
H  17.63200 -0.17200 23.27800
H  20.18100 -1.35000 23.70100
H  19.26600 -1.21500 22.20400
H  19.96700 -2.78600 22.78300
H  15.01100 -1.55300 23.92400
H  15.79300 -2.37500 22.53300
H  14.56500 -0.86800 21.23800
H  15.48000 0.51900 21.99000
H  14.10400 -0.00300 22.74100
H  14.46800 3.48900 26.38200
H  13.16200 2.93600 27.50200
H  13.62500 1.95700 26.11000
H  14.93200 1.37000 32.13600
H  16.84600 3.60800 34.84100
H  16.85900 4.99000 33.79000
H  18.18700 3.86600 33.44600
Mg 26.41200 50.78100 26.96200
C  24.44900 51.93900 29.59500
C  28.89200 50.14900 29.22900
C  28.53100 50.10800 24.39600
C  23.99000 51.65200 24.66200
N  26.58100 51.00400 29.11100
C  25.62600 51.30700 30.04600
C  25.97000 50.85100 31.50000
C  27.52300 50.53200 31.31800
C  27.68000 50.54100 29.78500
C  28.55200 51.41100 31.96900
C  25.10700 49.63400 32.00400
C  23.99700 49.97600 33.05600
H  24.08500 49.45100 34.52700
N  28.40000 50.25200 26.88800
C  29.25300 49.99000 27.94000
C  30.54000 49.61300 27.42900
C  30.50500 49.82500 25.97900
C  29.10200 50.10800 25.65400
C  31.63900 49.22500 28.39200
C  31.60800 49.64100 24.91800
O  31.41000 49.72500 23.75900
C  32.98500 49.39200 25.41700
N  26.30700 50.97600 24.78700
C  27.24100 50.51300 23.96400
C  26.73900 50.21800 22.54600
C  25.26400 50.74600 22.61600
C  25.14000 51.06200 24.08800
C  27.61000 50.79900 21.42300
C  24.14700 49.78100 22.11000
C  23.01100 50.39500 21.34400
N  24.66100 51.74000 27.09700
C  23.76400 52.04000 26.03400
C  22.53200 52.62600 26.68000
C  22.85000 52.53100 28.07100
C  24.11100 52.11200 28.25100
C  21.28400 53.05600 26.08900
C  22.21900 52.88700 29.36100
O  21.10400 53.33000 29.63600
C  23.22400 52.46400 30.47000
C  23.61800 53.45200 31.46100
O  24.59600 54.11300 31.51500
O  22.59800 53.42400 32.40100
C  22.80600 54.33700 33.49800
H  29.61300 49.96400 30.02800
H  29.14100 49.81300 23.54100
H  23.13900 51.79200 23.99200
H  25.81800 51.68600 32.18400
H  27.71300 49.49900 31.60600
H  29.41700 51.61500 31.33800
H  28.99100 50.85200 32.79600
H  28.11500 52.32500 32.36900
H  25.80100 48.95400 32.49800
H  24.58000 49.30700 31.10800
H  23.00600 49.75000 32.66100
H  23.95700 51.06400 33.10100
H  31.06100 48.83400 29.22900
H  32.04400 50.14900 28.80600
H  32.45100 48.54600 28.13100
H  33.04600 48.41100 25.88700
H  33.28800 50.08900 26.19900
H  33.72800 49.44600 24.62100
H  26.72200 49.14300 22.36200
H  25.22600 51.72600 22.14000
H  28.37300 51.46600 21.82500
H  27.04400 51.34100 20.66500
H  28.16900 49.97000 20.98900
H  23.59300 49.29000 22.91000
H  24.55000 48.94600 21.53600
H  23.04300 50.14600 20.28400
H  23.08300 51.47700 21.46000
H  22.06300 50.05000 21.75600
H  21.33600 54.12100 25.86500
H  20.46000 52.89100 26.78300
H  21.06300 52.46000 25.20400
H  22.85700 51.59300 31.01200
H  23.13100 55.34700 33.24700
H  23.59800 53.97900 34.15500
H  21.83500 54.56800 33.93700

