158

Mg 43.82100 4.11100 48.06400
C  41.74700 6.74000 47.08800
C  41.17500 1.91500 47.66200
C  45.85400 1.41600 48.85400
C  46.46000 6.17000 48.22400
N  41.74900 4.34900 47.39800
C  41.03900 5.54100 47.06600
C  39.64400 5.24200 46.44300
C  39.45000 3.70200 46.90300
C  40.90800 3.24600 47.37300
C  38.38500 3.49200 48.02400
C  39.76000 5.43200 44.87500
C  38.51800 6.10100 44.15900
H  38.12400 5.62800 42.75100
N  43.54300 1.92400 48.27100
C  42.34600 1.30100 48.20100
C  42.51900 -0.06600 48.51900
C  43.85500 -0.24800 48.70700
C  44.48400 1.08900 48.65900
C  41.47000 -1.16500 48.43100
C  44.49100 -1.61700 49.03400
O  43.80200 -2.65500 48.80600
C  45.81500 -1.79700 49.49400
N  45.96800 3.75900 48.23700
C  46.52300 2.58100 48.58200
C  48.02300 2.80200 48.73700
C  48.20700 4.34900 48.80100
C  46.76800 4.80000 48.46200
C  48.71400 2.16100 50.00100
C  49.26100 5.05800 47.83600
C  50.11700 6.16200 48.42600
N  44.09800 6.03500 47.64900
C  45.27100 6.74700 47.82400
C  45.05800 8.13300 47.39700
C  43.65700 8.17100 47.15600
C  43.11100 6.83200 47.32200
C  46.09300 9.29900 47.32700
C  42.53000 9.03400 46.79500
O  42.44700 10.24000 46.52200
C  41.21800 8.15400 46.65500
C  40.21700 8.67800 47.53000
O  40.01900 8.30600 48.66200
O  39.36800 9.57300 46.85200
C  38.13600 9.95700 47.63500
H  40.24700 1.33800 47.65800
H  46.46200 0.56100 49.15800
H  47.32000 6.83100 48.35300
H  38.95200 5.94900 46.90200
H  39.12900 3.07900 46.06800
H  38.85700 3.05800 48.90500
H  37.62000 2.96400 47.45500
H  37.96500 4.44600 48.34300
H  39.98100 4.43400 44.49600
H  40.67100 5.97500 44.62400
H  38.61600 7.18600 44.18400
H  37.67200 5.87800 44.80800
H  41.49400 -1.85700 49.27300
H  41.72800 -1.63800 47.48300
H  40.45900 -0.78100 48.29900
H  46.54400 -1.48200 48.74800
H  45.93900 -2.85800 49.71000
H  45.93400 -1.21100 50.40500
H  48.51000 2.51700 47.80500
H  48.35700 4.66500 49.83300
H  49.25500 2.97900 50.47700
H  49.44700 1.43000 49.66000
H  47.97600 1.80900 50.72200
H  48.69000 5.49300 47.01600
H  49.90000 4.25100 47.47700
H  49.95000 6.33900 49.48800
H  49.88700 7.06200 47.85700
H  51.18900 5.97100 48.36500
H  45.80500 9.96100 48.14400
H  45.97500 9.79200 46.36200
H  47.14900 9.07400 47.47600
H  40.89600 8.14100 45.61400
H  37.36600 10.18300 46.89600
H  38.22900 10.89000 48.19000
H  37.63200 9.11600 48.11300
Mg -11.24400 38.98200 42.20600
C  -10.17500 35.65400 41.74200
C  -8.33900 39.93800 40.58000
C  -12.42000 42.06400 42.26200
C  -14.41100 37.68800 43.23300
N  -9.48900 37.83200 41.09600
C  -9.23000 36.49700 41.11000
C  -7.89800 36.19300 40.45700
C  -7.30600 37.58400 39.99600
C  -8.44900 38.52700 40.58400
C  -5.97000 37.98300 40.69900
C  -7.97600 35.28800 39.18200
C  -6.73400 34.33600 38.87100
H  -5.84100 34.93900 37.82800
N  -10.47700 40.70800 41.57800
C  -9.25300 40.94900 40.99800
C  -8.95600 42.43100 40.94100
C  -10.07000 42.99000 41.58800
C  -11.07400 41.93900 41.79200
C  -7.69300 43.07100 40.41300
C  -10.27100 44.45300 41.95000
O  -9.54000 45.33300 41.49100
C  -11.35300 44.89400 42.90000
N  -13.12400 39.75100 42.78700
C  -13.41200 41.06400 42.65000
C  -14.90800 41.43200 42.94700
C  -15.49000 40.02600 43.33100
C  -14.30500 39.08100 43.15200
C  -15.11600 42.44600 44.11100
C  -16.71500 39.51900 42.37800
C  -18.08000 39.33100 43.09200
N  -12.09800 37.12300 42.68700
C  -13.39600 36.75700 43.04100
C  -13.49000 35.33900 43.18400
C  -12.26800 34.90900 42.72400
C  -11.45000 35.99300 42.36700
C  -14.69200 34.58300 43.56100
C  -11.49500 33.73700 42.49500
O  -11.69200 32.59700 42.70400
C  -10.10700 34.10800 41.83900
C  -8.88000 33.63100 42.57400
O  -8.78200 33.63500 43.76600
O  -7.95700 33.18600 41.72200
C  -6.63700 32.94700 42.46000
H  -7.38300 40.36100 40.26300
H  -12.81700 43.08100 42.23200
H  -15.39400 37.23900 43.38800
H  -7.34100 35.68000 41.24100
H  -7.19100 37.66400 38.91500
H  -6.10900 38.62500 41.56800
H  -5.47900 38.44500 39.84300
H  -5.34800 37.14400 41.01300
H  -8.16800 35.85100 38.26900
H  -8.90000 34.70900 39.16700
H  -7.04600 33.31400 38.65500
H  -6.16000 34.33700 39.79700
H  -7.50200 44.04200 40.86900
H  -7.83300 43.25700 39.34800
H  -6.84000 42.48500 40.75500
H  -11.49400 44.15400 43.68700
H  -12.15600 45.02300 42.17400
H  -11.03900 45.74100 43.51000
H  -15.27100 41.81700 41.99400
H  -15.77500 40.00300 44.38300
H  -15.81100 41.98200 44.81200
H  -15.45100 43.41400 43.73600
H  -14.17700 42.60600 44.64100
H  -16.42000 38.62300 41.83300
H  -16.76700 40.35600 41.68200
H  -18.05100 39.53900 44.16200
H  -18.36700 38.29000 42.94200
H  -18.89600 39.98500 42.78400
H  -14.77000 34.17900 44.57000
H  -14.66200 33.68200 42.94900
H  -15.67200 34.94700 43.25400
H  -10.08300 33.73500 40.81500
H  -6.38600 31.89200 42.34700
H  -6.52200 33.28600 43.49000
H  -5.88600 33.39900 41.81300

