158

Mg 45.31400 3.35900 48.49700
C  43.06300 5.98700 47.54500
C  42.63500 1.17000 47.67500
C  47.43100 0.83800 48.35100
C  47.89000 5.66200 47.98700
N  43.08500 3.59000 47.76900
C  42.41100 4.75000 47.45900
C  40.97500 4.51000 47.04800
C  40.91100 2.94300 47.15800
C  42.25400 2.50500 47.56300
C  39.64000 2.47100 48.01000
C  40.65500 4.98800 45.61400
C  39.45800 5.89200 45.54500
H  38.78600 5.86900 44.16800
N  45.06000 1.21500 48.21400
C  43.88800 0.60800 47.90800
C  44.10900 -0.82900 47.92400
C  45.52600 -1.02200 48.05000
C  46.09800 0.36100 48.12800
C  42.96600 -1.79800 47.69800
C  46.22400 -2.42400 48.05800
O  45.60700 -3.45500 48.03300
C  47.74900 -2.47300 48.17300
N  47.36900 3.27100 48.16200
C  48.02100 2.08100 48.38900
C  49.51200 2.25500 48.55700
C  49.70700 3.80300 48.36300
C  48.26500 4.27000 48.12100
C  50.20300 1.65800 49.83600
C  50.64700 4.21700 47.24100
C  52.00400 4.93500 47.57900
N  45.47500 5.44600 48.04300
C  46.58600 6.30100 47.86900
C  46.12900 7.65900 47.72300
C  44.73300 7.59900 47.65600
C  44.41300 6.20500 47.79900
C  47.08100 8.87300 47.53700
C  43.50800 8.34000 47.54900
O  43.41800 9.55500 47.51400
C  42.34300 7.35600 47.45700
C  41.43600 7.66400 48.69400
O  41.73200 7.43200 49.87700
O  40.28100 8.34900 48.30700
C  39.42900 8.74200 49.38900
H  41.90200 0.41300 47.38800
H  48.15100 0.03400 48.51700
H  48.79100 6.27800 47.95000
H  40.39500 4.93500 47.86700
H  40.73200 2.59400 46.14100
H  38.86700 3.23600 48.08500
H  40.00700 2.18700 48.99600
H  39.24600 1.55500 47.56800
H  40.43700 4.19700 44.89700
H  41.47100 5.54900 45.15800
H  39.84300 6.91100 45.55400
H  38.76700 5.75500 46.37700
H  43.25900 -2.84800 47.70400
H  42.48100 -1.68500 46.72900
H  42.11300 -1.69100 48.36800
H  48.16200 -1.91800 47.33000
H  48.00200 -3.53200 48.12700
H  48.09900 -2.01100 49.09600
H  49.92800 1.70600 47.71100
H  50.20000 4.21600 49.24300
H  50.85200 0.83900 49.52400
H  49.36100 1.42500 50.48800
H  50.81900 2.40100 50.34100
H  50.05900 4.99400 46.75300
H  50.85400 3.42400 46.52200
H  52.04400 5.90900 47.09200
H  52.87800 4.37600 47.24500
H  52.26900 5.03000 48.63200
H  47.55400 9.13100 48.48400
H  46.57400 9.68000 47.00800
H  47.95400 8.64100 46.92700
H  41.75600 7.50400 46.55000
H  38.90900 9.62400 49.01500
H  39.97300 9.03600 50.28700
H  38.78800 7.91100 49.68500
Mg 40.88000 40.84100 27.01900
C  40.21300 43.22700 29.53700
C  42.10300 38.77600 29.43100
C  41.90100 38.85800 24.56300
C  40.12600 43.45800 24.64100
N  40.93000 40.98300 29.23600
C  40.57500 42.03200 30.05400
C  40.70900 41.73400 31.59600
C  41.43900 40.34100 31.49000
C  41.46000 39.94200 29.92900
C  42.81300 40.22100 32.21900
C  39.37700 41.70600 32.39500
C  39.37100 42.68700 33.61400
H  38.73900 42.10900 34.86400
N  41.81000 39.06300 27.03000
C  42.25900 38.31600 28.05800
C  42.91300 37.06800 27.63500
C  42.66700 36.97200 26.23700
C  42.08600 38.31900 25.88700
C  43.57000 36.02900 28.66500
C  43.02500 35.89500 25.19700
O  42.87100 36.03100 23.96600
C  43.53200 34.55300 25.63200
N  40.99000 41.08200 24.92800
C  41.35000 40.06300 24.08600
C  41.36900 40.48000 22.63200
C  40.60100 41.84500 22.68300
C  40.53800 42.20200 24.17500
C  42.75100 40.53800 21.87500
C  39.28600 41.77400 21.91900
C  38.12900 40.99800 22.59400
N  40.23500 42.87000 27.02000
C  39.95000 43.77400 25.96500
C  39.55200 45.06200 26.50700
C  39.63000 44.88500 27.95800
C  40.02700 43.54100 28.13200
C  39.08300 46.21500 25.61400
C  39.33500 45.55600 29.15800
O  38.97900 46.71500 29.33700
C  39.84200 44.53900 30.31400
C  40.91300 45.15900 31.05700
O  42.01600 45.43500 30.62900
O  40.53000 45.26600 32.35800
C  41.41500 45.91000 33.34000
H  42.61600 38.22100 30.22000
H  42.19800 38.15100 23.78600
H  39.91500 44.20300 23.87100
H  41.42200 42.46200 31.98400
H  40.83500 39.62000 32.04000
H  43.71900 40.39500 31.63800
H  42.86100 39.20500 32.61100
H  42.75200 40.95500 33.02300
H  39.28200 40.78600 32.97200
H  38.44500 41.84400 31.84500
H  38.69800 43.50800 33.36600
H  40.37000 42.97600 33.94200
H  44.26100 35.33900 28.18000
H  42.67200 35.49300 28.97000
H  44.04800 36.63900 29.43100
H  44.59100 34.76100 25.78200
H  43.48100 33.83900 24.81000
H  42.91100 34.17600 26.44400
H  40.83800 39.65100 22.16500
H  41.23200 42.57200 22.17100
H  43.60800 40.23400 22.47400
H  43.06900 41.45400 21.37700
H  42.79400 39.76800 21.10500
H  39.47000 41.21500 21.00200
H  38.87300 42.72900 21.59300
H  38.14100 40.79800 23.66500
H  38.13800 40.00900 22.13700
H  37.14200 41.39800 22.36000
H  38.01400 46.24800 25.40400
H  39.55300 46.25400 24.63200
H  39.36500 47.13100 26.13400
H  39.08100 44.20900 31.02100
H  41.71600 45.26300 34.16400
H  40.71900 46.56600 33.86200
H  42.30200 46.37400 32.91000

