158

Mg 49.27100 47.03500 42.15900
C  45.81400 47.52900 41.26400
C  48.94100 43.76000 41.34500
C  52.52300 46.79100 42.39100
C  49.47100 50.52700 42.49600
N  47.56800 45.80700 41.26200
C  46.25000 46.18400 40.98300
C  45.41300 45.00900 40.52300
C  46.43600 43.81900 40.72700
C  47.73100 44.47900 41.18400
C  45.86300 42.71200 41.62700
C  44.81400 45.13000 39.10900
C  43.30700 44.75500 38.91600
H  42.94300 44.94700 37.40300
N  50.63800 45.38600 42.05800
C  50.23400 44.13100 41.74700
C  51.45200 43.30600 41.86500
C  52.59700 44.17500 42.05500
C  51.97500 45.48800 42.21800
C  51.43400 41.79600 41.54300
C  54.05700 43.81100 42.07400
O  54.33500 42.60800 41.99600
C  55.18000 44.80400 42.23800
N  50.77200 48.44900 42.25500
C  52.05700 48.06800 42.41400
C  53.02000 49.30900 42.63000
C  52.07100 50.52400 42.30600
C  50.67800 49.84500 42.32700
C  53.74300 49.52900 43.99300
C  52.37900 51.02800 40.87400
C  52.03700 52.49700 40.59300
N  47.93300 48.71700 42.09100
C  48.19000 50.08200 42.25600
C  47.02000 50.81300 42.06200
C  46.01200 49.83700 41.87100
C  46.63700 48.57900 41.73800
C  46.93600 52.24600 42.15100
C  44.60600 49.63400 41.58800
O  43.63500 50.43600 41.56200
C  44.42800 48.10900 41.16300
C  43.50900 47.42800 42.08900
O  43.68400 47.43600 43.31000
O  42.49700 46.80100 41.50100
C  41.49600 46.05200 42.24000
H  48.81700 42.70100 41.10600
H  53.60500 46.91000 42.48200
H  49.52700 51.60200 42.68100
H  44.60500 44.97200 41.25300
H  46.54700 43.23200 39.81400
H  46.56300 42.44000 42.41600
H  45.71500 41.81200 41.02900
H  44.97800 43.08200 42.14500
H  45.40000 44.50900 38.43200
H  45.00600 46.06900 38.58900
H  42.57700 45.24200 39.56200
H  43.28300 43.68400 39.11300
H  51.54100 41.70800 40.46200
H  50.54300 41.30200 41.93100
H  52.18300 41.15900 42.01400
H  55.15700 45.42200 41.34000
H  56.08600 44.20400 42.31700
H  55.09700 45.37500 43.16300
H  53.81400 49.20600 41.89100
H  51.96700 51.24400 43.11700
H  53.97200 50.59400 43.97400
H  54.77600 49.18100 43.98700
H  53.21100 49.26600 44.90700
H  51.73100 50.40300 40.25900
H  53.46000 50.95300 40.76500
H  52.16500 53.03600 41.53200
H  51.08300 52.56700 40.07100
H  52.77600 52.84100 39.86900
H  45.96900 52.56200 42.54300
H  47.30500 52.79100 41.28200
H  47.57500 52.54500 42.98300
H  43.96100 47.97200 40.18800
H  40.69400 45.61800 41.64400
H  40.87600 46.77700 42.76700
H  41.97500 45.44600 43.01000
Mg 42.60800 42.24000 25.82200
C  41.33300 44.35900 28.26300
C  43.81500 40.23500 28.24000
C  43.60700 40.06400 23.44100
C  41.57500 44.50300 23.44600
N  42.39100 42.23400 28.02300
C  41.91200 43.21500 28.86300
C  42.07600 42.94900 30.31200
C  43.00200 41.60700 30.30100
C  43.15900 41.35100 28.74700
C  44.39400 41.75800 30.96300
C  40.77400 42.74000 31.16800
C  40.83500 43.43400 32.55300
H  39.60700 43.58400 33.44900
N  43.63600 40.39900 25.81900
C  43.95500 39.73600 26.97500
C  44.49500 38.44800 26.57500
C  44.57300 38.39600 25.17200
C  43.92500 39.59300 24.73000
C  44.96600 37.38100 27.64800
C  45.31300 37.44700 24.31200
O  45.35900 37.64900 23.08500
C  46.08700 36.30900 24.83600
N  42.63000 42.25800 23.75200
C  43.16500 41.32000 22.92500
C  43.18300 41.82400 21.46500
C  42.36300 43.09100 21.51700
C  42.15600 43.34500 22.97500
C  44.58500 42.00800 20.82000
C  41.07800 42.88100 20.69000
C  40.52000 44.18800 19.96300
N  41.53200 44.02800 25.78000
C  41.17400 44.85100 24.75400
C  40.55300 46.08100 25.21200
C  40.59000 45.89700 26.65300
C  41.19400 44.66600 26.87200
C  40.00600 47.21100 24.42800
C  40.25200 46.46400 27.96900
O  39.70600 47.52100 28.24300
C  40.67600 45.52900 29.05700
C  41.74700 46.13000 29.82300
O  42.85200 46.29900 29.38600
O  41.28300 46.54000 31.02200
C  42.32600 47.10100 31.88100
H  44.24600 39.58000 29.00000
H  43.99100 39.45000 22.62400
H  41.19000 45.23500 22.73300
H  42.68200 43.73500 30.76300
H  42.56500 40.72600 30.77100
H  44.63000 41.07800 31.78100
H  44.55100 42.69000 31.50400
H  45.21500 41.76000 30.24600
H  40.71800 41.67000 31.36500
H  39.95100 43.05300 30.52600
H  41.49300 44.30200 32.52100
H  41.53300 42.82400 33.12600
H  44.32500 37.59400 28.50400
H  46.01000 37.56000 27.90600
H  44.84500 36.33500 27.36600
H  46.59600 35.74100 24.05800
H  45.45000 35.63000 25.40300
H  46.81200 36.74100 25.52600
H  42.72400 40.95900 20.98700
H  42.92100 44.00300 21.30200
H  44.76600 43.06400 20.62000
H  44.57000 41.44000 19.88900
H  45.27600 41.53700 21.51900
H  40.34400 42.51200 21.40600
H  41.34100 42.14600 19.93000
H  39.49600 44.44700 20.23000
H  40.56600 43.95900 18.89900
H  41.12400 45.07600 20.15100
H  39.54400 47.96700 25.06300
H  39.27700 46.83900 23.70900
H  40.80200 47.73400 23.89900
H  39.88700 45.19000 29.72800
H  43.04400 46.34400 32.19800
H  41.90400 47.64300 32.72700
H  42.86900 47.78300 31.22600

