158

Mg -1.40400 17.27800 26.53600
C  -1.84900 15.33000 29.29600
C  -2.08200 20.07900 28.61800
C  -1.30600 19.37800 23.78200
C  -1.09700 14.59100 24.52000
N  -1.99900 17.71300 28.71900
C  -1.93200 16.70200 29.66000
C  -1.90800 17.24600 31.06700
C  -2.18800 18.72500 30.80500
C  -2.14300 18.84700 29.31800
C  -3.49200 19.32800 31.43500
C  -0.66100 16.82500 32.02100
C  -0.41200 17.65000 33.24000
H  -0.42300 16.93100 34.55800
N  -1.65900 19.42400 26.25200
C  -1.83600 20.35500 27.26800
C  -1.77200 21.68000 26.70600
C  -1.60400 21.53900 25.32100
C  -1.45500 20.08700 25.05700
C  -2.03500 23.01300 27.45100
C  -1.70100 22.58700 24.13000
O  -1.88500 22.28700 22.95600
C  -1.64300 24.02100 24.47700
N  -1.47000 17.01900 24.43400
C  -1.30100 18.00700 23.50900
C  -1.28900 17.37600 22.07200
C  -0.89500 15.89100 22.36400
C  -1.08000 15.80400 23.88400
C  -2.51300 17.61800 21.23600
C  0.60000 15.54300 22.05200
C  1.85100 16.26200 22.79500
N  -1.45000 15.38300 26.79900
C  -1.33900 14.34900 25.90000
C  -1.37800 13.08500 26.50100
C  -1.54800 13.43900 27.78100
C  -1.63200 14.82700 27.97700
C  -1.47000 11.82400 25.80500
C  -1.65200 12.83400 29.03100
O  -1.59800 11.62000 29.27500
C  -1.72500 14.02500 30.11900
C  -0.50200 13.83800 31.00000
O  0.66500 14.20300 30.82800
O  -0.91700 13.18400 32.13700
C  0.20100 12.96000 33.07100
H  -2.20600 20.91800 29.30400
H  -1.12300 20.02600 22.92200
H  -1.01900 13.65000 23.97200
H  -2.74000 16.78400 31.59700
H  -1.30700 19.22700 31.20400
H  -4.13600 19.70100 30.63800
H  -3.21800 20.04800 32.20600
H  -4.01800 18.56800 32.01300
H  0.24400 16.74700 31.41900
H  -0.93200 15.83200 32.38000
H  -1.15900 18.44300 33.25800
H  0.59500 18.05000 33.12200
H  -1.12100 23.60600 27.41300
H  -2.47200 22.91100 28.44400
H  -2.67700 23.69100 26.88800
H  -1.17800 24.49200 23.61100
H  -0.88700 24.21200 25.24000
H  -2.57200 24.48100 24.81300
H  -0.53000 17.90700 21.49700
H  -1.55100 15.09500 22.01200
H  -2.26500 17.93800 20.22400
H  -3.07600 18.44800 21.66300
H  -3.19200 16.76700 21.17900
H  0.74200 15.95300 21.05200
H  0.59600 14.45900 21.93400
H  2.53900 15.68200 23.41000
H  1.51900 17.02500 23.49900
H  2.41400 16.67600 21.95700
H  -0.99500 11.84100 24.82400
H  -2.48500 11.45200 25.65900
H  -0.98500 11.05600 26.40800
H  -2.68000 13.97000 30.64100
H  0.30400 13.72200 33.84400
H  1.17200 12.80500 32.60000
H  0.02200 12.04600 33.63700
Mg 47.22100 24.86900 28.66800
C  47.67700 27.09100 31.35300
C  46.26700 22.48200 31.08900
C  47.00900 22.67000 26.13500
C  48.21700 27.29100 26.32800
N  47.02100 24.74100 30.99400
C  47.18800 25.86800 31.84000
C  46.85700 25.45600 33.29000
C  46.49500 23.98600 33.25700
C  46.59800 23.70100 31.71700
C  47.33100 23.07600 34.22600
C  45.69800 26.42900 33.68500
C  45.98800 27.31000 34.98300
H  44.96100 27.36000 36.05900
N  46.65700 22.89400 28.58500
C  46.29800 22.07900 29.69100
C  45.96700 20.80000 29.13300
C  46.06500 20.82200 27.70600
C  46.61200 22.19800 27.38700
C  45.44500 19.69600 29.95400
C  45.68400 19.86900 26.58600
O  45.79100 20.12800 25.41000
C  45.26800 18.45000 26.95300
N  47.65200 24.94600 26.57000
C  47.54700 23.86300 25.76200
C  47.68100 24.17000 24.29500
C  47.82900 25.76200 24.31500
C  47.91500 26.02100 25.81400
C  48.90500 23.48000 23.53800
C  46.68700 26.45800 23.62200
C  45.29100 26.28300 24.22100
N  47.80600 26.76800 28.73900
C  48.19600 27.64500 27.70200
C  48.53500 28.97500 28.31700
C  48.35700 28.76000 29.71200
C  47.97400 27.41100 29.94600
C  48.95600 30.18300 27.59900
C  48.51600 29.35800 31.03300
O  48.94400 30.49000 31.34400
C  47.98600 28.34500 32.07300
C  49.06800 28.07800 33.06400
O  50.00500 27.33700 32.87900
O  48.94400 28.90600 34.15600
C  49.84500 28.77500 35.26100
H  45.78000 21.78800 31.77700
H  46.95700 22.04200 25.24300
H  48.49000 27.98900 25.53300
H  47.75300 25.72300 33.85000
H  45.50700 23.94400 33.71600
H  47.98700 23.51100 34.98000
H  47.94700 22.30600 33.76200
H  46.55000 22.49200 34.71400
H  44.75600 25.91900 33.88300
H  45.41200 27.17200 32.94000
H  46.15800 28.35600 34.72800
H  46.95800 26.96500 35.34200
H  44.45300 19.38300 29.62700
H  45.31800 19.86000 31.02400
H  46.11500 18.84300 29.84200
H  44.75300 18.13200 26.04600
H  44.56900 18.47300 27.78900
H  46.18800 17.89000 27.12000
H  46.74900 23.84700 23.83000
H  48.78800 26.07300 23.90200
H  49.47800 22.83000 24.19800
H  49.52600 24.23400 23.05300
H  48.50800 22.73400 22.85000
H  46.73500 26.24100 22.55500
H  46.91000 27.52000 23.72600
H  45.33600 25.86300 25.22600
H  44.72200 25.50600 23.71100
H  44.73600 27.22100 24.24400
H  48.93000 31.08900 28.20300
H  48.48600 30.30300 26.62300
H  50.02500 30.00600 27.47400
H  47.17100 28.84000 32.60100
H  49.50400 28.03900 35.98800
H  49.91500 29.66600 35.88400
H  50.82700 28.41000 34.96000

