158

Mg 44.73700 4.42200 45.77100
C  42.86800 7.58400 45.84400
C  41.71500 2.85500 45.35600
C  46.51300 1.71300 45.12000
C  47.58800 6.42800 45.21600
N  42.54000 5.21000 45.50300
C  42.00800 6.44500 45.62000
C  40.48900 6.37300 45.53100
C  40.20500 4.84300 45.48700
C  41.59200 4.24000 45.47300
C  39.24400 4.27000 46.53800
C  39.85200 7.13800 44.37600
C  40.70600 7.43400 43.10100
H  40.09400 7.01700 41.78200
N  44.21900 2.47800 45.47000
C  42.91100 2.01300 45.30200
C  42.97500 0.62200 44.91400
C  44.37100 0.27500 44.96400
C  45.10300 1.49600 45.22400
C  41.75600 -0.22000 44.69800
C  44.86300 -1.16800 44.63500
O  44.04700 -2.04700 44.30400
C  46.33900 -1.50900 44.54700
N  46.76600 4.18700 45.03700
C  47.24200 2.88800 45.03900
C  48.74600 2.88000 44.71100
C  49.04300 4.41900 44.77400
C  47.76100 5.05900 44.97200
C  49.64000 2.02500 45.65200
C  49.75500 4.91600 43.54100
C  51.11500 5.39200 43.77100
N  45.21900 6.54500 45.76500
C  46.44800 7.18300 45.59500
C  46.26000 8.66900 45.71800
C  44.89900 8.86000 45.96200
C  44.30100 7.53200 45.94800
C  47.32000 9.71200 45.61200
C  43.88200 9.85600 46.19800
O  43.95600 11.06800 46.31500
C  42.51600 9.08800 46.02500
C  41.76000 9.31800 47.27400
O  41.90800 8.63000 48.29400
O  40.94500 10.40700 47.14700
C  40.15000 10.65100 48.37800
H  40.77500 2.32600 45.18700
H  47.03100 0.76500 44.96000
H  48.53800 6.96500 45.18200
H  40.14400 6.79000 46.47600
H  39.74500 4.57200 44.53700
H  39.83700 3.66200 47.22100
H  38.44200 3.64700 46.14300
H  38.79600 5.05100 47.15200
H  39.64900 8.10500 44.83400
H  38.98100 6.58400 44.02600
H  41.69500 7.01700 43.29000
H  40.82000 8.51800 43.10500
H  41.93800 -0.95500 43.91400
H  40.89000 0.33800 44.34200
H  41.49400 -0.68400 45.64900
H  46.30500 -2.58500 44.37600
H  46.77200 -1.36700 45.53700
H  46.84200 -0.97000 43.74400
H  48.74800 2.48500 43.69600
H  49.57500 4.74900 45.66600
H  48.90700 1.70900 46.39400
H  50.50900 2.60600 45.96000
H  50.02400 1.16800 45.10000
H  49.28300 5.70900 42.96100
H  49.95000 4.05400 42.90300
H  51.80900 4.72900 43.25600
H  51.37100 5.22800 44.81800
H  51.39400 6.42600 43.56700
H  46.90400 10.69100 45.84900
H  47.66100 9.81800 44.58200
H  48.08400 9.55000 46.37300
H  41.93000 9.48900 45.19800
H  40.70200 10.40900 49.28600
H  39.16400 10.18900 48.32900
H  39.94800 11.72200 48.34900
Mg 46.87500 16.64700 27.55800
C  45.07600 16.38200 30.65000
C  49.05200 18.75300 29.22100
C  48.18700 17.36600 24.61200
C  44.17700 15.18000 25.98700
N  47.00800 17.53500 29.76500
C  46.23000 17.09400 30.83700
C  46.79200 17.67900 32.11000
C  47.97800 18.56300 31.64400
C  48.07100 18.26000 30.13300
C  47.85000 20.05000 32.06800
C  47.23100 16.47100 33.05500
C  47.00600 16.65800 34.54300
H  47.24700 18.09600 35.05500
N  48.46000 17.84600 27.02900
C  49.23800 18.63700 27.82100
C  50.35000 19.15100 27.02100
C  50.18200 18.71400 25.68300
C  48.90300 17.92800 25.73700
C  51.46200 19.88700 27.64200
C  51.04400 18.91400 24.48400
O  50.74300 18.49600 23.37100
C  52.41600 19.62100 24.63200
N  46.33300 16.31200 25.65200
C  47.02300 16.65100 24.52600
C  46.41400 16.16300 23.19400
C  45.12000 15.45500 23.68800
C  45.25800 15.62600 25.24000
C  46.01100 17.31100 22.12400
C  44.97200 14.02400 23.17300
C  45.66900 12.99700 23.99300
N  45.06700 15.87800 28.10000
C  44.02700 15.30800 27.31600
C  42.92600 14.91600 28.18000
C  43.27000 15.32400 29.53500
C  44.53700 15.95400 29.38600
C  41.69700 14.25700 27.79900
C  42.77300 15.41100 30.88000
O  41.79700 14.96800 31.45800
C  43.98400 16.03600 31.67000
C  43.45500 17.16300 32.56400
O  43.28800 18.31900 32.15300
O  43.20100 16.74900 33.89200
C  42.80700 17.72500 34.87700
H  49.77900 19.34200 29.78400
H  48.54000 17.64100 23.61600
H  43.32200 14.74800 25.46200
H  45.99000 18.20000 32.63200
H  48.89000 18.23500 32.14100
H  47.05800 20.21500 32.79800
H  47.52700 20.58600 31.17500
H  48.77000 20.48800 32.45600
H  48.28800 16.25400 32.90300
H  46.69800 15.53700 32.87500
H  47.49500 15.90800 35.16500
H  45.95100 16.39900 34.63500
H  51.44800 19.87700 28.73200
H  51.39800 20.87100 27.17800
H  52.34500 19.29900 27.39200
H  52.33000 20.59100 25.12300
H  52.75500 19.79100 23.61000
H  53.03900 19.00300 25.27800
H  47.14200 15.48800 22.74500
H  44.19400 15.99300 23.48900
H  46.46200 18.22400 22.51400
H  44.95900 17.50300 21.91200
H  46.44300 17.04600 21.15900
H  45.42200 13.93000 22.18500
H  43.90700 13.79900 23.22500
H  46.14500 12.26900 23.33600
H  45.00500 12.49700 24.69800
H  46.51600 13.37200 24.56800
H  41.36600 14.61300 26.82400
H  40.88600 14.46700 28.49600
H  41.84200 13.18100 27.70100
H  44.28400 15.30200 32.41800
H  42.51000 17.30800 35.84000
H  41.97400 18.32100 34.50500
H  43.70400 18.34300 34.91600

