158

Mg -2.73900 16.61900 26.15400
C  -3.32000 14.45800 28.91600
C  -3.63800 19.22900 28.19900
C  -2.42600 18.64000 23.53000
C  -2.58600 13.78800 24.12300
N  -3.15200 16.85700 28.36600
C  -3.40700 15.79800 29.24000
C  -3.78900 16.39500 30.64700
C  -3.91000 17.94200 30.36400
C  -3.61400 18.03400 28.87400
C  -5.31400 18.55600 30.73500
C  -2.89900 16.06100 31.91500
C  -2.92600 16.88900 33.17600
H  -2.64500 16.22000 34.51000
N  -2.98600 18.66000 25.83600
C  -3.29700 19.57300 26.81200
C  -3.22100 20.92800 26.24700
C  -2.82200 20.74800 24.82200
C  -2.79700 19.31100 24.64300
C  -3.67300 22.19200 26.91900
C  -2.62300 21.70600 23.77000
O  -2.36800 21.38700 22.63400
C  -2.52400 23.17300 24.09400
N  -2.80200 16.32100 24.08400
C  -2.36900 17.26400 23.23800
C  -2.03200 16.73300 21.83500
C  -1.94800 15.15800 22.07800
C  -2.46300 15.07900 23.55400
C  -3.06100 17.22700 20.74500
C  -0.59400 14.46400 21.94700
C  -0.48200 13.01600 21.44200
N  -2.82900 14.54100 26.44300
C  -2.75000 13.56100 25.51200
C  -2.88500 12.30500 26.19300
C  -3.02600 12.55600 27.55100
C  -3.05900 13.96900 27.56700
C  -2.81200 10.94900 25.46700
C  -3.10200 11.99500 28.85800
O  -3.10700 10.85200 29.25700
C  -3.35100 13.20400 29.79200
C  -2.15800 13.15800 30.61200
O  -1.08400 13.59700 30.35300
O  -2.45800 12.53100 31.79000
C  -1.48700 12.63200 32.85800
H  -3.79400 20.19500 28.68300
H  -2.02500 19.17700 22.66800
H  -2.50600 12.89000 23.50700
H  -4.77000 16.03500 30.95800
H  -3.20100 18.64800 30.79900
H  -5.49400 18.71100 31.79800
H  -6.11200 17.89500 30.39600
H  -5.42900 19.47800 30.16500
H  -1.84600 15.99700 31.64200
H  -3.26900 15.09300 32.25400
H  -3.83800 17.47400 33.05800
H  -2.12800 17.62100 33.05400
H  -4.40100 22.66800 26.26200
H  -2.76500 22.78700 27.02000
H  -4.01100 22.09800 27.95100
H  -3.50600 23.54300 24.38600
H  -2.21600 23.67200 23.17500
H  -1.69200 23.30400 24.78600
H  -1.04700 17.10900 21.55900
H  -2.64400 14.58700 21.46300
H  -2.73600 16.68100 19.85900
H  -2.80700 18.28400 20.67100
H  -4.06500 17.08500 21.14400
H  -0.17700 14.35000 22.94700
H  0.21500 14.98200 21.43200
H  0.33900 12.48500 21.92300
H  -0.14200 13.08200 20.40800
H  -1.46100 12.54300 21.51600
H  -2.68100 10.17800 26.22700
H  -1.87400 10.99700 24.91300
H  -3.67400 10.64300 24.87500
H  -4.17000 13.12600 30.50700
H  -0.71400 11.86300 32.85900
H  -2.08100 12.57100 33.77000
H  -0.97200 13.59100 32.88900
Mg 16.77100 51.83100 24.64200
C  18.55100 50.90100 27.41000
C  13.99000 52.31200 26.62900
C  14.78200 52.13100 21.80700
C  19.45100 51.09100 22.53100
N  16.41500 51.87200 26.86500
C  17.27600 51.40300 27.82800
C  16.68000 51.55500 29.23200
C  15.16000 51.90100 28.91000
C  15.17500 51.98300 27.36300
C  14.09100 51.03800 29.55400
C  17.39500 52.73200 30.00900
C  17.91200 52.47900 31.46800
H  17.11500 51.64500 32.53900
N  14.73000 52.28700 24.31100
C  13.80400 52.50900 25.23100
C  12.54100 52.93600 24.62500
C  12.76300 52.88900 23.14900
C  14.14000 52.38500 23.05900
C  11.33400 53.31400 25.40800
C  11.85500 53.27100 22.00900
O  12.05900 53.18000 20.77300
C  10.60100 53.96000 22.33700
N  17.11000 51.55000 22.36500
C  16.09800 51.79200 21.45300
C  16.67200 51.90800 20.07000
C  18.29100 51.68100 20.35100
C  18.35200 51.50700 21.80900
C  16.05300 50.91200 19.00900
C  19.21900 52.81200 19.80800
C  19.06400 53.13600 18.24400
N  18.57800 51.11700 24.83100
C  19.59900 50.81400 23.92500
C  20.68000 50.15900 24.60600
C  20.28400 50.23800 25.98500
C  19.06100 50.87100 26.11400
C  21.95500 49.58300 23.99000
C  20.73100 49.83200 27.31400
O  21.68600 49.24600 27.72000
C  19.69800 50.34700 28.23000
C  19.32000 49.23200 29.19500
O  18.65000 48.29200 28.90700
O  19.79200 49.63400 30.41400
C  19.56400 48.74800 31.53400
H  13.23600 52.57600 27.37400
H  14.12600 52.06200 20.93600
H  20.30900 50.92500 21.87600
H  16.82100 50.68200 29.86900
H  14.86300 52.90500 29.21400
H  14.56900 50.31400 30.21400
H  13.51100 50.57700 28.75500
H  13.39200 51.64100 30.13500
H  16.65600 53.52800 30.10100
H  18.22700 53.13200 29.42900
H  17.88900 53.48300 31.89300
H  18.98000 52.25800 31.48100
H  11.42600 53.04400 26.46000
H  10.50400 52.68500 25.08700
H  11.17400 54.38300 25.26300
H  9.95500 54.12300 21.47500
H  10.83100 54.91400 22.81300
H  10.03500 53.29000 22.98400
H  16.51700 52.93400 19.73900
H  18.71700 50.77500 19.92100
H  15.60300 51.40500 18.14700
H  15.26700 50.35300 19.51800
H  16.80700 50.20900 18.65600
H  20.25500 52.47800 19.85600
H  19.16300 53.78200 20.30300
H  18.74600 54.16300 18.06500
H  18.50500 52.36100 17.72000
H  20.00600 53.29100 17.71700
H  22.51400 50.36700 23.47900
H  21.55600 48.86800 23.27000
H  22.71900 49.15400 24.63900
H  20.24400 51.09400 28.80500
H  19.77200 49.23900 32.48500
H  20.22600 47.88200 31.52600
H  18.50700 48.49000 31.46100

