158

Mg 2.37100 -1.55600 44.97200
C  5.80600 -1.15000 44.06200
C  1.65500 1.07600 42.82800
C  -0.78900 -2.48900 44.93400
C  3.25800 -4.69900 46.35200
N  3.59000 -0.18000 43.71900
C  5.00600 -0.19600 43.49300
C  5.34300 0.80900 42.43900
C  4.06100 1.71400 42.37000
C  3.03000 0.81400 43.03100
C  4.18400 3.10200 43.08900
C  5.82100 0.12000 41.11200
C  5.02000 -0.18000 39.83000
H  5.17100 0.79500 38.61900
N  0.60900 -0.70000 44.16600
C  0.53100 0.38000 43.34400
C  -0.87700 0.64100 43.06000
C  -1.72000 -0.34500 43.73200
C  -0.64500 -1.24600 44.30500
C  -1.32100 1.83700 42.26000
C  -3.27700 -0.35500 43.69600
O  -3.98100 0.56600 43.21500
C  -3.90100 -1.56400 44.23300
N  1.34900 -3.33300 45.41600
C  0.04000 -3.44800 45.43600
C  -0.58000 -4.76500 45.97000
C  0.77100 -5.45800 46.49800
C  1.86700 -4.48000 46.07200
C  -1.51300 -4.55600 47.13400
C  1.04200 -6.87700 45.92600
C  0.72800 -7.96500 46.92800
N  4.15800 -2.69200 45.30800
C  4.32300 -3.88800 45.95400
C  5.79900 -4.22300 46.01000
C  6.37000 -3.08100 45.33200
C  5.32000 -2.21400 44.94100
C  6.46000 -5.47600 46.55500
C  7.62000 -2.56400 44.90200
O  8.75800 -2.93300 45.11800
C  7.34100 -1.23200 44.12200
C  8.07300 -0.13000 44.87200
O  7.89800 0.21200 45.98700
O  8.78000 0.63500 43.93000
C  9.46600 1.79600 44.56600
H  1.45600 2.06600 42.41400
H  -1.73800 -3.00600 44.78300
H  3.46600 -5.66200 46.82300
H  6.12400 1.37700 42.94500
H  3.79100 1.85400 41.32300
H  5.20400 3.44500 43.26400
H  3.57800 3.19700 43.99000
H  3.66000 3.66200 42.31600
H  6.13600 -0.89900 41.33500
H  6.63900 0.75400 40.76900
H  3.98400 -0.18700 40.16900
H  5.21100 -1.21400 39.53900
H  -1.68700 1.70500 41.24200
H  -0.48900 2.54200 42.25200
H  -2.03200 2.35500 42.90300
H  -3.49400 -2.40900 43.67800
H  -4.98200 -1.41900 44.22300
H  -3.65300 -1.67700 45.28900
H  -1.08900 -5.40500 45.24900
H  0.76800 -5.45200 47.58800
H  -0.98800 -4.34400 48.06500
H  -2.12000 -5.44800 47.29200
H  -2.18800 -3.71700 46.96800
H  2.06100 -6.87100 45.54000
H  0.28500 -6.98200 45.14900
H  0.40800 -7.54000 47.88000
H  1.58100 -8.62600 47.07800
H  -0.05400 -8.60000 46.51300
H  7.21600 -5.83600 45.85800
H  5.67100 -6.21600 46.69200
H  6.92300 -5.33000 47.53000
H  7.86000 -1.35000 43.17100
H  8.87400 2.44600 45.21100
H  9.93500 2.36000 43.75900
H  10.19600 1.51500 45.32500
Mg 6.41400 53.86600 40.86500
C  5.95400 50.47500 40.88200
C  9.54200 53.47400 39.61600
C  6.63100 57.42000 40.56700
C  3.04500 54.32500 41.76500
N  7.48100 52.06800 39.93400
C  7.18000 50.76900 40.22500
C  8.31700 49.79600 39.79000
C  9.57200 50.80600 39.75600
C  8.84800 52.22700 39.84800
C  10.71400 50.61400 40.81600
C  8.11700 49.08000 38.46400
C  7.51600 49.87200 37.30800
H  6.77600 49.08400 36.10300
N  7.83900 55.21300 40.18700
C  9.07100 54.83700 39.76200
C  9.92000 55.99400 39.58000
C  9.12900 57.12500 39.98300
C  7.79000 56.58500 40.27400
C  11.31900 55.91600 39.13400
C  9.66500 58.57000 39.99400
O  10.80000 58.80500 39.63600
C  8.90600 59.76000 40.48000
N  5.04700 55.69800 41.18800
C  5.34800 57.00400 40.94700
C  4.11800 57.92200 41.05600
C  2.99000 56.86000 41.28500
C  3.71600 55.55300 41.56600
C  4.27500 59.12600 42.11600
C  2.00600 56.83400 40.05000
C  1.27800 58.20000 39.73100
N  4.87200 52.70800 41.33100
C  3.57800 53.01100 41.74900
C  2.88700 51.80700 42.07100
C  3.85400 50.79600 41.85300
C  5.03300 51.34700 41.35700
C  1.50200 51.60900 42.69400
C  4.07600 49.36400 41.95500
O  3.38700 48.48400 42.41500
C  5.42600 49.15500 41.23300
C  5.12500 48.22000 40.09400
O  4.62200 48.63200 39.05500
O  5.30100 46.88100 40.48200
C  4.98700 46.07800 39.33200
H  10.62300 53.34400 39.53500
H  6.67400 58.47700 40.30000
H  2.01300 54.39800 42.11300
H  8.30600 49.07100 40.60400
H  10.14200 50.62800 38.84400
H  11.62000 50.33700 40.27800
H  10.30100 49.82000 41.43800
H  11.02200 51.42300 41.47900
H  7.37500 48.31700 38.69700
H  9.12000 48.79400 38.14500
H  8.27200 50.49100 36.82500
H  6.74500 50.50700 37.74400
H  11.30300 56.49300 38.21000
H  11.79300 54.97300 38.86400
H  11.97600 56.51600 39.76500
H  8.42700 59.49800 41.42400
H  8.22500 59.81800 39.63100
H  9.56800 60.61400 40.62400
H  3.97700 58.40400 40.08900
H  2.48600 57.18100 42.19600
H  5.25700 59.59700 42.07300
H  4.13900 58.71600 43.11700
H  3.64400 59.98800 41.90000
H  1.18400 56.17300 40.32100
H  2.57200 56.40300 39.22400
H  1.46200 58.43200 38.68200
H  1.53700 59.04200 40.37300
H  0.21100 58.04300 39.88200
H  0.97300 52.55600 42.78900
H  1.56500 51.15600 43.68400
H  0.92100 50.93400 42.06500
H  6.00400 48.61200 41.98000
H  5.50700 46.43100 38.44100
H  3.90700 45.94900 39.25800
H  5.50100 45.14700 39.57200

