158

Mg 35.87000 1.87200 30.27100
C  33.19800 3.08500 32.36700
C  37.90700 2.15300 32.91800
C  38.29600 0.93700 28.34900
C  33.55000 2.05300 27.63500
N  35.52700 2.45000 32.42600
C  34.34600 2.82600 33.08400
C  34.60900 3.05800 34.61000
C  36.20000 3.02300 34.66800
C  36.58600 2.51400 33.24800
C  36.83900 4.43500 35.07700
C  33.79000 2.06300 35.46400
C  34.40500 1.50700 36.68100
H  34.91400 2.52200 37.72200
N  37.77400 1.50300 30.61300
C  38.50100 1.61600 31.76000
C  39.86100 1.17800 31.57200
C  40.01300 0.94500 30.22400
C  38.66700 1.09000 29.64500
C  40.78000 1.08200 32.76400
C  41.25600 0.58900 29.41500
O  41.30800 0.66400 28.22000
C  42.59100 0.43200 30.18100
N  35.90000 1.57800 28.28700
C  37.04100 1.14500 27.66100
C  36.85600 0.86300 26.19100
C  35.32500 1.20400 25.97400
C  34.88700 1.65500 27.36500
C  37.79000 1.65300 25.25700
C  34.44500 0.07400 25.26200
C  33.47600 0.46800 24.07500
N  33.77000 2.45900 30.00600
C  32.98700 2.48300 28.87500
C  31.66000 2.88200 29.28100
C  31.65900 3.16000 30.62200
C  32.98300 2.87200 30.99700
C  30.56100 3.19800 28.34400
C  30.89200 3.74000 31.72800
O  29.81000 4.32400 31.74400
C  31.82200 3.53500 32.93200
C  31.95400 4.82400 33.69700
O  32.76100 5.71500 33.42000
O  31.24300 4.62900 34.81900
C  31.38000 5.60000 35.81800
H  38.56700 2.35900 33.76300
H  39.00400 0.60900 27.58500
H  32.84700 2.11400 26.80100
H  34.37400 4.08100 34.90100
H  36.57400 2.30300 35.39600
H  37.40100 4.40100 36.01000
H  36.19300 5.30800 34.98500
H  37.70500 4.63600 34.44500
H  33.21900 1.27500 34.97200
H  32.96200 2.68700 35.79800
H  35.23500 0.89600 36.32700
H  33.67400 0.87600 37.18700
H  41.33100 2.01300 32.63500
H  41.43900 0.21500 32.71200
H  40.27100 1.11700 33.72800
H  42.62100 1.33000 30.79800
H  43.37600 0.19600 29.46300
H  42.35000 -0.34200 30.91100
H  37.10500 -0.19400 26.10000
H  35.31700 2.10600 25.36200
H  38.65900 1.09900 24.90200
H  38.23900 2.58900 25.58900
H  37.16200 1.97000 24.42400
H  33.94700 -0.48000 26.05700
H  35.22400 -0.59700 24.90100
H  33.76400 -0.09200 23.18600
H  33.57900 1.52300 23.82000
H  32.43800 0.36600 24.39300
H  30.32600 2.38200 27.66000
H  30.76600 4.03100 27.67300
H  29.72500 3.45300 28.99500
H  31.38200 2.71900 33.50400
H  30.42900 5.83300 36.29800
H  31.72200 6.57600 35.47400
H  31.97000 5.23000 36.65700
Mg -11.52200 38.27500 42.33400
C  -9.03600 35.83500 41.74700
C  -9.55900 40.53900 40.77500
C  -14.10200 40.42500 42.43300
C  -13.59900 35.71600 43.34300
N  -9.44300 38.11200 41.24300
C  -8.77100 36.96300 40.99800
C  -7.53200 37.26400 40.13900
C  -7.67500 38.89800 39.90400
C  -9.02100 39.23500 40.62800
C  -6.47100 39.65700 40.46300
C  -7.70600 36.42200 38.85300
C  -6.43100 35.62400 38.55600
H  -5.67700 36.16600 37.34000
N  -11.70000 40.26500 41.84300
C  -10.69900 41.05300 41.36000
C  -11.10400 42.45100 41.54000
C  -12.45700 42.43700 41.88400
C  -12.81100 41.02600 42.12700
C  -10.31500 43.64500 41.03300
C  -13.32700 43.67200 42.04600
O  -12.87900 44.79400 42.00700
C  -14.83000 43.57600 42.32000
N  -13.64700 38.05400 42.62200
C  -14.52200 39.10900 42.58300
C  -15.92700 38.64600 42.59400
C  -15.76900 37.08600 42.98100
C  -14.21000 36.87400 42.99900
C  -16.96600 39.35000 43.52600
C  -16.54400 36.36300 41.85700
C  -15.92700 35.64800 40.61400
N  -11.36500 36.17600 42.68600
C  -12.26800 35.32400 43.26200
C  -11.58800 34.03900 43.50000
C  -10.32000 34.18600 42.87500
C  -10.23300 35.50400 42.53500
C  -12.24700 32.77500 43.85800
C  -9.05200 33.52900 42.51900
O  -8.64600 32.38900 42.74700
C  -8.18800 34.52300 41.73300
C  -6.88700 34.53800 42.49500
O  -6.00700 33.72100 42.43700
O  -6.76500 35.78700 43.20400
C  -5.51300 35.95300 43.95100
H  -8.87300 41.30600 40.41000
H  -14.88400 41.18700 42.40800
H  -14.17300 34.86800 43.72300
H  -6.58500 37.08900 40.65000
H  -7.94000 39.20700 38.89300
H  -6.21900 40.27300 39.60000
H  -5.56100 39.15400 40.79100
H  -6.70300 40.38500 41.24100
H  -7.85200 37.17500 38.07900
H  -8.59400 35.80500 38.99100
H  -6.66600 34.57600 38.37100
H  -5.66100 35.53000 39.32200
H  -10.74600 44.19400 40.19600
H  -9.28800 43.34400 40.82500
H  -10.25600 44.34500 41.86600
H  -15.44600 43.20000 41.50300
H  -15.22500 44.58700 42.41700
H  -15.03100 43.07300 43.26600
H  -16.21700 38.84300 41.56200
H  -16.04800 36.79300 43.99300
H  -16.53900 40.17200 44.10100
H  -17.40300 38.57600 44.15700
H  -17.72500 39.68600 42.81900
H  -17.32700 37.07800 41.60200
H  -17.13900 35.65700 42.43700
H  -16.03200 34.56400 40.65900
H  -14.84200 35.71200 40.54000
H  -16.37000 36.09600 39.72400
H  -12.72000 32.83900 44.83800
H  -11.49600 32.00000 44.00800
H  -12.83000 32.56000 42.96200
H  -7.97100 34.16700 40.72600
H  -5.69600 36.65500 44.76400
H  -4.66300 36.18100 43.30700
H  -5.21100 35.00800 44.40300

