158

Mg 1.68300 -1.46100 44.39900
C  5.03700 -0.70000 44.02300
C  0.93800 1.43900 42.73900
C  -1.57700 -2.62700 43.99300
C  2.56800 -4.64900 45.62900
N  2.85500 0.04900 43.28300
C  4.20000 0.26300 43.44000
C  4.63400 1.63600 42.97200
C  3.31800 2.34100 42.69800
C  2.24400 1.20900 43.00200
C  3.02800 3.61100 43.61100
C  5.68900 1.79400 41.79100
C  5.38600 0.94800 40.55300
H  6.21200 1.30700 39.29200
N  -0.15800 -0.59000 43.58600
C  -0.20000 0.61900 43.00100
C  -1.63700 0.88400 42.70500
C  -2.34700 -0.33900 43.01800
C  -1.35400 -1.31800 43.59700
C  -2.06100 2.14500 42.03000
C  -3.93700 -0.53300 42.86900
O  -4.67600 0.27400 42.26500
C  -4.59800 -1.76000 43.43800
N  0.57800 -3.37500 44.93200
C  -0.73700 -3.59300 44.67800
C  -1.12000 -5.04500 44.98600
C  0.27600 -5.71000 45.39600
C  1.20600 -4.45800 45.40500
C  -2.13900 -5.24800 46.08900
C  0.75100 -6.86900 44.53400
C  1.69900 -6.68500 43.33800
N  3.40600 -2.49100 44.78200
C  3.66300 -3.78000 45.36200
C  5.08600 -4.00800 45.41300
C  5.69500 -2.82100 44.95300
C  4.63100 -1.95800 44.52000
C  5.78700 -5.21800 45.94400
C  6.93100 -2.03300 44.76900
O  8.10000 -2.27900 45.03200
C  6.51200 -0.61900 44.28700
C  6.87300 0.45300 45.22700
O  6.36600 0.68300 46.29300
O  7.93400 1.14300 44.67800
C  8.50600 2.23300 45.52200
H  0.71600 2.46900 42.45400
H  -2.57300 -3.00200 43.74900
H  2.68600 -5.64000 46.07100
H  5.12500 2.07700 43.83900
H  3.28000 2.51100 41.62200
H  3.89300 3.81100 44.24300
H  2.16600 3.57800 44.27700
H  2.73900 4.41800 42.93800
H  6.69000 1.68600 42.20900
H  5.61300 2.85900 41.57000
H  4.35100 0.87800 40.21800
H  5.53300 -0.09400 40.83700
H  -2.78700 1.92100 41.24900
H  -1.23200 2.54400 41.44700
H  -2.36800 2.92800 42.72400
H  -5.68600 -1.70000 43.43300
H  -4.30500 -1.96400 44.46800
H  -4.56700 -2.60900 42.75400
H  -1.49100 -5.49600 44.06500
H  0.35900 -5.95500 46.45500
H  -1.78200 -5.94400 46.84800
H  -3.06200 -5.56600 45.60500
H  -2.47400 -4.31600 46.54400
H  -0.08700 -7.48800 44.21200
H  1.29000 -7.45700 45.27600
H  1.63100 -5.69800 42.88100
H  1.53500 -7.57200 42.72500
H  2.73200 -6.80500 43.66500
H  5.91300 -5.97600 45.17100
H  5.20600 -5.62300 46.77200
H  6.68700 -4.96800 46.50600
H  7.08700 -0.37300 43.39500
H  7.75400 2.93300 45.88500
H  9.30600 2.70900 44.95400
H  8.85300 1.70300 46.40900
Mg 6.27000 54.79000 40.87100
C  3.37900 52.96800 39.84100
C  8.25700 52.33100 39.82300
C  8.79100 57.01100 40.98000
C  4.09000 57.41100 41.69400
N  5.79900 53.00400 39.77300
C  4.57000 52.35900 39.56400
C  4.93000 51.01100 38.97100
C  6.38900 50.67500 39.40500
C  6.87700 52.11500 39.74500
C  6.56200 49.77300 40.64200
C  4.74100 50.79400 37.44700
C  4.21800 49.37100 37.10300
H  4.22000 48.81600 35.67000
N  8.23900 54.72000 40.30400
C  8.88500 53.54100 39.91600
C  10.28200 53.89300 39.80500
C  10.39400 55.24500 39.91500
C  9.14600 55.72700 40.42100
C  11.32100 52.81100 39.57000
C  11.65300 56.07000 39.72700
O  12.69900 55.59600 39.26200
C  11.61500 57.59600 39.85800
N  6.36600 56.92500 41.21700
C  7.57200 57.54800 41.32600
C  7.43700 58.91900 42.08100
C  5.86600 59.15400 42.09400
C  5.34100 57.77200 41.61600
C  8.12800 58.96800 43.44200
C  5.41600 60.26800 41.08200
C  4.80200 61.46800 41.73900
N  4.18000 55.08900 40.99800
C  3.47400 56.16300 41.43500
C  2.07000 55.85800 41.41100
C  1.95200 54.58300 40.82300
C  3.27700 54.16800 40.50200
C  0.99500 56.78700 41.83500
C  0.99000 53.48900 40.35000
O  -0.22400 53.44600 40.33100
C  1.97100 52.30500 39.79500
C  1.49200 52.08200 38.39400
O  1.62000 52.93200 37.50800
O  0.98100 50.81600 38.17500
C  0.86500 50.47200 36.75600
H  8.96800 51.52400 39.63400
H  9.59300 57.56300 41.47400
H  3.44600 58.13600 42.19600
H  4.22600 50.29100 39.38700
H  6.88800 50.07800 38.64100
H  7.04000 48.84000 40.34400
H  5.56900 49.42900 40.93100
H  7.11900 50.31500 41.40500
H  5.70900 50.79500 36.94700
H  4.10000 51.57200 37.03200
H  3.20100 49.39100 37.49400
H  4.91000 48.76400 37.68700
H  12.30300 53.09600 39.94800
H  11.30400 52.40300 38.56000
H  11.03300 51.95600 40.18200
H  10.64200 58.00400 39.58500
H  12.34600 58.00000 39.15800
H  11.94300 57.84700 40.86600
H  7.94200 59.66700 41.47000
H  5.52400 59.29700 43.11900
H  8.04000 57.99400 43.92200
H  7.62700 59.78900 43.95500
H  9.17400 59.26900 43.38500
H  4.80300 59.82100 40.30000
H  6.32400 60.63500 40.60400
H  3.81700 61.72100 41.34600
H  5.46700 62.32700 41.64800
H  4.68600 61.33800 42.81400
H  0.07700 56.32800 41.46800
H  1.02700 57.78300 41.39600
H  1.01100 56.84400 42.92400
H  1.84800 51.41400 40.41100
H  0.82500 49.39400 36.59900
H  1.71600 50.86500 36.19900
H  0.03000 51.02500 36.32700

