158

Mg 47.37600 25.42700 28.02600
C  48.56600 27.38300 30.76600
C  45.87500 23.32000 30.28600
C  46.69100 23.38400 25.57800
C  49.29200 27.58800 25.96400
N  47.34700 25.33400 30.20500
C  47.91300 26.24200 31.14900
C  47.35700 25.82700 32.58500
C  46.73200 24.42800 32.35100
C  46.62200 24.37000 30.85500
C  47.46200 23.24900 32.83300
C  46.42200 26.94100 33.19000
C  46.91100 27.51500 34.52000
H  45.89700 27.76700 35.67700
N  46.36200 23.57400 27.93900
C  45.79000 22.88100 29.04300
C  45.20800 21.67400 28.51900
C  45.50200 21.62900 27.13300
C  46.18000 22.85400 26.81800
C  44.55500 20.59300 29.31400
C  45.06500 20.63600 26.04800
O  45.37600 20.69000 24.89400
C  44.27900 19.46300 26.52400
N  48.01700 25.41800 26.07000
C  47.41500 24.52600 25.17200
C  47.76600 24.93100 23.70300
C  48.61900 26.23400 23.94800
C  48.64300 26.45900 25.44900
C  48.46700 23.87200 22.90000
C  48.02500 27.45600 23.22100
C  48.91300 28.20700 22.35200
N  48.71000 27.20200 28.24500
C  49.45800 27.92100 27.32100
C  50.14400 29.00100 27.96100
C  49.74800 28.87200 29.32300
C  48.93400 27.74300 29.41000
C  50.99500 30.11300 27.34400
C  49.87600 29.41300 30.63400
O  50.46600 30.39700 31.11400
C  49.07700 28.45000 31.57700
C  50.17700 28.10300 32.58400
O  51.14600 27.40300 32.33300
O  49.95200 28.72300 33.81800
C  51.01400 28.55800 34.90700
H  45.43900 22.59500 30.97600
H  46.43300 22.90500 24.63100
H  49.75500 28.26200 25.24100
H  48.09800 25.60500 33.35200
H  45.73100 24.36400 32.77500
H  48.33800 23.39000 33.46600
H  48.02200 22.74900 32.04300
H  46.66200 22.66800 33.29200
H  45.43100 26.51600 33.34900
H  46.24900 27.81100 32.55600
H  47.36100 28.48900 34.32500
H  47.76400 26.99800 34.95900
H  43.64300 20.19200 28.87200
H  44.28600 20.82400 30.34500
H  45.36100 19.88100 29.49200
H  44.88000 18.81900 27.16500
H  44.33100 18.76700 25.68700
H  43.21700 19.64800 26.69100
H  46.81400 25.08400 23.19400
H  49.63600 26.03900 23.60700
H  48.03100 23.77900 21.90500
H  48.71400 22.97600 23.46900
H  49.44900 24.20300 22.56200
H  47.60700 28.19500 23.90500
H  47.12900 27.14000 22.68600
H  49.32800 29.00100 22.97400
H  48.24200 28.66100 21.62300
H  49.69200 27.56700 21.93700
H  50.52300 31.09400 27.40000
H  51.32800 29.86700 26.33600
H  51.83200 30.32500 28.00900
H  48.25100 28.97000 32.06200
H  50.63600 27.83200 35.62700
H  51.26000 29.48300 35.42900
H  51.89900 28.01700 34.57300
Mg 16.60700 51.96200 26.08600
C  18.65300 50.44800 28.73900
C  14.33900 52.59200 28.51000
C  14.76900 53.33600 23.73100
C  19.00000 50.73500 23.76100
N  16.52600 51.53300 28.33900
C  17.49000 51.00300 29.24500
C  17.01400 51.04500 30.71600
C  15.53900 51.59800 30.57000
C  15.41500 51.94400 29.05900
C  14.44700 50.58800 30.89900
C  17.91800 51.87800 31.70500
C  18.07500 51.28100 33.10500
H  17.14600 51.89300 34.17700
N  14.82000 52.86800 26.12300
C  14.01500 53.06100 27.21300
C  12.86300 53.81900 26.78200
C  13.00300 54.14600 25.40400
C  14.23400 53.47000 25.03600
C  11.83200 54.32900 27.75400
C  12.17900 55.02900 24.45800
O  12.43900 55.17600 23.28700
C  10.94900 55.72600 24.94400
N  16.92800 51.98400 24.10600
C  15.98100 52.76100 23.32300
C  16.48400 52.82900 21.85600
C  17.91400 52.06900 21.88500
C  17.98300 51.62200 23.35800
C  15.51100 52.25400 20.80700
C  19.11700 52.99100 21.52300
C  19.78700 53.93900 22.49100
N  18.39100 50.67000 26.19600
C  19.22200 50.24200 25.10300
C  20.33200 49.46500 25.72800
C  20.14800 49.54500 27.13900
C  19.00700 50.32900 27.32400
C  21.65800 49.12100 24.97300
C  20.72600 49.15700 28.42100
O  21.69900 48.46300 28.67200
C  19.74300 49.75300 29.55000
C  19.19600 48.65700 30.42400
O  18.30000 47.88400 30.13500
O  19.95200 48.52900 31.57600
C  19.88500 47.44000 32.58000
H  13.65700 52.88400 29.31100
H  14.26600 53.83100 22.89800
H  19.71100 50.33200 23.03600
H  16.90200 50.03800 31.11900
H  15.38100 52.48200 31.18900
H  14.12000 50.07000 29.99800
H  13.64300 51.20600 31.29800
H  14.75100 49.90200 31.68900
H  17.43500 52.85200 31.78200
H  18.91100 51.91600 31.25700
H  19.06100 51.44500 33.53800
H  18.09600 50.19100 33.08100
H  10.85300 53.89800 27.54500
H  11.61800 55.39700 27.72300
H  12.01700 54.04400 28.79000
H  10.37200 56.30300 24.22200
H  11.24200 56.41600 25.73400
H  10.41900 54.86200 25.34700
H  16.67600 53.87000 21.59500
H  17.97000 51.27300 21.14200
H  14.46700 52.45100 21.05200
H  15.68900 51.17900 20.80200
H  15.79200 52.70800 19.85700
H  18.65700 53.62100 20.76100
H  19.85500 52.31400 21.09200
H  20.87600 53.89900 22.46200
H  19.54600 53.81400 23.54700
H  19.53900 54.95400 22.18100
H  22.55700 49.19100 25.58500
H  21.67200 49.78100 24.10600
H  21.61100 48.12500 24.53300
H  20.20800 50.42700 30.27000
H  20.20200 46.48400 32.16300
H  18.85300 47.40500 32.92700
H  20.60100 47.70000 33.36000

