158

Mg 25.13000 1.31600 30.08200
C  27.26900 0.98500 32.73200
C  22.42200 1.39000 32.34500
C  22.98600 1.22200 27.53600
C  27.80400 0.61900 27.96400
N  24.92400 1.28500 32.35700
C  25.97400 1.21400 33.22500
C  25.50700 1.51600 34.66300
C  23.91800 1.45100 34.51300
C  23.66400 1.39300 32.98500
C  23.15000 0.26300 35.24200
C  26.10200 2.87300 35.18400
C  26.75600 2.80100 36.61200
H  26.11600 3.70300 37.65700
N  23.00000 1.28500 30.00300
C  22.07500 1.27100 31.01600
C  20.76700 1.04200 30.46000
C  20.88800 0.92600 29.03800
C  22.30100 1.18100 28.78000
C  19.52600 0.88000 31.31600
C  19.84000 0.62000 27.94900
O  20.11400 0.34600 26.79700
C  18.42600 0.53900 28.33400
N  25.41300 0.98500 28.06300
C  24.37100 1.13200 27.20000
C  24.91600 1.22600 25.73700
C  26.42600 1.23900 25.95600
C  26.51300 0.92800 27.45100
C  24.42600 0.07800 24.81600
C  27.22500 2.53800 25.46400
C  26.82600 3.85900 26.12500
N  27.15700 0.82300 30.26800
C  28.13800 0.55400 29.31400
C  29.46200 0.39000 29.93500
C  29.17900 0.59300 31.31200
C  27.74800 0.74100 31.44000
C  30.81800 0.19900 29.30000
C  29.74500 0.87300 32.65100
O  30.90100 1.00400 33.05000
C  28.58200 1.02500 33.56000
C  28.61300 -0.05100 34.57300
O  28.62100 -1.23800 34.33800
O  28.77800 0.47000 35.81800
C  29.25900 -0.33400 36.90300
H  21.55200 1.53700 32.98900
H  22.37000 1.08600 26.64500
H  28.58900 0.70200 27.21000
H  25.74900 0.71700 35.36300
H  23.55000 2.43300 34.81000
H  22.73100 -0.36500 34.45600
H  22.24800 0.67200 35.69800
H  23.83000 -0.29600 35.88400
H  25.31200 3.62300 35.22200
H  26.86800 3.34500 34.56800
H  27.75100 3.22400 36.47400
H  26.86600 1.78900 37.00000
H  18.97200 1.81700 31.26900
H  19.72600 0.58100 32.34400
H  18.94800 0.03100 30.95000
H  18.12000 1.51800 28.70000
H  18.14400 -0.28000 28.99600
H  17.93000 0.30600 27.39200
H  24.68200 2.16400 25.23500
H  26.95600 0.44300 25.43200
H  23.66200 -0.54800 25.27700
H  25.26500 -0.56000 24.53700
H  24.14000 0.49600 23.85100
H  26.95600 2.62200 24.41100
H  28.31000 2.43300 25.45900
H  27.65100 4.24600 26.72400
H  25.98900 3.59400 26.77200
H  26.50400 4.53700 25.33500
H  30.76400 -0.02900 28.23600
H  31.42900 -0.41900 29.95800
H  31.32200 1.16500 29.30700
H  28.61000 1.99600 34.05400
H  28.71300 -0.15500 37.82900
H  30.28400 0.00100 37.06100
H  29.17800 -1.40400 36.70800
Mg 47.64100 25.61500 27.72500
C  48.99800 27.61500 30.16700
C  46.64200 23.27200 30.07300
C  46.48700 23.69300 25.20500
C  49.02700 27.86400 25.22400
N  47.89500 25.43800 29.88300
C  48.28800 26.45600 30.71700
C  47.90100 26.20000 32.15400
C  47.40100 24.71000 32.07000
C  47.33100 24.42400 30.58100
C  48.30300 23.78300 32.93600
C  46.88000 27.20900 32.71400
C  47.15500 27.39700 34.27200
H  45.97600 28.01800 35.11000
N  46.68700 23.71700 27.65600
C  46.36100 22.97800 28.77600
C  45.81700 21.69400 28.30900
C  45.59500 21.84500 26.87000
C  46.27300 23.12100 26.46200
C  45.52400 20.56900 29.22900
C  44.80400 20.90700 25.98100
O  44.71200 21.08300 24.74500
C  44.12200 19.73300 26.55800
N  47.77500 25.78900 25.51200
C  47.23900 24.75600 24.76100
C  47.67100 24.89500 23.34800
C  48.43100 26.22700 23.32100
C  48.38200 26.68100 24.72600
C  48.57400 23.74300 22.86500
C  47.74500 27.33000 22.32500
C  48.27300 27.53700 20.85200
N  48.74500 27.38800 27.65300
C  49.25700 28.19200 26.62600
C  50.09800 29.21800 27.12400
C  49.92600 29.05300 28.51000
C  49.13000 27.94400 28.78000
C  50.86600 30.25700 26.44300
C  50.22400 29.66200 29.73900
O  50.93300 30.61700 29.93400
C  49.60600 28.82700 30.87200
C  50.49200 28.53300 31.96200
O  51.60900 27.95500 31.92200
O  49.91200 29.02700 33.09900
C  50.62600 28.91100 34.31400
H  46.34600 22.54700 30.83500
H  46.16000 23.03800 24.39400
H  49.58000 28.46100 24.49600
H  48.86200 26.19600 32.66800
H  46.41200 24.71200 32.52800
H  48.99000 23.01400 32.58200
H  47.59700 23.23500 33.56000
H  48.93900 24.35600 33.61000
H  45.84200 26.88300 32.64400
H  47.02600 28.15900 32.20000
H  48.02000 28.06000 34.30600
H  47.44900 26.47300 34.76900
H  44.48900 20.61300 29.56600
H  46.24200 20.65000 30.04600
H  45.73300 19.62300 28.73000
H  44.82800 18.90400 26.49400
H  43.32800 19.48600 25.85300
H  43.67500 20.13500 27.46700
H  46.78500 25.02100 22.72600
H  49.43900 26.16800 22.91200
H  48.67500 22.96200 23.61800
H  49.61600 24.05500 22.79100
H  48.19500 23.35600 21.91900
H  47.74300 28.30200 22.81700
H  46.71900 27.06400 22.06900
H  47.43700 27.19100 20.24300
H  49.17700 26.93100 20.80100
H  48.59200 28.57100 20.71600
H  51.40100 31.00500 27.02800
H  50.26000 30.66600 25.63400
H  51.63700 29.71200 25.89700
H  48.79800 29.50800 31.13800
H  50.45200 27.95500 34.80700
H  50.24100 29.64600 35.02100
H  51.64400 29.28800 34.22100

