158

Mg 1.95500 -1.28200 44.36400
C  5.34400 -0.66400 43.96700
C  1.35000 1.71400 42.73700
C  -1.31500 -2.27800 44.00500
C  2.57400 -4.53700 45.50600
N  3.22100 0.24200 43.23800
C  4.57400 0.33400 43.39500
C  5.13900 1.66500 42.82900
C  3.79900 2.47000 42.51200
C  2.74000 1.49300 42.91100
C  3.62700 3.91100 43.23900
C  5.99000 1.46000 41.50900
C  7.43500 1.80600 41.50400
H  8.27000 2.04900 40.24600
N  0.31400 -0.44200 43.56000
C  0.21000 0.84400 42.92300
C  -1.19400 1.11500 42.58800
C  -1.90300 -0.01300 43.10000
C  -0.94600 -1.00000 43.58800
C  -1.72400 2.36500 41.88000
C  -3.44700 -0.01700 42.91400
O  -4.09200 0.77300 42.24800
C  -4.24000 -1.14000 43.54600
N  0.78000 -3.22400 44.75400
C  -0.53700 -3.30300 44.55600
C  -1.00900 -4.74000 44.69800
C  0.23800 -5.50200 45.32600
C  1.25100 -4.36500 45.21000
C  -2.34300 -5.04200 45.56500
C  0.62500 -6.77100 44.50500
C  1.09400 -7.94600 45.16000
N  3.53000 -2.38600 44.81900
C  3.66500 -3.63400 45.31000
C  5.04000 -3.83700 45.69200
C  5.72900 -2.68800 45.17900
C  4.77800 -1.84200 44.60100
C  5.66300 -5.14700 46.17600
C  7.05900 -2.07000 45.00400
O  8.13500 -2.52700 45.38400
C  6.82900 -0.74300 44.29700
C  7.22700 0.35200 45.21000
O  6.66200 0.58800 46.29800
O  8.23500 1.18100 44.73300
C  8.77600 2.29300 45.46300
H  1.13300 2.73300 42.41100
H  -2.35500 -2.54600 43.80600
H  2.84800 -5.50700 45.92800
H  5.69400 2.18500 43.61000
H  3.61200 2.81300 41.49400
H  2.88700 3.85600 44.03700
H  3.25300 4.74200 42.64100
H  4.56600 4.21700 43.70100
H  5.57900 1.95100 40.62700
H  5.96300 0.39300 41.28600
H  7.91100 1.00200 42.06600
H  7.50800 2.64100 42.20100
H  -0.99100 3.16500 41.77300
H  -2.42900 2.87300 42.53800
H  -2.19800 2.17900 40.91600
H  -5.28300 -0.84700 43.65900
H  -3.98400 -1.16600 44.60500
H  -4.24400 -2.03500 42.92400
H  -1.17500 -5.16400 43.70800
H  0.03700 -5.91400 46.31500
H  -2.33100 -6.05900 45.95600
H  -3.16300 -5.01700 44.84700
H  -2.55900 -4.31500 46.34800
H  1.48200 -6.59400 43.85400
H  -0.22900 -7.12800 43.93000
H  1.49000 -7.58900 46.11000
H  1.95500 -8.44100 44.71000
H  0.47600 -8.82800 45.32500
H  5.26800 -5.44200 47.14800
H  6.74600 -5.04000 46.23700
H  5.40800 -5.98500 45.52600
H  7.52100 -0.59100 43.46900
H  8.58900 3.25000 44.97500
H  9.86200 2.19600 45.43000
H  8.58200 2.34700 46.53400
Mg 54.46500 24.50700 44.64800
C  52.04300 26.77500 43.91400
C  52.57300 21.91100 43.66100
C  57.26400 22.50600 44.73000
C  56.54700 27.22000 45.77600
N  52.62700 24.48200 43.54000
C  51.76700 25.46600 43.43100
C  50.42100 24.89800 42.86500
C  50.51000 23.41900 43.45500
C  52.00400 23.22500 43.56100
C  49.78400 23.09800 44.83700
C  50.55000 24.84700 41.30600
C  49.30800 25.16400 40.55500
H  48.85300 24.34300 39.37200
N  54.87300 22.47000 44.05400
C  53.90800 21.51200 43.77100
C  54.48800 20.23000 43.63300
C  55.88500 20.45700 43.89500
C  56.07400 21.85500 44.23200
C  53.72200 18.98100 43.29400
C  56.99300 19.38500 43.88800
O  56.69000 18.23600 43.49300
C  58.42100 19.57800 44.16200
N  56.60300 24.79400 44.97500
C  57.50500 23.79500 45.11600
C  58.88200 24.21500 45.59200
C  58.70800 25.74900 45.81100
C  57.22000 25.94500 45.42000
C  59.50700 23.49400 46.81000
C  59.65900 26.66100 44.92800
C  60.06100 28.08300 45.42100
N  54.33000 26.59000 44.89800
C  55.22300 27.53300 45.46100
C  54.43900 28.80000 45.54200
C  53.24500 28.61600 44.90600
C  53.21800 27.21200 44.61400
C  55.05300 30.09400 46.09500
C  51.92100 29.12900 44.47800
O  51.50700 30.25200 44.56500
C  51.13800 28.01100 43.74000
C  50.92900 28.44900 42.36600
O  51.65800 28.29900 41.41200
O  49.63000 28.92400 42.25100
C  48.90400 29.09600 40.93900
H  51.83300 21.13800 43.44500
H  58.15700 21.91800 44.95400
H  57.23900 27.95200 46.19900
H  49.58600 25.45200 43.29400
H  50.05300 22.67700 42.80000
H  50.54300 22.52900 45.37500
H  48.97200 22.42500 44.56000
H  49.33200 23.98300 45.28500
H  50.86500 23.85100 40.99500
H  51.29400 25.54500 40.92400
H  49.21600 26.18600 40.18800
H  48.49200 25.22300 41.27600
H  53.89100 18.21200 44.04800
H  53.92300 18.68800 42.26400
H  52.67100 19.26600 43.34600
H  58.82400 20.25100 43.40500
H  58.84300 18.57400 44.12600
H  58.50100 20.00600 45.16100
H  59.43600 23.95300 44.69000
H  58.74900 25.99700 46.87100
H  58.86900 22.65900 47.09800
H  59.37400 24.06600 47.72900
H  60.55000 23.22800 46.63900
H  59.10200 26.78400 44.00000
H  60.58400 26.14300 44.67300
H  59.75500 28.82200 44.68000
H  61.12800 28.07400 45.64700
H  59.41500 28.25500 46.28100
H  54.81800 29.99200 47.15400
H  54.43200 30.87900 45.66200
H  56.09300 30.36800 45.91600
H  50.15100 27.82400 44.16400
H  48.13900 28.32600 40.83700
H  49.50100 29.07100 40.02700
H  48.46200 30.09200 40.90200

