158

Mg 48.25000 35.13600 27.82700
C  46.43000 33.68200 30.42200
C  48.72000 37.81200 29.67500
C  49.50400 36.54200 25.02900
C  47.82000 32.12800 25.91900
N  47.66500 35.71800 29.83800
C  46.99200 34.90700 30.74800
C  46.99800 35.68400 32.09900
C  47.26200 37.19400 31.72800
C  47.81800 36.96800 30.31500
C  45.98600 38.06900 31.68600
C  48.29200 35.07800 32.77000
C  48.19300 34.93100 34.32100
H  47.42300 35.92600 35.08600
N  49.00700 36.94200 27.42500
C  49.21800 37.92000 28.29200
C  49.98100 39.01500 27.68100
C  50.29600 38.62900 26.33300
C  49.61300 37.34000 26.20100
C  50.42400 40.19100 28.50400
C  51.09800 39.36000 25.32500
O  51.14400 39.01400 24.16500
C  51.73400 40.60500 25.66900
N  48.47800 34.44700 25.66000
C  49.05900 35.30400 24.71700
C  49.34800 34.55100 23.39500
C  49.02000 33.02600 23.79100
C  48.45100 33.13700 25.19600
C  48.55200 35.15800 22.21500
C  50.28500 32.12800 23.69100
C  50.86600 32.00600 22.26200
N  47.27300 33.32700 28.05400
C  47.18300 32.18900 27.20000
C  46.40600 31.10700 27.82700
C  46.08700 31.69900 29.04000
C  46.63400 33.01900 29.16000
C  46.13200 29.70900 27.38400
C  45.37400 31.48100 30.26500
O  44.75200 30.47200 30.53900
C  45.54900 32.70300 31.22500
C  45.97400 32.34600 32.59600
O  46.99800 31.73200 32.91000
O  45.04100 32.76700 33.46200
C  45.07800 32.48000 34.82000
H  48.99800 38.70900 30.23200
H  49.98300 37.00100 24.16200
H  47.64200 31.18700 25.39500
H  46.15400 35.58700 32.78200
H  47.88500 37.80000 32.38400
H  45.14600 37.67500 32.25800
H  45.65500 38.13700 30.64900
H  46.24600 39.05300 32.07500
H  49.24000 35.56000 32.53200
H  48.26800 34.02600 32.48500
H  49.20300 35.02400 34.72000
H  47.77400 33.96700 34.61000
H  51.44400 40.16300 28.88700
H  49.66100 40.58800 29.17400
H  50.16200 40.98500 27.80400
H  52.17900 40.51800 26.66000
H  50.97500 41.37700 25.53900
H  52.45300 40.95600 24.92800
H  50.40700 34.65400 23.15900
H  48.29200 32.55500 23.13100
H  49.30900 35.41000 21.47400
H  47.99200 36.05400 22.48100
H  47.85100 34.44800 21.77500
H  49.96800 31.13600 24.01400
H  51.00600 32.51700 24.41000
H  50.17400 32.45700 21.55100
H  50.78600 30.95600 21.98100
H  51.88100 32.40400 22.25000
H  46.49600 29.41900 26.39800
H  45.08400 29.45300 27.53700
H  46.70400 29.14500 28.12100
H  44.53500 33.10200 31.23000
H  44.34000 31.72700 35.09400
H  44.79100 33.41600 35.29800
H  46.08000 32.17000 35.11700
Mg 42.39700 41.69400 26.14000
C  41.79000 44.03300 28.62000
C  43.59100 39.51500 28.54700
C  43.24600 39.62800 23.55400
C  41.55900 44.12700 23.70100
N  42.44600 41.72100 28.35800
C  42.26700 42.80200 29.18200
C  42.34900 42.41900 30.67500
C  43.28200 41.16700 30.57500
C  43.01100 40.72800 29.06400
C  44.74100 41.25700 30.99500
C  40.99500 42.27300 31.48000
C  40.60000 43.34700 32.48400
H  41.50300 43.61800 33.71600
N  43.24500 39.81200 26.13000
C  43.66100 39.10100 27.18000
C  44.10200 37.82500 26.66800
C  43.97600 37.79600 25.26500
C  43.43200 39.12100 24.86300
C  44.63100 36.74000 27.58400
C  44.33500 36.69400 24.27600
O  44.07000 36.74000 23.04900
C  45.03900 35.39700 24.70600
N  42.25900 41.77700 24.01800
C  42.70000 40.84200 23.16800
C  42.67000 41.30700 21.70500
C  41.78500 42.54000 21.80400
C  41.82100 42.83900 23.32600
C  44.06700 41.54900 21.05300
C  40.29500 42.34400 21.46800
C  39.60200 41.16500 22.09500
N  41.78300 43.60800 26.15400
C  41.60100 44.49800 25.05700
C  41.30700 45.82000 25.59500
C  41.28400 45.59900 27.00900
C  41.64700 44.27200 27.28200
C  41.04000 47.10100 24.85700
C  41.06500 46.31600 28.27700
O  40.67600 47.46300 28.49600
C  41.32900 45.32300 29.40100
C  42.36100 45.87800 30.34500
O  43.52300 45.53400 30.39700
O  41.81500 46.92600 31.08600
C  42.79800 47.50900 32.02200
H  43.92600 38.77100 29.27200
H  43.55700 39.05200 22.68000
H  41.20200 44.89300 23.01000
H  42.93900 43.17400 31.19400
H  42.94700 40.32600 31.18200
H  45.03800 42.28200 31.21600
H  45.31700 40.74500 30.22400
H  44.89700 40.66300 31.89500
H  40.76000 41.32100 31.95500
H  40.32800 42.32900 30.61900
H  39.57700 43.11900 32.78400
H  40.63200 44.32400 32.00200
H  45.72000 36.70700 27.58200
H  44.28300 35.78800 27.18300
H  44.43900 36.86400 28.64900
H  45.26800 34.91200 23.75600
H  44.43800 34.65400 25.23000
H  45.93200 35.80500 25.17900
H  42.07100 40.49900 21.28800
H  42.23500 43.40000 21.31000
H  44.30200 42.49600 20.56800
H  44.12700 40.75400 20.31000
H  44.87900 41.24600 21.71500
H  40.20000 42.26600 20.38500
H  39.70600 43.23300 21.69600
H  38.65600 41.51100 22.51300
H  40.17200 40.68100 22.88800
H  39.37100 40.44300 21.31200
H  41.44900 47.13700 23.84700
H  41.37900 47.96600 25.42700
H  39.95200 47.16200 24.84000
H  40.37400 45.20300 29.91300
H  43.22600 46.77300 32.70200
H  42.11400 48.11000 32.62100
H  43.58700 48.02100 31.47100

