158

Mg 1.75600 -2.78000 44.67400
C  5.20900 -2.60800 43.68300
C  1.07300 -0.45500 42.21400
C  -1.47400 -3.72700 44.71100
C  2.54200 -5.89200 46.25100
N  3.05000 -1.67500 43.22300
C  4.42200 -1.66200 42.99900
C  4.89000 -0.56900 41.99300
C  3.47500 0.07000 41.59000
C  2.43400 -0.76000 42.34300
C  3.40700 1.60400 41.95700
C  5.59000 -1.28800 40.67200
C  7.10000 -0.94400 40.31800
H  7.42800 -0.41700 38.91600
N  0.03600 -1.97500 43.85100
C  -0.03600 -1.01200 42.89100
C  -1.41700 -0.64800 42.65300
C  -2.23700 -1.54900 43.48000
C  -1.23100 -2.47800 44.06600
C  -1.83300 0.57300 41.79800
C  -3.68500 -1.46600 43.62800
O  -4.35500 -0.62200 43.10700
C  -4.38500 -2.43500 44.44600
N  0.67400 -4.49200 45.57800
C  -0.66400 -4.59300 45.48300
C  -1.17200 -5.77800 46.21800
C  0.08200 -6.57000 46.56500
C  1.18600 -5.58100 46.19200
C  -2.09800 -5.43600 47.41200
C  0.08400 -7.99300 45.89100
C  0.59200 -9.21100 46.65200
N  3.51800 -3.95300 45.08900
C  3.65700 -5.12700 45.74200
C  5.08000 -5.40100 45.88400
C  5.73400 -4.38800 45.11000
C  4.72800 -3.54800 44.60300
C  5.76300 -6.57300 46.49700
C  7.00900 -3.85400 44.74700
O  8.13900 -4.22000 45.08600
C  6.70100 -2.90600 43.59300
C  7.62100 -1.80200 43.63000
O  8.64300 -1.63900 42.95700
O  7.25100 -0.85500 44.57900
C  8.11500 0.31000 44.53100
H  0.95300 0.38300 41.52400
H  -2.49100 -4.05900 44.49400
H  2.76600 -6.83800 46.74900
H  5.59200 0.15100 42.41500
H  3.32500 -0.08500 40.52100
H  4.42000 2.00400 41.97400
H  2.89600 1.68000 42.91700
H  2.83900 2.05700 41.14500
H  4.95000 -1.16700 39.79800
H  5.52400 -2.35800 40.86900
H  7.69100 -1.83800 40.51500
H  7.42800 -0.24100 41.08500
H  -1.67100 0.22500 40.77800
H  -1.13200 1.37100 42.04300
H  -2.85400 0.92300 41.95400
H  -4.30600 -3.40700 43.96100
H  -5.36600 -2.06900 44.74800
H  -3.91400 -2.43000 45.42900
H  -1.81500 -6.32200 45.52600
H  0.05700 -6.69100 47.64800
H  -2.43700 -6.31800 47.95600
H  -3.02800 -4.94300 47.12800
H  -1.62600 -4.80500 48.16600
H  0.72300 -7.95500 45.00800
H  -0.91800 -8.31300 45.60500
H  0.99500 -8.94900 47.63000
H  1.47000 -9.62500 46.15600
H  -0.17700 -9.97800 46.73600
H  6.81200 -6.49200 46.21300
H  5.29400 -7.49900 46.16500
H  5.82300 -6.51700 47.58400
H  6.90800 -3.43500 42.66300
H  9.00400 -0.13900 44.97200
H  7.75200 1.12200 45.16200
H  8.49000 0.59300 43.54700
Mg 7.35800 53.56200 41.78900
C  6.38700 50.26000 41.19300
C  10.44700 52.85200 40.42500
C  7.98100 56.95100 41.57500
C  4.01100 54.37300 42.68800
N  8.22100 51.85900 40.66100
C  7.65500 50.62100 40.62000
C  8.51100 49.66600 39.89900
C  9.92400 50.29100 40.16300
C  9.51400 51.76500 40.38900
C  10.75100 49.75600 41.31000
C  8.09800 49.82500 38.31700
C  8.04800 48.57000 37.44300
H  7.09800 48.41100 36.18200
N  9.05100 54.80000 41.16200
C  10.13400 54.26800 40.61700
C  10.97600 55.34100 40.21500
C  10.37100 56.59400 40.62800
C  9.03500 56.16000 41.12700
C  12.39500 55.06100 39.60900
C  11.00300 57.97800 40.47100
O  12.14400 58.14500 40.00500
C  10.25300 59.23900 40.91600
N  6.15500 55.40800 42.18600
C  6.73800 56.62500 42.06900
C  5.70600 57.66600 42.51500
C  4.49400 56.82700 43.07900
C  4.87700 55.48200 42.58100
C  6.28300 58.80100 43.44800
C  3.18100 57.46100 42.61100
C  2.68300 58.74900 43.32400
N  5.61600 52.59600 41.99600
C  4.35900 52.98300 42.44200
C  3.59300 51.79300 42.65800
C  4.37300 50.72500 42.24200
C  5.56000 51.24100 41.80400
C  2.18000 51.75000 43.22300
C  4.43100 49.25800 42.14000
O  3.55800 48.45000 42.39500
C  5.76800 48.93700 41.46900
C  5.44600 48.05900 40.29100
O  4.65100 48.32700 39.39700
O  5.97900 46.79800 40.49100
C  5.50900 45.77800 39.64500
H  11.44500 52.47900 40.18300
H  8.01700 58.00000 41.27600
H  3.01200 54.65100 43.02800
H  8.37100 48.63900 40.23600
H  10.52000 50.20700 39.25400
H  11.03000 50.54200 42.01200
H  11.66200 49.22700 41.02900
H  10.31700 48.87300 41.77800
H  8.90700 50.38000 37.84300
H  7.12700 50.30400 38.18800
H  7.63200 47.80100 38.09400
H  9.07900 48.29700 37.21700
H  12.39700 55.21400 38.52900
H  12.74600 54.06500 39.87900
H  13.18700 55.70200 39.99600
H  9.90400 59.08600 41.93700
H  9.40200 59.30200 40.23700
H  10.85900 60.13100 40.75600
H  5.25900 58.07500 41.60900
H  4.52900 56.76800 44.16700
H  6.34100 59.82600 43.08200
H  7.23000 58.47700 43.88000
H  5.58300 58.81400 44.28300
H  2.41300 56.69800 42.74400
H  3.09900 57.65100 41.54100
H  2.29100 58.52800 44.31600
H  1.93000 59.25900 42.72200
H  3.46900 59.49600 43.43500
H  2.29900 51.34000 44.22600
H  1.56900 51.14900 42.54900
H  1.72200 52.73900 43.21600
H  6.39900 48.39200 42.17200
H  6.12400 44.88900 39.78000
H  5.72700 46.10100 38.62700
H  4.46900 45.45500 39.69200

