158

Mg 40.53500 9.62100 29.67600
C  42.47400 10.77000 32.25800
C  38.18400 8.40200 31.96600
C  38.83400 8.13300 27.15100
C  43.15700 10.44700 27.42200
N  40.32100 9.69300 31.85000
C  41.22700 10.19600 32.73000
C  40.73600 10.20700 34.19100
C  39.53600 9.18500 34.10700
C  39.31500 9.10400 32.58700
C  39.67200 7.74100 34.62500
C  40.43700 11.69200 34.68400
C  40.85100 12.13700 36.04700
H  39.61100 12.59600 36.91700
N  38.69400 8.49100 29.59900
C  37.83600 8.17400 30.61500
C  36.68300 7.48600 30.08300
C  36.93400 7.26100 28.74800
C  38.25900 7.93600 28.41700
C  35.53600 6.84200 30.88400
C  36.20400 6.43900 27.70900
O  36.65600 6.29900 26.52800
C  34.85400 5.85100 28.02500
N  41.04600 9.29600 27.61000
C  40.06100 8.71100 26.80500
C  40.53900 8.72800 25.33400
C  41.63400 9.81100 25.33900
C  41.98600 9.83000 26.84700
C  41.04300 7.39900 24.85200
C  41.17900 11.20200 24.75400
C  40.67000 12.20300 25.74700
N  42.45900 10.43700 29.81100
C  43.39300 10.74300 28.76400
C  44.58900 11.34900 29.39700
C  44.17200 11.39300 30.74800
C  42.92600 10.85400 30.94300
C  45.86900 11.85600 28.72900
C  44.60000 11.97300 32.01700
O  45.62000 12.60000 32.32200
C  43.53000 11.58000 33.07400
C  44.25000 10.74600 34.07000
O  44.81000 9.66100 33.76700
O  44.30200 11.37500 35.31400
C  45.09600 10.69900 36.43700
H  37.44600 8.14300 32.72800
H  38.28700 7.73600 26.29300
H  43.86400 10.88300 26.71300
H  41.46100 9.85200 34.92400
H  38.66100 9.62400 34.58400
H  39.83200 6.97700 33.86400
H  38.77600 7.43500 35.16500
H  40.52200 7.72600 35.30700
H  39.36100 11.77000 34.52500
H  40.90500 12.43400 34.03800
H  41.40300 13.05900 35.86100
H  41.47200 11.45800 36.63200
H  35.77800 7.03600 31.92900
H  35.35500 5.77100 30.79600
H  34.54100 7.25000 30.70400
H  34.12600 6.60300 28.33000
H  34.92700 5.04700 28.75800
H  34.35900 5.46600 27.13400
H  39.71300 9.14900 24.76200
H  42.58700 9.62500 24.84300
H  41.44600 6.83100 25.69100
H  41.73700 7.57500 24.03000
H  40.13400 6.91600 24.49500
H  40.47800 11.11600 23.92400
H  42.09300 11.48100 24.23000
H  41.49500 12.65200 26.29900
H  39.92800 11.70800 26.37400
H  40.18600 13.09200 25.34200
H  45.74300 12.76000 28.13200
H  46.10300 11.05000 28.03300
H  46.60300 11.97400 29.52500
H  43.20100 12.46000 33.62700
H  44.39800 10.40500 37.22100
H  45.72600 11.44900 36.91600
H  45.59900 9.81400 36.04700
Mg 47.24000 25.24100 28.18500
C  48.11900 27.53800 30.64800
C  46.19300 23.05200 30.55900
C  46.41700 23.08200 25.74200
C  48.50000 27.39700 25.73300
N  47.24200 25.27400 30.37000
C  47.53300 26.34700 31.17400
C  47.39400 26.03400 32.69800
C  46.84600 24.55600 32.57600
C  46.81900 24.26100 31.06300
C  47.65000 23.58400 33.40300
C  46.54500 27.16700 33.41600
C  45.83700 26.62600 34.69500
H  45.42300 27.63300 35.84000
N  46.43800 23.34900 28.13000
C  46.08100 22.57900 29.21400
C  45.63700 21.26100 28.82300
C  45.55600 21.27900 27.42300
C  46.16000 22.57200 27.00900
C  45.34000 20.09300 29.74700
C  45.04400 20.19400 26.50000
O  45.05100 20.36700 25.28600
C  44.54400 18.90100 27.03000
N  47.36900 25.21600 25.97900
C  47.02700 24.27600 25.27000
C  47.22400 24.43700 23.75500
C  47.69700 25.94300 23.67100
C  47.89900 26.24300 25.22600
C  48.15600 23.39800 23.06100
C  46.80100 26.94400 22.95000
C  47.32100 27.37800 21.51800
N  48.17000 27.04700 28.16600
C  48.56400 27.85300 27.13200
C  49.08900 29.09900 27.62200
C  48.97300 29.07400 28.97900
C  48.36900 27.76600 29.28200
C  49.73100 30.20300 26.91300
C  49.19300 29.74000 30.23900
O  49.65300 30.85000 30.49200
C  48.53100 28.88200 31.30000
C  49.49600 28.71800 32.37400
O  50.31700 27.83300 32.62900
O  49.11800 29.60200 33.37900
C  49.74700 29.48500 34.66700
H  45.69400 22.50600 31.36200
H  46.20100 22.36400 24.94800
H  48.84000 28.09900 24.96900
H  48.44500 26.14100 32.96400
H  45.82500 24.47600 32.95000
H  47.84400 22.71300 32.77700
H  47.08500 23.20500 34.25500
H  48.63700 23.97900 33.64600
H  45.91700 27.73300 32.72800
H  47.21900 27.91200 33.83700
H  46.49800 25.85900 35.09800
H  44.90900 26.15300 34.37300
H  46.04900 19.31800 29.45300
H  44.30400 19.76200 29.81700
H  45.63900 20.37300 30.75700
H  45.44700 18.61600 27.57000
H  44.29600 18.27600 26.17300
H  43.74200 19.05200 27.75300
H  46.27500 24.47200 23.22000
H  48.72400 25.90100 23.30600
H  49.03400 23.89700 22.65100
H  47.63300 23.06100 22.16500
H  48.45500 22.54700 23.67300
H  46.79200 27.77800 23.65100
H  45.77700 26.56900 22.92900
H  46.36900 27.37300 20.98800
H  48.01100 26.61300 21.16100
H  47.75000 28.37800 21.57800
H  49.36300 31.09200 27.42500
H  49.54600 30.29600 25.84300
H  50.80700 30.06800 27.02200
H  47.60300 29.36400 31.60700
H  49.25800 28.78500 35.34400
H  49.90500 30.43600 35.17600
H  50.81100 29.28700 34.53600

