158

Mg 47.29400 45.25400 41.75000
C  43.98500 44.02600 42.39600
C  48.26400 41.98400 41.49000
C  50.20300 46.40600 40.40200
C  45.86500 48.45700 41.69600
N  46.20900 43.25800 41.72800
C  44.88600 42.99300 42.05500
C  44.54400 41.50700 42.16800
C  46.01200 40.92800 42.25700
C  46.91400 42.11100 41.88100
C  46.48600 40.44500 43.63000
C  43.69200 40.94000 41.04900
C  43.39600 41.83400 39.76900
H  43.47500 41.19500 38.36300
N  48.98600 44.31300 41.10600
C  49.22100 42.94300 41.11800
C  50.59900 42.74600 40.72000
C  51.07600 44.03900 40.27800
C  50.03800 44.99000 40.53100
C  51.30000 41.48500 40.61600
C  52.38200 44.18700 39.50100
O  53.16500 43.29500 39.29300
C  52.70600 45.55100 38.78500
N  47.94900 47.12100 41.12900
C  49.28900 47.37900 40.71800
C  49.52400 48.92500 40.77300
C  48.11400 49.44900 41.38100
C  47.20200 48.29100 41.27800
C  50.70200 49.25900 41.66200
C  47.80400 50.88100 40.89600
C  47.28200 51.77200 42.02400
N  45.32800 46.13600 41.96800
C  44.97100 47.49600 41.94100
C  43.57100 47.62800 42.35700
C  43.10300 46.24900 42.53000
C  44.19700 45.42500 42.28800
C  42.83100 48.89200 42.45500
C  41.97100 45.42900 42.84200
O  40.81700 45.70900 43.04000
C  42.54700 43.94800 42.82800
C  42.47700 43.53100 44.22000
O  42.80800 44.22400 45.18500
O  41.98900 42.25200 44.15700
C  41.93100 41.60500 45.52400
H  48.54400 40.93100 41.55900
H  51.17300 46.81800 40.11600
H  45.49600 49.46200 41.90800
H  43.99300 41.53700 43.10800
H  46.17900 40.13900 41.52300
H  46.69700 41.23600 44.35000
H  47.36100 39.80500 43.52400
H  45.67000 39.85700 44.05100
H  42.77400 40.50100 41.43900
H  44.29300 40.07200 40.77900
H  43.97100 42.75200 39.88900
H  42.35800 42.16800 39.78500
H  51.29700 41.05500 39.61400
H  50.74300 40.68800 41.10800
H  52.24500 41.32800 41.13700
H  52.03900 46.11900 38.13700
H  53.48600 45.09600 38.17500
H  53.16600 46.17200 39.55400
H  49.67300 49.31600 39.76700
H  48.30400 49.58000 42.44600
H  51.55300 48.83700 41.12800
H  50.59200 48.69500 42.58900
H  50.72200 50.30600 41.96300
H  47.22700 50.96100 39.97500
H  48.77900 51.27100 40.60500
H  48.02700 52.56700 42.02200
H  47.31300 51.44900 43.06400
H  46.26000 52.13500 41.91200
H  43.34500 49.69300 42.98600
H  41.88500 48.66600 42.94600
H  42.64000 49.22600 41.43500
H  41.89000 43.33700 42.20900
H  41.81600 40.54600 45.29500
H  41.21700 42.03600 46.22600
H  42.90100 41.70200 46.01200
Mg -10.75500 17.70200 42.25900
C  -7.30600 18.17200 42.89400
C  -11.07600 21.21300 42.31500
C  -13.78100 17.31000 40.99500
C  -10.07200 14.30300 41.93000
N  -9.37800 19.43500 42.53800
C  -8.08200 19.38800 42.72700
C  -7.43500 20.82900 42.63100
C  -8.69300 21.74200 42.91400
C  -9.81100 20.79100 42.62800
C  -8.64900 22.35000 44.38200
C  -6.95800 21.00700 41.10000
C  -5.37200 21.00400 40.88100
H  -4.80900 20.18100 39.65700
N  -12.20800 19.07200 41.71000
C  -12.18600 20.47100 41.82400
C  -13.40100 21.01900 41.36400
C  -14.15400 19.92600 40.86400
C  -13.37900 18.66600 41.14000
C  -13.85700 22.51800 41.24000
C  -15.48100 19.99700 40.15900
O  -16.01500 21.06800 39.97700
C  -16.13300 18.79400 39.52600
N  -11.75300 16.07000 41.61300
C  -13.03500 16.17200 41.27200
C  -13.59800 14.82200 40.99200
C  -12.46300 13.80600 41.34800
C  -11.35500 14.75300 41.62100
C  -14.96600 14.51200 41.68500
C  -12.18000 12.74600 40.28300
C  -12.74100 11.27500 40.51700
N  -9.03100 16.41200 42.55600
C  -8.96100 15.04900 42.35200
C  -7.59500 14.61900 42.57000
C  -6.88200 15.82300 42.83200
C  -7.80400 16.87700 42.78900
C  -7.13100 13.20700 42.45900
C  -5.57700 16.38800 43.06300
O  -4.47000 15.83000 43.13200
C  -5.76700 17.99400 43.20000
C  -5.23800 18.53500 44.50000
O  -5.54700 18.13900 45.55700
O  -4.32500 19.51900 44.30800
C  -3.72300 20.19300 45.46300
H  -11.20600 22.28700 42.46000
H  -14.80300 17.08300 40.68300
H  -9.96000 13.21800 41.88100
H  -6.59500 21.09100 43.27500
H  -8.69600 22.59600 42.23700
H  -9.57200 22.09800 44.90600
H  -8.75200 23.42600 44.23800
H  -7.72700 22.09900 44.90600
H  -7.23100 22.00100 40.74700
H  -7.29600 20.17800 40.47800
H  -4.93700 20.50400 41.74700
H  -4.95300 22.00100 40.74500
H  -13.05300 23.16700 41.58800
H  -14.71200 22.84700 41.83200
H  -14.04300 22.82000 40.21000
H  -16.91900 19.16300 38.86800
H  -16.50400 18.20900 40.36700
H  -15.45000 18.30200 38.83300
H  -13.77800 14.76400 39.91800
H  -12.63600 13.37100 42.33200
H  -15.70500 14.24500 40.92900
H  -15.23000 15.39200 42.27000
H  -14.96100 13.73100 42.44600
H  -11.11700 12.52300 40.18500
H  -12.39500 13.15100 39.29400
H  -13.54100 11.29000 41.25800
H  -11.88800 10.66800 40.82200
H  -13.21900 10.93300 39.59900
H  -7.72500 12.69900 41.69900
H  -7.06700 12.68200 43.41200
H  -6.11700 13.27100 42.06700
H  -5.10000 18.36000 42.42000
H  -4.47100 20.40800 46.22600
H  -3.31700 21.13600 45.09800
H  -2.86600 19.71700 45.94000

