158

Mg 2.55500 -0.98000 44.59400
C  5.81600 -0.49700 43.58900
C  1.60100 1.45200 42.35500
C  -0.72400 -1.97100 44.88100
C  3.54400 -3.97300 46.27900
N  3.58200 0.39700 43.13700
C  4.94500 0.45800 42.98900
C  5.29000 1.52200 41.96000
C  3.98700 2.37300 41.78700
C  2.97400 1.38800 42.46800
C  4.21400 3.77300 42.40200
C  5.98000 0.93800 40.69400
C  7.29800 1.56500 40.24000
H  7.25900 2.34900 38.94400
N  0.67300 -0.14300 43.95000
C  0.52100 0.72700 42.98400
C  -0.88200 1.04500 42.74800
C  -1.55500 0.02200 43.49500
C  -0.57800 -0.77500 44.20900
C  -1.44500 2.22900 41.85900
C  -3.04600 -0.20900 43.44500
O  -3.76700 0.52500 42.83500
C  -3.72600 -1.23400 44.28400
N  1.57700 -2.73700 45.40400
C  0.13400 -2.90000 45.39500
C  -0.23700 -4.14500 46.11200
C  1.15500 -4.84300 46.52100
C  2.15700 -3.79100 46.09700
C  -1.25600 -4.08100 47.28600
C  1.47800 -6.17000 45.78800
C  2.30600 -7.11800 46.54500
N  4.28300 -2.03500 44.90200
C  4.54900 -3.23400 45.63900
C  6.01700 -3.40000 45.65100
C  6.52200 -2.27000 44.91100
C  5.44400 -1.51600 44.50800
C  6.83100 -4.50300 46.20600
C  7.75700 -1.66600 44.35500
O  8.94100 -1.98800 44.46500
C  7.36900 -0.42700 43.48000
C  7.81400 0.82300 44.11200
O  7.39900 1.19500 45.14200
O  8.76000 1.49000 43.42100
C  9.26800 2.65900 44.12700
H  1.33900 2.21600 41.62100
H  -1.73100 -2.39200 44.90300
H  3.94400 -4.66400 47.02300
H  6.04900 2.14500 42.43200
H  3.59800 2.52900 40.78100
H  3.32300 4.40100 42.41300
H  5.11500 4.28500 42.06600
H  4.50100 3.71800 43.45200
H  5.33500 1.01300 39.81900
H  6.02500 -0.11100 40.98600
H  7.99300 0.72500 40.25700
H  7.56300 2.22900 41.06300
H  -2.20400 1.92000 41.14100
H  -0.62400 2.68500 41.30500
H  -1.86700 3.00600 42.49700
H  -4.79100 -1.01800 44.37300
H  -3.26100 -1.20300 45.27000
H  -3.54300 -2.19500 43.80300
H  -0.70900 -4.86500 45.44400
H  1.26000 -4.94400 47.60100
H  -2.11600 -4.68600 47.00000
H  -1.56000 -3.04000 47.39200
H  -0.80400 -4.25300 48.26300
H  1.95800 -5.82100 44.87300
H  0.60400 -6.68900 45.39400
H  1.82000 -8.07100 46.75500
H  2.60700 -6.66100 47.48700
H  3.20900 -7.14400 45.93500
H  6.45400 -4.82500 47.17700
H  7.85100 -4.21800 46.46100
H  6.84800 -5.34800 45.51700
H  7.67800 -0.51900 42.43900
H  10.32400 2.38600 44.13500
H  9.02700 2.90300 45.16100
H  9.25200 3.57400 43.53400
Mg 26.04400 50.30300 27.10700
C  24.09600 51.43400 29.84400
C  28.46200 49.32300 29.45300
C  27.95500 49.21600 24.56400
C  23.62900 51.44300 24.96300
N  26.26200 50.29300 29.40100
C  25.27000 50.83700 30.26200
C  25.63900 50.36500 31.72100
C  27.09100 49.82200 31.57400
C  27.28600 49.80900 30.05600
C  28.23500 50.51200 32.39700
C  24.52700 49.35400 32.39700
C  23.88700 49.82900 33.71100
H  24.93400 50.15800 34.87500
N  27.89000 49.47200 26.96500
C  28.77900 49.26800 28.05400
C  30.04700 48.71500 27.55500
C  29.95300 48.62500 26.08900
C  28.55000 49.07700 25.85400
C  31.11500 48.29200 28.48100
C  30.99500 48.12000 25.12900
O  30.70500 48.02900 23.92400
C  32.38700 47.73700 25.61300
N  25.90900 50.38100 25.06000
C  26.76500 49.76600 24.18900
C  26.36100 50.01300 22.68200
C  24.84600 50.22000 22.92400
C  24.70300 50.71300 24.43700
C  27.19200 51.13600 21.95000
C  23.91400 49.00400 22.61000
C  23.31200 48.09500 23.75200
N  24.32200 51.33600 27.27400
C  23.42500 51.70700 26.27800
C  22.26900 52.34100 26.85600
C  22.51600 52.28800 28.28300
C  23.76800 51.65600 28.47800
C  21.07500 52.97300 26.17100
C  21.98300 52.63200 29.59900
O  20.86500 53.10500 29.89400
C  23.00600 52.08600 30.69500
C  23.42200 53.10900 31.58900
O  24.54200 53.64900 31.58300
O  22.46400 53.33200 32.61100
C  22.82200 54.22800 33.75600
H  29.24900 48.99600 30.13500
H  28.50300 48.83800 23.69800
H  22.83200 51.54600 24.22400
H  25.64900 51.32600 32.23500
H  27.08500 48.78800 31.91800
H  28.83100 49.65200 32.70100
H  27.86200 51.00800 33.29300
H  28.90500 51.05100 31.72700
H  25.03100 48.44300 32.71800
H  23.79100 49.17000 31.61500
H  23.40300 48.97000 34.17700
H  23.16600 50.63600 33.57800
H  30.93900 47.25300 28.76200
H  31.13300 48.79800 29.44600
H  32.10100 48.32300 28.01700
H  32.80700 48.62900 26.07800
H  33.07600 47.57100 24.78500
H  32.26700 46.87000 26.26200
H  26.50700 49.05100 22.19200
H  24.41800 51.01400 22.31100
H  28.03900 51.61700 22.43900
H  26.43200 51.82900 21.58900
H  27.52300 50.57200 21.07800
H  24.28400 48.38500 21.79300
H  23.03100 49.40300 22.11100
H  23.75100 47.09800 23.70900
H  22.24500 47.95300 23.58400
H  23.43900 48.46300 24.77000
H  21.02100 52.54500 25.17000
H  21.12300 54.06100 26.21700
H  20.17400 52.66300 26.70000
H  22.42800 51.48400 31.39600
H  22.61800 55.27900 33.54900
H  23.89200 54.14400 33.94700
H  22.13400 54.04800 34.58200

