158

Mg 16.44400 -1.76300 27.32600
C  15.29100 0.43800 29.80700
C  18.43400 -3.23300 29.58000
C  17.73900 -3.49500 24.81100
C  14.82400 0.34800 25.03600
N  16.67000 -1.47400 29.41800
C  16.13000 -0.53600 30.27500
C  16.58100 -0.79900 31.68400
C  17.75400 -1.89400 31.49700
C  17.62600 -2.25800 30.07900
C  19.09200 -1.38900 31.98200
C  15.49300 -1.14200 32.71800
C  15.36600 -0.40500 34.07100
H  16.65100 -0.08700 34.86500
N  17.77800 -3.28400 27.26400
C  18.51500 -3.79200 28.25300
C  19.38700 -4.82500 27.76100
C  19.13400 -4.96000 26.36900
C  18.17700 -3.91000 26.07500
C  20.33100 -5.67500 28.62200
C  19.65300 -5.99700 25.38500
O  19.27400 -6.08700 24.25700
C  20.66600 -7.10400 25.77900
N  16.15900 -1.71900 25.17800
C  16.81800 -2.48700 24.37100
C  16.56000 -2.18000 22.90100
C  15.56700 -0.97200 23.00900
C  15.51600 -0.74700 24.54700
C  17.84100 -1.81000 22.05100
C  14.06700 -1.21200 22.46000
C  13.63400 -0.42100 21.24800
N  15.18500 -0.06700 27.33200
C  14.58900 0.70900 26.37200
C  13.81800 1.78800 26.90800
C  14.00900 1.70700 28.33000
C  14.93700 0.65900 28.47000
C  12.96400 2.77300 26.11600
C  13.70100 2.31600 29.56200
O  13.00000 3.27500 29.81000
C  14.50700 1.48700 30.67100
C  15.47300 2.37100 31.29100
O  16.59300 2.64500 30.89800
O  15.00500 2.77100 32.54000
C  15.76800 3.69200 33.39500
H  19.18600 -3.71800 30.20700
H  18.25500 -3.94700 23.96100
H  14.27400 0.98700 24.34200
H  17.02800 0.14200 32.00300
H  17.47000 -2.75600 32.10200
H  19.09200 -0.38800 32.41200
H  19.76400 -1.49400 31.13000
H  19.50100 -2.08900 32.71000
H  15.69300 -2.17900 32.98600
H  14.49700 -0.99300 32.30200
H  14.85400 -1.11200 34.72300
H  14.75900 0.48000 33.88500
H  21.37100 -5.51700 28.33700
H  20.00600 -6.68900 28.39000
H  20.16800 -5.50300 29.68500
H  20.24700 -7.70000 26.59000
H  21.58800 -6.60500 26.07800
H  21.07100 -7.67500 24.94400
H  16.07100 -3.05000 22.46300
H  16.03300 -0.05000 22.66300
H  18.14700 -2.69700 21.49700
H  18.48300 -1.40700 22.83400
H  17.64000 -0.98100 21.37100
H  13.41800 -1.04600 23.32000
H  14.09800 -2.26600 22.18200
H  13.09100 -1.13100 20.62500
H  14.36600 -0.01000 20.55300
H  12.98400 0.33100 21.69500
H  12.52600 2.37600 25.20100
H  13.29600 3.80700 26.02400
H  12.12500 2.91400 26.79800
H  13.90200 1.05500 31.46800
H  15.80800 4.70500 32.99400
H  16.73400 3.26500 33.66300
H  15.22100 3.86000 34.32300
Mg 0.76300 42.87300 25.02500
C  2.26800 42.97800 28.06000
C  -2.11200 41.47100 26.55000
C  -0.47000 41.91100 21.96400
C  3.79900 43.63200 23.46800
N  0.11200 42.39800 26.99400
C  0.89700 42.64000 28.09300
C  0.13000 42.54400 29.44700
C  -1.21800 41.88300 28.97100
C  -1.10600 41.85300 27.46900
C  -1.49300 40.47400 29.61100
C  0.00000 43.90200 30.21800
C  0.49700 43.72000 31.60500
H  -0.56200 43.70700 32.66000
N  -1.05600 41.93800 24.31500
C  -2.05800 41.40700 25.11700
C  -3.04500 40.83500 24.27300
C  -2.65200 40.99800 22.96600
C  -1.36200 41.71400 23.00300
C  -4.28100 40.06100 24.79100
C  -3.32500 40.62000 21.67300
O  -2.88000 40.81400 20.51400
C  -4.60000 39.83700 21.74700
N  1.48100 42.95600 23.02600
C  0.82500 42.47400 21.92100
C  1.74500 42.36500 20.69900
C  2.98700 43.09700 21.11300
C  2.76200 43.26100 22.60300
C  1.91600 40.93400 20.02300
C  3.28600 44.46300 20.43800
C  2.41300 45.69600 20.75400
N  2.57500 43.47000 25.55800
C  3.76500 43.71500 24.90900
C  4.90000 43.98300 25.79900
C  4.33300 43.60300 27.03400
C  2.96400 43.36200 26.85400
C  6.34000 44.37300 25.35100
C  4.61100 43.37800 28.44400
O  5.68600 43.40600 28.98200
C  3.28600 43.11000 29.17600
C  3.48000 41.91800 30.03300
O  3.71200 40.80900 29.67600
O  3.65900 42.30300 31.34000
C  4.13400 41.40200 32.39700
H  -2.95000 41.11000 27.15000
H  -0.76300 41.66400 20.94200
H  4.69800 43.98900 22.96200
H  0.51000 41.76000 30.10100
H  -2.06900 42.51600 29.22300
H  -1.80100 39.81100 28.80300
H  -2.32600 40.50900 30.31300
H  -0.62600 39.97900 30.05100
H  -1.01000 44.30900 30.25600
H  0.57400 44.75600 29.85800
H  1.14400 44.57500 31.79700
H  1.23200 42.93100 31.76800
H  -5.22600 40.59400 24.68000
H  -4.22600 39.68700 25.81300
H  -4.43700 39.14400 24.22200
H  -4.41800 38.83300 22.12900
H  -4.77200 39.71700 20.67800
H  -5.34700 40.48900 22.19900
H  1.24700 43.06200 20.02500
H  3.81800 42.39200 21.07600
H  2.95300 40.66700 19.82000
H  1.46900 41.00400 19.03200
H  1.31300 40.22900 20.59500
H  3.37200 44.42200 19.35300
H  4.26100 44.81600 20.77300
H  1.82800 45.61200 19.83800
H  2.95700 46.63200 20.88300
H  1.69600 45.50900 21.55300
H  6.69600 45.15600 26.02000
H  6.40100 44.70700 24.31500
H  7.08200 43.62500 25.63200
H  3.17600 44.00800 29.78500
H  5.08400 41.79700 32.75600
H  4.22900 40.34900 32.13200
H  3.51600 41.41800 33.29500

