158

Mg 2.20800 -0.96100 43.82300
C  5.62300 -0.54600 43.28200
C  1.72300 1.90000 41.73100
C  -1.08400 -1.56600 43.75600
C  2.77800 -4.03000 45.36400
N  3.56400 0.52300 42.64000
C  4.91000 0.38100 42.47900
C  5.46800 1.41300 41.46800
C  4.18600 2.25600 41.07800
C  3.07800 1.60500 41.87700
C  4.27900 3.81600 41.41300
C  6.12800 0.82400 40.25500
C  7.59800 1.19700 40.17900
H  8.12500 1.85200 38.81300
N  0.54500 0.06100 42.99700
C  0.57600 1.26600 42.29000
C  -0.78400 1.70000 42.06600
C  -1.60900 0.70200 42.64800
C  -0.73200 -0.38500 43.10200
C  -1.04400 3.09600 41.37500
C  -3.16600 0.69100 42.71100
O  -3.73400 1.52700 42.04500
C  -3.98300 -0.26200 43.62900
N  1.01900 -2.61000 44.50000
C  -0.33600 -2.58200 44.36800
C  -0.97200 -3.87900 44.96300
C  0.30100 -4.51400 45.70700
C  1.42000 -3.73700 45.08700
C  -2.21200 -3.73600 45.86300
C  0.41900 -6.09100 45.36300
C  0.64800 -7.01800 46.59200
N  3.82000 -2.07800 44.25500
C  3.90500 -3.26800 44.90600
C  5.28500 -3.67700 44.96100
C  6.00400 -2.59400 44.45200
C  5.03600 -1.57600 44.02600
C  5.83500 -5.02700 45.51000
C  7.31300 -2.10600 44.27200
O  8.37800 -2.59700 44.63300
C  7.14000 -0.67700 43.54700
C  7.59800 0.55100 44.34300
O  7.28800 0.85900 45.47600
O  8.56900 1.24400 43.58300
C  9.08700 2.36400 44.22100
H  1.36300 2.66500 41.04000
H  -2.14000 -1.84100 43.76300
H  2.95600 -5.02400 45.78100
H  6.14000 2.08900 41.99800
H  3.94800 2.16500 40.01800
H  5.28700 4.01200 41.77800
H  3.61100 4.13000 42.21500
H  4.09200 4.30600 40.45800
H  5.74600 1.07500 39.26600
H  6.14800 -0.22700 40.54700
H  8.21100 0.30700 40.32000
H  7.83500 1.92800 40.95300
H  -2.13200 3.14400 41.42900
H  -0.85600 3.16000 40.30400
H  -0.49300 3.87100 41.90900
H  -4.96400 0.16200 43.84400
H  -3.64800 -0.45600 44.64800
H  -4.28200 -1.19000 43.14200
H  -1.38100 -4.49700 44.16400
H  0.36100 -4.32600 46.77900
H  -3.02300 -4.44800 45.70700
H  -2.61900 -2.73400 45.72900
H  -1.98900 -3.83500 46.92600
H  1.16900 -6.21100 44.58100
H  -0.52100 -6.43900 44.93600
H  -0.07100 -7.83400 46.64700
H  0.60500 -6.42400 47.50500
H  1.53200 -7.63700 46.43900
H  5.50400 -5.81500 44.83400
H  5.41000 -5.05900 46.51400
H  6.90600 -4.97900 45.70500
H  7.64500 -0.71200 42.58100
H  10.09500 2.23700 44.61600
H  8.43900 2.75600 45.00600
H  9.10400 3.13300 43.44800
Mg 0.70700 7.87600 25.23100
C  1.55900 9.86600 28.17600
C  1.04800 5.07900 27.17700
C  0.00000 6.32000 22.56900
C  0.88000 10.97100 23.41200
N  1.14200 7.51200 27.44000
C  1.54100 8.51200 28.42800
C  1.71400 7.77300 29.82200
C  1.76700 6.24300 29.37200
C  1.36300 6.28500 27.89100
C  3.22900 5.56800 29.60100
C  0.39600 8.07400 30.74000
C  0.65800 8.46900 32.18000
H  1.80000 7.74700 32.88100
N  0.61600 5.99100 24.85300
C  0.70600 4.91600 25.77700
C  0.36000 3.73000 25.08000
C  0.04600 4.01900 23.71600
C  0.15200 5.52200 23.62200
C  0.28400 2.39800 25.92500
C  -0.24500 3.04100 22.57900
O  -0.44700 3.34900 21.44200
C  -0.02900 1.61600 22.84800
N  0.35300 8.56800 23.32400
C  0.06000 7.74200 22.36000
C  -0.37100 8.46800 21.05100
C  -0.19700 9.97700 21.42600
C  0.39600 9.83400 22.78700
C  0.42500 8.05600 19.76100
C  -1.61100 10.74300 21.45300
C  -1.71600 12.08900 20.79500
N  1.07200 10.02100 25.64100
C  1.08800 11.10000 24.77800
C  1.38800 12.32000 25.51500
C  1.52800 11.86900 26.86000
C  1.31700 10.43300 26.88200
C  1.42200 13.61100 24.86900
C  1.81700 12.25000 28.17300
O  2.02000 13.34500 28.62200
C  1.81800 11.01600 29.12000
C  3.16500 10.86600 29.62400
O  4.27200 10.90100 29.07500
O  2.97700 10.93900 30.97200
C  4.17900 11.19700 31.86400
H  0.92900 4.15100 27.73900
H  -0.34600 5.75200 21.70200
H  0.78100 11.87100 22.80200
H  2.68900 7.96300 30.27000
H  1.05000 5.54300 29.80100
H  3.84500 6.21100 30.23000
H  3.74700 5.27400 28.68800
H  3.05100 4.61900 30.10700
H  -0.33600 7.28100 30.58800
H  -0.05400 8.93300 30.24100
H  -0.28400 8.32200 32.70800
H  0.85000 9.53900 32.25700
H  1.04200 1.67600 25.62500
H  -0.63200 1.82400 25.78800
H  0.47400 2.62400 26.97400
H  -0.13300 1.14500 21.87000
H  -0.76200 1.28400 23.58300
H  1.00200 1.34600 23.07700
H  -1.38500 8.29900 20.68600
H  0.48500 10.53600 20.78500
H  1.09400 7.25200 20.06700
H  0.96300 8.90700 19.34400
H  -0.18300 7.66700 18.94500
H  -1.96900 10.87200 22.47500
H  -2.41400 10.13800 21.03200
H  -2.56300 12.13700 20.11100
H  -0.78000 12.13800 20.23900
H  -1.65900 12.97000 21.43400
H  1.17300 14.33200 25.64800
H  0.73600 13.71600 24.02800
H  2.45100 13.79700 24.56300
H  1.03800 11.21100 29.85600
H  4.59500 12.20400 31.83700
H  4.96600 10.47200 31.65700
H  3.85200 10.95200 32.87400

