158

Mg 16.41100 -2.19700 27.96200
C  15.57500 -0.27800 30.71100
C  18.46000 -4.07700 29.93800
C  17.56200 -3.74400 25.24600
C  14.42800 -0.13800 26.01700
N  16.96600 -2.20500 30.08000
C  16.60400 -1.19300 30.96800
C  17.18300 -1.54400 32.33600
C  18.32500 -2.61300 31.98800
C  17.84200 -3.04800 30.62200
C  19.80900 -2.06900 32.18800
C  16.14800 -2.17000 33.33100
C  16.42800 -1.93500 34.82300
H  17.50500 -1.00000 35.31100
N  17.75800 -3.84100 27.62800
C  18.49100 -4.46500 28.53500
C  19.29700 -5.48200 27.91400
C  18.84500 -5.53200 26.50200
C  18.06900 -4.34500 26.40600
C  20.34500 -6.34500 28.72600
C  19.29800 -6.46000 25.32900
O  18.87500 -6.27200 24.21200
C  20.29900 -7.54400 25.61900
N  16.12200 -1.85400 25.90400
C  16.79700 -2.61600 25.00800
C  16.39300 -2.13800 23.61300
C  15.37900 -0.96000 23.83000
C  15.31200 -0.90300 25.29000
C  17.78600 -1.68600 22.92100
C  14.04900 -1.25500 23.07300
C  13.72100 -0.45700 21.81600
N  15.19600 -0.55000 28.20400
C  14.30900 0.10400 27.35000
C  13.59700 1.14800 28.06100
C  14.02900 1.01400 29.37000
C  15.01500 0.00400 29.40500
C  12.58600 2.12700 27.53800
C  13.91700 1.49200 30.69900
O  13.13200 2.35500 31.10800
C  14.81600 0.63300 31.64200
C  15.66700 1.57000 32.29300
O  16.70700 2.02900 31.88500
O  14.98200 2.02900 33.42100
C  15.57100 3.23700 33.99000
H  19.12500 -4.62100 30.61200
H  18.03400 -4.17000 24.35900
H  13.65200 0.38900 25.45700
H  17.51800 -0.60200 32.76900
H  18.20500 -3.44900 32.67700
H  20.19800 -1.98100 31.17400
H  20.44500 -2.70000 32.80900
H  19.81600 -1.10600 32.69900
H  16.16000 -3.25200 33.19900
H  15.13200 -1.95300 33.00200
H  16.49800 -2.93700 35.24700
H  15.53800 -1.41000 35.17000
H  19.98100 -7.35500 28.91300
H  20.65900 -5.87900 29.66100
H  21.26600 -6.45600 28.15400
H  20.17800 -8.06500 26.56800
H  21.31000 -7.13700 25.66400
H  20.30800 -8.27000 24.80600
H  15.99800 -3.01000 23.09000
H  15.85100 -0.02200 23.53700
H  18.53800 -1.62700 23.70700
H  17.76700 -0.63000 22.65200
H  18.27100 -2.23200 22.11200
H  13.34800 -1.16000 23.90200
H  14.01000 -2.32100 22.85100
H  12.81900 0.07800 22.11300
H  13.76300 -1.05600 20.90700
H  14.57400 0.20300 21.65900
H  12.12900 2.63400 28.38800
H  11.83700 1.63600 26.91800
H  13.04200 2.79600 26.80800
H  14.08300 0.17300 32.30600
H  15.28200 4.05300 33.32800
H  16.65800 3.14900 34.00100
H  15.24600 3.38500 35.02000
Mg 25.42300 1.28300 29.83500
C  27.56100 1.39900 32.66800
C  22.81600 1.36000 32.07700
C  23.30900 1.08900 27.28800
C  28.14900 1.01700 27.76800
N  25.18000 1.26900 32.16600
C  26.20100 1.46600 33.10800
C  25.71400 1.67500 34.53500
C  24.18700 1.54600 34.35000
C  24.01900 1.44400 32.75500
C  23.61300 0.36700 35.19400
C  26.14000 3.08600 35.03500
C  26.85800 3.22000 36.38100
H  26.27400 4.20400 37.36300
N  23.29300 1.13600 29.73200
C  22.42500 1.23300 30.74600
C  21.15900 1.23200 30.22700
C  21.19700 0.99600 28.86100
C  22.65400 1.02500 28.57000
C  19.94700 1.42100 30.98000
C  20.08500 0.85700 27.77100
O  20.39000 0.61200 26.59900
C  18.66800 0.98100 28.07800
N  25.62800 1.02000 27.81700
C  24.67300 1.12900 26.86700
C  25.17500 1.24400 25.42200
C  26.69700 1.29500 25.69500
C  26.83100 1.14000 27.20700
C  24.69900 0.28900 24.33600
C  27.30600 2.50000 25.01100
C  26.90700 3.85000 25.67400
N  27.44200 1.09000 30.12700
C  28.40600 0.92200 29.14300
C  29.67600 0.83300 29.78400
C  29.41000 1.02000 31.20200
C  28.05100 1.16800 31.34200
C  30.93400 0.61900 29.03500
C  30.03200 1.12200 32.45000
O  31.23600 1.21200 32.67200
C  28.85000 1.57600 33.49400
C  28.96200 0.51000 34.65100
O  28.74500 -0.69500 34.55700
O  29.32700 1.16500 35.79300
C  29.90800 0.45200 36.95800
H  21.95900 1.52100 32.73400
H  22.70000 1.21100 26.39000
H  29.03400 0.98500 27.12900
H  26.10100 0.90700 35.20500
H  23.57200 2.42800 34.53200
H  22.84200 -0.14500 34.61800
H  23.04900 0.81900 36.01000
H  24.34900 -0.31700 35.61700
H  25.25000 3.71400 34.99700
H  26.87700 3.46800 34.32700
H  27.79600 3.66100 36.04300
H  27.01600 2.23700 36.82500
H  19.47000 2.31600 30.58100
H  20.10100 1.57800 32.04800
H  19.30300 0.54200 30.99200
H  18.37500 0.20000 28.78000
H  18.13200 0.84500 27.13900
H  18.36400 1.93800 28.50300
H  24.94400 2.26800 25.12900
H  27.20800 0.46300 25.20900
H  24.12300 0.77500 23.54800
H  24.02300 -0.46600 24.73900
H  25.60500 -0.13700 23.90500
H  26.89900 2.50500 24.00000
H  28.39200 2.41800 25.07000
H  26.39900 3.58000 26.60000
H  26.13000 4.33800 25.08500
H  27.73800 4.54500 25.79800
H  31.07400 1.39100 28.27900
H  30.89900 -0.33100 28.50100
H  31.83200 0.64100 29.65100
H  29.16400 2.51300 33.95500
H  30.39700 -0.51900 36.88700
H  29.16100 0.41200 37.75100
H  30.69400 1.08400 37.37100

