158

Mg 1.03900 43.09500 26.32100
C  3.26300 42.78700 29.01000
C  -1.43900 41.83200 28.43900
C  -0.93800 43.25100 23.72500
C  3.81200 43.71400 24.19000
N  0.97200 42.40000 28.51000
C  1.95100 42.57900 29.41800
C  1.39400 42.50000 30.85400
C  -0.10900 41.97100 30.65800
C  -0.23700 42.10400 29.11400
C  -0.46600 40.42300 31.15700
C  1.41900 43.92400 31.53800
C  1.62800 43.77800 33.14300
H  1.23500 42.50200 33.96100
N  -0.87100 42.66900 26.11900
C  -1.77100 42.12900 27.06100
C  -3.05300 41.94200 26.45600
C  -2.96900 42.47600 25.16200
C  -1.58900 42.78000 24.92900
C  -4.19500 41.20500 27.06700
C  -3.95000 42.60100 24.09700
O  -3.69200 43.22100 23.07100
C  -5.31800 42.05600 24.24000
N  1.41200 43.38600 24.21800
C  0.41300 43.54200 23.39500
C  0.83400 43.79600 21.95500
C  2.38700 44.11400 22.12100
C  2.60500 43.68600 23.58300
C  0.50300 42.59300 20.95300
C  2.76600 45.60200 21.79200
C  1.81200 46.69800 22.15100
N  3.11300 43.25700 26.49900
C  4.08500 43.54300 25.57200
C  5.41500 43.46600 26.14100
C  5.12500 43.19000 27.50500
C  3.73000 43.05700 27.64700
C  6.72900 43.79300 25.52500
C  5.70500 42.98400 28.86500
O  6.88200 42.97500 29.13700
C  4.50500 42.86300 29.92100
C  4.76500 41.67600 30.78300
O  4.80200 40.47400 30.46500
O  4.93300 42.24400 32.07200
C  5.09400 41.31100 33.19200
H  -2.28700 41.67400 29.10900
H  -1.50900 43.23400 22.79400
H  4.69500 44.05800 23.64800
H  2.01200 41.79000 31.40400
H  -0.94600 42.49900 31.11400
H  -1.30300 40.54800 31.84400
H  0.39000 39.94100 31.63000
H  -0.73300 39.86800 30.25800
H  0.54100 44.53900 31.34000
H  2.28700 44.42500 31.10800
H  0.98100 44.57500 33.51100
H  2.68600 43.97700 33.31200
H  -5.01700 41.92000 27.05700
H  -4.07900 40.91500 28.11100
H  -4.36100 40.27700 26.52100
H  -5.83800 42.38900 25.13800
H  -5.30100 40.97400 24.10500
H  -6.05200 42.44200 23.53300
H  0.22200 44.66200 21.70400
H  2.96800 43.40900 21.52600
H  0.00100 41.72600 21.38200
H  1.33600 42.35300 20.29300
H  -0.24800 43.05400 20.31000
H  2.87400 45.64500 20.70800
H  3.75000 45.85900 22.18600
H  0.80800 46.39700 22.44900
H  1.65500 47.35800 21.29800
H  2.24200 47.22400 23.00300
H  7.59500 43.47400 26.10500
H  6.92000 44.85300 25.36000
H  6.78700 43.25800 24.57700
H  4.53900 43.79400 30.48900
H  4.94500 41.90000 34.09700
H  6.08100 40.86100 33.29600
H  4.35100 40.51700 33.25800
Mg -11.03600 17.14000 42.07500
C  -7.58000 18.05000 41.99200
C  -11.87200 20.38100 41.89100
C  -14.24100 16.06400 42.04100
C  -9.97300 13.79100 42.04500
N  -9.80900 18.99200 41.82200
C  -8.46800 19.17600 41.88900
C  -8.06900 20.64400 41.98800
C  -9.42800 21.30000 42.30600
C  -10.42100 20.16600 42.06600
C  -9.53300 21.86700 43.80200
C  -7.37200 21.14300 40.70300
C  -5.83600 21.45400 40.82600
H  -4.98800 20.81200 39.72200
N  -12.82000 18.05500 41.80400
C  -12.99300 19.43000 41.74600
C  -14.39600 19.73000 41.47900
C  -15.15000 18.48500 41.52700
C  -14.09500 17.45900 41.85200
C  -14.94800 21.11500 41.35200
C  -16.62600 18.33000 41.27400
O  -17.39700 19.26600 40.91800
C  -17.22900 17.03600 41.22200
N  -11.98300 15.21100 42.07500
C  -13.29500 15.05700 42.25300
C  -13.72800 13.57800 42.40700
C  -12.28800 12.89200 42.41800
C  -11.36500 13.98900 42.06300
C  -14.68600 13.20900 43.59800
C  -12.16800 11.63700 41.56900
C  -12.13100 10.35000 42.29500
N  -9.19500 16.08600 42.02500
C  -8.94000 14.73900 41.98600
C  -7.51400 14.44000 42.08800
C  -6.99800 15.74400 42.03500
C  -8.01500 16.73700 41.99600
C  -6.67800 13.18300 42.02500
C  -5.76200 16.43600 42.06800
O  -4.65000 15.96000 42.07600
C  -6.09000 17.93000 42.13400
C  -5.57700 18.46400 43.40000
O  -5.95400 18.20200 44.50600
O  -4.36000 19.14400 43.12100
C  -3.45900 19.54300 44.25500
H  -12.10200 21.43600 42.04900
H  -15.30800 15.83100 42.06800
H  -9.62600 12.77400 42.23800
H  -7.33700 20.77000 42.78600
H  -9.74300 22.14100 41.68800
H  -10.27500 21.29400 44.35800
H  -9.80800 22.92000 43.75000
H  -8.55600 21.88000 44.28600
H  -7.94300 21.97200 40.28400
H  -7.45600 20.36600 39.94200
H  -5.46700 21.17800 41.81300
H  -5.64700 22.52800 40.81500
H  -15.28500 21.43000 40.36400
H  -14.28400 21.83800 41.82700
H  -15.90000 21.14500 41.88100
H  -18.21500 17.10600 40.76200
H  -17.35000 16.59800 42.21300
H  -16.68100 16.51600 40.43500
H  -14.29200 13.34700 41.50300
H  -11.95900 12.65300 43.43000
H  -15.66000 13.11100 43.12000
H  -14.69200 14.11500 44.20300
H  -14.39700 12.26200 44.05500
H  -11.38800 11.73700 40.81400
H  -13.06300 11.66800 40.94800
H  -11.48400 9.60600 41.83000
H  -13.10000 9.85900 42.19600
H  -11.79100 10.31800 43.33000
H  -6.15800 12.91700 42.94500
H  -5.98800 13.18600 41.18000
H  -7.33600 12.35900 41.74900
H  -5.63300 18.47000 41.30400
H  -3.01000 20.50700 44.01200
H  -2.57500 18.90600 44.26800
H  -3.93100 19.52600 45.23800

