158

Mg 1.81300 -2.68800 44.68700
C  4.90600 -1.21900 43.79800
C  0.23800 -0.16500 42.97700
C  -0.98800 -4.48900 45.05800
C  3.77000 -5.56200 45.79100
N  2.58500 -0.98800 43.50200
C  3.82300 -0.48400 43.33900
C  3.87500 0.84600 42.50600
C  2.40800 1.29600 42.69900
C  1.64800 -0.03700 43.00800
C  2.19300 2.39800 43.81900
C  4.42400 0.78600 41.05000
C  5.77400 1.59600 40.83000
H  6.91400 0.76100 40.33200
N  -0.04800 -2.39300 44.03000
C  -0.51900 -1.30600 43.40300
C  -1.89200 -1.40300 43.13600
C  -2.32600 -2.62200 43.74800
C  -1.10300 -3.21800 44.33800
C  -2.70300 -0.55400 42.27300
C  -3.70900 -3.18600 43.75900
O  -4.60900 -2.53000 43.28900
C  -4.06100 -4.55800 44.35100
N  1.44900 -4.80700 45.24900
C  0.10400 -5.20000 45.43100
C  0.07300 -6.61300 45.99200
C  1.57600 -6.90400 46.33800
C  2.36200 -5.73700 45.76500
C  -0.83400 -6.85400 47.30100
C  2.06400 -8.22200 45.65400
C  3.13200 -9.06700 46.40400
N  3.82800 -3.29200 44.93800
C  4.48500 -4.44600 45.42300
C  5.84900 -4.19800 45.51600
C  6.07600 -2.94800 44.83400
C  4.82800 -2.45800 44.52800
C  6.81000 -5.10400 46.21200
C  7.10900 -2.00500 44.37700
O  8.33500 -1.96900 44.46900
C  6.35700 -0.75700 43.76100
C  6.64100 0.51900 44.60400
O  6.14800 0.88400 45.62900
O  7.50300 1.21600 43.90500
C  8.08100 2.44600 44.49300
H  -0.19300 0.66400 42.41300
H  -1.85700 -5.14500 45.14600
H  4.33900 -6.36600 46.26100
H  4.40900 1.50300 43.19300
H  2.07600 1.64700 41.72200
H  2.44700 3.36500 43.38300
H  2.85900 2.23400 44.66500
H  1.21100 2.39700 44.29200
H  3.80000 1.24300 40.28100
H  4.49500 -0.26700 40.77900
H  6.09200 2.01000 41.78600
H  5.68900 2.41800 40.11900
H  -2.09600 0.15800 41.71600
H  -3.40100 0.03200 42.87200
H  -3.29600 -1.15300 41.58200
H  -3.49800 -5.24300 43.71700
H  -5.13800 -4.57600 44.18200
H  -3.85900 -4.63200 45.42000
H  -0.28700 -7.25700 45.19000
H  1.68200 -6.97900 47.42000
H  -0.92400 -7.90700 47.56800
H  -1.82400 -6.40900 47.20500
H  -0.41400 -6.30900 48.14700
H  2.45300 -7.98400 44.66400
H  1.19800 -8.87800 45.56400
H  3.69300 -9.55000 45.60300
H  2.76900 -9.88500 47.02600
H  3.72500 -8.51700 47.13500
H  7.08100 -5.85000 45.46500
H  6.41900 -5.59900 47.10000
H  7.66400 -4.44300 46.35700
H  6.70700 -0.75600 42.72800
H  8.07200 3.20600 43.71200
H  9.12100 2.20700 44.71800
H  7.63400 2.76600 45.43500
Mg 17.11700 52.40000 26.38800
C  19.10900 50.81500 28.79100
C  14.93300 53.37200 28.92400
C  15.07300 53.79700 24.07400
C  19.19700 51.06500 23.85000
N  17.02600 52.09600 28.52900
C  18.00500 51.55100 29.32200
C  17.78400 51.78100 30.86700
C  16.28400 52.13100 30.84500
C  16.02700 52.56300 29.34300
C  15.39100 51.06700 31.32700
C  18.62900 52.94600 31.39400
C  19.28400 52.65100 32.75900
H  18.36200 52.07100 33.91800
N  15.32300 53.48800 26.47800
C  14.66400 53.80500 27.60500
C  13.50800 54.62700 27.37800
C  13.61500 54.87500 25.95900
C  14.69100 54.03600 25.39500
C  12.53800 55.23800 28.37900
C  12.78800 55.84300 25.25800
O  12.77800 55.94500 24.04900
C  11.88500 56.84800 25.95400
N  17.11600 52.34800 24.35300
C  16.23200 53.06600 23.57600
C  16.38200 52.94300 22.08400
C  17.82000 52.25100 22.04000
C  18.10900 51.92300 23.52200
C  15.25500 52.15200 21.34100
C  18.99900 53.15000 21.30800
C  20.03200 52.45400 20.40800
N  18.84800 51.15700 26.26600
C  19.56300 50.71300 25.18600
C  20.66400 49.90600 25.72600
C  20.53100 49.89600 27.12400
C  19.39400 50.64400 27.39300
C  21.81600 49.21200 24.93200
C  21.13800 49.50100 28.34800
O  22.17400 48.95000 28.62600
C  20.24500 50.21200 29.49100
C  19.81800 49.22400 30.48100
O  18.82600 48.44600 30.38300
O  20.53700 49.44000 31.63700
C  20.00200 48.63000 32.79800
H  14.35200 53.70000 29.78800
H  14.51300 54.36000 23.32500
H  19.70900 50.67400 22.96800
H  17.96000 50.87700 31.45100
H  16.11300 52.96500 31.52600
H  14.61300 51.38700 32.02000
H  16.02900 50.48500 31.99100
H  14.96200 50.47300 30.52100
H  17.95400 53.80100 31.37900
H  19.52700 53.10300 30.79600
H  19.70100 53.60200 33.08900
H  20.10100 51.93400 32.67400
H  12.91800 56.23600 28.59800
H  12.48700 54.62200 29.27600
H  11.48200 55.24100 28.10600
H  10.98600 56.30500 26.24700
H  11.67800 57.58500 25.17700
H  12.41200 57.36300 26.75700
H  16.27400 53.93900 21.65500
H  17.62100 51.28500 21.57600
H  15.73300 51.71600 20.46500
H  14.56300 52.96900 21.13200
H  14.67100 51.46700 21.95600
H  19.57400 53.65900 22.08100
H  18.54300 53.91700 20.68200
H  19.77100 52.40800 19.35100
H  20.24200 51.49500 20.88000
H  21.04000 52.85200 20.52300
H  21.61900 49.39500 23.87600
H  21.74700 48.14800 25.16200
H  22.75400 49.69600 25.20200
H  20.92400 50.91700 29.97100
H  20.25000 47.60100 32.53800
H  18.92800 48.68200 32.97700
H  20.59100 48.92200 33.66700

