158

Mg 44.27800 5.23700 47.35300
C  42.16600 8.20700 47.34700
C  41.33500 3.50600 47.14400
C  46.11300 2.77000 46.90700
C  47.00200 7.50200 47.16500
N  42.06100 5.87100 47.24800
C  41.42200 7.06800 47.19100
C  39.88200 6.94700 47.02500
C  39.68500 5.39700 46.94800
C  41.15300 4.86900 47.18300
C  38.64900 4.81400 47.91300
C  39.09800 7.73100 45.88900
C  39.85100 8.09700 44.57100
H  39.07700 7.59900 43.28400
N  43.78700 3.38200 47.01400
C  42.57900 2.82900 47.05700
C  42.77000 1.43900 46.75600
C  44.13300 1.14600 46.64000
C  44.78000 2.46200 46.78400
C  41.55500 0.48700 46.75300
C  44.81700 -0.21200 46.37700
O  44.11500 -1.21000 46.35800
C  46.16500 -0.37100 46.16800
N  46.30100 5.18500 46.97600
C  46.84500 3.93800 47.00100
C  48.40800 3.94500 46.97600
C  48.62200 5.48800 47.17300
C  47.22500 6.14900 47.11400
C  49.00900 3.09600 48.07300
C  49.44800 6.01400 45.97300
C  50.96600 5.78700 46.09700
N  44.59000 7.39700 47.38600
C  45.75900 8.11300 47.28700
C  45.50000 9.51600 47.30200
C  44.09200 9.57300 47.35700
C  43.55300 8.30100 47.43900
C  46.50100 10.63800 46.95800
C  42.96900 10.55100 47.37800
O  42.91500 11.74200 47.26500
C  41.67300 9.65500 47.19000
C  40.55100 10.02100 48.15000
O  40.41200 9.67400 49.27700
O  39.80300 11.07700 47.64200
C  38.86800 11.76100 48.57300
H  40.45200 2.88000 47.00000
H  46.80500 1.92900 46.82100
H  47.82100 8.22500 47.16300
H  39.52700 7.39200 47.95400
H  39.50600 5.19600 45.89200
H  37.88100 5.58800 47.91900
H  39.09000 4.75400 48.90800
H  38.24500 3.88000 47.52300
H  38.72900 8.66100 46.32200
H  38.21600 7.13300 45.66200
H  40.89900 7.80300 44.63100
H  39.80400 9.17800 44.43600
H  41.63400 -0.37400 46.09000
H  40.76000 0.95700 46.17500
H  41.26800 0.30200 47.78800
H  46.56300 0.25800 45.37200
H  46.51900 -1.37100 45.91800
H  46.81300 -0.18100 47.02400
H  48.62900 3.59300 45.96800
H  49.09300 5.65300 48.14200
H  48.21100 2.70500 48.70400
H  49.61900 3.69500 48.75000
H  49.45500 2.18800 47.66800
H  49.26400 7.08000 45.83800
H  49.13700 5.50100 45.06300
H  51.30700 4.99100 45.43400
H  51.30100 5.51900 47.09900
H  51.49100 6.72700 45.93200
H  46.04300 11.57500 47.27200
H  46.69400 10.58300 45.88700
H  47.43400 10.50000 47.50400
H  41.21900 9.89000 46.22700
H  39.50700 11.96900 49.43100
H  38.03200 11.17900 48.96100
H  38.47600 12.64800 48.07600
Mg 40.00700 10.32600 29.27900
C  42.16500 11.46800 31.82800
C  38.06200 8.97500 31.58600
C  38.20100 9.35600 26.72900
C  42.68800 11.06300 26.94100
N  40.08000 10.33900 31.51100
C  40.96700 10.96100 32.31400
C  40.39800 10.93400 33.72900
C  39.08400 10.03700 33.63200
C  39.06400 9.72900 32.21400
C  39.13000 8.75800 34.46100
C  39.86200 12.36300 34.09100
C  39.25400 12.49100 35.48800
H  40.13200 13.04600 36.65000
N  38.23800 9.39700 29.15900
C  37.60100 8.81700 30.24400
C  36.46300 8.15100 29.78100
C  36.45700 8.17700 28.31400
C  37.65100 9.00000 28.00000
C  35.61600 7.45500 30.69600
C  35.49400 7.53400 27.33600
O  35.76200 7.51100 26.13400
C  34.29800 6.86700 27.79000
N  40.44800 10.15800 27.11800
C  39.48700 9.85700 26.35500
C  39.92400 9.75200 24.85700
C  41.34300 10.48200 24.90300
C  41.52400 10.53700 26.47000
C  39.89600 8.35600 24.21800
C  41.42100 11.96400 24.33300
C  40.85600 13.11300 25.19000
N  42.00400 11.09900 29.30400
C  42.97200 11.34200 28.27500
C  44.11700 11.83700 28.86200
C  43.81700 11.99600 30.21100
C  42.56700 11.45800 30.48300
C  45.30500 12.29000 28.19600
C  44.46300 12.41600 31.46500
O  45.53300 12.88000 31.75400
C  43.34100 12.12000 32.51400
C  43.87800 11.34600 33.67100
O  44.10300 10.11700 33.64800
O  43.74100 12.02300 34.82800
C  44.14700 11.25900 36.01500
H  37.45100 8.43500 32.31200
H  37.63200 8.96500 25.88200
H  43.45000 11.40100 26.23700
H  41.17000 10.67600 34.45400
H  38.10700 10.50400 33.75900
H  40.09700 8.71200 34.96300
H  38.97500 7.89900 33.80900
H  38.33500 8.77800 35.20600
H  39.15900 12.71100 33.33400
H  40.75900 12.98300 34.11300
H  38.59400 11.64500 35.67700
H  38.50100 13.26700 35.35300
H  34.63400 7.31200 30.24600
H  35.50900 7.97300 31.64900
H  35.90300 6.41700 30.86300
H  33.84700 6.24400 27.01800
H  33.53600 7.59600 28.06600
H  34.58100 6.26000 28.64900
H  39.20400 10.34400 24.29200
H  42.20700 9.87300 24.64000
H  40.92900 8.09500 23.99000
H  39.38100 8.44600 23.26100
H  39.27100 7.65800 24.77500
H  40.87400 11.94100 23.39000
H  42.42400 12.34900 24.15400
H  41.78100 13.42600 25.67400
H  40.13700 12.82700 25.95800
H  40.50000 13.86700 24.48800
H  45.11100 12.75100 27.22700
H  45.98600 11.44700 28.08600
H  45.79400 13.06700 28.78400
H  43.08400 13.13000 32.83300
H  43.33000 10.58700 36.28100
H  44.35800 11.96400 36.81900
H  45.07700 10.71500 35.85400

