158

Mg 43.09600 42.28900 26.48200
C  42.50300 44.73100 28.98100
C  44.51100 40.16900 28.76400
C  43.71100 40.16100 24.02000
C  42.56100 44.89400 24.07200
N  43.64200 42.56100 28.59300
C  43.05100 43.51500 29.47100
C  43.12300 42.99000 30.87800
C  44.18200 41.79200 30.77900
C  44.03600 41.43400 29.27700
C  45.62000 42.18500 31.01100
C  41.69300 42.66300 31.39400
C  41.27800 43.22200 32.73400
H  42.13500 42.96000 33.95900
N  43.96000 40.44000 26.43700
C  44.43600 39.70000 27.46200
C  44.74000 38.38300 27.06100
C  44.41400 38.31500 25.67200
C  43.98900 39.61800 25.31300
C  45.42000 37.30000 27.96500
C  44.55100 37.09800 24.69300
O  44.57500 37.16900 23.49300
C  44.98700 35.79800 25.31600
N  43.17400 42.57300 24.37500
C  43.33800 41.46200 23.59500
C  43.11700 41.82900 22.04000
C  42.55400 43.26200 22.20800
C  42.69200 43.60700 23.65500
C  44.47600 41.78800 21.34800
C  41.17000 43.42600 21.60300
C  40.04000 42.61800 22.34500
N  42.56100 44.30900 26.47500
C  42.49800 45.23100 25.41500
C  42.14600 46.54000 25.88400
C  41.99900 46.32400 27.26100
C  42.40900 44.98900 27.57800
C  41.97500 47.83300 25.02600
C  41.64900 46.99500 28.49000
O  41.19800 48.09800 28.72800
C  41.86200 45.90300 29.71300
C  42.73000 46.57900 30.67400
O  43.88100 46.90400 30.40900
O  42.09000 46.70500 31.86100
C  42.71200 47.78300 32.78400
H  44.83800 39.44700 29.51600
H  43.90200 39.54500 23.14000
H  42.31200 45.70700 23.38700
H  43.56100 43.80600 31.45200
H  43.92400 40.87900 31.31400
H  46.39600 41.77700 30.36300
H  45.86400 42.00700 32.05800
H  45.64400 43.27000 30.91400
H  41.60300 41.58500 31.53000
H  41.01300 43.09400 30.65900
H  40.20400 43.04700 32.80200
H  41.35200 44.28900 32.52400
H  45.49400 37.70400 28.97400
H  46.45200 37.30300 27.61600
H  44.93400 36.33400 28.11000
H  45.08900 35.06400 24.51600
H  44.50000 35.29900 26.15400
H  46.03700 35.98400 25.54000
H  42.44400 41.07900 21.62600
H  43.26300 43.96500 21.77200
H  45.30500 41.68400 22.04800
H  44.65700 42.73500 20.84000
H  44.46400 41.02000 20.57500
H  41.09400 42.98900 20.60800
H  40.82300 44.45100 21.47200
H  39.15100 43.12000 22.72900
H  40.51300 41.93300 23.04800
H  39.62100 41.88200 21.65900
H  42.84900 47.99100 24.39300
H  41.78200 48.65600 25.71300
H  41.10000 47.67800 24.39600
H  40.88000 45.68700 30.13400
H  43.09300 48.58900 32.15700
H  43.55200 47.36200 33.33600
H  41.97700 48.24500 33.44400
Mg -2.62800 33.78200 25.80300
C  -4.31200 32.46800 28.58700
C  -1.02600 36.08000 27.80800
C  -1.11200 34.94700 23.04000
C  -4.56300 31.54600 23.72800
N  -2.84900 34.39200 27.91700
C  -3.48500 33.55800 28.91300
C  -2.96700 33.86000 30.32000
C  -2.15500 35.28500 30.08400
C  -2.01200 35.30900 28.49800
C  -3.01100 36.52100 30.50200
C  -2.12600 32.79900 31.15600
C  -1.71200 33.24500 32.59000
H  -2.04300 32.36000 33.82300
N  -1.33900 35.33600 25.46900
C  -0.68800 36.11200 26.44500
C  0.34400 36.80700 25.85400
C  0.42300 36.48200 24.49500
C  -0.64800 35.50900 24.30200
C  1.13100 37.88700 26.47400
C  1.39000 36.97600 23.41500
O  1.21000 36.70900 22.21800
C  2.62900 37.76800 23.73900
N  -2.95500 33.37700 23.67800
C  -2.16000 34.00100 22.77900
C  -2.41400 33.55400 21.33900
C  -3.43700 32.42700 21.57700
C  -3.58100 32.31100 23.05300
C  -2.96100 34.74600 20.54500
C  -3.19200 31.02300 20.84700
C  -2.40700 29.88400 21.57900
N  -4.03100 32.18300 26.05000
C  -4.76900 31.41000 25.11900
C  -5.66700 30.49600 25.91800
C  -5.45700 30.85900 27.24800
C  -4.48100 31.88900 27.30300
C  -6.70000 29.53500 25.37800
C  -5.88100 30.52300 28.56900
O  -6.66200 29.67300 29.00600
C  -5.05600 31.58200 29.53000
C  -6.02800 32.16000 30.44900
O  -6.84300 33.08000 30.31000
O  -6.00700 31.37600 31.60200
C  -6.95200 31.69400 32.62700
H  -0.33500 36.55900 28.50400
H  -0.56600 35.21000 22.13100
H  -5.18000 30.93800 23.06300
H  -3.74900 34.09700 31.04100
H  -1.20500 35.35700 30.61400
H  -2.41500 37.00100 31.27800
H  -4.02400 36.20000 30.74400
H  -3.24100 37.37600 29.86700
H  -1.25600 32.47000 30.58900
H  -2.76900 31.93200 31.30600
H  -2.08600 34.23300 32.86000
H  -0.62500 33.30200 32.52600
H  0.78900 38.06800 27.49300
H  1.01000 38.83300 25.94800
H  2.17100 37.57600 26.57300
H  2.47300 38.79700 24.06400
H  3.24800 37.83900 22.84500
H  3.28100 37.18300 24.38800
H  -1.52200 33.17900 20.83800
H  -4.46300 32.64400 21.28200
H  -3.49900 35.44500 21.18500
H  -3.72600 34.39800 19.85100
H  -2.12600 35.17200 19.98800
H  -2.81300 31.18700 19.83800
H  -4.15500 30.59200 20.57300
H  -1.75000 30.16800 22.40100
H  -1.63200 29.55700 20.88600
H  -3.03600 29.06600 21.93100
H  -7.64100 30.02600 25.62700
H  -6.54900 28.54200 25.80300
H  -6.71400 29.47700 24.29000
H  -4.38600 30.89300 30.04400
H  -6.92800 32.77000 32.80200
H  -6.69100 31.31400 33.61500
H  -7.93900 31.29800 32.38900

