158

Mg 47.04200 44.68300 42.35900
C  43.60700 44.18500 42.63700
C  47.28800 41.23800 41.51100
C  50.24800 45.08100 41.90200
C  46.52500 48.10200 42.58700
N  45.64100 42.93900 42.11100
C  44.29900 42.96100 42.28300
C  43.74200 41.54400 42.18400
C  44.92900 40.64100 42.10100
C  46.05300 41.66800 41.87300
C  45.23100 39.70100 43.36600
C  42.50400 41.39000 41.22600
C  42.49500 42.27700 39.94100
H  43.41700 41.79300 38.74900
N  48.60600 43.38700 41.81900
C  48.48400 42.01800 41.54900
C  49.79600 41.55700 41.35100
C  50.77000 42.60800 41.42800
C  49.89100 43.78200 41.72800
C  50.03900 40.08700 41.16100
C  52.26400 42.53800 41.12100
O  52.74800 41.46000 40.81400
C  53.03800 43.76900 40.96400
N  48.13700 46.26900 41.96500
C  49.50300 46.19000 42.04000
C  50.19700 47.58300 42.20000
C  48.98000 48.57400 42.25700
C  47.82100 47.62100 42.33100
C  51.21300 47.68700 43.42300
C  48.79200 49.68400 41.15300
C  49.88200 49.73500 40.04500
N  45.45200 45.95900 42.48900
C  45.30800 47.36600 42.57500
C  43.93500 47.74900 42.72500
C  43.18400 46.52000 42.70100
C  44.15300 45.48700 42.65800
C  43.50100 49.16200 42.79800
C  41.78300 45.92500 42.74700
O  40.61600 46.35900 42.75600
C  42.08800 44.35600 42.79900
C  41.68300 43.67500 44.02600
O  40.70800 42.96600 44.10300
O  42.44100 44.16800 45.11100
C  41.96800 43.81100 46.49800
H  47.44600 40.16800 41.36100
H  51.30800 45.32200 42.00800
H  46.56700 49.17000 42.81300
H  43.22700 41.38300 43.13100
H  44.75900 39.93200 41.29000
H  46.20500 39.86700 43.82600
H  45.25600 38.63800 43.12700
H  44.43200 39.91100 44.07700
H  41.57300 41.52900 41.77500
H  42.65300 40.33600 40.99200
H  42.89800 43.27100 40.13400
H  41.48300 42.40600 39.55800
H  50.91300 39.83600 40.55900
H  49.23500 39.61600 40.59500
H  50.00900 39.67200 42.16800
H  52.64600 44.50800 40.26500
H  53.97900 43.42200 40.53700
H  53.09700 44.25400 41.93900
H  50.72700 47.74700 41.26200
H  49.00100 49.10900 43.20600
H  51.32100 46.78000 44.01800
H  51.04600 48.56200 44.05200
H  52.11200 47.93800 42.86100
H  48.80500 50.71800 41.50000
H  47.84800 49.50700 40.63700
H  49.89800 50.74400 39.63300
H  49.76000 48.99200 39.25700
H  50.84900 49.67700 40.54500
H  42.47600 49.32000 43.13200
H  43.50000 49.62300 41.81000
H  44.16100 49.72600 43.45700
H  41.46200 43.91100 42.02600
H  42.62200 43.09700 46.99900
H  41.06900 43.19800 46.56200
H  41.74700 44.71400 47.06700
Mg -1.51400 34.65300 26.79800
C  -3.28100 32.91600 29.23300
C  -0.48800 36.85100 29.09400
C  -0.26600 36.62700 24.19400
C  -2.56700 32.42400 24.40700
N  -1.74900 34.79100 28.97900
C  -2.53500 33.94000 29.81600
C  -2.37900 34.32500 31.22000
C  -1.48300 35.58500 31.17700
C  -1.26900 35.80000 29.62400
C  -2.10700 36.82000 31.81300
C  -1.76900 33.16300 32.05700
C  -2.51700 32.83000 33.40500
H  -1.74400 32.75200 34.77500
N  -0.46300 36.43100 26.66500
C  -0.07500 37.20500 27.75000
C  0.81000 38.23000 27.31100
C  0.73500 38.29600 25.84800
C  -0.02000 37.02200 25.49900
C  1.55300 39.17100 28.26200
C  1.33000 39.34000 24.84700
O  1.33700 39.15800 23.65800
C  1.94000 40.60900 25.45300
N  -1.67700 34.71900 24.55700
C  -1.04600 35.60900 23.73900
C  -1.16100 35.11800 22.28000
C  -1.70800 33.68500 22.37500
C  -1.98000 33.54800 23.86600
C  -1.93200 36.16100 21.37300
C  -0.77100 32.63400 21.73000
C  0.44700 32.20400 22.59100
N  -2.73700 33.02100 26.71800
C  -3.05300 32.21300 25.66400
C  -4.06300 31.20900 26.14600
C  -4.09000 31.40000 27.56200
C  -3.29500 32.50700 27.89000
C  -4.81600 30.27900 25.37700
C  -4.64300 30.94300 28.82900
O  -5.43900 29.99100 29.05600
C  -4.07200 31.85000 29.95500
C  -5.11400 32.42100 30.80200
O  -5.63300 33.50400 30.65300
O  -5.41400 31.51400 31.85000
C  -6.29100 32.16500 32.86200
H  0.04000 37.54800 29.74800
H  0.05900 37.31200 23.40800
H  -2.87500 31.72900 23.62300
H  -3.36700 34.56400 31.61500
H  -0.49300 35.44300 31.61200
H  -2.23100 37.56800 31.03000
H  -1.56400 37.11100 32.71100
H  -3.16300 36.73300 32.07000
H  -0.79100 33.28900 32.52300
H  -1.52400 32.31500 31.41700
H  -2.89300 31.81800 33.25800
H  -3.35200 33.50400 33.59900
H  2.60600 39.16700 27.98100
H  1.61000 38.95700 29.33000
H  1.10600 40.16400 28.28600
H  1.18100 40.89600 26.18100
H  1.97100 41.36800 24.67200
H  2.92900 40.26500 25.75700
H  -0.12900 35.12800 21.92700
H  -2.70200 33.67500 21.92900
H  -2.66100 35.67300 20.72600
H  -1.14600 36.58100 20.74500
H  -2.38700 36.97600 21.93600
H  -0.51100 33.01700 20.74400
H  -1.47600 31.83900 21.48500
H  0.44000 32.67000 23.57700
H  1.37700 32.34600 22.04100
H  0.42600 31.12700 22.75800
H  -4.50800 30.43200 24.34300
H  -5.88300 30.49900 25.40900
H  -4.78600 29.23700 25.69800
H  -3.40000 31.25900 30.57800
H  -5.70900 32.59200 33.67800
H  -6.73600 31.35200 33.43400
H  -7.01500 32.91700 32.54700

