158

Mg -2.12500 17.60300 25.68300
C  -2.39300 15.20800 28.43000
C  -2.56700 20.02100 27.94500
C  -1.87200 19.71300 23.19300
C  -1.94900 14.82200 23.51900
N  -2.45400 17.52900 27.93100
C  -2.52900 16.51900 28.91800
C  -2.97100 16.98600 30.28200
C  -3.05200 18.54100 29.99000
C  -2.63000 18.72800 28.56300
C  -4.47300 19.25500 30.33500
C  -2.14100 16.52100 31.59100
C  -2.95100 16.09800 32.82300
H  -2.25300 15.28300 33.99900
N  -2.15400 19.62400 25.57800
C  -2.37500 20.42400 26.60400
C  -2.37700 21.79200 26.16800
C  -2.25000 21.75100 24.74100
C  -2.09600 20.34500 24.41700
C  -2.61500 22.91900 26.97400
C  -2.32900 22.86600 23.67900
O  -2.38500 22.64200 22.47500
C  -2.24600 24.27200 24.12300
N  -1.83200 17.26000 23.66500
C  -1.69300 18.30600 22.84100
C  -1.50200 17.80900 21.37000
C  -1.35900 16.23700 21.54300
C  -1.66800 16.06700 23.01000
C  -2.60100 18.29600 20.40600
C  0.05800 15.68500 21.22800
C  -0.00800 14.39100 20.42800
N  -2.18500 15.45200 25.82600
C  -2.16600 14.46700 24.86600
C  -2.50500 13.17600 25.47700
C  -2.50800 13.43600 26.87300
C  -2.33900 14.81400 27.03200
C  -2.74700 11.88700 24.77600
C  -2.50500 12.82500 28.19800
O  -2.57500 11.64400 28.48600
C  -2.36900 13.91600 29.20500
C  -1.17400 13.66000 29.96600
O  -0.06900 14.07600 29.66400
O  -1.41700 12.86700 31.07000
C  -0.29300 12.56700 31.85300
H  -2.88800 20.86300 28.56200
H  -1.76800 20.33000 22.29800
H  -1.81700 14.11300 22.69900
H  -3.98000 16.66500 30.54100
H  -2.26700 19.07700 30.52500
H  -4.37800 19.87100 31.22900
H  -5.26200 18.53300 30.54500
H  -4.80600 19.79100 29.44700
H  -1.68200 17.46100 31.89700
H  -1.40700 15.76300 31.31800
H  -3.80800 15.52500 32.46800
H  -3.26900 17.02100 33.30700
H  -3.47400 23.37700 26.48300
H  -1.71800 23.51800 27.12600
H  -3.04900 22.58100 27.91500
H  -1.33900 24.32700 24.72600
H  -3.11800 24.69600 24.62000
H  -2.07700 24.88800 23.24000
H  -0.59900 18.28700 20.98900
H  -2.18100 15.80300 20.97300
H  -2.23600 19.21400 19.94400
H  -3.48900 18.49300 21.00700
H  -2.80200 17.59100 19.60000
H  0.59200 15.30900 22.10100
H  0.73900 16.43600 20.82600
H  0.36400 14.55600 19.41600
H  -1.03300 14.02100 20.40700
H  0.64600 13.67800 20.93200
H  -2.31800 11.98300 23.77800
H  -3.82400 11.72800 24.82100
H  -2.17800 11.10600 25.27900
H  -3.20500 13.93400 29.90500
H  -0.64700 11.78100 32.52000
H  -0.02700 13.41900 32.48000
H  0.46700 11.98700 31.32900
Mg 8.98100 3.43200 27.41400
C  10.84900 1.89500 29.97100
C  7.25600 5.09400 29.77400
C  7.24300 4.78300 24.94700
C  10.72000 1.34400 25.19400
N  9.04400 3.41100 29.59400
C  9.95000 2.78700 30.44200
C  9.77500 3.25400 31.85400
C  8.52300 4.17000 31.82300
C  8.27400 4.28200 30.31200
C  7.21200 3.71100 32.55000
C  11.04000 3.91400 32.43600
C  11.48400 3.38500 33.83900
H  11.54200 4.42000 34.96000
N  7.37800 4.64800 27.41700
C  6.75200 5.20400 28.44400
C  5.75700 6.08300 28.00500
C  5.81800 6.13400 26.64000
C  6.80600 5.13500 26.27100
C  4.95700 6.76200 29.03200
C  5.02000 6.93500 25.66100
O  5.24300 6.95300 24.47500
C  3.94600 7.86600 26.09200
N  8.78100 2.99600 25.38100
C  8.12700 3.80700 24.56600
C  8.39600 3.43300 23.14100
C  9.68700 2.54700 23.15200
C  9.81600 2.33800 24.67300
C  7.19600 2.77800 22.38200
C  10.93600 3.26700 22.69400
C  12.10200 2.49200 21.92200
N  10.46800 1.91300 27.49900
C  11.03200 1.14400 26.55000
C  11.97800 0.18100 27.09800
C  11.94500 0.50400 28.46200
C  11.08600 1.56400 28.62000
C  12.65000 -0.82200 26.32500
C  12.52300 0.17600 29.72500
O  13.38600 -0.66300 29.94700
C  11.89200 1.13200 30.79200
C  11.28400 0.28200 31.82900
O  10.26800 -0.33400 31.68700
O  12.04800 0.30400 32.97400
C  11.55000 -0.55100 34.15800
H  6.74400 5.61700 30.58500
H  6.74200 5.24700 24.09500
H  11.37700 0.80300 24.51100
H  9.49100 2.37000 32.42400
H  8.76100 5.15800 32.21600
H  6.40200 3.40000 31.89000
H  6.94700 4.42900 33.32600
H  7.46600 2.80500 33.09900
H  10.87800 4.98900 32.51800
H  11.93100 3.76400 31.82600
H  12.47500 2.99400 33.60500
H  10.92400 2.48500 34.09200
H  4.13000 7.36000 28.65000
H  5.56700 7.49000 29.56600
H  4.55600 6.01200 29.71500
H  4.36300 8.70300 26.65200
H  3.09100 7.28200 26.43200
H  3.54300 8.44000 25.25700
H  8.58700 4.35800 22.59600
H  9.53900 1.66000 22.53600
H  6.38800 3.24200 22.94800
H  7.16700 1.68900 22.38100
H  6.95500 3.16600 21.39200
H  11.40200 3.76000 23.54700
H  10.75800 4.15000 22.08100
H  12.27000 2.84000 20.90300
H  11.90000 1.43100 21.77400
H  13.08100 2.53600 22.40000
H  12.88800 -0.70200 25.26800
H  12.01200 -1.70400 26.27700
H  13.63200 -0.97700 26.77200
H  12.60100 1.83400 31.23000
H  11.40500 -1.62700 34.05600
H  10.52000 -0.23300 34.32200
H  11.95100 -0.27500 35.13300

