158

Mg 45.34600 3.57700 47.66300
C  43.43100 6.42200 47.17300
C  42.33800 1.65600 47.54200
C  47.19300 0.82600 47.47500
C  48.18400 5.60100 47.64400
N  43.20900 4.02200 47.32300
C  42.63100 5.24600 47.11400
C  41.13800 5.08000 46.76000
C  40.71200 3.58500 47.03000
C  42.16900 3.05300 47.29200
C  39.69900 3.36100 48.14100
C  40.83500 5.65600 45.29300
C  39.67000 6.59700 45.22300
H  38.76300 6.56700 43.98700
N  44.86800 1.56100 47.50600
C  43.60300 0.93900 47.53400
C  43.79900 -0.50400 47.38000
C  45.21300 -0.70400 47.40100
C  45.80600 0.57200 47.45600
C  42.66800 -1.46600 47.16000
C  45.86000 -2.19800 47.23900
O  45.20700 -3.20100 47.14900
C  47.35700 -2.39200 47.27400
N  47.43100 3.23200 47.62000
C  47.98800 2.01200 47.63100
C  49.51700 1.98000 47.84400
C  49.81100 3.53700 47.84300
C  48.37600 4.21000 47.77200
C  49.93600 1.19500 49.00700
C  50.88300 4.03100 46.78900
C  52.17400 4.36200 47.33600
N  45.77800 5.62400 47.46400
C  46.97300 6.30300 47.51800
C  46.66800 7.68200 47.37600
C  45.31900 7.79700 47.21000
C  44.80200 6.47900 47.33700
C  47.72000 8.74200 47.12700
C  44.24700 8.69300 46.98700
O  44.31000 9.86100 46.83000
C  42.91500 7.86300 46.88900
C  41.92600 8.41500 47.85600
O  41.55000 7.85500 48.88200
O  41.35800 9.55600 47.36500
C  39.95900 9.88900 47.90300
H  41.42100 1.06300 47.52400
H  47.88900 -0.01400 47.52800
H  49.10500 6.17700 47.76100
H  40.58000 5.74300 47.42100
H  40.42400 3.06700 46.11500
H  39.78100 4.23400 48.78800
H  39.93100 2.47800 48.73700
H  38.66100 3.36900 47.81100
H  40.58900 4.80800 44.65300
H  41.73800 6.15700 44.94500
H  40.04700 7.61700 45.30300
H  39.01500 6.55000 46.09300
H  42.47700 -2.03300 48.07000
H  42.89700 -2.13400 46.32900
H  41.80300 -0.93600 46.76100
H  47.89100 -1.75700 46.56800
H  47.56300 -3.42500 46.99400
H  47.63600 -2.34700 48.32700
H  49.99200 1.49700 46.99000
H  50.27800 3.74200 48.80600
H  49.15000 1.09900 49.75500
H  50.84600 1.52600 49.50800
H  50.13100 0.21400 48.57400
H  50.43800 4.73500 46.08600
H  50.93500 3.18200 46.10700
H  52.51000 5.03100 46.54400
H  52.87600 3.54800 47.51800
H  52.04600 5.01800 48.19700
H  47.26300 9.59900 46.63500
H  48.51900 8.33800 46.50500
H  48.02500 8.93700 48.15500
H  42.73700 8.09000 45.83700
H  39.29400 9.13700 47.48100
H  39.63000 10.88300 47.59800
H  40.00600 9.74300 48.98200
Mg 41.64800 40.51300 26.74800
C  41.04700 42.84300 29.15500
C  42.44700 38.21400 29.13100
C  42.25900 38.33800 24.19800
C  40.67400 42.85700 24.31200
N  41.97600 40.60600 28.90300
C  41.53100 41.63100 29.70900
C  41.51000 41.27100 31.20400
C  41.95300 39.72600 31.12700
C  42.15100 39.48900 29.62900
C  43.20800 39.40200 32.00500
C  40.14700 41.41900 31.89600
C  39.83200 40.66500 33.20600
H  39.28100 41.42800 34.43700
N  42.38200 38.61600 26.70200
C  42.68200 37.80900 27.78800
C  43.17800 36.49100 27.33000
C  43.12600 36.47200 25.90300
C  42.55700 37.87100 25.53100
C  43.55500 35.43500 28.29500
C  43.51800 35.29000 24.98300
O  43.20100 35.22300 23.79900
C  44.24500 34.15800 25.57900
N  41.65200 40.64000 24.53100
C  41.74900 39.57400 23.79400
C  41.58000 39.88600 22.28500
C  40.83000 41.27200 22.31800
C  41.09000 41.63500 23.81700
C  42.90900 39.83600 21.40800
C  39.43800 41.33800 21.83100
C  38.32300 40.71100 22.69600
N  41.04300 42.43300 26.65000
C  40.67700 43.31800 25.59400
C  40.36600 44.61800 26.15800
C  40.50300 44.45600 27.51600
C  40.87500 43.13100 27.79300
C  39.99700 45.88800 25.41000
C  40.39100 45.15600 28.76100
O  40.04600 46.30700 29.01800
C  40.59000 44.09100 29.89900
C  41.58100 44.52000 30.93600
O  42.76400 44.66200 30.64500
O  41.02500 44.72300 32.21500
C  42.00600 45.17400 33.30200
H  42.72400 37.47400 29.88500
H  42.41800 37.49600 23.52200
H  40.21600 43.52000 23.57500
H  42.14600 41.83800 31.88300
H  41.08800 39.12000 31.39300
H  42.89400 39.06500 32.99300
H  43.83900 40.28500 32.10300
H  43.83900 38.59900 31.62600
H  39.38700 41.35100 31.11800
H  40.22300 42.47300 32.16500
H  40.61000 39.96300 33.50900
H  39.08800 39.89100 33.01600
H  42.77800 34.67100 28.30500
H  43.58000 35.81300 29.31800
H  44.47200 34.93400 27.98500
H  43.74900 33.59500 26.37100
H  45.17500 34.52900 26.01000
H  44.51300 33.30000 24.96200
H  40.94900 39.11700 21.84000
H  41.38700 41.93600 21.65700
H  42.98000 38.92500 20.81500
H  43.81000 39.96900 22.00600
H  42.93700 40.68600 20.72500
H  39.40000 40.73700 20.92200
H  39.25500 42.40600 21.71300
H  38.61700 40.29100 23.65800
H  37.67800 40.08400 22.08100
H  37.61200 41.51200 22.89700
H  39.62900 45.68000 24.40500
H  40.85300 46.56200 25.39300
H  39.25800 46.44000 25.99000
H  39.64300 43.95900 30.42100
H  41.63600 46.01500 33.88900
H  42.99200 45.50500 32.97400
H  42.14500 44.36200 34.01500

