158

Mg -2.20800 17.48400 26.57900
C  -2.65300 14.78100 28.83800
C  -3.16200 19.62200 28.97000
C  -2.62500 19.85100 24.04900
C  -2.06400 15.08900 23.91200
N  -2.93300 17.16200 28.74100
C  -2.91900 16.02300 29.47900
C  -3.19000 16.33100 30.97800
C  -3.48200 17.90000 30.87100
C  -3.14400 18.29200 29.42900
C  -4.85200 18.24400 31.44400
C  -2.04200 15.93000 31.89700
C  -1.86400 16.72900 33.20400
H  -1.48000 15.89600 34.48700
N  -2.64000 19.48000 26.56700
C  -2.97100 20.20000 27.70000
C  -3.35700 21.47800 27.31300
C  -3.24900 21.65200 25.87300
C  -2.81500 20.28400 25.40600
C  -3.90200 22.56300 28.23700
C  -3.42700 22.77500 24.84100
O  -3.35200 22.75500 23.62300
C  -3.92300 24.01500 25.46800
N  -2.28700 17.46900 24.31000
C  -2.39600 18.57600 23.57800
C  -2.16800 18.30400 22.08700
C  -1.70100 16.79700 22.07500
C  -2.03400 16.40800 23.47900
C  -3.48000 18.54100 21.20500
C  -0.22100 16.62000 21.70100
C  0.05000 16.00400 20.37000
N  -2.34600 15.43800 26.39300
C  -2.18300 14.62200 25.26600
C  -2.23700 13.19300 25.65800
C  -2.35000 13.20100 27.09300
C  -2.45500 14.60200 27.44600
C  -2.33000 12.02100 24.72400
C  -2.55900 12.29000 28.23500
O  -2.63300 11.06800 28.34200
C  -2.80900 13.35500 29.40100
C  -2.05000 12.80700 30.50400
O  -0.77700 12.80900 30.65100
O  -2.84200 12.10400 31.38200
C  -2.22800 11.54400 32.62600
H  -3.22200 20.35000 29.78200
H  -2.89700 20.50400 23.21600
H  -2.00300 14.29600 23.16300
H  -4.07600 15.79300 31.31500
H  -2.75100 18.43600 31.47700
H  -5.54600 17.40700 31.36900
H  -5.31100 19.07800 30.91200
H  -4.90400 18.57600 32.48100
H  -1.13100 16.09500 31.32100
H  -2.08900 14.87400 32.16300
H  -2.78900 17.24200 33.46500
H  -0.96000 17.33900 33.19800
H  -3.37600 23.50700 28.09800
H  -3.79700 22.24200 29.27300
H  -4.96500 22.76800 28.11200
H  -4.74200 23.66400 26.09600
H  -4.40100 24.66700 24.73700
H  -3.22000 24.60000 26.06200
H  -1.39300 18.98900 21.74200
H  -2.38300 16.27000 21.40700
H  -3.24400 19.20200 20.37100
H  -4.14100 19.26300 21.68500
H  -3.90600 17.62000 20.80700
H  0.21100 15.95800 22.45200
H  0.35000 17.54800 21.73700
H  0.90600 16.45700 19.86800
H  -0.81800 15.93100 19.71500
H  0.41700 14.98000 20.43200
H  -3.26800 11.96900 24.17100
H  -2.35500 11.09900 25.30300
H  -1.54300 11.96400 23.97200
H  -3.86400 13.32700 29.67600
H  -1.64200 12.29400 33.15800
H  -1.49200 10.78300 32.36900
H  -2.95800 11.07600 33.28700
Mg 35.84000 1.84100 29.97600
C  33.73700 3.38000 32.37500
C  38.25900 1.72800 32.28100
C  37.84600 0.98600 27.47700
C  33.21200 2.83700 27.44200
N  35.91700 2.58800 32.08300
C  34.94200 3.07500 32.87300
C  35.27300 2.96700 34.34100
C  36.91900 2.97900 34.22000
C  37.08300 2.40500 32.81200
C  37.65100 4.32300 34.49400
C  34.64500 1.73500 35.05900
C  34.50400 1.86100 36.55000
H  35.00400 3.09700 37.32100
N  37.72800 1.26700 29.94300
C  38.58600 1.30400 31.03200
C  39.93300 0.77100 30.57800
C  39.80200 0.53200 29.14400
C  38.40900 0.84900 28.78500
C  41.21100 0.63900 31.35500
C  40.90400 0.21500 28.12700
O  40.60700 0.08200 26.95400
C  42.32000 -0.12500 28.35500
N  35.49000 1.84800 27.80600
C  36.55800 1.46300 27.09400
C  36.15300 1.47000 25.57700
C  34.61700 1.88900 25.50700
C  34.42600 2.21200 26.99000
C  37.00900 2.32500 24.59900
C  33.45400 0.91500 24.99500
C  33.09100 1.17700 23.48000
N  33.88900 2.87800 29.86600
C  32.90500 3.11300 28.82200
C  31.69700 3.63800 29.35300
C  31.99600 3.78200 30.73900
C  33.34700 3.32400 30.99900
C  30.44700 4.02100 28.66700
C  31.42700 4.17700 32.01600
O  30.31300 4.65300 32.21700
C  32.53200 3.93800 33.11000
C  32.65600 5.10000 34.00500
O  33.54400 5.96300 33.91400
O  31.65800 5.02600 35.01300
C  31.72800 6.14200 35.98900
H  39.00800 1.69500 33.07500
H  38.49800 0.83900 26.61300
H  32.48000 3.14600 26.69400
H  34.91700 3.88700 34.80500
H  37.35200 2.28800 34.94400
H  37.99600 4.88100 33.62400
H  38.48400 4.29200 35.19600
H  36.88200 4.97700 34.90600
H  35.30300 0.89200 34.85200
H  33.65500 1.55700 34.63900
H  34.90700 0.92800 36.94300
H  33.48600 1.74000 36.92000
H  41.90700 1.36900 30.94000
H  41.56800 -0.33900 31.03400
H  40.97200 0.77100 32.41000
H  42.43000 -1.04100 28.93500
H  42.81900 0.64200 28.94600
H  42.76100 -0.22800 27.36300
H  36.19900 0.47700 25.13100
H  34.63300 2.84900 24.99000
H  37.52600 3.06300 25.21100
H  36.36000 2.82600 23.88000
H  37.74000 1.77400 24.00700
H  32.53600 0.91000 25.58200
H  33.88200 -0.07100 24.81600
H  33.60300 2.04300 23.06200
H  32.06100 1.53200 23.45000
H  33.06900 0.23700 22.92900
H  30.24600 3.43900 27.76800
H  30.34800 5.10500 28.60200
H  29.71300 3.75300 29.42700
H  32.36500 3.05000 33.72000
H  31.45700 7.11600 35.58000
H  32.73400 6.18600 36.40600
H  31.10400 5.89100 36.84600

