158

Mg 1.12400 7.65000 25.10500
C  1.84100 9.32000 28.06300
C  0.85700 4.73300 26.82900
C  0.70400 6.17400 22.17100
C  2.09900 10.57900 23.40300
N  1.34200 7.14100 27.21100
C  1.55000 7.99300 28.26400
C  1.45700 7.23600 29.61600
C  1.51700 5.72300 29.13400
C  1.16500 5.88000 27.63700
C  2.83500 5.00500 29.42300
C  0.28200 7.66800 30.43600
C  0.58500 8.03700 31.87700
H  1.80500 7.24500 32.48200
N  0.73100 5.73700 24.55100
C  0.64500 4.66600 25.38800
C  0.39600 3.44700 24.66800
C  0.43400 3.83000 23.21800
C  0.64800 5.31100 23.27200
C  0.22400 2.12700 25.32300
C  0.34000 2.98100 21.97700
O  0.49200 3.47300 20.87700
C  0.08700 1.51600 22.20300
N  1.26500 8.30800 23.08100
C  1.05400 7.49600 22.02600
C  1.03500 8.30400 20.74300
C  1.63100 9.63000 21.14800
C  1.64900 9.50600 22.64500
C  1.79500 7.56500 19.62500
C  0.85000 10.90300 20.57400
C  -0.46200 11.38800 21.25000
N  1.79300 9.67800 25.58900
C  2.16400 10.72400 24.77700
C  2.52100 11.86900 25.63400
C  2.33700 11.36900 26.91200
C  1.99100 10.04000 26.82900
C  2.96500 13.24600 25.10600
C  2.54500 11.75500 28.27000
O  3.06200 12.79000 28.75700
C  2.06500 10.46200 29.06500
C  3.13200 10.25100 30.08000
O  3.98300 9.37600 29.96300
O  3.03900 11.14400 31.12800
C  4.02900 11.10800 32.19000
H  0.88000 3.73900 27.28100
H  0.25600 5.73500 21.27800
H  2.34200 11.42500 22.75700
H  2.39900 7.52600 30.08000
H  0.71300 5.15000 29.59700
H  3.38500 5.65700 30.10200
H  3.42800 4.97600 28.50900
H  2.64500 4.01400 29.83500
H  -0.52400 6.93500 30.40700
H  -0.17300 8.54300 29.97200
H  -0.34800 7.85300 32.40900
H  0.64500 9.11800 32.00400
H  1.16600 1.57800 25.33400
H  -0.51600 1.53100 24.78700
H  -0.17900 2.29000 26.32200
H  -0.94000 1.25200 22.45200
H  0.85000 1.14000 22.88400
H  0.37900 1.00800 21.28400
H  -0.01200 8.42700 20.46700
H  2.64900 9.73000 20.77000
H  2.36600 6.77400 20.11100
H  2.42800 8.27700 19.09600
H  1.16100 6.95500 18.98200
H  0.65800 10.74800 19.51200
H  1.42400 11.82300 20.68200
H  -0.75800 10.69500 22.03800
H  -1.31000 11.46100 20.56800
H  -0.31600 12.34600 21.74900
H  3.60800 13.81700 25.77500
H  2.18700 13.82600 24.61000
H  3.58100 12.87000 24.28900
H  1.11700 10.81600 29.47000
H  3.63000 10.44000 32.95400
H  4.22400 12.07900 32.64500
H  4.95500 10.70700 31.77900
Mg 16.98900 51.39500 26.20800
C  19.06400 50.42900 28.92400
C  14.71600 52.68000 28.41400
C  15.15800 52.26500 23.62600
C  19.51000 50.10900 24.15100
N  16.98900 51.71000 28.40600
C  17.89800 51.14700 29.37600
C  17.44700 51.47300 30.81700
C  16.00300 52.01000 30.54800
C  15.87100 52.11200 29.02900
C  14.89700 51.24000 31.31000
C  18.33100 52.58400 31.40100
C  18.09200 52.97800 32.88300
H  17.26500 52.19700 33.93100
N  15.15000 52.53700 26.07800
C  14.37200 52.97500 27.08600
C  13.33300 53.68500 26.51900
C  13.39700 53.60800 25.12800
C  14.57100 52.70100 24.89100
C  12.30500 54.41100 27.34000
C  12.48500 54.13500 24.03600
O  12.76000 54.01800 22.85900
C  11.21600 54.87600 24.40400
N  17.26900 51.21800 24.22100
C  16.35800 51.60600 23.28000
C  16.84100 51.42400 21.84400
C  18.28700 50.93300 22.03400
C  18.34500 50.67700 23.58000
C  15.89500 50.50300 21.04500
C  19.37700 51.93400 21.49400
C  20.02500 53.01900 22.47200
N  18.90700 50.40500 26.41500
C  19.85000 49.97700 25.49500
C  20.99100 49.49200 26.16900
C  20.72600 49.64600 27.57100
C  19.42500 50.16500 27.64500
C  22.41900 49.00900 25.53400
C  21.18800 49.50800 28.85000
O  22.26800 49.11600 29.22800
C  20.09600 49.93400 29.80700
C  19.62800 48.80300 30.70200
O  18.80000 47.93800 30.47100
O  20.24600 49.06200 31.86700
C  19.73800 48.23100 32.97400
H  14.01100 52.90800 29.21600
H  14.69500 52.63000 22.70700
H  20.22100 49.77300 23.39300
H  17.57100 50.53300 31.35600
H  15.98500 53.01300 30.97400
H  15.22000 50.54800 32.08800
H  14.31300 50.62200 30.62800
H  14.22900 51.95600 31.79000
H  18.28300 53.51600 30.83900
H  19.37800 52.28900 31.32600
H  17.64300 53.97100 32.89500
H  19.06400 53.07000 33.36800
H  11.31100 54.11100 27.00900
H  12.51800 55.47900 27.38100
H  12.46600 54.08700 28.36800
H  11.41200 55.68800 25.10300
H  10.39800 54.27900 24.80800
H  10.94200 55.44300 23.51500
H  16.90300 52.41300 21.39000
H  18.42800 49.99500 21.49600
H  14.90600 50.47800 21.50300
H  16.22800 49.46600 21.01000
H  15.87800 50.97100 20.06100
H  18.86300 52.58000 20.78200
H  20.14900 51.32100 21.02900
H  19.61600 53.06400 23.48200
H  19.76300 54.01700 22.12300
H  21.11100 52.92700 22.48700
H  22.43700 49.47400 24.54900
H  22.29700 47.93900 25.36500
H  23.35000 49.30100 26.01900
H  20.51900 50.76300 30.37500
H  18.78900 48.65600 33.29900
H  20.46800 48.24800 33.78300
H  19.60400 47.19300 32.67100

