158

Mg 35.42400 2.49000 29.84600
C  33.35500 3.41000 32.50400
C  38.19200 2.75300 32.01500
C  37.43700 1.73200 27.36100
C  32.67000 2.74700 27.72600
N  35.69800 2.98800 31.96300
C  34.69300 3.15800 32.91100
C  35.24700 3.21000 34.32700
C  36.79100 3.23900 34.14400
C  36.91300 2.90000 32.65000
C  37.46100 4.54100 34.67300
C  34.67300 1.99800 35.14300
C  34.17700 2.24100 36.63700
H  34.80500 3.49100 37.26000
N  37.60900 2.24300 29.63800
C  38.55200 2.41900 30.65900
C  39.86300 2.09900 30.12200
C  39.67300 1.79500 28.77100
C  38.19200 1.95200 28.49900
C  41.18900 2.29500 30.88200
C  40.70100 1.51000 27.66500
O  40.35600 1.08600 26.56600
C  42.24000 1.46700 27.90000
N  35.15000 2.36900 27.90200
C  36.13800 1.99300 26.98100
C  35.60900 1.89500 25.53300
C  34.04900 1.80900 25.77600
C  33.91700 2.39800 27.26800
C  35.98700 3.02000 24.61900
C  33.38500 0.45000 25.52700
C  32.57900 0.29100 24.29500
N  33.37600 3.01200 30.03000
C  32.40800 3.16400 29.05500
C  31.20600 3.69300 29.70500
C  31.45300 3.73200 31.06300
C  32.81900 3.33600 31.17400
C  29.97100 4.01100 28.83500
C  30.88200 4.04700 32.35400
O  29.78600 4.49600 32.58100
C  32.14800 3.71100 33.38100
C  32.15700 4.77400 34.40900
O  32.94800 5.75100 34.31100
O  31.17400 4.57700 35.34800
C  31.07100 5.72200 36.33500
H  39.06000 2.86100 32.66900
H  38.07900 1.71900 26.47800
H  31.78300 2.83600 27.09600
H  34.92600 4.10400 34.86200
H  37.33500 2.47700 34.70000
H  38.50800 4.41000 34.94600
H  36.86900 4.95800 35.48900
H  37.49900 5.35800 33.95300
H  35.48200 1.26800 35.18800
H  33.89800 1.57000 34.50700
H  34.31100 1.34600 37.24400
H  33.09700 2.37900 36.69100
H  41.87100 1.45500 30.74400
H  41.09300 2.22700 31.96500
H  41.74100 3.20500 30.64500
H  42.40900 0.69300 28.64800
H  42.46700 2.48000 28.23200
H  42.63900 1.21600 26.91800
H  35.94900 1.01500 24.98800
H  33.48000 2.50400 25.15900
H  36.33600 2.67700 23.64500
H  36.77700 3.65600 25.01600
H  35.13200 3.68500 24.49200
H  32.83000 0.27200 26.44800
H  34.19200 -0.28300 25.54000
H  32.79400 1.05000 23.54200
H  31.52000 0.27600 24.55300
H  32.74600 -0.67800 23.82700
H  30.13700 4.24100 27.78200
H  29.32900 4.75500 29.30700
H  29.31500 3.14200 28.79700
H  31.88300 2.79500 33.90900
H  30.69900 6.53600 35.71300
H  32.04500 5.96500 36.75900
H  30.28400 5.44800 37.03800
Mg 30.87000 58.07400 39.74500
C  27.96500 55.98800 38.96700
C  32.84500 55.40400 39.03100
C  33.44100 60.31200 39.75400
C  28.58000 60.77300 40.22600
N  30.45800 55.92900 39.04900
C  29.21700 55.30900 38.88700
C  29.43100 53.81600 38.44700
C  30.87600 53.58700 38.85300
C  31.49100 55.06400 38.88800
C  31.22500 52.87600 40.19100
C  29.18700 53.71200 36.94500
C  28.16400 52.79500 36.40100
H  27.26000 53.35700 35.33000
N  32.79700 57.87400 39.37300
C  33.46300 56.67800 39.20600
C  34.92000 56.96700 39.08600
C  35.10400 58.37700 39.16600
C  33.76600 58.91700 39.42400
C  35.93300 55.94200 38.96500
C  36.43900 59.19600 39.14000
O  37.52500 58.55400 39.26300
C  36.47100 60.74000 39.10800
N  30.99900 60.22900 39.99200
C  32.19000 60.87000 40.01400
C  32.08100 62.36100 40.46600
C  30.51200 62.44300 40.60900
C  29.94000 61.05900 40.15000
C  32.89500 62.73400 41.80500
C  29.93900 63.56200 39.74600
C  29.98300 63.24400 38.26000
N  28.71000 58.39100 39.73800
C  27.96600 59.52300 39.91200
C  26.49700 59.17600 39.75100
C  26.50300 57.82800 39.34700
C  27.84400 57.37900 39.42700
C  25.34300 60.10000 39.89800
C  25.59800 56.67700 38.92500
O  24.41200 56.62100 38.78100
C  26.56400 55.45600 38.72800
C  26.18300 54.31500 39.56200
O  26.33400 54.24700 40.76700
O  25.50800 53.34200 38.89800
C  24.99700 52.16800 39.71500
H  33.54900 54.57200 39.09800
H  34.18000 61.11600 39.74400
H  27.91300 61.60600 40.45500
H  28.65500 53.20200 38.90500
H  31.41600 53.06600 38.06200
H  32.17700 52.34500 40.18100
H  30.40900 52.23100 40.51600
H  31.29000 53.56900 41.02900
H  30.05900 53.37100 36.38700
H  28.84900 54.66800 36.54500
H  27.42900 52.46500 37.13500
H  28.57800 51.88400 35.96800
H  35.55400 55.13700 38.33500
H  36.28700 55.51400 39.90200
H  36.86700 56.32400 38.55300
H  36.09500 60.98400 40.10200
H  35.89800 61.08200 38.24600
H  37.49100 61.08700 38.94600
H  32.49600 62.89400 39.61100
H  30.11100 62.54400 41.61700
H  33.41800 61.88900 42.25500
H  32.37600 63.18900 42.64900
H  33.70200 63.41000 41.52500
H  30.73400 64.28000 39.94600
H  28.94500 63.87400 40.06400
H  29.00000 62.89400 37.94300
H  30.62600 62.38600 38.06600
H  30.22700 64.17600 37.75000
H  25.54000 60.97400 39.27700
H  25.16000 60.33900 40.94600
H  24.48800 59.59600 39.44900
H  26.53100 55.07500 37.70800
H  24.16100 52.43900 40.36000
H  25.76800 51.76600 40.37200
H  24.49900 51.47700 39.03400

