158

Mg 41.86700 7.92200 29.48300
C  43.74600 9.46400 31.86600
C  39.61800 6.76100 31.83600
C  40.42800 6.12500 27.05600
C  44.46300 8.87000 27.12100
N  41.63700 8.27500 31.51500
C  42.50800 8.90300 32.29700
C  42.08300 8.91000 33.79300
C  40.95800 7.87800 33.82300
C  40.64800 7.61000 32.31400
C  40.98900 6.62400 34.76200
C  41.71400 10.39600 34.33100
C  41.00600 10.37800 35.67400
H  41.24400 11.46200 36.78300
N  40.14600 6.80000 29.35900
C  39.39400 6.44600 30.48500
C  38.30400 5.65900 30.01200
C  38.43200 5.51600 28.60900
C  39.73800 6.06800 28.27600
C  37.20900 5.06200 30.95600
C  37.50500 4.85100 27.54300
O  37.83700 4.76100 26.40400
C  36.16700 4.43100 27.91600
N  42.46000 7.50200 27.42400
C  41.55900 6.83000 26.60300
C  41.91000 6.89100 25.13200
C  43.04200 7.95100 25.14200
C  43.36500 8.16600 26.65400
C  42.20900 5.56900 24.31500
C  42.74700 9.23100 24.38000
C  41.78400 10.24500 25.05400
N  43.69400 8.90600 29.45700
C  44.63100 9.13800 28.45900
C  45.76800 9.84900 29.00600
C  45.45500 10.01800 30.35400
C  44.23300 9.38900 30.56700
C  46.88900 10.45000 28.23600
C  45.94700 10.59000 31.60700
O  47.03100 11.11900 31.94200
C  44.75100 10.29800 32.67100
C  45.34900 9.69700 33.85900
O  45.98100 8.63300 33.87500
O  44.99500 10.46200 34.87100
C  45.61600 10.24000 36.13800
H  38.86300 6.43800 32.55500
H  40.03800 5.43300 26.30700
H  45.04000 9.37500 26.34300
H  42.84000 8.43100 34.41400
H  40.02800 8.33500 34.16000
H  40.85800 5.69500 34.20700
H  40.05800 6.68000 35.32600
H  41.84200 6.48300 35.42600
H  41.10200 10.75300 33.50200
H  42.60500 11.00500 34.48300
H  41.07500 9.40300 36.15600
H  39.93100 10.46600 35.51800
H  36.19400 5.38200 30.72200
H  37.38600 5.47200 31.95000
H  37.35100 3.98400 31.03900
H  35.67700 4.01400 27.03600
H  35.52600 5.27300 28.17800
H  36.24300 3.83300 28.82300
H  40.99600 7.27700 24.68100
H  43.84300 7.40200 24.64800
H  43.08500 5.57500 23.66700
H  41.32400 5.45900 23.68900
H  42.34500 4.79000 25.06500
H  42.27200 8.95300 23.44000
H  43.61100 9.84500 24.12500
H  41.05300 10.57200 24.31400
H  42.38300 11.11600 25.32100
H  41.11900 9.76200 25.77000
H  47.37100 9.58800 27.77500
H  47.52100 10.86700 29.02000
H  46.43700 11.12700 27.51100
H  44.17500 11.13800 33.05700
H  44.92400 9.62200 36.70900
H  45.96900 11.19000 36.54000
H  46.53800 9.67100 36.01600
Mg 46.28100 45.26100 42.93300
C  43.09200 43.98900 42.94400
C  47.35500 41.98600 42.27800
C  49.53300 46.40800 42.67800
C  45.12200 48.43300 43.24700
N  45.33200 43.22600 42.69600
C  43.97800 42.96700 42.72300
C  43.64000 41.44400 42.53800
C  45.04700 40.86200 42.70500
C  45.99800 42.06500 42.53200
C  45.31300 40.08200 44.06100
C  43.01900 41.18000 41.13800
C  43.82900 41.70900 39.89800
H  43.99300 40.80200 38.71400
N  48.11100 44.35200 42.40100
C  48.35000 43.01700 42.24300
C  49.75800 42.88500 41.88300
C  50.36200 44.17600 41.72200
C  49.34200 45.06500 42.28500
C  50.45800 41.54500 41.61200
C  51.67500 44.56200 41.11200
O  52.46600 43.75100 40.65000
C  52.13600 45.93500 40.99200
N  47.16600 47.13500 42.82400
C  48.50700 47.29900 42.98600
C  48.84900 48.71400 43.49700
C  47.48600 49.45800 43.21700
C  46.50500 48.27000 43.10400
C  49.25600 48.63000 45.02100
C  47.39300 50.49100 42.02400
C  46.88900 51.90600 42.48300
N  44.48700 46.11200 43.22900
C  44.15600 47.43100 43.38900
C  42.68900 47.57100 43.56500
C  42.22000 46.25700 43.41300
C  43.34500 45.38900 43.23400
C  41.90300 48.81900 43.75600
C  41.12600 45.34700 43.41500
O  39.91700 45.51200 43.64100
C  41.59200 43.85100 43.19700
C  41.35800 43.16700 44.50900
O  41.99300 43.26900 45.56100
O  40.14400 42.43500 44.46400
C  39.61200 42.02200 45.79700
H  47.74200 40.96900 42.17600
H  50.53400 46.65000 43.03900
H  44.84000 49.47700 43.39400
H  42.93400 41.18700 43.32700
H  45.21900 40.10700 41.93700
H  44.66100 40.27800 44.91200
H  46.22800 40.48200 44.50000
H  45.46600 39.02800 43.82800
H  42.03800 41.65600 41.14800
H  42.93100 40.09900 41.02500
H  44.87400 41.95100 40.09000
H  43.29900 42.63400 39.67100
H  50.24200 41.23000 40.59200
H  50.18100 40.83600 42.39300
H  51.53600 41.68700 41.67900
H  51.35900 46.55000 40.53800
H  53.14800 46.02300 40.59700
H  52.18400 46.35200 41.99800
H  49.69600 49.10100 42.93200
H  47.15700 49.99000 44.11000
H  48.94900 47.71000 45.51800
H  48.85500 49.51600 45.51300
H  50.33700 48.75200 45.09300
H  46.66300 50.11100 41.30900
H  48.41800 50.49900 41.65500
H  47.83300 52.44700 42.54800
H  46.29500 51.81500 43.39200
H  46.35800 52.43300 41.69000
H  42.19400 49.22800 44.72400
H  40.83200 48.63000 43.81900
H  42.02500 49.49200 42.90600
H  41.13300 43.37100 42.33300
H  39.04100 41.14600 45.48800
H  39.17200 42.83100 46.38100
H  40.40300 41.57400 46.39900

