158

Mg 48.07400 34.12400 25.24200
C  46.16200 32.67200 27.80100
C  48.58200 36.75300 27.27100
C  48.95400 35.77700 22.53900
C  47.29000 31.36200 23.21000
N  47.47900 34.63500 27.25900
C  46.79900 33.84100 28.18200
C  47.04400 34.31000 29.62600
C  47.37600 35.79100 29.34800
C  47.84400 35.73900 27.87200
C  46.22600 36.91400 29.60100
C  48.20100 33.60400 30.45000
C  47.93100 33.42400 31.94500
H  46.91200 34.30900 32.66000
N  48.83100 35.92000 24.95900
C  48.97500 36.93800 25.90900
C  49.79900 38.02200 25.37200
C  49.91400 37.78000 23.93400
C  49.11000 36.48700 23.73100
C  50.43000 39.08300 26.18000
C  50.62800 38.60600 22.87000
O  50.62300 38.38500 21.68300
C  51.48400 39.85000 23.29400
N  48.19200 33.65700 23.20100
C  48.55000 34.48900 22.24000
C  48.57800 33.84800 20.80700
C  48.40100 32.36100 21.14400
C  47.91600 32.48600 22.60600
C  47.62300 34.50700 19.77700
C  49.61000 31.33000 20.98300
C  49.80300 30.82000 19.52000
N  46.83000 32.30900 25.37800
C  46.61200 31.30900 24.43400
C  45.64300 30.39500 25.03400
C  45.44200 30.80400 26.37000
C  46.15200 32.03200 26.48100
C  45.12900 29.12100 24.35700
C  44.78600 30.57500 27.64900
O  44.03300 29.66200 27.98200
C  45.28200 31.66100 28.60000
C  45.98000 30.94800 29.71300
O  46.96100 30.16700 29.64900
O  45.25700 31.11000 30.82800
C  45.57800 30.35200 32.10900
H  49.01100 37.64700 27.73000
H  49.35900 36.19400 21.61500
H  47.29800 30.41000 22.67600
H  46.13600 34.36500 30.22700
H  48.19800 36.09600 29.99600
H  45.82600 37.29900 28.66300
H  46.54000 37.78400 30.17800
H  45.43600 36.40200 30.15100
H  49.14900 34.13600 30.36800
H  48.16000 32.53900 30.22300
H  48.86700 33.58800 32.47900
H  47.53900 32.41700 32.08800
H  50.58200 38.87900 27.24000
H  49.87300 40.01600 26.09400
H  51.41500 39.18600 25.72500
H  52.25400 39.47100 23.96600
H  50.71000 40.40800 23.82100
H  51.89200 40.42300 22.46100
H  49.56600 33.85500 20.34700
H  47.63500 31.99800 20.45900
H  47.07800 35.31500 20.26500
H  46.88500 33.87400 19.28500
H  48.29500 34.88900 19.00900
H  49.50300 30.42900 21.58700
H  50.53600 31.78800 21.33000
H  49.23400 31.38200 18.77900
H  49.60000 29.75100 19.57000
H  50.87200 30.92100 19.33200
H  45.82500 28.28800 24.44900
H  44.83000 29.41800 23.35200
H  44.29800 28.74500 24.95400
H  44.40200 32.14100 29.03000
H  46.66200 30.34200 32.22900
H  45.14800 29.37300 31.89800
H  44.98100 30.77200 32.91800
Mg 17.10500 52.21900 26.55500
C  18.89400 50.86300 29.36000
C  14.60800 53.08500 28.81300
C  15.56700 53.34100 24.07500
C  19.64600 50.88300 24.51600
N  16.81800 52.12300 28.83900
C  17.64600 51.51900 29.72800
C  17.17900 51.79100 31.14300
C  15.69800 52.24400 30.95100
C  15.69700 52.51100 29.48500
C  14.53800 51.25600 31.31700
C  18.17400 52.88700 31.81700
C  18.22500 52.71100 33.38000
H  17.10900 51.99700 34.11900
N  15.34400 53.15100 26.44900
C  14.44000 53.40500 27.46700
C  13.25100 54.02900 26.87700
C  13.47400 54.15100 25.43800
C  14.83800 53.51400 25.23100
C  12.17900 54.59900 27.72400
C  12.60200 54.71400 24.31200
O  13.05700 54.78600 23.14800
C  11.24100 55.28700 24.59900
N  17.52800 51.99600 24.53600
C  16.74800 52.80400 23.72100
C  17.40000 53.00900 22.33900
C  18.79700 52.21300 22.50900
C  18.69600 51.67700 23.94900
C  16.51100 52.64700 21.09000
C  20.03700 53.02000 22.40800
C  21.29300 52.17800 21.92300
N  18.94100 51.00200 26.84200
C  19.81500 50.59500 25.90200
C  20.95200 49.95800 26.55000
C  20.60100 50.00300 27.94200
C  19.39200 50.68100 28.06200
C  22.16300 49.40600 25.78500
C  21.02700 49.63100 29.27500
O  22.08200 49.09600 29.72200
C  19.99300 50.29300 30.25200
C  19.45300 49.27600 31.16700
O  18.70800 48.36900 30.83400
O  19.90200 49.53400 32.44500
C  19.42700 48.63200 33.56600
H  13.70100 53.29600 29.38300
H  15.08500 53.84300 23.23300
H  20.53500 50.50600 24.00500
H  17.32800 50.84400 31.66200
H  15.55200 53.15400 31.53200
H  15.04200 50.38100 31.72900
H  14.05600 51.03200 30.36600
H  13.82400 51.65300 32.03900
H  17.64900 53.80700 31.56300
H  19.16900 52.84200 31.37300
H  18.31900 53.76300 33.65200
H  19.18700 52.23200 33.56300
H  11.41100 55.29500 27.38700
H  12.66500 55.02400 28.60200
H  11.68900 53.72500 28.15400
H  10.56700 54.53500 25.01000
H  10.82300 55.60200 23.64300
H  11.12000 56.14100 25.26600
H  17.53200 54.08700 22.25200
H  18.81800 51.32800 21.87400
H  16.91700 51.98400 20.32600
H  16.03600 53.53600 20.67500
H  15.65000 52.14600 21.53300
H  20.31100 53.33000 23.41700
H  19.97500 53.78600 21.63400
H  22.13900 52.45200 22.55200
H  21.35700 52.48400 20.87900
H  21.25300 51.09900 21.76800
H  22.29000 49.76000 24.76200
H  22.06700 48.32500 25.88800
H  23.05200 49.70700 26.33900
H  20.51600 51.02800 30.86500
H  20.13900 47.83500 33.78100
H  18.44500 48.21500 33.34200
H  19.24200 49.25000 34.44500

