158

Mg 23.64800 -4.03200 45.87100
C  26.08300 -2.02200 44.16800
C  21.36400 -3.21300 43.49300
C  21.83000 -6.85800 46.75100
C  26.47700 -5.46700 47.52800
N  23.68600 -2.67000 44.16700
C  24.74000 -1.93500 43.66500
C  24.30800 -1.06900 42.51700
C  22.69900 -1.17000 42.64600
C  22.56300 -2.41000 43.49600
C  22.02700 0.06500 43.32200
C  24.90300 -1.51800 41.12100
C  25.76100 -0.48300 40.38700
H  25.53700 -0.44600 38.86900
N  21.77200 -4.73900 45.39600
C  20.98400 -4.26100 44.29800
C  19.81400 -4.95600 44.16900
C  19.95700 -5.95900 45.17000
C  21.23200 -5.92700 45.84900
C  18.58200 -4.48300 43.34800
C  18.87100 -6.98400 45.31800
O  17.92000 -7.03000 44.52100
C  18.99700 -8.04200 46.38900
N  24.10400 -5.93800 46.95400
C  23.17600 -6.84100 47.24800
C  23.78100 -7.99200 48.15500
C  25.10800 -7.32800 48.69800
C  25.26800 -6.26100 47.58200
C  22.78500 -8.50300 49.24100
C  26.32600 -8.23000 48.92000
C  27.10500 -8.14000 50.26000
N  25.77100 -3.73500 45.93200
C  26.74100 -4.32500 46.71500
C  27.98500 -3.65900 46.54400
C  27.78200 -2.74900 45.52600
C  26.42000 -2.83700 45.18200
C  29.25000 -3.97600 47.31400
C  28.37800 -1.75800 44.70400
O  29.55500 -1.34200 44.64400
C  27.27200 -1.24200 43.75200
C  27.09800 0.25800 43.83100
O  26.39400 0.85400 44.64000
O  27.97500 0.92000 43.05100
C  27.89200 2.36000 43.08200
H  20.57500 -2.90600 42.80200
H  21.27200 -7.66500 47.23000
H  27.29300 -5.74800 48.19800
H  24.63700 -0.05400 42.73700
H  22.13800 -1.37800 41.73400
H  22.76600 0.68200 43.83300
H  21.30500 -0.33500 44.03400
H  21.45900 0.72900 42.66900
H  24.05700 -1.64500 40.44500
H  25.38800 -2.49000 41.21400
H  26.77700 -0.85600 40.52100
H  25.58400 0.46700 40.89000
H  18.31800 -5.23800 42.60800
H  18.75600 -3.48800 42.93800
H  17.75700 -4.33300 44.04400
H  19.78500 -8.64400 45.93700
H  18.02900 -8.54200 46.43100
H  19.14400 -7.59600 47.37300
H  24.09700 -8.74800 47.43600
H  24.80400 -6.67000 49.51200
H  22.43600 -9.45300 48.83600
H  21.85600 -7.98800 49.48600
H  23.30600 -8.67600 50.18300
H  27.02300 -7.98200 48.12000
H  26.09200 -9.28700 48.79900
H  26.89400 -7.37600 51.00900
H  28.17500 -8.13500 50.05500
H  26.90300 -9.09500 50.74600
H  29.07400 -3.86100 48.38300
H  29.95800 -3.20100 47.01900
H  29.58700 -4.98900 47.09600
H  27.71800 -1.48200 42.78700
H  28.58900 2.73100 42.33200
H  28.10700 2.64100 44.11300
H  26.91800 2.77400 42.82000
Mg 34.90800 2.49000 29.58800
C  32.84300 3.73000 32.11000
C  37.42600 2.32000 31.81200
C  37.10800 1.93200 26.97800
C  32.40700 3.38700 27.23400
N  35.10000 2.85500 31.70300
C  34.08200 3.27300 32.55900
C  34.56800 3.33500 33.99300
C  36.16600 3.19400 33.79000
C  36.22700 2.76600 32.35300
C  37.03700 4.46400 34.06300
C  33.83600 2.45900 34.97300
C  33.52300 3.03100 36.37100
H  34.59100 3.89900 37.04800
N  37.00500 2.02700 29.39300
C  37.79600 1.93800 30.53300
C  39.13100 1.59100 30.05800
C  39.09700 1.48500 28.60600
C  37.72200 1.74300 28.23300
C  40.31000 1.50300 31.01500
C  40.27700 1.28100 27.67600
O  40.18700 1.46700 26.47400
C  41.61500 0.84200 28.21900
N  34.79900 2.57400 27.46200
C  35.78400 2.30300 26.60600
C  35.37600 2.43600 25.19100
C  33.77500 2.41300 25.27500
C  33.61600 2.79000 26.73700
C  35.88600 3.74800 24.49600
C  33.12500 1.00100 25.03100
C  31.88000 0.86000 24.05300
N  32.95700 3.28400 29.65600
C  32.07800 3.58900 28.63200
C  30.82700 4.08400 29.19000
C  31.10600 4.09800 30.58900
C  32.39600 3.69400 30.79000
C  29.61600 4.58300 28.42200
C  30.53700 4.48600 31.81600
O  29.38800 4.93900 31.99800
C  31.69400 4.31200 32.94000
C  31.94500 5.65900 33.55700
O  32.88000 6.37900 33.20300
O  31.11300 5.97500 34.56400
C  31.46600 7.10400 35.45800
H  38.24600 2.31900 32.53300
H  37.86400 1.74000 26.21400
H  31.59100 3.49400 26.51500
H  34.47900 4.37800 34.29700
H  36.68900 2.41600 34.34700
H  37.54500 4.78300 33.15200
H  37.82900 4.11100 34.72300
H  36.51300 5.31700 34.49400
H  34.24500 1.44900 35.00000
H  32.87400 2.26100 34.50200
H  33.49100 2.25600 37.13700
H  32.62900 3.65000 36.30500
H  40.06900 1.75500 32.04800
H  41.24000 2.03500 30.81800
H  40.54100 0.44000 30.95200
H  42.27400 0.73900 27.35700
H  41.74300 -0.06500 28.81000
H  42.10200 1.63600 28.78400
H  35.63000 1.55600 24.60000
H  33.28600 3.20300 24.70500
H  36.40600 4.40300 25.19400
H  34.98600 4.25300 24.14600
H  36.65400 3.49500 23.76500
H  32.83400 0.53400 25.97200
H  33.89200 0.29700 24.70800
H  31.06100 0.31100 24.51600
H  32.33400 0.31300 23.22700
H  31.52500 1.83800 23.72700
H  29.20800 3.75400 27.84500
H  30.03000 5.26100 27.67400
H  28.89100 5.09300 29.05600
H  31.32800 3.65800 33.73200
H  30.81500 7.97800 35.45100
H  32.47500 7.44300 35.22000
H  31.35600 6.68700 36.45900

