158

Mg 2.60600 -3.04100 44.66900
C  5.93000 -2.18500 44.44200
C  1.75500 -0.82300 42.36100
C  -0.52900 -4.23300 44.94600
C  3.71500 -5.68200 46.83100
N  3.75300 -1.75100 43.43400
C  5.08200 -1.51600 43.50900
C  5.57500 -0.39100 42.50400
C  4.21800 0.06700 41.88000
C  3.16100 -0.80700 42.67900
C  3.77500 1.55900 41.96400
C  6.62900 -0.93800 41.43600
C  7.85300 -0.11300 41.15000
H  7.94100 0.37000 39.60500
N  0.81100 -2.72200 43.62000
C  0.67000 -1.58500 42.86700
C  -0.71600 -1.51800 42.39800
C  -1.44300 -2.51800 43.19700
C  -0.40000 -3.14300 44.03100
C  -1.29900 -0.48600 41.33000
C  -2.97300 -2.72600 43.25900
O  -3.74900 -2.21000 42.45900
C  -3.61600 -3.52200 44.31500
N  1.66200 -4.80800 45.70300
C  0.38100 -5.00900 45.63400
C  -0.03600 -6.28700 46.33400
C  1.35100 -6.89100 46.73400
C  2.36100 -5.76400 46.42100
C  -0.97800 -5.92300 47.49900
C  1.71100 -8.27900 45.96400
C  1.50900 -9.61800 46.67600
N  4.40700 -3.77100 45.59000
C  4.65300 -4.80400 46.39000
C  5.99600 -4.74400 46.82600
C  6.58300 -3.67400 46.11400
C  5.56600 -3.25400 45.26200
C  6.57600 -5.68000 47.76100
C  7.81600 -2.98600 45.79400
O  8.94100 -3.08300 46.28600
C  7.43600 -1.92800 44.74900
C  7.53500 -0.52200 45.27300
O  7.03400 -0.05700 46.28200
O  8.39500 0.18700 44.46700
C  8.65100 1.62000 44.85100
H  1.50900 -0.18600 41.51000
H  -1.48500 -4.71800 45.15100
H  3.99300 -6.47200 47.53200
H  6.06100 0.34400 43.14500
H  4.23300 -0.24600 40.83600
H  3.55800 1.97500 40.98100
H  4.65600 2.05500 42.37200
H  2.89600 1.76500 42.57400
H  6.10900 -1.35300 40.57300
H  7.01500 -1.90200 41.76700
H  8.73800 -0.65400 41.48500
H  7.90000 0.81400 41.72000
H  -1.73700 0.30200 41.94300
H  -2.20600 -0.89100 40.88100
H  -0.56300 -0.05000 40.65500
H  -3.43300 -4.54500 43.98700
H  -4.68700 -3.32300 44.27800
H  -3.22500 -3.28000 45.30300
H  -0.56900 -6.90000 45.60800
H  1.47400 -6.98800 47.81300
H  -0.86400 -6.65300 48.30000
H  -2.01300 -6.17200 47.26400
H  -0.95400 -4.87600 47.80100
H  2.71200 -8.16100 45.55000
H  1.09500 -8.22200 45.06600
H  1.33500 -9.48400 47.74400
H  2.41600 -10.16300 46.41700
H  0.67300 -10.13700 46.20600
H  6.84200 -6.50400 47.09800
H  5.90700 -5.96400 48.57300
H  7.42300 -5.33700 48.35500
H  8.13900 -2.16900 43.95200
H  8.31600 1.96700 45.82800
H  8.12600 2.27400 44.15600
H  9.68400 1.96200 44.78200
Mg 39.62500 9.88900 30.51500
C  41.67600 11.16000 33.18000
C  37.53100 8.73300 32.89500
C  38.01700 8.48500 28.03800
C  42.34000 10.75000 28.27800
N  39.63700 9.97400 32.78900
C  40.52300 10.54900 33.68000
C  40.03300 10.52000 35.19700
C  38.84900 9.47700 35.01600
C  38.59300 9.44100 33.42600
C  39.10100 8.07400 35.55000
C  39.63300 11.88600 35.85100
C  40.40400 12.22500 37.11500
H  39.57600 12.67400 38.28500
N  38.05300 8.67400 30.43700
C  37.29100 8.38700 31.52500
C  36.15100 7.63900 31.09900
C  36.28000 7.55600 29.68000
C  37.52400 8.20500 29.34300
C  34.98000 7.05500 31.96400
C  35.44100 6.75000 28.71500
O  35.74600 6.58100 27.53300
C  34.20900 6.16100 29.17700
N  40.12900 9.61800 28.39000
C  39.16800 9.15500 27.65700
C  39.65700 9.21600 26.10000
C  41.13000 9.75200 26.22000
C  41.22200 10.10100 27.72000
C  39.46000 7.92600 25.29400
C  41.51900 10.97700 25.16300
C  40.78500 12.25500 25.37900
N  41.45700 10.90400 30.59800
C  42.45100 11.11600 29.66400
C  43.55800 11.86300 30.25100
C  43.22100 11.92000 31.58900
C  41.99300 11.27500 31.81200
C  44.61400 12.49200 29.39900
C  43.66700 12.48100 32.91500
O  44.61700 13.15400 33.17900
C  42.60900 11.96200 33.99500
C  43.50700 11.19600 34.88100
O  43.82800 10.02300 34.77200
O  43.77200 11.92400 35.97200
C  44.76900 11.31400 36.93400
H  36.82000 8.43500 33.66900
H  37.41100 8.15000 27.19400
H  43.18100 11.03100 27.64000
H  40.92500 10.15300 35.70600
H  37.94400 9.87300 35.47700
H  38.98400 8.10900 36.63300
H  40.13400 7.74600 35.43500
H  38.36200 7.37600 35.15600
H  38.55200 11.89500 35.99500
H  39.76300 12.69200 35.12800
H  40.98300 13.12100 36.89000
H  41.12800 11.45400 37.37800
H  35.05400 7.49900 32.95700
H  35.10100 5.98300 32.11800
H  33.99900 7.36700 31.60600
H  33.83400 5.55400 28.35300
H  33.39200 6.85900 29.36100
H  34.44700 5.49300 30.00600
H  39.08600 9.99300 25.59300
H  41.86100 8.95600 26.08000
H  39.23200 7.07800 25.94000
H  40.30700 7.66400 24.66100
H  38.64200 7.87300 24.57600
H  41.22900 10.62600 24.17200
H  42.59300 11.16100 25.17100
H  40.02400 12.28400 26.15900
H  40.35300 12.67500 24.47100
H  41.54100 12.99900 25.62800
H  45.02000 13.37600 29.89000
H  44.34900 12.72000 28.36600
H  45.44200 11.79200 29.50300
H  42.26700 12.82400 34.56800
H  45.68200 11.15500 36.35900
H  44.44800 10.37500 37.38500
H  45.04200 12.07000 37.67000

