158

Mg 36.06400 1.36200 29.82800
C  33.63700 2.01700 32.35500
C  38.43300 1.50400 32.32900
C  38.22000 0.49100 27.46700
C  33.51000 1.48700 27.46300
N  36.01500 1.71900 32.05700
C  34.93900 1.86400 32.86400
C  35.39600 2.00100 34.32600
C  36.88300 1.97100 34.24900
C  37.14400 1.82100 32.77400
C  37.53600 3.18900 34.82700
C  34.61200 0.89600 35.18400
C  34.33000 1.16500 36.72000
H  34.95400 2.41600 37.34500
N  38.06000 0.95200 29.90300
C  38.79700 1.09700 31.02600
C  40.14900 0.75900 30.64500
C  40.18200 0.47100 29.23100
C  38.77100 0.59400 28.78400
C  41.25800 0.64900 31.68400
C  41.39600 0.13700 28.32100
O  41.26100 -0.03700 27.07600
C  42.81700 -0.09000 28.83300
N  35.87800 0.99300 27.82400
C  36.91100 0.53500 27.02500
C  36.54500 0.22600 25.53100
C  35.07300 0.70300 25.55900
C  34.77000 1.04800 27.08200
C  37.38700 1.01700 24.45100
C  34.10200 -0.30300 24.78300
C  33.42700 -1.49400 25.58600
N  33.97700 1.97000 29.76300
C  33.05600 1.78900 28.78100
C  31.78500 2.13600 29.22300
C  31.93000 2.11200 30.62800
C  33.28400 2.06400 30.95600
C  30.50700 2.15400 28.47600
C  31.25900 2.22100 31.90400
O  30.09100 2.43500 32.03100
C  32.28200 2.12500 33.04700
C  32.15300 3.39000 33.90300
O  32.35400 4.54400 33.53100
O  31.69700 2.98700 35.09700
C  31.19700 4.03800 35.93900
H  39.23300 1.45200 33.07100
H  38.84200 0.11600 26.65100
H  32.77900 1.61700 26.66200
H  35.00800 2.97500 34.62200
H  37.30000 1.14000 34.81800
H  36.80800 3.98900 34.68900
H  38.44100 3.32900 34.23600
H  37.83300 2.92500 35.84200
H  35.22300 -0.00000 35.08000
H  33.68700 0.46900 34.79600
H  34.74100 0.36500 37.33500
H  33.25900 1.14400 36.92300
H  41.66300 -0.36300 31.71800
H  41.04100 0.88500 32.72600
H  42.08600 1.31100 31.43500
H  42.85600 -1.08400 29.28000
H  43.12100 0.68400 29.53700
H  43.56700 -0.00400 28.04600
H  36.60400 -0.86300 25.54400
H  34.92900 1.62800 25.00100
H  38.07700 1.76100 24.84800
H  36.82800 1.54000 23.67400
H  37.79400 0.23400 23.81200
H  34.66400 -0.76900 23.97400
H  33.23500 0.15200 24.30600
H  32.35300 -1.37200 25.72900
H  33.76900 -1.57900 26.61700
H  33.60300 -2.44600 25.08400
H  29.84200 1.29800 28.59100
H  30.64500 2.44300 27.43400
H  29.95800 3.03000 28.82300
H  32.03000 1.27200 33.67600
H  31.14500 5.00200 35.43300
H  31.73200 4.15900 36.88100
H  30.16500 3.74500 36.13200
Mg -4.53700 24.65100 26.96600
C  -2.91300 26.52900 29.43100
C  -5.47700 22.43700 29.42800
C  -6.00300 22.80600 24.67900
C  -3.13900 26.74700 24.54900
N  -4.26600 24.54800 29.19000
C  -3.70200 25.47600 29.95200
C  -4.07100 25.22500 31.43400
C  -4.77600 23.84900 31.46800
C  -4.84600 23.56700 29.92200
C  -3.91700 22.75200 31.99100
C  -4.90800 26.35200 32.08600
C  -4.58100 26.51500 33.61800
H  -5.64300 26.11600 34.64900
N  -5.46200 22.75100 27.04400
C  -5.75000 21.97900 28.10100
C  -6.41900 20.79200 27.77700
C  -6.51000 20.81000 26.33400
C  -6.00300 22.14500 25.91100
C  -6.76200 19.73300 28.87600
C  -6.97400 19.73000 25.34700
O  -7.01100 19.97200 24.13300
C  -7.28000 18.39700 25.84100
N  -4.61000 24.82900 24.86800
C  -5.33200 23.91400 24.16800
C  -5.15000 24.10400 22.72100
C  -4.12700 25.36400 22.59100
C  -3.99500 25.70400 24.10800
C  -4.77900 22.84000 21.94700
C  -4.78000 26.53200 21.83400
C  -3.78600 27.41100 21.03000
N  -3.24200 26.28700 26.92400
C  -2.83600 27.07500 25.90200
C  -2.08400 28.26500 26.40000
C  -2.07800 28.05600 27.78400
C  -2.77100 26.82000 28.04800
C  -1.47400 29.38100 25.64800
C  -1.68100 28.63000 29.05700
O  -1.14900 29.67900 29.39600
C  -2.20600 27.64900 30.12800
C  -1.05200 27.14400 30.89200
O  -0.28100 26.20900 30.59900
O  -1.05000 27.80300 32.07600
C  0.06800 27.28300 32.94500
H  -6.01400 21.86600 30.18900
H  -6.45200 22.13100 23.94700
H  -2.76800 27.39500 23.75300
H  -3.07900 25.12300 31.87500
H  -5.77100 23.77700 31.90700
H  -3.24600 23.12300 32.76600
H  -3.42000 22.23600 31.17000
H  -4.54400 22.08000 32.57700
H  -5.97200 26.20800 31.89800
H  -4.73800 27.29500 31.56600
H  -4.29800 27.55900 33.75400
H  -3.73000 25.90000 33.91100
H  -5.89000 19.28300 29.35100
H  -7.36700 18.96700 28.39100
H  -7.35200 20.15200 29.69100
H  -8.22200 18.41200 26.39000
H  -6.52800 17.96900 26.50400
H  -7.25600 17.74000 24.97200
H  -6.11900 24.57600 22.55700
H  -3.15400 25.09900 22.17600
H  -4.15000 22.18000 22.54500
H  -4.28100 23.04900 21.00000
H  -5.69600 22.43900 21.51700
H  -5.09700 27.29700 22.54200
H  -5.65200 26.23800 21.25000
H  -3.59500 28.40200 21.44200
H  -4.04300 27.44500 19.97100
H  -2.83500 26.88400 20.96000
H  -0.68400 28.97400 25.01800
H  -1.02000 30.08000 26.35100
H  -2.27700 29.74100 25.00600
H  -2.87000 28.24800 30.75100
H  1.06300 27.54900 32.58900
H  0.06000 26.21400 33.16100
H  -0.15200 27.83800 33.85700

