158

Mg 36.80400 49.29400 25.00700
C  36.73600 47.29300 27.84800
C  35.40100 51.85800 26.96700
C  36.13400 51.08300 22.28200
C  37.71800 46.59800 23.12100
N  36.14900 49.45300 27.13700
C  36.23700 48.56200 28.18300
C  36.01400 49.13600 29.53200
C  35.47900 50.56400 29.14000
C  35.65600 50.64100 27.61600
C  34.04600 50.95000 29.60400
C  37.29700 49.23500 30.47200
C  37.00700 48.72000 31.88000
H  35.68500 49.09400 32.54300
N  36.01000 51.27700 24.65200
C  35.54400 52.12800 25.58400
C  35.06300 53.34400 24.88500
C  35.32600 53.17300 23.48100
C  35.81500 51.82300 23.44000
C  34.42700 54.47400 25.61800
C  35.08800 54.17000 22.38200
O  35.35600 53.98600 21.18500
C  34.51500 55.58800 22.65900
N  36.75200 48.83700 22.99900
C  36.56900 49.77500 22.04900
C  37.01300 49.38900 20.67100
C  37.70800 48.00400 20.99000
C  37.37200 47.79900 22.48700
C  35.75400 49.17200 19.75800
C  39.17900 47.88600 20.59300
C  39.62900 46.59700 19.90400
N  37.07000 47.32200 25.32500
C  37.47000 46.32900 24.45700
C  37.65400 45.03800 25.27300
C  37.42800 45.46400 26.55600
C  37.08900 46.79600 26.55500
C  38.13000 43.72200 24.76600
C  37.41300 44.94300 27.91300
O  37.75800 43.88900 28.40000
C  36.93900 46.13600 28.79700
C  35.78000 45.70800 29.62900
O  34.62800 45.48800 29.28500
O  36.21000 45.46400 30.88900
C  35.19100 45.03500 31.80200
H  34.94100 52.62500 27.59400
H  36.25700 51.73400 21.41400
H  38.05900 45.70000 22.60100
H  35.24100 48.53000 30.00500
H  36.08900 51.40200 29.47700
H  34.15200 51.71200 30.37600
H  33.62800 50.03000 30.01200
H  33.45100 51.45700 28.84400
H  37.75000 50.22400 30.55400
H  38.05400 48.58200 30.03800
H  37.85400 49.05300 32.47900
H  37.11900 47.64500 31.74200
H  35.00300 55.39300 25.72900
H  34.36200 54.21400 26.67400
H  33.44200 54.65400 25.18500
H  33.51500 55.38800 23.04500
H  34.36000 56.14500 21.73500
H  35.17400 56.07800 23.37600
H  37.71500 50.15300 20.33800
H  37.13500 47.20400 20.52000
H  34.87300 49.34300 20.37600
H  35.69500 48.18800 19.29200
H  35.88400 50.01500 19.07900
H  39.83700 47.97700 21.45700
H  39.51800 48.64900 19.89300
H  39.86600 46.84500 18.87000
H  38.95400 45.74100 19.90000
H  40.54200 46.26600 20.39900
H  37.35400 43.15700 24.25000
H  38.47400 43.14500 25.62500
H  38.97100 43.80200 24.07800
H  37.76800 46.14100 29.50400
H  35.59500 44.83300 32.79400
H  34.82800 44.14300 31.29000
H  34.51000 45.87900 31.91200
Mg -11.10100 16.27900 42.24200
C  -7.79700 17.29600 42.28200
C  -11.89500 19.77700 41.47800
C  -14.32600 15.48400 41.50400
C  -10.27500 12.93500 42.39100
N  -9.96000 18.25900 41.78300
C  -8.62900 18.38700 41.98600
C  -8.22200 19.90200 41.81500
C  -9.57800 20.59700 42.10200
C  -10.50900 19.51100 41.75000
C  -9.85100 21.16900 43.57300
C  -7.70900 20.05400 40.32900
C  -6.20000 20.43500 40.10200
H  -5.36800 19.44800 39.26500
N  -12.88000 17.38400 41.47800
C  -12.93600 18.77400 41.32000
C  -14.20500 19.03600 40.73400
C  -14.97300 17.82500 40.65500
C  -14.10300 16.85200 41.24900
C  -14.53600 20.36000 40.27000
C  -16.37800 17.63800 40.03300
O  -16.97500 18.56700 39.52500
C  -17.03800 16.26000 40.00500
N  -12.03700 14.52800 41.74000
C  -13.40100 14.51100 41.81000
C  -13.89100 13.15700 42.43000
C  -12.63500 12.26200 42.10500
C  -11.55200 13.30800 42.06700
C  -14.36700 13.21600 43.86600
C  -12.73000 11.59400 40.76300
C  -12.48100 10.06500 40.88300
N  -9.45200 15.23100 42.53700
C  -9.21500 13.89100 42.46400
C  -7.77400 13.64300 42.56100
C  -7.19600 15.01500 42.66600
C  -8.28300 15.91900 42.45200
C  -7.06300 12.37100 42.58400
C  -5.91700 15.74700 42.71100
O  -4.79000 15.30000 42.90300
C  -6.27700 17.27700 42.61900
C  -5.98800 17.98900 43.95100
O  -6.30200 17.51600 45.02500
O  -5.32600 19.14000 43.70300
C  -5.37600 20.19600 44.73300
H  -12.22500 20.81400 41.38500
H  -15.32400 15.04400 41.46500
H  -9.90700 11.91900 42.54700
H  -7.37000 20.11200 42.46200
H  -9.70000 21.40600 41.38200
H  -8.91400 20.86200 44.03600
H  -10.63300 20.67700 44.15200
H  -9.97100 22.24300 43.42800
H  -8.36300 20.78300 39.85100
H  -7.85300 19.12300 39.78100
H  -5.73900 20.61900 41.07200
H  -6.11200 21.40000 39.60300
H  -14.85800 21.03400 41.06400
H  -15.22000 20.43900 39.42600
H  -13.62200 20.76400 39.83400
H  -18.02800 16.21700 39.55200
H  -17.29700 15.99400 41.03000
H  -16.39300 15.52300 39.52600
H  -14.72600 12.79600 41.83000
H  -12.39800 11.41600 42.75100
H  -15.43300 12.99100 43.86000
H  -14.40400 14.18000 44.37300
H  -13.76800 12.54600 44.48300
H  -12.07300 11.91000 39.95300
H  -13.72800 11.68400 40.33600
H  -13.21400 9.49800 40.30900
H  -12.45100 9.56200 41.84900
H  -11.55600 9.97100 40.31500
H  -7.74600 11.59700 42.23200
H  -6.81000 12.35900 43.64400
H  -6.15300 12.36200 41.98500
H  -5.67700 17.69600 41.81100
H  -4.41700 20.71400 44.70000
H  -5.50600 19.82000 45.74700
H  -6.23600 20.84900 44.58600

