158

Mg 24.86300 1.20600 29.97700
C  26.99900 1.32400 32.65500
C  22.21200 1.49300 32.10600
C  23.12200 1.28900 27.30700
C  27.75400 0.47800 27.93000
N  24.62800 1.58300 32.11300
C  25.64800 1.63100 33.00400
C  25.11500 1.89600 34.44000
C  23.60400 1.84200 34.19600
C  23.41900 1.57600 32.76700
C  22.81000 0.97200 35.26600
C  25.67700 3.15500 35.17500
C  26.30500 2.87200 36.54100
H  26.00000 3.82700 37.71300
N  22.88900 1.04100 29.77700
C  21.91800 1.31500 30.71800
C  20.58400 1.38500 30.09500
C  20.88100 1.26900 28.65700
C  22.37000 1.22400 28.50600
C  19.33400 1.66800 30.84300
C  19.92200 1.21900 27.52100
O  20.22800 1.18600 26.33900
C  18.48600 1.44400 27.89100
N  25.39800 0.70400 27.83800
C  24.47800 1.05400 27.01600
C  25.01200 1.20500 25.56300
C  26.52800 0.70400 25.67300
C  26.59600 0.52400 27.22400
C  24.15100 0.36100 24.49000
C  27.68100 1.63700 25.09200
C  28.40100 1.02700 23.85200
N  26.92500 0.85300 30.21900
C  27.91600 0.54800 29.29100
C  29.19700 0.42000 29.98800
C  28.89000 0.68400 31.28100
C  27.49300 1.00900 31.39000
C  30.50800 -0.00100 29.51100
C  29.44300 0.83200 32.62600
O  30.58100 0.72800 33.01700
C  28.23000 1.21100 33.53500
C  27.98000 0.21600 34.60500
O  27.44100 -0.85300 34.38500
O  28.53500 0.65700 35.78900
C  28.45400 -0.33400 36.85900
H  21.34700 1.67100 32.74800
H  22.64800 1.62700 26.38300
H  28.69600 0.41500 27.38300
H  25.34900 0.97200 34.96900
H  23.24300 2.86200 34.33100
H  23.43500 0.85300 36.15100
H  22.75500 -0.01900 34.81400
H  21.78300 1.28100 35.45900
H  25.00900 4.01500 35.21700
H  26.45900 3.42700 34.46600
H  27.37900 2.78400 36.37600
H  25.92600 1.91200 36.89300
H  19.46300 1.96200 31.88500
H  18.68200 0.79400 30.86900
H  18.81400 2.52900 30.42300
H  18.11100 0.67400 28.56500
H  17.91000 1.58700 26.97600
H  18.54800 2.34300 28.50400
H  24.95500 2.26700 25.32400
H  26.56500 -0.34500 25.37800
H  23.46300 -0.31400 24.99900
H  24.86700 -0.18300 23.87400
H  23.60000 1.08600 23.89200
H  28.39500 1.92300 25.86400
H  27.12500 2.54000 24.83900
H  29.45800 0.86200 24.05900
H  28.33500 1.72600 23.01800
H  28.02000 0.05100 23.55100
H  31.25200 0.60400 30.03000
H  30.62000 0.12400 28.43400
H  30.70200 -1.05500 29.70800
H  28.33000 2.12900 34.11400
H  29.32000 -0.40500 37.51600
H  28.47200 -1.35700 36.48300
H  27.55100 -0.28800 37.46800
Mg 30.53100 57.09000 39.99700
C  27.83000 55.04100 38.92500
C  32.59800 54.41200 39.25300
C  33.24800 59.17100 40.37300
C  28.43000 59.64700 40.28400
N  30.22200 55.07800 39.07500
C  29.06800 54.45300 38.67700
C  29.33700 53.07100 38.07200
C  30.65300 52.83200 38.80200
C  31.21800 54.19600 39.01900
C  30.43100 52.00100 40.14500
C  29.50300 53.14200 36.50200
C  28.22700 53.15500 35.60300
H  27.95500 54.50200 34.92300
N  32.61700 56.75400 39.99600
C  33.26000 55.63000 39.57900
C  34.68300 55.97500 39.50300
C  34.88300 57.32700 39.93600
C  33.52800 57.81200 40.13700
C  35.69200 54.98800 38.86700
C  36.26200 57.92300 40.19300
O  37.25400 57.21500 39.89900
C  36.56000 59.27500 40.89600
N  30.87800 59.11000 40.34800
C  32.06400 59.79900 40.59200
C  31.83900 61.33100 40.57700
C  30.23800 61.49400 40.57300
C  29.78800 59.98300 40.38000
C  32.64400 62.07100 41.77200
C  29.76600 62.56000 39.59600
C  28.66400 63.52900 40.13100
N  28.54200 57.30000 39.82800
C  27.83600 58.42400 40.03000
C  26.38700 58.15600 39.89600
C  26.40500 56.84900 39.48300
C  27.72400 56.35300 39.41700
C  25.28900 59.11100 39.95200
C  25.50300 55.81400 39.07200
O  24.28200 55.84300 38.98800
C  26.41500 54.60700 38.64100
C  26.02600 53.41900 39.36200
O  26.46800 52.92000 40.40100
O  24.96600 52.85200 38.65000
C  24.13800 51.86200 39.40800
H  33.20200 53.51000 39.13500
H  34.08600 59.87100 40.35300
H  27.76500 60.49800 40.12400
H  28.62400 52.36900 38.50400
H  31.31400 52.32400 38.09900
H  30.89000 52.54500 40.97000
H  30.93800 51.05100 39.97100
H  29.40600 51.76000 40.42700
H  30.26900 52.52900 36.02600
H  29.94800 54.13300 36.41500
H  27.33800 52.79400 36.11800
H  28.38500 52.31200 34.93000
H  36.10600 55.56700 38.04200
H  35.23500 54.15000 38.34100
H  36.46600 54.66900 39.56500
H  37.51400 59.04900 41.37200
H  35.87500 59.71800 41.61800
H  36.65900 60.09300 40.18200
H  32.32800 61.70100 39.67500
H  29.97000 61.73800 41.60100
H  33.41400 61.43300 42.20600
H  31.94700 62.48900 42.50000
H  33.18800 62.86900 41.26700
H  29.38200 62.11700 38.67700
H  30.59500 63.15500 39.21200
H  27.63600 63.18300 40.24200
H  28.58300 64.40500 39.48800
H  28.95400 64.00900 41.06600
H  25.59300 60.04800 39.48500
H  25.27300 59.40100 41.00200
H  24.37200 58.74900 39.48700
H  26.34100 54.40800 37.57200
H  23.59700 52.25400 40.26900
H  24.77100 51.09100 39.84700
H  23.40900 51.38400 38.75300

