158

Mg 47.23100 25.43400 28.22200
C  47.83100 27.43700 31.04200
C  46.55200 22.82800 30.34000
C  47.35400 23.50800 25.77100
C  48.13100 28.21400 26.24800
N  47.14900 25.23600 30.43900
C  47.44800 26.16900 31.38600
C  47.08500 25.66200 32.73300
C  46.77700 24.09400 32.52000
C  46.79600 24.05800 30.96700
C  47.71800 23.07600 33.28900
C  45.97500 26.42800 33.55100
C  46.33200 26.76700 34.99100
H  45.19200 26.79200 36.00600
N  46.81500 23.48300 28.02900
C  46.51600 22.52200 29.01400
C  46.06200 21.33900 28.45900
C  46.32700 21.50100 27.09900
C  46.84400 22.86900 26.89000
C  45.49100 20.20700 29.24100
C  46.18300 20.51100 25.95700
O  46.53900 20.78900 24.81000
C  45.52300 19.17500 26.28600
N  47.74900 25.77600 26.27600
C  47.66800 24.77100 25.38700
C  48.02300 25.15900 24.01800
C  47.99300 26.71800 24.15500
C  47.98000 26.95300 25.65800
C  49.39400 24.56200 23.58000
C  46.88700 27.53600 23.46600
C  47.44700 28.89200 23.00200
N  47.85400 27.41400 28.52800
C  48.12400 28.45200 27.64800
C  48.62300 29.57000 28.32500
C  48.47800 29.26500 29.67000
C  48.07800 27.95100 29.75400
C  49.12500 30.83300 27.76800
C  48.70200 29.77900 30.95300
O  49.10700 30.87200 31.32500
C  48.23300 28.58100 31.94100
C  49.30400 28.28400 32.89200
O  50.21600 27.48400 32.75500
O  49.02400 28.93200 34.08000
C  49.75200 28.44900 35.28100
H  46.28400 22.03800 31.04500
H  47.59200 22.72600 25.04700
H  48.31900 29.06100 25.58500
H  48.07000 25.69400 33.19900
H  45.75600 23.91500 32.85800
H  48.26700 22.52400 32.52600
H  46.94000 22.50100 33.79000
H  48.42300 23.56000 33.96600
H  45.06500 25.82900 33.59500
H  45.68000 27.39500 33.14500
H  46.97900 27.64400 35.00600
H  46.97600 25.95800 35.33600
H  44.54900 19.83400 28.83900
H  45.28500 20.43600 30.28600
H  46.20300 19.38300 29.29700
H  46.30200 18.90600 26.99900
H  45.54000 18.66000 25.32500
H  44.54100 19.44100 26.67800
H  47.23300 24.82000 23.34800
H  48.94000 27.14200 23.82100
H  49.92400 24.10000 24.41300
H  50.05300 25.26300 23.06800
H  49.22100 23.74700 22.87700
H  46.14100 27.73000 24.23600
H  46.33800 27.02100 22.67900
H  48.44800 29.17300 23.32900
H  46.81900 29.66100 23.45200
H  47.26900 29.04000 21.93700
H  49.16200 30.85800 26.67800
H  50.17700 30.94400 28.03100
H  48.67000 31.71600 28.21700
H  47.45000 29.07100 32.52000
H  50.15600 27.45700 35.08000
H  49.01300 28.47800 36.08200
H  50.58600 29.14300 35.38800
Mg 25.36900 50.44800 26.87900
C  23.11100 51.15900 29.58900
C  27.64800 49.35700 29.05700
C  27.57700 50.50400 24.32400
C  23.03200 52.04400 24.73300
N  25.34900 50.35400 29.03900
C  24.38100 50.70000 29.98100
C  24.95100 50.48100 31.39300
C  26.28000 49.77800 31.17000
C  26.50700 49.92100 29.66100
C  27.40900 50.25000 31.98900
C  23.95200 49.69600 32.35900
C  24.43800 49.37700 33.81300
H  24.13000 50.28600 34.99500
N  27.27400 50.00600 26.72200
C  28.11200 49.50000 27.73400
C  29.35900 49.11000 27.19200
C  29.35100 49.56900 25.84300
C  28.00900 50.09900 25.62100
C  30.35100 48.25700 28.00300
C  30.52300 49.53200 24.85900
O  30.49500 49.93200 23.70000
C  31.81900 49.05500 25.40200
N  25.24500 51.01500 24.74800
C  26.34200 50.95900 23.90600
C  26.11100 51.79100 22.59900
C  24.56600 51.93900 22.62400
C  24.21400 51.58600 24.06900
C  26.92600 53.05600 22.41200
C  23.77000 51.08100 21.67100
C  23.43500 49.64600 22.15100
N  23.43100 51.34600 27.06200
C  22.62000 51.89700 26.08200
C  21.32500 52.26400 26.65500
C  21.53300 52.09400 27.98500
C  22.77100 51.46000 28.24800
C  20.20000 52.79900 25.89000
C  20.85300 52.33700 29.23000
O  19.79000 52.88800 29.53600
C  21.86900 51.70100 30.31800
C  22.22300 52.78400 31.23200
O  23.12600 53.58200 31.19600
O  21.30300 52.77200 32.27100
C  21.46600 53.95900 33.12000
H  28.28100 48.90400 29.82300
H  28.40600 50.57500 23.61700
H  22.32100 52.50800 24.04600
H  25.24100 51.44100 31.82100
H  26.19800 48.69700 31.28500
H  28.09000 49.47500 32.34100
H  26.99600 50.86500 32.78900
H  28.01700 50.98600 31.46400
H  23.36200 48.96400 31.80700
H  23.22900 50.46200 32.63900
H  25.47200 49.03600 33.85200
H  23.87300 48.50200 34.13500
H  30.36300 47.22500 27.65300
H  30.12400 48.28100 29.06900
H  31.36600 48.65400 27.98500
H  31.87300 48.04500 25.80800
H  31.95400 49.73500 26.24400
H  32.63400 49.16800 24.68800
H  26.34400 51.10600 21.78300
H  24.11100 52.91400 22.45100
H  27.43900 53.22000 23.35900
H  26.39500 53.96900 22.14400
H  27.69600 53.01400 21.64100
H  24.20300 50.99000 20.67500
H  22.80800 51.59300 21.70200
H  24.00300 49.30700 23.01700
H  23.53400 49.01900 21.26500
H  22.37400 49.56900 22.39100
H  20.22200 52.43500 24.86200
H  20.32800 53.87700 25.98600
H  19.35700 52.55200 26.53500
H  21.43000 50.90500 30.92000
H  22.38100 53.87600 33.70700
H  20.61200 53.98600 33.79600
H  21.40400 54.91700 32.60400

