158

Mg 47.84100 16.49900 28.87100
C  45.73200 16.18200 31.58300
C  49.99500 18.29800 30.76200
C  49.80500 16.64100 26.14900
C  45.33200 14.86900 26.96400
N  47.82600 17.22600 30.91800
C  46.94700 16.89700 31.89400
C  47.27800 17.35700 33.26800
C  48.61100 18.17000 32.97100
C  48.90400 17.85200 31.47700
C  48.47700 19.66800 33.25000
C  47.45500 16.21100 34.36100
C  47.65200 16.78400 35.87000
H  47.29500 18.25900 36.21100
N  49.64500 17.39400 28.50700
C  50.35700 18.12900 29.46000
C  51.62500 18.50600 28.85200
C  51.56400 18.06100 27.48800
C  50.29400 17.36200 27.33100
C  52.69200 19.32100 29.55200
C  52.66000 18.12900 26.41100
O  52.49000 17.58400 25.37000
C  53.94600 18.90100 26.47700
N  47.61400 15.84600 26.85600
C  48.47900 16.16100 25.89000
C  47.99500 15.79800 24.40300
C  46.63800 15.07900 24.76100
C  46.49300 15.25600 26.28200
C  47.80300 17.09300 23.59500
C  46.41200 13.69500 24.25500
C  45.86500 13.66400 22.84500
N  45.97800 15.73100 29.10500
C  45.07800 15.13100 28.30200
C  43.86500 14.78000 29.07000
C  44.06200 15.14500 30.36300
C  45.32200 15.76200 30.32800
C  42.71600 13.98600 28.51500
C  43.51100 15.15400 31.67900
O  42.48500 14.70300 32.14800
C  44.64600 15.83100 32.55700
C  43.95800 16.97500 33.25800
O  43.29700 17.82700 32.69100
O  43.91400 16.81600 34.66700
C  42.91700 17.59400 35.38500
H  50.64600 18.89100 31.40800
H  50.29100 16.76100 25.17800
H  44.48000 14.41900 26.45100
H  46.46400 18.00600 33.59300
H  49.55900 17.82000 33.38100
H  47.57200 19.99000 33.76500
H  48.71000 20.33800 32.42200
H  49.27200 19.94100 33.94300
H  48.36400 15.69500 34.05300
H  46.56900 15.57700 34.40000
H  48.72900 16.66000 35.97900
H  47.10000 16.13500 36.55000
H  52.35900 19.67100 30.52900
H  53.08100 20.20800 29.05200
H  53.50700 18.60800 29.67900
H  53.79000 19.83800 27.01100
H  54.11800 19.15200 25.43000
H  54.76400 18.23900 26.76300
H  48.64000 15.02500 23.98600
H  45.76800 15.67100 24.47600
H  47.92900 16.98300 22.51800
H  48.56600 17.76800 23.98100
H  46.78300 17.43500 23.77400
H  45.74600 13.11200 24.89200
H  47.35900 13.15800 24.32500
H  46.57700 14.03100 22.10600
H  44.91900 14.20400 22.80300
H  45.49700 12.67000 22.59200
H  42.87300 12.91800 28.36400
H  42.39200 14.39900 27.56000
H  41.87900 14.10100 29.20300
H  44.88700 15.05300 33.28200
H  42.72200 18.58900 34.98500
H  43.12000 17.75900 36.44300
H  41.98400 17.03100 35.34500
Mg 4.85200 53.16900 42.09800
C  5.01400 49.78000 41.25600
C  7.83200 53.69900 40.47300
C  4.39700 56.49300 42.58800
C  1.55500 52.56600 43.30300
N  6.17400 51.92700 40.87900
C  6.06100 50.59300 40.73900
C  7.29800 50.09800 39.93700
C  8.30800 51.18400 40.18800
C  7.38500 52.39100 40.53600
C  9.28400 51.03900 41.42800
C  6.99200 49.92200 38.41300
C  7.62100 48.79400 37.62000
H  6.92000 48.05100 36.38800
N  5.93700 54.85300 41.57800
C  7.18200 54.83500 40.96200
C  7.70500 56.20700 40.93400
C  6.66700 57.04800 41.44200
C  5.61300 56.18000 41.93800
C  9.11100 56.55100 40.49800
C  6.68500 58.53200 41.50200
O  7.71800 59.17700 41.21100
C  5.63700 59.34000 42.10300
N  3.21200 54.33500 42.80100
C  3.31400 55.69700 42.94000
C  2.09100 56.38700 43.39600
C  1.10800 55.14700 43.56800
C  1.97500 53.89900 43.22200
C  2.25100 57.15500 44.73100
C  -0.12600 55.21900 42.57900
C  -1.43700 54.54300 43.21300
N  3.47400 51.55100 42.22300
C  2.28900 51.46700 42.86000
C  1.87200 50.07700 42.95000
C  2.91200 49.36700 42.31000
C  3.83900 50.29700 41.86100
C  0.63200 49.51300 43.44600
C  3.34700 48.06300 41.90600
O  2.80200 47.02300 41.97900
C  4.80500 48.25400 41.30800
C  4.86700 47.54900 40.06700
O  4.21600 47.81100 39.07800
O  5.77600 46.49800 40.15700
C  5.83100 45.53300 39.04200
H  8.82200 53.81100 40.02500
H  4.24100 57.54900 42.81900
H  0.55900 52.42600 43.72900
H  7.58400 49.12900 40.34600
H  9.02200 51.44300 39.40600
H  10.20500 51.49000 41.06100
H  9.37500 49.99100 41.71300
H  8.97800 51.64100 42.28400
H  7.28800 50.86300 37.95200
H  5.92500 49.92400 38.19000
H  7.83100 48.07000 38.40700
H  8.61500 49.02700 37.23900
H  9.66700 55.66200 40.20100
H  9.60300 56.97300 41.37500
H  9.05300 57.29800 39.70600
H  5.80600 60.41000 42.22100
H  5.41300 58.96200 43.10100
H  4.81700 59.12800 41.41700
H  1.81500 57.05800 42.58300
H  0.86300 54.87500 44.59500
H  2.40900 58.18400 44.40800
H  3.11700 56.80700 45.29400
H  1.33300 57.03700 45.30600
H  0.24100 54.59800 41.76200
H  -0.39000 56.23500 42.28300
H  -1.69400 53.63200 42.67200
H  -2.27000 55.22400 43.38600
H  -1.21200 54.14400 44.20200
H  0.66800 49.35300 44.52300
H  0.38900 48.61000 42.88500
H  -0.14800 50.22600 43.17900
H  5.59200 47.79100 41.90300
H  6.85800 45.55600 38.67600
H  5.16800 45.72000 38.19800
H  5.36300 44.58200 39.29800

