158

Mg 53.67100 23.99100 44.90800
C  51.07500 26.06800 43.75700
C  52.02100 21.18800 43.63400
C  56.58900 22.35300 45.00100
C  55.23600 26.90700 45.99000
N  51.71600 23.69600 43.91500
C  50.80500 24.67700 43.56300
C  49.50700 23.99700 43.11500
C  49.72100 22.44300 43.60400
C  51.25800 22.44700 43.62800
C  49.06000 22.08700 44.93700
C  49.43900 24.02300 41.56600
C  47.96500 24.10600 41.10600
H  47.67300 23.83100 39.66800
N  54.22500 22.00200 44.39100
C  53.36500 20.98700 43.97600
C  54.09600 19.73600 43.94900
C  55.47100 20.05000 44.17200
C  55.50200 21.56700 44.51100
C  53.43100 18.39100 43.65100
C  56.62500 19.05800 44.19400
O  56.46000 17.86200 43.99700
C  58.05100 19.39900 44.51000
N  55.56400 24.53900 45.36100
C  56.65300 23.68200 45.30200
C  57.96800 24.34000 45.75700
C  57.39300 25.78600 46.18100
C  55.92700 25.76800 45.79900
C  58.65900 23.57300 46.96300
C  58.10800 27.02400 45.52600
C  58.54000 28.18800 46.38400
N  53.31900 26.05900 44.92600
C  53.93900 27.13800 45.47400
C  53.22300 28.37300 45.36100
C  52.08900 27.98700 44.63400
C  52.15200 26.56900 44.41900
C  53.64500 29.74800 45.85600
C  50.80200 28.38200 44.13700
O  50.28400 29.46100 44.10000
C  50.05200 27.17400 43.56900
C  49.70900 27.49000 42.16300
O  50.53100 27.50900 41.23700
O  48.37700 27.83100 41.91000
C  47.92000 27.79400 40.50900
H  51.36100 20.38400 43.30300
H  57.51700 21.81400 45.20100
H  55.82700 27.77400 46.29400
H  48.57300 24.31800 43.57700
H  49.30700 21.77000 42.85300
H  48.71300 22.99100 45.43600
H  49.70500 21.64000 45.69400
H  48.22900 21.43800 44.66100
H  50.02900 23.23800 41.09200
H  49.91400 24.96400 41.29000
H  47.57800 25.08000 41.40500
H  47.38900 23.37600 41.67400
H  53.81100 17.95600 42.72600
H  52.35000 18.51700 43.70400
H  53.70300 17.75600 44.49300
H  58.26900 20.32000 43.97000
H  58.70900 18.58900 44.19700
H  58.02800 19.37000 45.60000
H  58.66200 24.43500 44.92200
H  57.45400 25.89700 47.26400
H  58.53100 24.03300 47.94300
H  59.70800 23.52500 46.67200
H  58.29200 22.56300 47.14500
H  57.52900 27.41800 44.69100
H  59.05700 26.65700 45.13500
H  57.95300 29.08400 46.18200
H  59.62000 28.31800 46.30800
H  58.36800 27.94600 47.43200
H  53.99400 30.35100 45.01800
H  54.42500 29.80700 46.61400
H  52.75900 30.26100 46.23000
H  49.17800 27.04900 44.20900
H  48.54200 27.12000 39.91900
H  47.74400 28.79900 40.12400
H  46.91600 27.39000 40.63200
Mg 0.49600 43.66500 26.08200
C  2.69800 43.98000 28.80200
C  -2.09300 43.26300 28.36300
C  -1.45500 42.84800 23.49700
C  3.23000 44.20300 23.89300
N  0.36600 43.51400 28.39600
C  1.37400 43.73900 29.28200
C  0.83000 43.53400 30.68100
C  -0.58900 42.94200 30.52300
C  -0.82900 43.34900 29.02200
C  -0.77100 41.40900 30.80500
C  0.88900 44.88600 31.48400
C  1.32700 44.81100 32.92500
H  0.86200 43.65000 33.75400
N  -1.49900 43.16000 25.97200
C  -2.40400 43.11900 27.00600
C  -3.69100 42.75200 26.48000
C  -3.53600 42.54700 25.05200
C  -2.11500 42.80500 24.76800
C  -4.88700 42.51700 27.47300
C  -4.57300 42.24800 24.04800
O  -4.34400 41.96300 22.83300
C  -6.06200 42.21000 24.52500
N  0.91200 43.37400 23.97600
C  -0.13500 43.15500 23.11600
C  0.36200 43.14200 21.66600
C  1.75100 43.82100 21.75600
C  1.99900 43.80800 23.29300
C  0.13400 41.73200 20.92300
C  1.82000 45.29100 21.18000
C  0.82000 46.20800 21.73600
N  2.54600 43.97600 26.24700
C  3.49100 44.21500 25.25300
C  4.75300 44.47300 25.96100
C  4.47500 44.38500 27.29000
C  3.12800 44.02200 27.46300
C  6.13700 44.86800 25.40700
C  5.03900 44.32000 28.59100
O  6.23600 44.49300 28.86700
C  3.88600 44.15600 29.67100
C  4.31200 43.06800 30.44200
O  4.51300 41.98800 29.99400
O  4.68200 43.43300 31.72000
C  5.16800 42.41500 32.59600
H  -2.93800 43.06400 29.02500
H  -1.95300 42.48900 22.59300
H  4.06700 44.49000 23.25300
H  1.48900 42.79000 31.12700
H  -1.24600 43.50700 31.18400
H  -0.90100 40.87900 29.86200
H  -1.62300 41.21200 31.45700
H  0.15200 40.99700 31.21200
H  -0.14900 45.21400 31.53300
H  1.44900 45.70300 31.02800
H  0.88500 45.73800 33.29000
H  2.40100 44.99500 32.95800
H  -4.58400 42.19300 28.46900
H  -5.59600 41.76400 27.12900
H  -5.45000 43.44300 27.59000
H  -6.38000 41.38400 25.16200
H  -6.70900 42.19000 23.64800
H  -6.23100 43.21900 24.90300
H  -0.25500 43.70900 20.96900
H  2.37700 43.10900 21.21900
H  0.31700 41.80000 19.85100
H  -0.92300 41.48300 21.01100
H  0.82600 40.99300 21.32700
H  1.75600 45.24400 20.09300
H  2.82400 45.60300 21.46700
H  1.33500 46.94500 22.35200
H  -0.01800 45.70600 22.21700
H  0.36900 46.71000 20.88000
H  6.70600 45.33100 26.21400
H  6.23800 45.59500 24.60100
H  6.64100 43.93900 25.14100
H  3.72700 45.00600 30.33500
H  5.79500 41.67000 32.10600
H  4.33600 41.93900 33.11500
H  5.82100 42.81300 33.37200

