158

Mg 24.82500 -7.86800 47.50500
C  26.95700 -5.23400 46.25900
C  22.46600 -6.94300 45.28000
C  23.24400 -10.70000 48.24400
C  27.75400 -9.06900 49.17900
N  24.84500 -6.36700 45.78000
C  25.71800 -5.31800 45.58800
C  25.16900 -4.25100 44.62200
C  23.66500 -4.75700 44.52200
C  23.64500 -6.09100 45.21500
C  22.74300 -3.68100 45.03500
C  26.02100 -4.17600 43.29600
C  26.58200 -2.76000 42.99000
H  26.28200 -2.26700 41.58700
N  23.05300 -8.67500 46.89900
C  22.17800 -8.09200 46.00200
C  20.98300 -8.83800 45.79000
C  21.15200 -9.93300 46.72600
C  22.48000 -9.81700 47.38200
C  19.86900 -8.47100 44.75700
C  20.05600 -11.04100 47.00900
O  19.03400 -11.02300 46.39600
C  20.42500 -12.04600 48.08400
N  25.46400 -9.66000 48.44100
C  24.53700 -10.61700 48.71300
C  25.15700 -11.67900 49.60400
C  26.52400 -11.09600 50.10300
C  26.61300 -9.87900 49.16400
C  24.27600 -12.28600 50.71000
C  27.79900 -12.04300 50.05100
C  28.76200 -12.16700 51.21000
N  26.88000 -7.25800 47.84000
C  27.93000 -7.82200 48.55000
C  29.05100 -6.96600 48.58800
C  28.72800 -5.90700 47.76100
C  27.41100 -6.20100 47.24500
C  30.29100 -7.28500 49.42700
C  29.12800 -4.62500 47.30100
O  30.16300 -3.95900 47.43800
C  28.03200 -4.21000 46.21300
C  27.56600 -2.81700 46.51600
O  26.58200 -2.45100 47.14500
O  28.37000 -1.89500 45.89400
C  27.90600 -0.53000 45.80700
H  21.74200 -6.54300 44.56700
H  22.78900 -11.64700 48.54100
H  28.41300 -9.46400 49.95400
H  25.15900 -3.27700 45.11100
H  23.31400 -4.90800 43.50100
H  23.28000 -2.79200 45.36600
H  22.12000 -4.04700 45.85100
H  22.07000 -3.45700 44.20700
H  25.47000 -4.49800 42.41300
H  26.90400 -4.81200 43.35700
H  27.65600 -2.93800 43.04100
H  26.34000 -1.91800 43.63800
H  20.15900 -8.66000 43.72400
H  19.51300 -7.44200 44.70900
H  18.93100 -9.00800 44.89600
H  21.19500 -12.69400 47.66700
H  19.57700 -12.70300 48.27900
H  20.71900 -11.47500 48.96500
H  25.43300 -12.53000 48.98100
H  26.52700 -10.74000 51.13300
H  23.31600 -11.80200 50.89100
H  24.85300 -12.18300 51.62900
H  24.10600 -13.34700 50.52600
H  28.44000 -11.74900 49.22000
H  27.31600 -12.99400 49.82600
H  29.75100 -12.20100 50.75400
H  28.53800 -13.05400 51.80300
H  28.73700 -11.21700 51.74400
H  29.98100 -7.52700 50.44400
H  30.89700 -6.37900 49.42200
H  30.75900 -8.20600 49.07700
H  28.46900 -4.14600 45.21700
H  26.83600 -0.59300 45.60700
H  28.45700 -0.07700 44.98300
H  28.03800 0.01000 46.74400
Mg 41.09400 41.34200 27.09000
C  40.19500 43.48900 29.77200
C  41.76200 38.91700 29.59500
C  42.12500 39.18000 24.72400
C  40.79900 43.80500 24.96200
N  41.27000 41.35200 29.47600
C  40.59900 42.24100 30.29000
C  40.65100 41.83200 31.80000
C  41.14400 40.31800 31.71800
C  41.48600 40.18100 30.12900
C  42.43400 39.95600 32.51000
C  39.31000 42.09400 32.56000
C  39.01900 41.18700 33.78100
H  38.50000 41.74600 35.16400
N  41.91200 39.42000 27.18600
C  42.06600 38.60900 28.29500
C  42.51800 37.24500 27.85300
C  42.48500 37.26400 26.44400
C  42.13700 38.64200 26.05700
C  43.09300 36.22300 28.88600
C  42.84100 36.07600 25.41000
O  42.82500 36.25800 24.21300
C  43.15100 34.67100 25.87900
N  41.52600 41.43700 25.12100
C  41.84900 40.50600 24.33000
C  41.95600 40.93400 22.93000
C  41.59600 42.48400 22.98700
C  41.31200 42.60700 24.43100
C  43.29500 40.56600 22.17400
C  40.40300 42.84400 22.02600
C  39.01000 42.60400 22.59400
N  40.61400 43.29900 27.23800
C  40.60900 44.21000 26.23000
C  40.09400 45.48800 26.80500
C  39.90800 45.25000 28.14900
C  40.30100 43.90200 28.41100
C  39.67300 46.70000 25.98700
C  39.42200 45.82500 29.36500
O  38.86000 46.88300 29.56100
C  39.65800 44.78000 30.51200
C  40.66500 45.27900 31.54000
O  41.89700 45.37700 31.25100
O  40.14800 45.51900 32.79100
C  41.06200 45.63100 33.92500
H  41.83800 38.11300 30.33000
H  42.46000 38.54600 23.90000
H  40.61400 44.59500 24.23100
H  41.42000 42.48100 32.21900
H  40.40800 39.58200 32.04200
H  43.20300 39.61600 31.81600
H  42.17100 39.24300 33.29100
H  42.82200 40.89000 32.91500
H  38.46400 42.02600 31.87600
H  39.34000 43.12200 32.92100
H  39.94000 40.65700 34.02300
H  38.25100 40.45900 33.51900
H  42.57800 35.28000 28.70300
H  42.79200 36.52800 29.88900
H  44.17400 36.09000 28.88700
H  42.18200 34.36600 26.27200
H  43.81600 34.70100 26.74200
H  43.43400 33.93700 25.12400
H  41.14400 40.44400 22.39400
H  42.36100 43.21600 22.72800
H  43.49100 41.35900 21.45200
H  43.21600 39.67200 21.55500
H  44.06500 40.38500 22.92500
H  40.50200 42.18600 21.16300
H  40.53600 43.90000 21.79100
H  38.73800 43.48900 23.16900
H  38.96600 41.71100 23.21800
H  38.40300 42.41300 21.70900
H  38.73500 46.53300 25.45900
H  40.45500 46.88700 25.25100
H  39.70000 47.60300 26.59700
H  38.67300 44.63300 30.95600
H  42.12300 45.39500 33.83900
H  40.67000 45.08200 34.78200
H  41.00000 46.68300 34.20100

