158

Mg 41.97600 40.60800 27.00400
C  41.28000 42.93400 29.32300
C  43.17300 38.40700 29.38900
C  42.17000 38.32300 24.57000
C  41.46200 43.03400 24.51300
N  42.13000 40.61000 29.10400
C  41.71600 41.68900 29.85900
C  41.85800 41.30800 31.35200
C  42.66500 39.93900 31.38300
C  42.73500 39.64000 29.87600
C  44.03100 39.92200 32.21800
C  40.50800 41.22200 32.10900
C  40.18000 42.15300 33.22800
H  39.74000 41.71500 34.61900
N  42.53900 38.62000 26.94700
C  42.98800 37.86600 28.05500
C  43.18600 36.51700 27.62100
C  42.92900 36.44500 26.26500
C  42.52100 37.82500 25.85800
C  43.62800 35.46100 28.52500
C  43.10500 35.26300 25.18300
O  42.81500 35.36700 23.95300
C  43.49500 33.90500 25.61600
N  41.98600 40.73000 24.79300
C  41.90200 39.62600 24.05200
C  41.55100 39.92500 22.60000
C  41.34700 41.39100 22.58400
C  41.63800 41.77200 24.01400
C  42.57500 39.38600 21.60400
C  40.02800 41.99500 21.96000
C  40.27600 43.11600 20.89800
N  41.52700 42.56700 26.87900
C  41.30300 43.41400 25.80900
C  40.96400 44.72800 26.30500
C  40.87200 44.58300 27.71700
C  41.27700 43.32600 27.99700
C  40.72500 45.95900 25.54500
C  40.49500 45.27600 28.95400
O  40.09200 46.42200 29.18000
C  40.83800 44.24300 30.04300
C  41.81400 44.71200 31.05700
O  42.99300 44.76800 30.89700
O  41.12600 45.24400 32.09400
C  41.80600 45.55500 33.35100
H  43.39600 37.76200 30.24200
H  42.12000 37.65500 23.70800
H  41.17300 43.68800 23.68700
H  42.40200 42.16000 31.75900
H  42.01000 39.15700 31.76700
H  43.74400 39.20400 32.98700
H  44.30400 40.86900 32.68500
H  44.86300 39.62400 31.57900
H  40.29000 40.19200 32.38800
H  39.83100 41.42800 31.28000
H  39.22000 42.54800 32.89400
H  40.82800 43.02800 33.27100
H  42.96000 34.61700 28.35300
H  43.65800 35.65900 29.59600
H  44.63500 35.17200 28.22500
H  42.70200 33.60300 26.30000
H  44.51100 33.87900 26.00800
H  43.43600 33.25900 24.74000
H  40.57500 39.49300 22.37900
H  42.12700 41.82800 21.96000
H  43.27600 38.71300 22.09900
H  43.08500 40.21900 21.11900
H  41.97000 38.89200 20.84400
H  39.42800 42.32900 22.80700
H  39.46100 41.22200 21.44300
H  39.94100 42.81800 19.90400
H  41.34100 43.32300 20.78800
H  39.53400 43.85700 21.19300
H  39.70000 45.92200 25.17600
H  41.47900 45.96800 24.75900
H  40.80500 46.87200 26.13600
H  39.92500 44.08000 30.61700
H  42.32900 46.51100 33.36800
H  42.45000 44.71800 33.62300
H  40.94000 45.53900 34.01200
Mg 36.31900 48.54800 26.09700
C  36.23500 46.36400 28.91600
C  34.90400 50.98400 28.10700
C  35.76800 50.33500 23.36000
C  37.04600 45.69800 24.18300
N  35.69600 48.66500 28.21100
C  35.96800 47.77300 29.17900
C  35.87300 48.34500 30.57400
C  35.28400 49.78000 30.35500
C  35.34100 49.86600 28.78100
C  33.80400 50.00300 30.88600
C  37.23800 48.40400 31.30500
C  37.16300 48.72100 32.86800
H  35.93900 49.02300 33.65600
N  35.57300 50.50900 25.84700
C  34.98200 51.34600 26.75700
C  34.68900 52.59100 26.07300
C  34.92700 52.44800 24.70800
C  35.42800 51.04600 24.57900
C  34.14400 53.77100 26.83200
C  34.67600 53.40600 23.52400
O  35.01100 53.19700 22.32200
C  34.17700 54.84700 23.85200
N  36.54900 48.16300 24.09500
C  36.27100 49.08500 23.14800
C  36.37900 48.42200 21.77100
C  37.13000 47.02400 22.00600
C  36.96900 46.95200 23.54800
C  35.05400 48.27900 21.00000
C  38.63200 47.21800 21.53900
C  39.69200 47.57700 22.57500
N  36.66300 46.39900 26.41800
C  36.97700 45.45200 25.52600
C  37.13300 44.28500 26.15900
C  36.97000 44.51300 27.57300
C  36.56100 45.86500 27.60500
C  37.50800 42.97700 25.48800
C  36.97000 43.88500 28.89400
O  37.03900 42.77800 29.36300
C  36.56700 45.10200 29.78400
C  35.45300 44.69600 30.70400
O  34.35500 44.34300 30.41100
O  35.90800 44.94100 31.97300
C  34.88000 44.79900 33.06900
H  34.47700 51.70700 28.80400
H  35.47500 50.81600 22.42400
H  37.24500 44.90300 23.46100
H  35.20500 47.76200 31.20900
H  36.00500 50.41000 30.87700
H  33.45500 49.11100 31.40700
H  33.16100 50.14300 30.01700
H  33.73400 50.91600 31.47700
H  37.83000 49.16500 30.79700
H  37.66100 47.40200 31.22600
H  37.92600 49.47700 33.05100
H  37.34700 47.72400 33.26800
H  34.26100 53.62400 27.90500
H  33.07200 53.68000 26.65100
H  34.51000 54.78400 26.66400
H  34.15700 55.29400 22.85800
H  34.82300 55.37400 24.55400
H  33.19100 54.72300 24.29900
H  37.01800 49.09200 21.19700
H  36.61700 46.16000 21.58400
H  34.18300 48.45200 21.63200
H  34.90400 47.25100 20.67000
H  35.01300 48.91400 20.11500
H  38.70300 47.88200 20.67800
H  38.77800 46.20600 21.16300
H  40.46400 48.21100 22.13900
H  40.13100 46.61800 22.85100
H  39.27200 47.84500 23.54500
H  38.24300 43.08700 24.69200
H  36.51800 42.64400 25.17500
H  37.87000 42.28600 26.25000
H  37.52500 45.29600 30.26700
H  35.06100 45.38200 33.97200
H  34.90800 43.74000 33.32400
H  33.88000 45.01900 32.69500

