158

Mg 30.58200 58.27100 40.10800
C  28.01500 56.39500 38.70900
C  32.69100 55.74200 39.32400
C  33.16400 60.45300 40.38300
C  28.42400 60.86500 40.63900
N  30.32400 56.35100 39.05700
C  29.24100 55.68700 38.68000
C  29.53300 54.27900 38.04800
C  30.85700 53.96500 38.81000
C  31.35100 55.42700 39.22300
C  30.74200 53.02700 40.00900
C  29.71700 54.25800 36.48200
C  28.56700 53.73700 35.61100
H  27.85600 54.75100 34.65900
N  32.64800 58.13600 39.86900
C  33.35200 56.98800 39.53300
C  34.75100 57.20300 39.61200
C  34.86000 58.56700 40.06500
C  33.50400 59.13000 40.12700
C  35.76100 56.06600 39.43200
C  36.18000 59.23600 40.50300
O  37.27400 58.62900 40.39500
C  36.25600 60.61800 41.04800
N  30.76600 60.32900 40.61900
C  31.94000 61.03400 40.66900
C  31.77700 62.54700 40.84300
C  30.23500 62.58300 41.26100
C  29.76500 61.15200 40.74500
C  32.71000 63.06200 41.93100
C  29.42800 63.76100 40.62700
C  28.37600 64.50700 41.51500
N  28.58800 58.60700 39.82800
C  27.82500 59.68100 40.10000
C  26.51900 59.47800 39.63600
C  26.52300 58.16100 39.08100
C  27.86400 57.69900 39.17400
C  25.34600 60.36400 39.83800
C  25.66200 57.15600 38.52000
O  24.47500 57.21000 38.17900
C  26.64500 55.98000 38.25800
C  26.07100 54.79800 38.98900
O  26.56400 54.36300 40.05300
O  24.89200 54.38700 38.47900
C  24.18700 53.49500 39.38500
H  33.25900 54.81100 39.27200
H  33.90500 61.25500 40.42200
H  27.70800 61.68400 40.74400
H  28.71200 53.64600 38.38500
H  31.62400 53.48600 38.20200
H  30.78900 53.56200 40.95800
H  31.38700 52.15300 40.10800
H  29.73600 52.60900 40.02700
H  30.55300 53.58800 36.28200
H  30.06300 55.24500 36.17500
H  27.81100 53.37200 36.30500
H  28.92200 52.92500 34.97600
H  35.58000 55.21800 40.09300
H  36.75400 56.42600 39.70300
H  35.64100 55.87600 38.36500
H  37.25500 60.83700 41.42600
H  35.54900 60.76900 41.86400
H  35.98200 61.18800 40.16100
H  31.92700 63.07800 39.90300
H  30.11300 62.71400 42.33600
H  32.79400 64.09600 41.59500
H  33.60500 62.45500 42.06500
H  32.18000 63.09600 42.88300
H  29.01500 63.36800 39.69800
H  30.15000 64.53100 40.35700
H  28.18800 65.53900 41.22100
H  28.71700 64.42700 42.54700
H  27.39800 64.03800 41.40400
H  25.65400 61.40500 39.73800
H  24.84400 60.21400 40.79400
H  24.66700 60.29600 38.98800
H  26.72800 55.66500 37.21800
H  23.23700 53.39300 38.85900
H  24.03600 53.99000 40.34400
H  24.70000 52.53400 39.42300
Mg -1.46700 34.81900 27.29000
C  -3.15500 33.04200 29.82700
C  0.14300 36.62500 29.82800
C  -0.15000 36.74100 25.00000
C  -3.18800 33.03900 24.92900
N  -1.56600 34.91500 29.59700
C  -2.34400 34.05800 30.42700
C  -2.11700 34.42400 31.91500
C  -1.15400 35.69100 31.85900
C  -0.85100 35.83000 30.28400
C  -1.69800 36.93200 32.43800
C  -1.47000 33.10400 32.63900
C  -2.24700 32.47700 33.86100
H  -1.55000 32.54200 35.17500
N  -0.20700 36.54600 27.35000
C  0.40100 37.04200 28.48200
C  1.45000 37.98500 28.11400
C  1.42000 38.02800 26.67300
C  0.33100 37.09300 26.28700
C  2.25500 38.83600 29.05400
C  2.28400 38.80600 25.63500
O  1.98900 38.85600 24.44400
C  3.44900 39.50500 26.19100
N  -1.63400 34.87300 25.27800
C  -1.05700 35.82300 24.48600
C  -1.31400 35.73700 22.94100
C  -2.12800 34.40400 22.98500
C  -2.44900 34.11800 24.44700
C  -2.05300 36.92300 22.33900
C  -1.38800 33.18800 22.32700
C  -0.37800 32.39500 23.19700
N  -2.85000 33.34400 27.29400
C  -3.43100 32.68000 26.26900
C  -4.40600 31.72700 26.70300
C  -4.25500 31.82500 28.13900
C  -3.31200 32.83100 28.41900
C  -5.21800 30.81900 25.94600
C  -4.67300 31.16900 29.41400
O  -5.39300 30.21200 29.59900
C  -4.02400 31.95800 30.49500
C  -5.19100 32.51200 31.31300
O  -5.95300 33.48600 30.95400
O  -5.17600 31.88400 32.53000
C  -6.18100 32.15600 33.53400
H  0.67000 37.05500 30.68200
H  0.26600 37.43500 24.26600
H  -3.53100 32.50700 24.03900
H  -3.15700 34.63600 32.16200
H  -0.27800 35.40300 32.43900
H  -2.17600 36.73300 33.39800
H  -2.34400 37.45600 31.73300
H  -0.83700 37.54900 32.69700
H  -0.41000 33.16800 32.88100
H  -1.50200 32.32900 31.87300
H  -2.30000 31.40400 33.67700
H  -3.18400 33.02200 33.97500
H  3.29000 38.51300 29.16400
H  1.74100 38.72000 30.00800
H  2.21200 39.86400 28.69600
H  4.13100 38.78300 26.64000
H  3.19500 40.27100 26.92400
H  3.95700 40.05300 25.39800
H  -0.39200 35.51200 22.40300
H  -3.06700 34.59100 22.46500
H  -1.71800 37.83300 22.83700
H  -3.11900 36.70300 22.30500
H  -1.64200 36.96800 21.33100
H  -0.85000 33.59900 21.47200
H  -2.06900 32.46700 21.87400
H  -0.38500 32.79400 24.21100
H  0.56700 32.59600 22.69300
H  -0.57800 31.32400 23.25000
H  -5.39700 31.17500 24.93100
H  -6.09400 30.97100 26.57600
H  -4.73300 29.84500 26.00800
H  -3.47500 31.28900 31.15600
H  -7.02200 32.75000 33.17600
H  -5.73200 32.70000 34.36500
H  -6.54200 31.21000 33.93600

