158

Mg 8.97800 4.05800 27.89300
C  10.33800 2.45200 30.85700
C  7.28500 6.22400 29.92000
C  7.44000 5.11800 25.17300
C  10.70000 1.72100 25.92600
N  8.71600 4.27100 30.18200
C  9.43200 3.59100 31.22000
C  9.14200 4.12300 32.56200
C  8.13600 5.31700 32.23300
C  8.07900 5.34900 30.65900
C  6.67300 5.21000 32.61200
C  10.44000 4.59500 33.23400
C  10.85500 3.95500 34.54200
H  11.36600 4.95400 35.60800
N  7.51000 5.40700 27.65300
C  6.92700 6.24200 28.53900
C  6.16600 7.26600 27.88200
C  6.10900 6.86400 26.49700
C  7.07500 5.71400 26.35300
C  5.47200 8.46200 28.50000
C  5.23600 7.32900 25.33400
O  5.35600 6.95100 24.18900
C  4.16700 8.29800 25.61300
N  9.12900 3.50700 25.87500
C  8.34500 4.08400 24.87300
C  8.63500 3.66600 23.42800
C  9.75000 2.61900 23.74600
C  9.90700 2.62600 25.28500
C  7.43500 3.22400 22.58800
C  11.15100 2.86100 23.10600
C  11.68900 1.79400 22.17500
N  10.27800 2.50000 28.22100
C  10.92000 1.67000 27.29600
C  11.75800 0.71300 27.98700
C  11.57600 0.99100 29.32300
C  10.65700 2.12700 29.46300
C  12.68500 -0.33200 27.34500
C  12.01400 0.65900 30.68800
O  12.84100 -0.12100 31.13200
C  11.24500 1.61500 31.68100
C  10.58900 0.85000 32.75200
O  9.52800 0.22400 32.65400
O  11.31600 0.93200 33.94600
C  10.72700 0.21000 35.02400
H  6.96000 7.02700 30.58500
H  7.05900 5.56300 24.25100
H  11.16400 1.04300 25.20700
H  8.59500 3.33500 33.08100
H  8.54900 6.31300 32.39300
H  6.10000 4.87600 31.74700
H  6.30400 6.17300 32.96500
H  6.51700 4.54800 33.46300
H  10.31300 5.65000 33.47400
H  11.28500 4.39300 32.57500
H  11.69100 3.26900 34.40600
H  10.03000 3.32300 34.87000
H  5.76800 9.43400 28.10700
H  5.63100 8.42700 29.57800
H  4.40700 8.25900 28.38100
H  3.62500 8.50900 24.69100
H  4.48600 9.22100 26.09700
H  3.41100 7.91800 26.30100
H  9.11400 4.57300 23.05900
H  9.29900 1.69000 23.39700
H  6.54800 3.17000 23.22000
H  7.59000 2.20000 22.24800
H  7.25300 3.89400 21.74700
H  11.87700 2.97900 23.91100
H  11.17500 3.83100 22.61000
H  12.04500 2.10200 21.19200
H  10.97000 0.97600 22.13200
H  12.54100 1.33500 22.67600
H  13.47900 -0.50800 28.07100
H  13.06700 0.06800 26.40600
H  12.13300 -1.26200 27.20900
H  11.93500 2.18100 32.30700
H  10.22700 -0.70300 34.70000
H  10.07400 0.77600 35.68800
H  11.53700 -0.22400 35.61100
Mg -1.94100 35.13100 26.34700
C  -3.52800 33.02500 28.73100
C  -0.88900 36.96800 29.01200
C  -0.62700 37.17700 24.17600
C  -3.60300 33.33900 23.84200
N  -2.25600 34.99900 28.62500
C  -2.82500 34.02600 29.36600
C  -2.74700 34.20700 30.88100
C  -1.90700 35.55500 30.87800
C  -1.62400 35.85900 29.41100
C  -2.58000 36.69200 31.69100
C  -2.20200 32.93900 31.58100
C  -2.97000 32.26600 32.71100
H  -2.25900 32.24700 34.06300
N  -0.88300 36.88600 26.60100
C  -0.48100 37.43300 27.76000
C  0.46100 38.38000 27.48500
C  0.57300 38.47000 26.04000
C  -0.35700 37.51300 25.54500
C  1.27300 39.06100 28.62400
C  1.55700 39.22000 25.19600
O  1.59600 39.19600 23.94000
C  2.56600 40.11800 25.88900
N  -2.27600 35.27700 24.30700
C  -1.52600 36.23100 23.62500
C  -1.84800 36.24700 22.16500
C  -2.80800 34.97500 22.04600
C  -2.90300 34.47800 23.45600
C  -2.44200 37.65000 21.60700
C  -2.28400 33.95600 21.02900
C  -1.01400 33.06600 21.47900
N  -3.27000 33.42900 26.24300
C  -3.83700 32.84900 25.12700
C  -4.71000 31.74700 25.51000
C  -4.56300 31.72300 26.95100
C  -3.70400 32.84100 27.28100
C  -5.51900 30.80600 24.81100
C  -4.97300 31.04400 28.15900
O  -5.89500 30.27900 28.38200
C  -4.22800 31.77200 29.33700
C  -5.40100 32.09600 30.14900
O  -6.23900 32.98000 29.95700
O  -5.48100 31.15300 31.16000
C  -6.52200 31.44300 32.19300
H  -0.48200 37.39800 29.93000
H  -0.26000 37.84300 23.39100
H  -4.06100 32.70700 23.07900
H  -3.73000 34.30300 31.34300
H  -0.95900 35.42700 31.39900
H  -3.43100 36.28900 32.24100
H  -2.87200 37.47400 30.99100
H  -1.88700 37.11400 32.41900
H  -1.21500 33.27700 31.89700
H  -1.96800 32.13500 30.88300
H  -3.13500 31.26300 32.32000
H  -3.94100 32.76200 32.72900
H  2.35000 39.06400 28.45700
H  1.10500 38.54400 29.56900
H  0.91100 40.08000 28.75800
H  2.98000 40.79000 25.13700
H  3.30000 39.45000 26.34100
H  1.99800 40.72900 26.59000
H  -1.02100 36.12500 21.46500
H  -3.80700 35.32900 21.79100
H  -1.64800 38.02700 20.96300
H  -2.53900 38.27900 22.49100
H  -3.44400 37.58000 21.18200
H  -2.04900 34.48500 20.10600
H  -3.01200 33.21200 20.70300
H  -0.71500 33.34600 22.48900
H  -0.24800 33.25300 20.72600
H  -1.27200 32.01200 21.36900
H  -5.40600 31.01300 23.74700
H  -6.57900 30.86000 25.05600
H  -5.10700 29.81400 25.00000
H  -3.60300 31.07800 29.90000
H  -6.17700 32.07400 33.01200
H  -6.83700 30.43900 32.47800
H  -7.44200 31.94600 31.89300

