158

Mg 29.83800 58.94500 38.80900
C  26.86400 57.36500 37.68200
C  31.56700 56.19900 37.80000
C  32.63100 60.81300 38.61900
C  27.94300 61.90200 39.13200
N  29.29300 57.02700 37.96300
C  28.01500 56.59500 37.57700
C  28.05800 55.18200 37.10800
C  29.40900 54.71800 37.66100
C  30.18200 56.05900 37.81500
C  29.24700 53.89500 38.95600
C  27.98700 55.13900 35.50200
C  26.76000 54.59400 34.74100
H  26.09300 55.64000 33.75800
N  31.75800 58.54400 38.37800
C  32.32200 57.36200 37.91700
C  33.72500 57.50800 37.68500
C  34.04800 58.78300 38.20100
C  32.79100 59.42800 38.46700
C  34.67100 56.43200 37.24400
C  35.48100 59.24900 38.46100
O  36.43800 58.52000 38.11800
C  35.87500 60.52300 39.15100
N  30.18200 61.12300 38.80700
C  31.47800 61.57300 38.87800
C  31.46700 63.12000 39.08500
C  29.95200 63.44600 39.41500
C  29.30900 62.05500 39.10900
C  32.48200 63.79600 39.99500
C  29.26200 64.66500 38.79400
C  28.14000 65.35100 39.59500
N  27.79200 59.46300 38.73000
C  27.22600 60.67200 38.91000
C  25.73000 60.50900 38.76600
C  25.49000 59.24300 38.23900
C  26.79200 58.65000 38.23100
C  24.69600 61.61600 38.99600
C  24.54600 58.36200 37.77800
O  23.35600 58.51400 37.60200
C  25.36300 57.05800 37.36900
C  24.83200 55.94500 38.23300
O  24.93500 55.80000 39.43400
O  24.12900 55.09800 37.42300
C  23.57100 53.85700 37.95000
H  32.09300 55.31200 37.44000
H  33.47400 61.50200 38.53500
H  27.29400 62.76700 39.28200
H  27.25600 54.52900 37.45300
H  29.87000 54.03900 36.94500
H  29.62400 54.55100 39.74100
H  29.76700 52.94000 39.02000
H  28.21800 53.65600 39.22500
H  28.86600 54.63700 35.09900
H  28.14900 56.15300 35.13600
H  26.05100 54.11400 35.41600
H  27.08100 53.68800 34.22800
H  35.18500 56.06600 38.13300
H  35.44100 56.70900 36.52400
H  34.28900 55.54300 36.74300
H  36.81200 60.56000 39.70700
H  35.13200 60.70000 39.92800
H  35.95000 61.29800 38.38800
H  31.64900 63.57100 38.10900
H  29.94100 63.57800 40.49700
H  31.98200 64.02000 40.93600
H  32.77500 64.72800 39.51000
H  33.28200 63.07800 40.17700
H  28.71000 64.37200 37.90100
H  29.98500 65.42100 38.48700
H  28.13200 64.97100 40.61700
H  27.17300 65.13400 39.14200
H  28.31400 66.42700 39.63900
H  25.04900 62.29100 39.77600
H  23.79600 61.17500 39.42400
H  24.39200 62.19700 38.12500
H  25.21800 56.85800 36.30700
H  22.52100 54.00200 38.20300
H  24.06500 53.36200 38.78700
H  23.76900 53.15000 37.14500
Mg 26.78300 51.89600 25.45600
C  24.23000 52.36300 27.91400
C  28.85100 51.08100 28.06300
C  29.26700 51.39000 23.18400
C  24.58700 52.95300 23.05100
N  26.52400 51.68700 27.79800
C  25.39000 51.82500 28.54600
C  25.59500 51.57100 30.02300
C  27.19500 51.45700 30.07100
C  27.60200 51.48000 28.57400
C  27.82100 52.54500 31.00000
C  24.86800 50.30200 30.52100
C  24.31800 50.38000 31.91200
H  24.85900 49.36100 32.92800
N  28.69900 51.20900 25.57600
C  29.39600 51.04900 26.78400
C  30.76600 50.56900 26.43300
C  30.88900 50.53700 25.03600
C  29.59000 51.05100 24.52300
C  31.68500 50.13300 27.50000
C  32.02200 49.95500 24.18000
O  31.85400 49.81800 22.97500
C  33.32700 49.80300 24.88600
N  26.90200 52.21600 23.47800
C  28.00400 51.86200 22.69600
C  27.68300 51.89300 21.19000
C  26.16800 52.17900 21.16100
C  25.83400 52.46600 22.64300
C  28.52400 53.00400 20.44600
C  25.30100 51.04600 20.54700
C  23.92000 51.51300 20.06300
N  24.82500 52.53500 25.46700
C  24.08400 52.95400 24.38700
C  22.80000 53.32200 24.82900
C  22.80700 53.14200 26.24300
C  24.06700 52.62400 26.56300
C  21.65100 53.79800 24.05300
C  21.99000 53.16200 27.41300
O  20.82700 53.53500 27.56700
C  22.90100 52.73900 28.56800
C  23.15600 53.86500 29.44300
O  23.88700 54.80600 29.20300
O  22.46700 53.70400 30.68700
C  22.70200 54.80200 31.63700
H  29.53000 50.80000 28.87100
H  30.07400 51.32000 22.45200
H  23.85400 53.21900 22.28700
H  25.36700 52.37500 30.72200
H  27.61300 50.52100 30.44300
H  27.08500 52.79900 31.76200
H  28.06200 53.39200 30.35700
H  28.71500 52.19900 31.51900
H  25.57100 49.46900 30.54000
H  24.05200 50.12900 29.81900
H  23.25500 50.14100 31.92700
H  24.36700 51.37300 32.35700
H  31.91400 49.07900 27.34200
H  31.31700 50.33800 28.50500
H  32.63600 50.64400 27.64700
H  33.43900 50.60500 25.61500
H  34.03600 50.09100 24.11000
H  33.47400 48.77700 25.22300
H  27.80400 50.95600 20.64600
H  25.90600 53.08600 20.61600
H  27.86200 53.77700 20.05500
H  29.18000 52.61900 19.66600
H  29.13300 53.49900 21.20300
H  25.09300 50.30700 21.32100
H  25.92400 50.56400 19.79300
H  23.67300 50.98300 19.14300
H  23.85200 52.58900 19.90400
H  23.28900 51.26600 20.91700
H  21.92600 53.71100 23.00200
H  21.39800 54.84400 24.22600
H  20.66400 53.39000 24.26800
H  22.45800 51.90100 29.10600
H  22.58800 55.75900 31.12800
H  23.71800 54.85300 32.02800
H  21.98000 54.74800 32.45200

