158

Mg 1.74200 -1.82200 44.28900
C  4.82900 -0.60700 43.48000
C  0.30800 0.67000 42.30500
C  -1.37200 -3.25700 44.55100
C  3.11500 -4.54900 45.82200
N  2.53400 -0.26600 42.81900
C  3.85800 0.10600 42.74900
C  3.97500 1.41800 42.02700
C  2.53000 1.78700 41.68300
C  1.70900 0.62800 42.31900
C  2.13700 3.21900 42.15100
C  4.96600 1.45400 40.82700
C  5.86500 2.72500 40.60600
H  6.39800 3.08700 39.21900
N  -0.24800 -1.36000 43.63900
C  -0.58800 -0.25300 42.87900
C  -2.09700 -0.24400 42.68600
C  -2.56000 -1.39800 43.29900
C  -1.39200 -2.10100 43.79400
C  -2.86400 0.79900 41.80000
C  -4.07500 -1.79200 43.34000
O  -4.92700 -1.01600 42.86800
C  -4.64300 -3.07900 43.98400
N  0.98700 -3.57300 45.00200
C  -0.31800 -3.93400 45.12500
C  -0.58000 -5.10400 46.10500
C  0.85100 -5.54000 46.47300
C  1.67200 -4.56000 45.63200
C  -1.49400 -4.78700 47.29200
C  1.21000 -6.97800 45.98100
C  2.06300 -7.76300 46.93300
N  3.60500 -2.42300 44.72100
C  4.06900 -3.57300 45.38900
C  5.48400 -3.49400 45.56700
C  5.87200 -2.32100 44.87800
C  4.67300 -1.80400 44.31400
C  6.40600 -4.43400 46.26600
C  6.97200 -1.47200 44.59300
O  8.14400 -1.57100 44.92400
C  6.32100 -0.34400 43.66200
C  6.48400 0.94800 44.38200
O  5.72300 1.26900 45.23900
O  7.48800 1.80100 43.82400
C  7.38200 3.15000 44.34600
H  -0.19300 1.42300 41.69300
H  -2.27800 -3.79900 44.82800
H  3.46500 -5.43700 46.35200
H  4.35400 2.16400 42.72600
H  2.45000 1.63000 40.60700
H  2.31300 3.96900 41.38000
H  2.73400 3.52700 43.00900
H  1.10300 3.38700 42.45300
H  4.45500 1.35700 39.87000
H  5.62300 0.59800 40.98100
H  6.71500 2.63600 41.28300
H  5.31200 3.63500 40.83800
H  -3.29900 0.33700 40.91300
H  -2.06800 1.50500 41.56600
H  -3.69000 1.31700 42.28800
H  -4.25900 -3.03900 45.00300
H  -4.33000 -3.96300 43.42900
H  -5.72900 -3.10600 44.08000
H  -1.12200 -5.88900 45.57800
H  1.01700 -5.32500 47.52800
H  -1.77800 -3.75900 47.06500
H  -1.12100 -4.90800 48.30900
H  -2.35800 -5.42400 47.10300
H  1.71600 -7.02800 45.01700
H  0.26700 -7.50500 45.83900
H  1.53000 -8.67600 47.19800
H  2.37800 -7.36000 47.89600
H  2.99300 -7.96200 46.40100
H  5.87900 -4.72400 47.17500
H  7.33700 -4.00600 46.63900
H  6.69200 -5.26400 45.62100
H  6.89800 -0.25600 42.74100
H  8.28000 3.64800 43.98100
H  7.42400 3.18700 45.43500
H  6.45600 3.59900 43.98700
Mg 47.47300 16.23800 29.23700
C  44.93200 15.94400 31.69000
C  49.16900 18.27700 31.31700
C  49.56700 17.07100 26.54300
C  45.15600 15.02100 26.89500
N  47.05300 16.95300 31.27900
C  45.98300 16.71400 32.13100
C  46.32200 17.24800 33.57700
C  47.52100 18.25800 33.30100
C  47.91000 17.85800 31.84400
C  47.14500 19.81100 33.50200
C  46.49000 16.12900 34.59200
C  45.41800 16.04100 35.76200
H  45.11900 17.20600 36.64300
N  49.23900 17.26200 29.11000
C  49.80300 18.01000 30.06400
C  51.07900 18.51000 29.59600
C  51.21800 18.16600 28.23300
C  50.02100 17.42800 27.89600
C  52.14900 19.15400 30.53100
C  52.32100 18.50700 27.27100
O  52.25400 18.09100 26.09000
C  53.41600 19.53500 27.71800
N  47.33200 16.17400 27.03800
C  48.30000 16.57200 26.19000
C  47.90300 16.26300 24.70800
C  46.61500 15.38600 24.83300
C  46.33200 15.54200 26.38100
C  47.70100 17.55600 23.85500
C  46.70800 13.97600 24.11000
C  46.95000 12.68700 24.99600
N  45.56100 15.38100 29.29100
C  44.74400 14.97800 28.25700
C  43.50900 14.44100 28.78300
C  43.53400 14.83200 30.17000
C  44.77100 15.42100 30.38100
C  42.43800 13.72500 27.98900
C  42.78500 14.88000 31.36400
O  41.62300 14.56800 31.53400
C  43.68700 15.58000 32.44500
C  42.89900 16.74500 32.87000
O  42.45600 17.64900 32.11500
O  42.53200 16.63600 34.16300
C  41.64400 17.71100 34.73000
H  49.65900 18.84800 32.10700
H  50.15000 17.32800 25.65600
H  44.50100 14.58800 26.13700
H  45.41000 17.81700 33.75900
H  48.37400 17.95700 33.90800
H  46.10100 20.01000 33.74500
H  47.34400 20.29200 32.54400
H  47.79700 20.28000 34.23900
H  47.41800 16.24600 35.15300
H  46.52000 15.20000 34.02200
H  45.93500 15.32600 36.40200
H  44.53800 15.48800 35.43300
H  52.24900 20.20600 30.26300
H  53.14800 18.71900 30.49800
H  51.77600 19.12000 31.55400
H  53.03400 20.49900 28.05400
H  53.95900 19.79000 26.80800
H  54.08800 19.04100 28.42000
H  48.77100 15.85100 24.19200
H  45.83800 15.92500 24.29100
H  48.25100 17.66200 22.92000
H  48.04700 18.36700 24.49700
H  46.67700 17.74500 23.53200
H  47.48700 13.99900 23.34800
H  45.76100 13.83000 23.59100
H  47.69100 12.12800 24.42500
H  46.04500 12.10800 25.18000
H  47.30500 12.96300 25.98900
H  42.65900 12.65700 27.97200
H  42.46600 14.13300 26.97900
H  41.42900 13.86600 28.37700
H  43.83500 14.81400 33.20700
H  41.05800 18.22500 33.96800
H  42.35200 18.45200 35.10000
H  40.96300 17.26200 35.45200

