158

Mg 48.49000 46.71700 43.20800
C  45.16000 47.73900 42.23600
C  48.14900 43.99400 41.19000
C  51.71400 46.36400 43.64900
C  48.73000 50.06300 44.50800
N  46.93100 46.13200 41.74900
C  45.61500 46.58200 41.62900
C  44.81100 45.79000 40.61600
C  45.84300 44.62500 40.20300
C  47.04900 44.89600 41.12100
C  45.39700 43.11300 40.15500
C  44.40200 46.80300 39.53300
C  42.91900 46.83200 39.12300
H  42.55200 46.30000 37.75400
N  49.76300 45.24200 42.67600
C  49.45800 44.20800 41.84700
C  50.61600 43.33700 41.82300
C  51.63300 43.98600 42.51200
C  51.10700 45.25800 43.03300
C  50.61500 41.98200 41.10000
C  53.02200 43.40500 42.68100
O  53.28900 42.29600 42.21200
C  54.14600 44.09400 43.51900
N  49.96700 48.01300 44.00300
C  51.26400 47.61800 44.04900
C  52.23300 48.70400 44.48600
C  51.30200 49.92600 44.67700
C  49.89400 49.35300 44.40100
C  53.13500 48.36700 45.73600
C  51.53900 51.08000 43.72200
C  51.14200 52.48600 44.20200
N  47.17300 48.45400 43.49100
C  47.44800 49.67100 44.05100
C  46.15900 50.44600 44.16900
C  45.28000 49.67000 43.49600
C  45.91700 48.49300 43.04700
C  46.03300 51.77000 44.81200
C  43.88900 49.59100 43.09100
O  42.98700 50.41600 43.25500
C  43.70600 48.25300 42.26700
C  42.69400 47.35600 42.97600
O  41.52200 47.22100 42.63200
O  43.31500 46.43400 43.83700
C  42.48900 45.27600 44.09800
H  48.07000 43.10800 40.55600
H  52.80500 46.32100 43.65400
H  48.72500 51.04800 44.97900
H  44.02500 45.28800 41.18000
H  46.25000 44.77000 39.20200
H  45.89500 42.52100 39.38600
H  44.33100 43.03000 39.94200
H  45.61800 42.61200 41.09700
H  44.91000 46.55400 38.60100
H  44.65700 47.84300 39.73700
H  42.73300 47.90400 39.19200
H  42.30000 46.22900 39.78700
H  51.43100 41.87400 40.38600
H  49.66400 41.86400 40.58000
H  50.74800 41.18100 41.82800
H  54.92500 43.34400 43.65600
H  53.61500 44.23900 44.46000
H  54.56800 44.99500 43.07300
H  52.92400 48.90200 43.66700
H  51.34400 50.28600 45.70500
H  53.15900 47.27700 45.73600
H  52.82400 48.66200 46.73800
H  54.13000 48.74900 45.50800
H  50.96200 50.99900 42.80100
H  52.59400 51.16700 43.46600
H  50.32900 52.76700 43.53300
H  52.02100 53.11400 44.05500
H  50.86700 52.58100 45.25200
H  46.19800 52.54600 44.06600
H  46.78300 51.74900 45.60300
H  45.03500 51.86700 45.24100
H  43.24300 48.68800 41.38100
H  42.52700 44.56100 43.27600
H  41.44200 45.51600 44.28500
H  42.91500 44.83500 44.99900
Mg 16.83700 53.02800 26.71600
C  18.85000 51.22600 28.89500
C  14.49700 53.52200 29.08400
C  14.66700 54.26000 24.28000
C  18.82500 51.83900 24.11000
N  16.76800 52.54400 28.77300
C  17.70400 51.79800 29.43500
C  17.34400 51.94400 30.93400
C  15.81600 52.46300 30.96500
C  15.69400 52.86000 29.51900
C  14.82500 51.28600 31.27300
C  18.29100 52.97600 31.61600
C  18.68300 52.59700 33.07600
H  17.57000 52.14400 34.01700
N  15.05800 54.00200 26.72700
C  14.23600 54.18500 27.84700
C  13.01500 54.93100 27.52900
C  13.08900 55.17300 26.15200
C  14.33600 54.47800 25.62600
C  11.99400 55.34500 28.55700
C  12.04500 55.89300 25.23300
O  12.10000 55.81900 24.04600
C  10.81600 56.65100 25.75300
N  16.75800 53.01100 24.53800
C  15.77600 53.58600 23.78900
C  16.13800 53.63300 22.30000
C  17.62700 53.15300 22.28500
C  17.73700 52.57400 23.68500
C  15.22200 52.67100 21.37600
C  18.71700 54.26700 21.90900
C  19.17500 54.20600 20.44300
N  18.57500 51.89600 26.51000
C  19.26400 51.45700 25.38000
C  20.51700 50.90400 25.86000
C  20.42600 50.73200 27.19200
C  19.15700 51.28300 27.54100
C  21.70000 50.55400 24.91600
C  21.06500 50.18400 28.40900
O  22.13400 49.62700 28.49900
C  20.08900 50.63200 29.57600
C  19.64000 49.32800 30.23900
O  19.11200 48.36600 29.72900
O  19.84500 49.50700 31.60600
C  19.42500 48.30900 32.35500
H  13.72500 53.54100 29.85700
H  14.01300 54.60400 23.47600
H  19.59400 51.58400 23.37800
H  17.49300 50.95300 31.36200
H  15.74500 53.32200 31.63300
H  13.98600 51.73700 31.80300
H  15.28900 50.68500 32.05500
H  14.51600 50.73800 30.38300
H  17.87400 53.98100 31.56500
H  19.24200 52.92300 31.08600
H  19.07200 53.52900 33.48400
H  19.51400 51.89100 33.08100
H  12.23800 54.79100 29.46400
H  10.98600 55.14700 28.19300
H  12.12000 56.40600 28.77000
H  11.18300 57.44900 26.39900
H  10.10600 55.95900 26.20800
H  10.29700 57.07700 24.89400
H  16.12500 54.65800 21.92800
H  17.83100 52.32100 21.61200
H  14.20400 52.70000 21.76500
H  15.54300 51.62900 21.37600
H  15.11300 52.89900 20.31600
H  19.54100 54.22800 22.62200
H  18.23100 55.23900 21.99300
H  18.52700 53.67500 19.74600
H  20.06200 53.57200 20.44900
H  19.27800 55.23100 20.08700
H  21.70500 51.28900 24.11100
H  21.63500 49.59500 24.40300
H  22.60500 50.58200 25.52300
H  20.52700 51.26100 30.35100
H  19.70300 48.40200 33.40500
H  19.84000 47.39200 31.93600
H  18.33600 48.35400 32.36100

