158

Mg 17.65100 51.06900 26.54400
C  19.42400 50.29400 29.38500
C  15.07700 52.10100 28.40400
C  16.22100 52.10200 23.65300
C  20.17600 49.43900 24.69700
N  17.34700 51.13300 28.70100
C  18.23000 50.85600 29.69800
C  17.61300 51.13800 31.08900
C  16.11900 51.28800 30.62200
C  16.10500 51.50000 29.13200
C  15.10200 50.18500 31.15200
C  18.18700 52.43200 31.80200
C  18.38700 52.37300 33.39300
H  17.56500 51.44500 34.26100
N  16.01100 52.06200 26.12800
C  15.00000 52.41200 27.01200
C  14.03200 53.25300 26.28000
C  14.39800 53.33200 24.92900
C  15.66800 52.50500 24.87100
C  12.91400 53.95200 26.98900
C  13.78500 54.15500 23.85200
O  14.24400 54.29800 22.73900
C  12.53400 54.94600 24.10500
N  18.20200 50.79300 24.47100
C  17.35400 51.28300 23.46700
C  18.00500 51.06100 22.07800
C  19.13600 50.04500 22.51100
C  19.14400 50.06800 23.95100
C  17.06500 50.44100 21.04100
C  20.54900 50.30200 21.85300
C  21.35100 51.57400 22.41300
N  19.42400 50.07700 26.91800
C  20.35300 49.50500 26.05500
C  21.45000 48.90300 26.76100
C  21.12800 49.20500 28.10000
C  19.91300 49.94500 28.14300
C  22.66500 48.15700 26.34600
C  21.59200 49.10500 29.52100
O  22.61300 48.65000 30.03700
C  20.44000 49.75100 30.35100
C  19.84700 48.65100 31.12900
O  18.83500 48.04000 30.77500
O  20.62000 48.41600 32.27600
C  20.07100 47.32600 33.14300
H  14.22800 52.49800 28.96500
H  15.66300 52.36200 22.75100
H  20.97200 48.95200 24.12900
H  17.69800 50.26800 31.74000
H  15.60400 52.18300 30.97000
H  14.24900 50.61800 31.67500
H  15.64000 49.65600 31.93800
H  14.74500 49.44900 30.43200
H  17.45700 53.23100 31.66700
H  19.15100 52.63000 31.33200
H  18.26500 53.34900 33.86200
H  19.44700 52.14600 33.50800
H  11.92100 53.84800 26.55300
H  13.19000 55.00600 27.03600
H  12.84300 53.61300 28.02300
H  11.85200 54.25400 24.59900
H  11.98500 55.21600 23.20200
H  12.77400 55.76400 24.78400
H  18.62400 51.86700 21.68400
H  18.70400 49.06100 22.33200
H  16.88800 51.25100 20.33300
H  16.05900 50.23300 21.40600
H  17.48800 49.55600 20.56600
H  20.45700 50.58300 20.80400
H  20.98500 49.30400 21.81400
H  21.77700 52.10100 21.55900
H  22.05200 51.14500 23.12900
H  20.57700 52.03600 23.02500
H  23.46600 48.89300 26.27300
H  22.39300 47.81200 25.34800
H  22.95300 47.24200 26.86400
H  20.82300 50.45100 31.09400
H  19.17700 47.74400 33.60600
H  20.83700 47.12800 33.89300
H  19.75600 46.42700 32.61300
Mg -11.73500 37.74800 42.74100
C  -9.54000 35.17300 41.88700
C  -9.46300 39.95600 41.16000
C  -13.89500 40.02100 43.24100
C  -14.08000 35.24400 43.82500
N  -9.74300 37.56700 41.55500
C  -9.05100 36.40100 41.42000
C  -7.83600 36.64300 40.55800
C  -7.65100 38.15800 40.65800
C  -9.03900 38.62100 41.19600
C  -6.49800 38.78700 41.56000
C  -7.98500 35.99200 39.12100
C  -7.15000 36.59000 37.99800
H  -6.50600 35.59400 37.00200
N  -11.73100 39.71000 42.23000
C  -10.67800 40.42400 41.69200
C  -11.10900 41.83500 41.71900
C  -12.41000 41.90800 42.30600
C  -12.67900 40.48600 42.65100
C  -10.20000 42.95700 41.21000
C  -13.16500 43.12700 42.55700
O  -12.68100 44.20400 42.18600
C  -14.60300 43.24600 43.01700
N  -13.87800 37.63000 43.21400
C  -14.44000 38.79400 43.54900
C  -15.75200 38.59700 44.35300
C  -15.65700 37.04400 44.68400
C  -14.51600 36.60000 43.81600
C  -16.03600 39.43500 45.61300
C  -16.99600 36.21400 44.54100
C  -17.39900 35.42200 45.82400
N  -11.92500 35.67900 42.83400
C  -12.86800 34.80000 43.37000
C  -12.36100 33.43200 43.31800
C  -11.01000 33.53000 42.83500
C  -10.77900 34.92700 42.48600
C  -13.15900 32.17200 43.60400
C  -9.86000 32.78600 42.52600
O  -9.54200 31.61200 42.78200
C  -8.82800 33.80800 41.89100
C  -7.52700 33.85100 42.68400
O  -7.27500 34.63800 43.58300
O  -6.66900 32.90800 42.20500
C  -5.33200 32.86400 42.82000
H  -8.80300 40.68600 40.68700
H  -14.56300 40.81300 43.58900
H  -14.75700 34.49700 44.24500
H  -7.01200 36.09300 41.01400
H  -7.54300 38.56600 39.65300
H  -6.90600 39.26000 42.45300
H  -5.97300 39.57600 41.02300
H  -5.87200 37.95700 41.88800
H  -9.05900 35.97100 38.93600
H  -7.74800 34.92800 39.13200
H  -6.32500 37.04600 38.54500
H  -7.70300 37.39500 37.51400
H  -9.15800 42.63900 41.23300
H  -10.27000 43.94500 41.66600
H  -10.37000 43.17500 40.15500
H  -15.18300 42.47200 42.51400
H  -14.99100 44.17500 42.59800
H  -14.65900 43.10500 44.09600
H  -16.61000 38.80400 43.71300
H  -15.30300 36.91400 45.70700
H  -16.81400 40.16200 45.38100
H  -15.13900 40.00700 45.85200
H  -16.47600 38.89300 46.45000
H  -16.72100 35.56800 43.70700
H  -17.85300 36.81500 44.23500
H  -16.61100 35.60200 46.55400
H  -17.47900 34.34500 45.67300
H  -18.38800 35.78700 46.10100
H  -12.73600 31.42800 42.93000
H  -14.20900 32.32100 43.35100
H  -13.05400 31.89500 44.65300
H  -8.49000 33.48200 40.90700
H  -4.62100 32.41400 42.12800
H  -5.28100 32.24300 43.71500
H  -4.94600 33.84700 43.08900

