158

Mg 8.55800 4.35600 27.52900
C  9.79300 2.52700 30.37800
C  6.64900 6.22700 29.43700
C  7.38700 5.92400 24.72100
C  10.45000 2.09100 25.47900
N  8.23900 4.27400 29.70500
C  9.03400 3.62500 30.68000
C  8.64400 4.14500 32.05900
C  7.57500 5.22100 31.73400
C  7.48500 5.29600 30.19500
C  6.14500 4.98600 32.44700
C  9.78500 4.51600 33.06200
C  9.35300 4.70500 34.48700
H  10.16600 3.94100 35.55300
N  7.09700 5.81000 27.15100
C  6.55500 6.56600 28.06100
C  5.69400 7.64000 27.53200
C  5.85200 7.50600 26.11300
C  6.82500 6.41500 25.89200
C  4.80300 8.55300 28.38200
C  5.24900 8.28700 24.93700
O  5.42900 8.08600 23.72500
C  4.46900 9.49200 25.26900
N  8.82500 3.98800 25.43700
C  8.31600 4.80700 24.46500
C  8.91300 4.56100 23.03400
C  9.83700 3.34000 23.31500
C  9.76700 3.13000 24.84600
C  7.80000 4.30400 22.00700
C  11.30300 3.65900 22.95400
C  12.09500 2.47500 22.44700
N  9.91200 2.71900 27.77800
C  10.50800 1.85300 26.83900
C  11.25400 0.79300 27.51100
C  10.96000 1.02200 28.89200
C  10.12500 2.15800 29.04100
C  12.05600 -0.23800 26.87900
C  11.24300 0.53100 30.23700
O  11.84100 -0.45900 30.65700
C  10.54900 1.54800 31.20400
C  9.67900 0.94100 32.26800
O  8.75100 0.17400 32.04400
O  10.24500 1.27900 33.48800
C  9.54400 0.63300 34.61300
H  6.18900 6.86900 30.19100
H  7.21500 6.45900 23.78500
H  11.08000 1.45800 24.85100
H  8.13600 3.30000 32.52200
H  7.80800 6.21200 32.12500
H  5.60900 4.20900 31.90200
H  5.62100 5.94100 32.40500
H  6.29800 4.65800 33.47500
H  10.19400 5.45500 32.68900
H  10.65900 3.86600 33.05900
H  8.32400 4.35200 34.55800
H  9.42800 5.76500 34.72800
H  4.72300 8.36200 29.45200
H  3.78400 8.27000 28.11500
H  4.82400 9.62400 28.17900
H  4.13200 10.09700 24.42700
H  5.07700 10.19000 25.84500
H  3.58500 9.23900 25.85400
H  9.49400 5.47000 22.87300
H  9.45100 2.48500 22.76100
H  6.79300 4.52500 22.36000
H  7.70300 3.23400 21.82100
H  8.02900 4.89600 21.12200
H  11.84500 3.95800 23.85100
H  11.29100 4.47100 22.22700
H  11.59300 1.50800 22.44900
H  12.91900 2.30400 23.14000
H  12.41400 2.53600 21.40700
H  13.05500 0.18200 26.76400
H  11.75200 -0.50300 25.86700
H  12.10600 -1.09900 27.54600
H  11.39500 2.04400 31.67900
H  8.67400 1.14600 35.02500
H  10.38600 0.74300 35.29600
H  9.31600 -0.40200 34.35700
Mg 48.21000 35.09900 27.15200
C  46.25000 33.43800 29.75500
C  48.19600 37.77800 29.06300
C  49.60100 36.61300 24.63900
C  47.41100 32.27000 25.12700
N  47.35700 35.51700 29.19600
C  46.81100 34.68200 30.11300
C  46.79000 35.22500 31.54300
C  47.01600 36.77900 31.21900
C  47.51700 36.74000 29.76800
C  45.93000 37.65500 31.71600
C  47.96300 34.61600 32.45500
C  47.53900 34.15800 33.87500
H  46.37200 35.00200 34.44100
N  48.99200 36.92100 26.92900
C  48.84500 37.94800 27.81400
C  49.38200 39.19500 27.22300
C  49.81500 38.83400 25.94800
C  49.49400 37.42500 25.78500
C  49.43300 40.53800 27.94600
C  50.52200 39.67600 24.92400
O  50.94900 39.26200 23.85600
C  50.73200 41.18200 25.14100
N  48.22100 34.58000 25.10000
C  49.12000 35.31000 24.34000
C  49.53200 34.56600 23.10900
C  48.92200 33.14900 23.36300
C  48.15000 33.30300 24.62700
C  48.95700 35.16200 21.80300
C  50.00800 31.95800 23.48200
C  50.23300 31.08200 22.20400
N  47.05200 33.21500 27.30300
C  46.87000 32.19600 26.42900
C  46.05000 31.21100 27.03500
C  45.80000 31.65200 28.33900
C  46.47000 32.87900 28.50700
C  45.55400 30.00600 26.37500
C  45.02600 31.34100 29.50600
O  44.24900 30.43100 29.81700
C  45.36100 32.55400 30.45400
C  46.04900 31.93600 31.70000
O  47.16200 31.47800 31.78400
O  45.09700 31.83800 32.68500
C  45.34700 30.94400 33.76700
H  48.17400 38.74200 29.57600
H  50.15400 37.09400 23.82900
H  47.41800 31.37900 24.49600
H  45.81400 35.11000 32.01600
H  47.81400 37.11500 31.88000
H  45.78400 38.43400 30.96800
H  46.01400 38.12600 32.69500
H  45.00100 37.09400 31.82400
H  48.67100 35.40100 32.71900
H  48.48900 33.87900 31.84700
H  48.38100 34.38000 34.53000
H  47.40400 33.07600 33.85800
H  50.45600 40.90400 28.03500
H  49.14700 40.51800 28.99800
H  48.88500 41.36200 27.49000
H  51.21400 41.59200 24.25300
H  51.50700 41.06900 25.89900
H  49.77300 41.62800 25.40500
H  50.61100 34.66200 22.98300
H  48.15900 32.98900 22.60100
H  49.54500 36.00200 21.43300
H  47.92800 35.51100 21.88200
H  49.00600 34.44600 20.98200
H  49.82000 31.26600 24.30200
H  50.97100 32.44000 23.64600
H  50.35300 30.04700 22.52500
H  51.09900 31.31000 21.58300
H  49.33200 31.06000 21.59100
H  44.78300 29.53100 26.98100
H  46.49500 29.45700 26.40400
H  45.20800 30.22400 25.36400
H  44.43900 33.07800 30.70700
H  44.60200 31.04900 34.55600
H  46.33600 31.08500 34.20300
H  45.41500 29.92200 33.39300

