158

Mg 50.84600 45.46800 42.74900
C  47.96800 46.87300 41.14800
C  50.38800 42.62600 40.95800
C  53.98100 44.64400 43.49600
C  51.32800 48.71400 44.16400
N  49.40200 44.91000 41.25900
C  48.28500 45.55100 40.76000
C  47.38700 44.73300 39.94500
C  48.13300 43.34000 39.90300
C  49.34800 43.56000 40.80500
C  47.19500 42.16800 40.25800
C  47.03400 45.24800 38.52900
C  45.51600 45.23700 38.14900
H  45.05800 44.05600 37.25300
N  52.06000 43.79400 42.36300
C  51.63400 42.71700 41.62700
C  52.63200 41.76300 41.73000
C  53.74800 42.24800 42.48200
C  53.33500 43.59700 42.82700
C  52.45600 40.41000 41.11900
C  55.01900 41.47000 42.77100
O  55.16600 40.31700 42.39300
C  56.21900 42.19600 43.45500
N  52.50600 46.65400 43.39900
C  53.67900 46.02500 43.77800
C  54.66800 47.02700 44.33000
C  53.75800 48.17700 44.70400
C  52.43300 47.82100 44.07800
C  55.57000 46.55500 45.51700
C  54.32500 49.60000 44.44400
C  54.36900 50.47900 45.62500
N  49.87100 47.39000 42.75400
C  50.09000 48.51600 43.47200
C  48.99000 49.49200 43.21400
C  48.10800 48.81100 42.34400
C  48.72800 47.58900 42.05600
C  48.84900 50.90400 43.72200
C  46.86800 48.96500 41.64400
O  46.06800 49.89700 41.66300
C  46.68300 47.68100 40.90600
C  45.48100 47.06800 41.57900
O  45.50900 46.21200 42.40000
O  44.32200 47.40000 40.95400
C  43.10800 46.96500 41.63100
H  50.17900 41.70800 40.40400
H  54.98200 44.35500 43.82500
H  51.37900 49.57800 44.82900
H  46.44400 44.68300 40.48900
H  48.44700 43.13800 38.87800
H  46.19600 42.41200 40.61800
H  47.69200 41.69900 41.10700
H  47.25500 41.48000 39.41500
H  47.59400 44.69600 37.77400
H  47.31900 46.29500 38.42800
H  45.33400 46.11600 37.53100
H  44.83600 45.21200 39.00000
H  51.42500 40.19200 40.84000
H  52.69900 39.55400 41.74900
H  53.00600 40.34000 40.18100
H  55.87500 42.43000 44.46200
H  56.49900 43.05500 42.84500
H  57.13800 41.61400 43.53000
H  55.28200 47.15800 43.43900
H  53.49700 48.10600 45.76000
H  55.26900 47.09000 46.41800
H  56.57500 46.89400 45.26500
H  55.63500 45.48900 45.73400
H  53.60300 50.01800 43.74200
H  55.27100 49.51700 43.90900
H  55.39500 50.80400 45.79800
H  53.97300 50.10400 46.56900
H  53.79600 51.36500 45.35200
H  48.07500 51.02600 44.47900
H  48.66600 51.36200 42.75000
H  49.75400 51.38500 44.09200
H  46.45700 48.01000 39.89100
H  42.47000 47.81700 41.86500
H  43.29700 46.36500 42.52100
H  42.79600 46.29600 40.82900
Mg 0.05400 43.58100 26.20500
C  2.68200 43.30400 28.64700
C  -2.19900 43.26000 28.88600
C  -2.32600 43.32800 23.96600
C  2.52600 43.88500 23.77400
N  0.26800 43.37700 28.49600
C  1.42300 43.32500 29.23100
C  1.07900 43.19400 30.67700
C  -0.44900 42.90800 30.72100
C  -0.86300 43.28600 29.32600
C  -0.77900 41.50600 31.06600
C  1.55700 44.59000 31.34800
C  1.82800 44.59200 32.80100
H  1.24400 43.52000 33.66200
N  -1.93100 43.30600 26.40300
C  -2.67800 43.34300 27.54300
C  -4.10600 43.35300 27.20600
C  -4.11800 43.27200 25.76500
C  -2.73500 43.27800 25.32300
C  -5.18300 43.26300 28.25200
C  -5.29700 43.17500 24.79800
O  -5.26600 43.08000 23.55100
C  -6.69400 43.20000 25.37000
N  0.17300 43.13100 24.15000
C  -1.01900 43.36900 23.48800
C  -0.66600 43.56200 21.98500
C  0.78100 44.10000 21.99500
C  1.24700 43.61700 23.37400
C  -0.87900 42.18300 21.27500
C  0.92600 45.63800 21.84000
C  1.88200 46.10600 20.71000
N  2.15900 43.50000 26.13500
C  3.03400 43.70900 25.08800
C  4.38900 43.66800 25.61300
C  4.30900 43.49800 26.99300
C  2.92900 43.37200 27.24400
C  5.58200 43.97400 24.69100
C  5.13100 43.42900 28.16200
O  6.32100 43.41000 28.36600
C  4.04300 43.25800 29.31100
C  4.23100 42.02900 30.16300
O  4.03300 40.85200 29.87800
O  4.61800 42.50900 31.38700
C  4.89000 41.50900 32.39300
H  -2.97600 43.17600 29.64800
H  -3.04600 43.49200 23.16200
H  3.26500 44.17000 23.02200
H  1.64100 42.43700 31.22400
H  -0.87600 43.54400 31.49600
H  0.06700 41.01900 31.55200
H  -1.01300 40.89800 30.19200
H  -1.62400 41.37700 31.74200
H  0.76600 45.30400 31.11800
H  2.40000 45.09900 30.88000
H  1.52900 45.55300 33.21900
H  2.91100 44.62800 32.92300
H  -4.72400 42.67900 29.05000
H  -6.06800 42.83300 27.78300
H  -5.50000 44.23500 28.62800
H  -6.76300 44.14500 25.91100
H  -6.76900 42.27800 25.94700
H  -7.41400 43.06200 24.56300
H  -1.24500 44.31700 21.45200
H  1.21900 43.65700 21.10100
H  -0.02000 41.62300 20.90400
H  -1.48900 42.22500 20.37200
H  -1.38400 41.52700 21.98300
H  1.32400 46.03300 22.77500
H  -0.05900 46.06700 21.65400
H  1.50500 46.97300 20.16600
H  2.07400 45.39800 19.90300
H  2.75400 46.63500 21.09400
H  5.29400 43.62600 23.69900
H  6.49000 43.51900 25.08800
H  5.83400 45.03400 24.67200
H  4.17300 44.11800 29.96800
H  4.87700 42.03000 33.35000
H  5.78200 40.88800 32.30900
H  4.04900 40.82200 32.49100

