158

Mg 36.49100 49.59800 25.93600
C  36.56900 47.57800 28.78000
C  35.42600 52.16800 27.93400
C  36.11500 51.48300 23.15200
C  37.26800 46.84000 23.98900
N  35.90800 49.77200 28.21900
C  36.21300 48.86300 29.17200
C  36.08700 49.50600 30.59000
C  35.49600 50.98300 30.27900
C  35.58500 51.00200 28.70700
C  33.95100 51.17100 30.64200
C  37.42400 49.38100 31.32300
C  37.36600 49.15600 32.83600
H  36.15400 49.66300 33.58200
N  35.92700 51.53100 25.63000
C  35.64400 52.49700 26.57900
C  35.57600 53.79900 25.91800
C  35.67600 53.58800 24.52100
C  36.00000 52.18900 24.36400
C  35.41800 55.00000 26.79300
C  35.57400 54.60900 23.41500
O  35.88500 54.35500 22.24000
C  35.13000 55.98100 23.86400
N  36.53000 49.19200 23.81800
C  36.33900 50.09200 22.88300
C  36.68600 49.58800 21.42600
C  37.17400 48.13700 21.74500
C  36.98000 48.01500 23.28900
C  35.60900 49.67500 20.32900
C  38.62800 47.90500 21.32700
C  38.60700 46.90300 20.21300
N  36.71200 47.59400 26.27100
C  37.06400 46.61000 25.34700
C  37.14600 45.35400 26.05200
C  36.98700 45.68200 27.40400
C  36.77300 47.10400 27.48400
C  37.53800 44.10900 25.39800
C  36.99200 45.14300 28.73800
O  37.14500 43.99400 29.13800
C  36.74300 46.35200 29.70500
C  35.39800 46.09500 30.32300
O  34.36200 46.07800 29.68900
O  35.54100 45.69000 31.66300
C  34.34400 45.45600 32.34300
H  35.12500 53.05600 28.49300
H  36.16200 52.11000 22.25900
H  37.57500 46.05200 23.29800
H  35.28300 48.87600 30.97100
H  36.10900 51.79800 30.66400
H  33.90100 50.47200 31.47700
H  33.34000 50.75000 29.84400
H  33.39500 52.06600 30.92300
H  37.84600 50.38600 31.28300
H  38.16000 48.69900 30.89900
H  38.29400 49.57500 33.22300
H  37.55400 48.10900 33.07500
H  34.48100 55.55700 26.77300
H  36.17900 55.65700 26.37300
H  35.78800 54.87400 27.81100
H  34.81700 56.69200 23.09900
H  35.99100 56.47100 24.31900
H  34.23500 55.83900 24.47100
H  37.55300 50.16600 21.10500
H  36.52900 47.42700 21.22700
H  35.53200 48.72500 19.79900
H  35.74800 50.46900 19.59500
H  34.67400 49.96100 20.81100
H  39.27700 47.48500 22.09600
H  39.13000 48.82000 21.01200
H  37.96400 47.13200 19.36400
H  38.49100 45.91300 20.65400
H  39.61700 46.83000 19.81100
H  37.45600 43.20400 25.99900
H  38.50200 44.22000 24.90200
H  36.87000 43.91400 24.55900
H  37.58400 46.47800 30.38700
H  34.00000 44.44300 32.13400
H  33.55200 46.18800 32.18900
H  34.46500 45.46900 33.42600
Mg 26.19800 50.96100 26.63000
C  23.91800 52.01600 29.08000
C  28.26600 50.03900 29.05000
C  28.40300 50.11000 24.27100
C  23.98400 52.20300 24.15100
N  26.19700 51.14200 28.78100
C  25.11000 51.46400 29.60300
C  25.38300 51.41300 31.02400
C  26.89200 51.05700 31.04400
C  27.21100 50.72000 29.53800
C  27.85300 52.14200 31.71000
C  24.37800 50.58300 31.83500
C  24.83000 49.89600 33.17500
H  25.49300 50.79900 34.24500
N  28.11300 50.12300 26.63100
C  28.80900 49.81100 27.78000
C  30.13700 49.32200 27.40500
C  30.24000 49.23900 25.98600
C  28.84000 49.80200 25.55400
C  31.24100 48.87400 28.38600
C  31.33300 48.78400 25.06500
O  31.14300 48.65600 23.83800
C  32.62900 48.50100 25.53800
N  26.30600 51.37400 24.52500
C  27.31200 50.75900 23.76500
C  27.00800 50.85900 22.25800
C  25.49400 51.28500 22.20800
C  25.22600 51.63000 23.71200
C  28.06700 51.63300 21.40900
C  24.60800 50.24200 21.63900
C  23.17200 50.74000 21.21700
N  24.37600 52.01500 26.57300
C  23.58000 52.37000 25.48900
C  22.37700 53.02600 26.04600
C  22.52800 52.95700 27.46000
C  23.63000 52.20900 27.69800
C  21.33000 53.83500 25.31100
C  21.92900 53.37500 28.71000
O  20.92900 54.06200 28.94500
C  22.78500 52.77300 29.73600
C  23.33700 53.91300 30.53500
O  24.32200 54.54000 30.23700
O  22.75900 54.07800 31.73100
C  23.17900 55.21700 32.54900
H  28.91600 49.55700 29.78300
H  29.04800 49.79500 23.44800
H  23.24900 52.53100 23.41200
H  25.25500 52.47700 31.22100
H  27.09400 50.21700 31.70800
H  27.23200 52.96700 32.06100
H  28.64100 52.47700 31.03500
H  28.34100 51.80900 32.62700
H  23.93100 49.83900 31.17500
H  23.66300 51.26800 32.29000
H  25.51800 49.12300 32.83200
H  23.92700 49.48600 33.62700
H  30.79700 48.36100 29.23900
H  31.74700 49.81300 28.61300
H  32.01800 48.24700 27.95000
H  33.35400 48.45400 24.72500
H  32.56100 47.49000 25.94100
H  32.98800 49.18900 26.30300
H  27.23800 49.86500 21.87400
H  25.41000 52.23100 21.67400
H  27.62600 52.57000 21.06800
H  28.47100 50.91200 20.69800
H  28.92500 51.80600 22.06000
H  24.44600 49.41100 22.32600
H  25.15900 49.71700 20.85900
H  23.09300 50.72200 20.13000
H  23.02300 51.81900 21.24600
H  22.47000 50.17900 21.83400
H  20.41500 53.24800 25.38800
H  21.62200 54.06000 24.28500
H  21.05200 54.75200 25.83100
H  22.30700 52.17500 30.51300
H  23.93500 54.96400 33.29200
H  22.41100 55.42700 33.29300
H  23.48000 56.14800 32.06800

