158

Mg 43.17700 42.46300 25.75700
C  42.39400 44.85500 28.26600
C  44.46500 40.49600 28.24900
C  44.35600 40.39300 23.48800
C  42.21400 44.81100 23.37000
N  43.48000 42.76500 27.94700
C  42.94200 43.72700 28.80600
C  43.19000 43.43900 30.36800
C  44.11400 42.10100 30.27900
C  44.03500 41.76500 28.67500
C  45.50700 42.35100 30.90100
C  41.86800 43.39900 31.16600
C  41.49200 42.32900 32.26100
H  40.86000 42.89300 33.46400
N  44.09500 40.59800 25.83800
C  44.47600 39.93800 27.00500
C  44.86800 38.56900 26.63200
C  44.70600 38.53900 25.20900
C  44.42800 39.85900 24.80500
C  45.30800 37.50400 27.67300
C  44.95400 37.38100 24.22800
O  44.86000 37.46100 22.99900
C  45.18100 36.05000 24.80900
N  43.27700 42.59500 23.74800
C  43.84400 41.57300 23.00700
C  43.76100 41.91000 21.51400
C  42.73000 43.11900 21.49500
C  42.75100 43.56200 22.95000
C  45.09600 42.31500 20.88000
C  41.34000 42.74100 20.91800
C  40.36400 42.08200 21.89200
N  42.48400 44.42600 25.78300
C  42.14500 45.26500 24.74100
C  41.69700 46.52400 25.29400
C  41.78500 46.39800 26.65800
C  42.23600 45.08800 26.88600
C  41.25700 47.68700 24.47300
C  41.54300 47.10000 27.87000
O  41.31800 48.26300 28.10400
C  41.84700 46.12600 28.95100
C  42.88200 46.67800 29.90400
O  44.10800 46.59100 29.69300
O  42.38000 47.16600 31.08900
C  43.36400 47.33000 32.15400
H  44.89500 39.90000 29.05600
H  44.74300 39.72900 22.71200
H  41.91000 45.58400 22.66100
H  43.80200 44.24500 30.77300
H  43.73300 41.21600 30.78800
H  45.71800 43.40900 31.05700
H  46.23500 41.82300 30.28600
H  45.72600 41.89600 31.86700
H  41.00800 43.38300 30.49700
H  41.79200 44.42100 31.53600
H  42.37300 41.74400 32.52600
H  40.85800 41.55700 31.82500
H  45.26800 37.89500 28.69000
H  46.31500 37.17700 27.41500
H  44.66000 36.64700 27.86000
H  45.55400 35.37700 24.03800
H  44.28800 35.69500 25.32500
H  46.04800 36.17600 25.45800
H  43.42100 40.98800 21.04200
H  43.11600 43.99600 20.97500
H  45.73600 42.58700 21.71900
H  44.88800 43.25400 20.36600
H  45.52500 41.51700 20.27300
H  41.54700 42.13000 20.04000
H  41.02100 43.73300 20.60100
H  40.22000 41.10400 21.43200
H  39.42200 42.62800 21.84600
H  40.60100 42.05600 22.95600
H  40.16900 47.67400 24.40800
H  41.60900 47.51500 23.45600
H  41.66300 48.65800 24.75900
H  40.87300 46.03300 29.43000
H  44.04300 46.47800 32.18100
H  42.82800 47.43700 33.09700
H  43.79000 48.33100 32.08300
Mg -11.35500 37.40800 42.64900
C  -9.20900 34.76900 41.72600
C  -9.00300 39.66600 41.29600
C  -13.59500 39.79300 42.95500
C  -13.75500 34.99200 43.44900
N  -9.50800 37.26200 41.57000
C  -8.85300 36.05200 41.27000
C  -7.53600 36.27700 40.38100
C  -7.26800 37.83000 40.63000
C  -8.70700 38.33000 41.20400
C  -6.11300 38.14500 41.60500
C  -7.68200 35.83200 38.88100
C  -6.75200 34.68300 38.37800
H  -5.91100 35.01200 37.11900
N  -11.21600 39.48300 42.35800
C  -10.21600 40.17700 41.79200
C  -10.58900 41.60600 41.71700
C  -11.91600 41.70000 42.11400
C  -12.33100 40.29700 42.50300
C  -9.68000 42.65100 41.24700
C  -12.68100 43.02200 41.95500
O  -12.12800 44.07800 41.63100
C  -14.18300 42.99500 42.18100
N  -13.38600 37.39400 43.21300
C  -14.06000 38.54800 43.36400
C  -15.53200 38.33400 43.91200
C  -15.61700 36.78000 43.98900
C  -14.20300 36.33100 43.52700
C  -15.93600 39.06300 45.20100
C  -16.69500 36.05600 43.17500
C  -17.47900 34.90900 43.90300
N  -11.47100 35.30800 42.63800
C  -12.45800 34.49900 43.05500
C  -11.97600 33.14700 43.10400
C  -10.65000 33.24100 42.63400
C  -10.43200 34.57400 42.22800
C  -12.72300 31.86300 43.65000
C  -9.45400 32.45800 42.33100
O  -9.20700 31.25300 42.51100
C  -8.45900 33.37900 41.66100
C  -7.14300 33.28100 42.38000
O  -6.21900 32.69400 41.85000
O  -7.12500 33.92900 43.60000
C  -5.81800 34.13000 44.16000
H  -8.22600 40.42400 41.18200
H  -14.25900 40.63300 43.16900
H  -14.49900 34.28300 43.82000
H  -6.68900 35.67600 40.71100
H  -7.05000 38.28700 39.66500
H  -5.29100 38.46200 40.96400
H  -5.85900 37.25600 42.18200
H  -6.35200 38.98200 42.26100
H  -7.53500 36.63400 38.15800
H  -8.68900 35.46900 38.67600
H  -7.26900 33.72500 38.32300
H  -6.08100 34.46900 39.21000
H  -8.60700 42.54900 41.08600
H  -9.70700 43.54500 41.87100
H  -10.17100 42.83400 40.29100
H  -14.71200 43.80600 41.67900
H  -14.45600 42.92300 43.23300
H  -14.66400 42.10500 41.77600
H  -16.20400 38.79900 43.19000
H  -15.68300 36.55900 45.05400
H  -14.97900 39.33000 45.65000
H  -16.54200 38.40600 45.82500
H  -16.42800 40.02100 45.03200
H  -16.29000 35.78600 42.20000
H  -17.44300 36.80500 42.91400
H  -18.51700 35.23200 43.98500
H  -16.98700 34.68400 44.84900
H  -17.32600 33.99300 43.33200
H  -12.50200 31.54000 44.66700
H  -12.41100 31.10400 42.93200
H  -13.79600 32.04800 43.58600
H  -8.28400 33.01600 40.64800
H  -5.13500 33.36900 43.78300
H  -5.86600 34.09400 45.24800
H  -5.39100 35.12100 44.00000

