158

Mg 0.00100 8.05500 26.51900
C  0.62500 9.55800 29.63200
C  0.00500 4.97800 27.85900
C  0.39100 6.67200 23.36600
C  0.53500 11.16600 24.97400
N  0.19400 7.45500 28.56900
C  0.41000 8.15000 29.72500
C  0.02900 7.35300 30.96500
C  0.10500 5.91000 30.39300
C  0.06500 6.09400 28.78400
C  1.46300 5.19200 30.79600
C  -1.28100 7.79800 31.58100
C  -1.32300 7.79400 33.13400
H  -0.26700 6.96700 33.88400
N  -0.13100 6.15000 25.75100
C  -0.11500 5.01100 26.45000
C  -0.32200 3.84100 25.62200
C  -0.23900 4.39300 24.26900
C  0.02900 5.79900 24.40000
C  -0.44700 2.48700 26.11200
C  -0.38700 3.66700 22.91400
O  -0.47600 4.29800 21.82500
C  -0.54700 2.20100 22.90300
N  0.24900 8.82300 24.43100
C  0.55400 8.04600 23.38100
C  0.93700 8.81200 22.18400
C  0.52800 10.25300 22.59300
C  0.43200 10.12600 24.08400
C  2.48400 8.82500 21.75600
C  -0.69600 10.87700 21.84700
C  -2.05300 10.63100 22.53600
N  0.46700 9.96000 27.09300
C  0.58100 11.12200 26.36300
C  0.77700 12.23100 27.27800
C  0.85800 11.63000 28.55800
C  0.64900 10.29100 28.39400
C  1.10400 13.64100 26.81900
C  0.96600 11.95500 29.97200
O  1.21300 13.01100 30.55700
C  0.66800 10.61500 30.72700
C  1.63600 10.41300 31.78800
O  2.75800 10.00200 31.60000
O  1.23400 11.05000 32.89700
C  2.26600 11.33700 33.99000
H  -0.11500 4.02100 28.37100
H  0.71300 6.25600 22.40900
H  0.56500 12.21100 24.65700
H  0.84200 7.45700 31.68400
H  -0.67700 5.21800 30.70700
H  1.16000 4.43200 31.51700
H  2.16800 5.76400 31.40000
H  2.04800 4.70200 30.01800
H  -2.13700 7.26700 31.16300
H  -1.49800 8.78000 31.16100
H  -2.29800 7.37400 33.37900
H  -1.21700 8.79700 33.54700
H  0.04500 1.70700 25.53100
H  -1.50700 2.26400 26.23300
H  0.01900 2.47900 27.09700
H  0.25200 1.71900 23.46600
H  -0.44300 1.93300 21.85200
H  -1.52400 1.97000 23.32700
H  0.33500 8.48500 21.33700
H  1.32800 10.98700 22.49800
H  3.17700 9.10600 22.54900
H  2.59800 9.58300 20.98100
H  2.62900 7.80700 21.39300
H  -0.60400 10.43000 20.85800
H  -0.54400 11.95700 21.83700
H  -2.02000 9.77500 23.21000
H  -2.89600 10.49300 21.85900
H  -2.28100 11.52000 23.12500
H  1.86200 13.64400 26.03600
H  1.45700 14.27800 27.63000
H  0.24100 14.19400 26.44900
H  -0.27100 10.61600 31.28200
H  2.32400 12.41700 34.12900
H  3.30300 11.06900 33.78500
H  1.85700 10.99200 34.93900
Mg 48.47600 34.95200 27.22800
C  46.78500 33.47400 29.91500
C  49.36700 37.61100 29.24100
C  49.72900 36.46400 24.46700
C  47.34200 32.28700 25.20500
N  48.11800 35.44300 29.33800
C  47.60600 34.57300 30.28300
C  47.79800 35.13200 31.67900
C  48.19800 36.60600 31.37700
C  48.63900 36.56700 29.90100
C  47.18300 37.71600 31.67800
C  48.95800 34.37500 32.44600
C  48.85000 34.25400 33.93600
H  47.90800 35.16000 34.78400
N  49.53300 36.76400 26.93800
C  49.79900 37.69900 27.88400
C  50.54900 38.68700 27.28400
C  50.81800 38.33100 25.98700
C  49.92900 37.23900 25.70700
C  51.12900 39.76200 28.06200
C  51.77700 38.96600 24.90100
O  51.93800 38.45100 23.81000
C  52.55100 40.15900 25.37400
N  48.34600 34.52300 25.06300
C  48.95000 35.32600 24.17500
C  48.89600 34.74200 22.74600
C  48.30100 33.32700 22.94000
C  48.03200 33.34200 24.55200
C  48.24000 35.66900 21.70200
C  49.10100 32.10300 22.42300
C  50.01300 31.43100 23.41100
N  47.14000 33.29100 27.47500
C  46.91100 32.23900 26.57600
C  46.08900 31.29000 27.25800
C  45.95300 31.77600 28.53400
C  46.64700 32.97600 28.61200
C  45.62600 29.97900 26.62000
C  45.34900 31.52100 29.75900
O  44.68200 30.54800 30.13600
C  45.80300 32.61900 30.72200
C  46.40000 31.90000 31.94600
O  47.46800 31.37200 32.02200
O  45.45300 31.81300 32.93200
C  45.87100 30.97600 34.18100
H  49.62800 38.42600 29.91900
H  50.03600 36.96000 23.54300
H  47.04400 31.40200 24.63800
H  46.87300 35.02400 32.24600
H  49.18700 36.79700 31.79300
H  46.42200 37.38300 32.38500
H  46.61500 37.90500 30.76700
H  47.71200 38.52200 32.18800
H  49.90500 34.78900 32.09900
H  48.94000 33.33100 32.13200
H  49.80300 34.19100 34.46300
H  48.41600 33.26000 34.03600
H  50.65800 40.67600 27.70300
H  52.21000 39.83200 27.94100
H  50.99400 39.78600 29.14400
H  53.18600 40.51300 24.56300
H  53.22500 40.05500 26.22500
H  51.77500 40.89800 25.57400
H  49.95400 34.59100 22.53100
H  47.29100 33.36100 22.53000
H  47.41300 35.17400 21.19200
H  49.00000 36.09600 21.04700
H  47.65600 36.49100 22.11600
H  49.68400 32.57500 21.63200
H  48.34700 31.37200 22.13100
H  50.99000 31.48000 22.93000
H  49.63200 30.42800 23.59900
H  50.12900 32.05700 24.29600
H  46.14800 29.08500 26.95900
H  45.83800 29.92100 25.55200
H  44.55500 29.81200 26.73900
H  44.95200 33.19200 31.09000
H  46.85200 31.27000 34.55400
H  45.88500 29.93300 33.86400
H  45.21700 30.85600 35.04400

