158

Mg 50.07200 45.35500 41.11300
C  46.85400 46.07900 40.10500
C  49.70100 42.11400 39.98700
C  53.54100 44.82900 41.22400
C  50.71900 48.77900 41.63200
N  48.39600 44.18000 40.23600
C  47.08900 44.67700 39.95500
C  46.23500 43.51100 39.38500
C  47.17200 42.23300 39.50400
C  48.49800 42.88100 39.92700
C  46.55900 41.17900 40.53100
C  45.71100 43.68400 37.96900
C  44.61500 42.70600 37.48000
H  44.91900 41.88500 36.21900
N  51.34600 43.67700 40.82900
C  51.00800 42.41700 40.31400
C  52.19100 41.57600 40.27800
C  53.29300 42.41400 40.72500
C  52.74600 43.72900 40.95800
C  52.24000 40.11200 39.87400
C  54.65500 41.87600 40.96800
O  54.85800 40.66100 40.86900
C  55.88500 42.60600 41.56200
N  51.85800 46.61100 41.33500
C  53.15300 46.13400 41.36500
C  54.15600 47.26800 41.66000
C  53.19500 48.44300 41.99700
C  51.83700 47.87900 41.68300
C  55.31300 46.98700 42.72700
C  53.48600 49.76400 41.26900
C  53.27900 51.06400 42.07500
N  49.06200 47.08400 41.02700
C  49.41800 48.39500 41.24300
C  48.28000 49.31400 41.13400
C  47.25900 48.39500 40.59500
C  47.76800 47.07200 40.59100
C  48.28200 50.75600 41.31300
C  45.88100 48.37400 40.05500
O  45.09400 49.29800 39.76800
C  45.60600 46.91100 39.83000
C  44.45900 46.50300 40.80500
O  44.48000 46.55200 41.99900
O  43.43400 46.12700 40.02400
C  42.13500 45.84700 40.69000
H  49.56900 41.06400 39.72000
H  54.62400 44.70100 41.27700
H  50.84900 49.79300 42.01600
H  45.29800 43.43200 39.93600
H  47.17400 41.71700 38.54400
H  46.27800 40.26600 40.00600
H  45.63900 41.51800 41.00700
H  47.28700 41.02200 41.32700
H  46.52800 43.46900 37.28000
H  45.28100 44.68300 37.90300
H  43.75600 43.32100 37.21100
H  44.31200 42.01500 38.26700
H  51.38100 39.87000 39.24800
H  52.12800 39.49300 40.76400
H  53.19800 39.92800 39.38900
H  55.54500 43.28500 42.34400
H  56.32400 43.23400 40.78700
H  56.59300 41.90200 41.99800
H  54.76100 47.55100 40.79900
H  53.25700 48.62500 43.07000
H  55.44800 47.86700 43.35400
H  56.21000 46.67000 42.19600
H  55.01000 46.20000 43.41800
H  52.79300 49.79000 40.42800
H  54.54500 49.78900 41.01300
H  52.85700 50.86900 43.06100
H  52.47300 51.55600 41.53000
H  54.16400 51.70000 42.08200
H  47.38100 51.01900 41.86700
H  48.10100 51.09500 40.29300
H  49.18300 51.26300 41.65900
H  45.40000 46.78800 38.76600
H  41.74700 44.96800 40.17700
H  41.48000 46.67700 40.42500
H  42.17900 45.65800 41.76300
Mg 9.45200 47.92600 25.43900
C  7.14400 48.33500 28.10200
C  11.81300 49.29600 27.64000
C  11.69800 47.80800 22.94300
C  6.84500 47.01800 23.28000
N  9.49700 48.44700 27.70800
C  8.46100 48.65500 28.50900
C  8.96900 49.04000 29.92400
C  10.29000 49.74500 29.60800
C  10.59100 49.09900 28.26600
C  10.20000 51.21600 29.51900
C  9.09100 47.77300 30.75300
C  8.62900 47.92200 32.17600
H  8.87700 46.79500 33.19800
N  11.47800 48.43500 25.32200
C  12.28100 48.95000 26.34700
C  13.63000 49.19200 25.84100
C  13.62300 48.73900 24.47600
C  12.20600 48.34700 24.19300
C  14.78900 49.65500 26.58000
C  14.72900 48.42700 23.53000
O  14.54900 48.05300 22.39400
C  16.14600 48.72700 23.96900
N  9.27600 47.61900 23.39900
C  10.36600 47.49500 22.53300
C  9.95300 47.18400 21.09400
C  8.41900 46.80400 21.24900
C  8.18200 47.16800 22.74700
C  10.17100 48.30400 20.08800
C  8.07900 45.32200 20.93700
C  8.57500 44.33100 21.99800
N  7.40900 47.76400 25.57600
C  6.51800 47.42400 24.61200
C  5.14100 47.44000 25.19200
C  5.39200 47.65200 26.55200
C  6.78800 47.91800 26.72700
C  3.87900 47.19300 24.51200
C  4.74200 47.84600 27.87500
O  3.57400 47.80700 28.30300
C  5.86100 48.21500 28.88800
C  5.87100 47.18200 29.94600
O  6.31600 46.04900 29.73800
O  5.37900 47.61300 31.15700
C  5.37600 46.65500 32.24600
H  12.56800 49.66000 28.34100
H  12.32100 47.69300 22.05300
H  5.96700 46.73800 22.69400
H  8.28100 49.78500 30.32300
H  11.11800 49.45600 30.25500
H  9.16900 51.56700 29.46900
H  10.56500 51.61100 28.57100
H  10.68200 51.63700 30.40000
H  10.14900 47.65900 30.98900
H  8.64500 46.89900 30.27700
H  7.61600 48.31300 32.26700
H  9.19900 48.71400 32.66300
H  15.39800 50.30600 25.95300
H  15.32000 48.75100 26.87700
H  14.33600 50.07600 27.47800
H  16.41200 49.78400 23.99900
H  16.75000 48.14700 23.27100
H  16.31100 48.27100 24.94500
H  10.50200 46.29500 20.78500
H  7.66800 47.40500 20.73800
H  9.78400 49.28100 20.37900
H  9.62000 48.11000 19.16800
H  11.20000 48.41500 19.74800
H  8.41200 45.06700 19.93200
H  6.98900 45.30700 20.92900
H  9.28100 44.67100 22.75600
H  9.04100 43.46700 21.52400
H  7.73900 43.95900 22.59000
H  3.99100 46.90000 23.46800
H  3.34800 48.14400 24.52300
H  3.22100 46.46600 24.98900
H  5.67200 49.19700 29.32100
H  5.90300 47.18900 33.03600
H  5.71500 45.67900 31.89700
H  4.31200 46.48700 32.41400

