158

Mg 26.52200 49.59600 27.30900
C  24.47500 50.82100 29.97000
C  28.83400 48.64000 29.77300
C  28.67400 48.69100 24.86600
C  24.42000 51.02200 25.02800
N  26.55700 49.68500 29.65100
C  25.58600 50.15900 30.44400
C  25.98800 49.93700 31.93300
C  27.44500 49.35200 31.87700
C  27.64400 49.20400 30.32000
C  28.57200 50.26600 32.53600
C  24.93200 49.10500 32.77100
C  24.27100 49.77800 33.99400
H  24.26100 48.97000 35.32900
N  28.46300 48.88000 27.27700
C  29.20200 48.48200 28.42500
C  30.54000 48.06400 27.96400
C  30.51500 48.07900 26.57100
C  29.18800 48.51400 26.19600
C  31.53100 47.62400 29.02600
C  31.60900 47.69100 25.56000
O  31.54000 47.89000 24.35800
C  33.02000 47.23500 26.03800
N  26.57000 49.89800 25.26100
C  27.52300 49.36900 24.44000
C  27.09200 49.34900 22.96500
C  25.73400 50.03800 22.99200
C  25.57500 50.36000 24.51100
C  27.99700 49.94300 21.89100
C  24.52400 49.12700 22.50900
C  23.79500 49.72700 21.30000
N  24.72800 50.57700 27.46700
C  24.02200 51.22400 26.44200
C  22.82200 51.73700 26.89200
C  22.89700 51.57400 28.30400
C  24.13100 50.97400 28.57700
C  21.76800 52.39600 26.05000
C  22.28700 51.93400 29.52300
O  21.28000 52.48200 29.74300
C  23.21600 51.32800 30.63100
C  23.45900 52.35400 31.62200
O  24.31700 53.19300 31.60000
O  22.43700 52.34000 32.53400
C  22.48200 53.29800 33.59100
H  29.39800 48.41000 30.68000
H  29.25900 48.22200 24.07200
H  23.69200 51.37400 24.29400
H  26.02600 50.93700 32.36400
H  27.61400 48.34900 32.26700
H  28.17300 50.93000 33.30300
H  28.91100 50.84300 31.67500
H  29.47600 49.74500 32.85100
H  25.35800 48.20400 33.21300
H  24.24500 48.85000 31.96400
H  23.24500 50.00500 33.70500
H  24.69800 50.78100 34.02200
H  32.52400 48.01200 28.80000
H  31.59000 46.55300 28.83600
H  31.23800 47.84200 30.05300
H  33.70500 47.91400 26.54600
H  33.51200 46.65200 25.26000
H  32.87100 46.41100 26.73600
H  27.05700 48.28000 22.75500
H  25.78200 51.01800 22.51700
H  28.53500 49.12200 21.41600
H  28.82800 50.58600 22.17700
H  27.44500 50.43200 21.08800
H  23.80600 48.90900 23.30000
H  24.85600 48.11000 22.30300
H  22.81700 50.10800 21.59500
H  23.51400 48.92500 20.61700
H  24.39900 50.51400 20.84900
H  21.53400 51.91300 25.10100
H  22.13000 53.40500 25.85000
H  20.86900 52.62900 26.61900
H  22.72200 50.51700 31.16600
H  22.32700 54.34000 33.31000
H  23.36400 53.14900 34.21500
H  21.57300 53.06100 34.14300
Mg 6.34500 54.12900 41.67300
C  5.88000 50.64900 41.41500
C  9.51000 53.60700 40.41000
C  6.63100 57.48700 41.23400
C  2.98700 54.52800 42.59500
N  7.57600 52.29900 41.02300
C  7.20900 50.94500 41.04600
C  8.26800 50.10300 40.33800
C  9.52100 51.02300 40.51500
C  8.82900 52.38700 40.63400
C  10.41700 50.74900 41.75700
C  8.03300 49.65700 38.89900
C  7.39400 50.76300 38.01300
H  6.25400 50.41000 37.04900
N  7.92400 55.41100 40.94900
C  9.13800 54.97700 40.44700
C  9.87300 56.08300 40.02100
C  9.07600 57.32900 40.30500
C  7.81100 56.76700 40.84800
C  11.32300 56.04000 39.45800
C  9.41300 58.77800 40.04300
O  10.57100 58.96400 39.61100
C  8.59700 59.93800 40.26300
N  4.91100 55.76600 41.76400
C  5.36900 57.05000 41.60200
C  4.24000 58.11500 42.01800
C  3.13500 57.07900 42.52300
C  3.72500 55.69600 42.29000
C  4.68000 59.26700 43.02000
C  1.78000 57.18600 41.83800
C  0.56000 57.11600 42.68600
N  4.76000 52.92700 41.96000
C  3.47200 53.24700 42.39700
C  2.73500 52.03200 42.60100
C  3.66600 51.03800 42.27200
C  4.87200 51.57400 41.85700
C  1.27100 51.96800 43.06000
C  3.79400 49.63500 42.22000
O  3.07100 48.74800 42.55500
C  5.20000 49.36000 41.50700
C  4.79100 48.69600 40.24600
O  4.08300 49.11400 39.34800
O  5.44500 47.40000 40.20800
C  5.09300 46.70900 38.96300
H  10.49600 53.43300 39.97500
H  6.68700 58.57600 41.17200
H  1.95700 54.76500 42.87200
H  8.40800 49.21200 40.95000
H  10.20200 51.02700 39.66400
H  9.96200 50.06000 42.46900
H  10.49400 51.74300 42.19700
H  11.43100 50.42100 41.52700
H  7.51500 48.71900 38.70100
H  9.03700 49.53500 38.49200
H  8.07800 51.37800 37.42900
H  6.84200 51.41800 38.68800
H  11.37900 56.24100 38.38800
H  11.80200 55.09100 39.69900
H  11.82000 56.88300 39.93700
H  7.73400 59.90100 39.59800
H  9.25400 60.80600 40.21000
H  8.27100 60.00300 41.30100
H  3.94100 58.60000 41.08900
H  3.12300 57.23600 43.60100
H  4.89700 60.23700 42.57200
H  5.59900 59.00200 43.54300
H  3.94800 59.35800 43.82200
H  1.68400 56.42500 41.06400
H  1.75100 58.11100 41.26100
H  0.69900 56.65200 43.66200
H  -0.23400 56.53700 42.21400
H  0.15400 58.11100 42.87300
H  0.87200 52.98200 43.04600
H  1.22100 51.44800 44.01600
H  0.79400 51.44200 42.23300
H  5.64800 48.67000 42.22200
H  5.35400 45.67200 39.17700
H  5.72800 46.97700 38.11800
H  4.03900 46.84200 38.72000

