158

Mg 17.28500 -1.18000 28.61100
C  15.78400 0.87200 31.06300
C  19.06900 -2.78300 31.07500
C  18.78300 -2.88100 26.22700
C  15.83300 0.90800 26.17300
N  17.28700 -1.05400 30.88000
C  16.61800 -0.10300 31.67800
C  16.92100 -0.29800 33.15700
C  18.29300 -1.18100 33.01900
C  18.27100 -1.75900 31.54800
C  19.55800 -0.27600 33.36900
C  15.80000 -0.98300 33.97500
C  15.81500 -0.70500 35.49500
H  16.99700 -0.09600 36.24300
N  18.66400 -2.70500 28.63900
C  19.23600 -3.26000 29.73900
C  20.08700 -4.28500 29.32900
C  19.98100 -4.38300 27.92500
C  19.10700 -3.24300 27.50300
C  20.89200 -5.07300 30.40000
C  20.75100 -5.28600 26.96000
O  20.70500 -5.17300 25.76100
C  21.54500 -6.51600 27.45700
N  17.46800 -0.83400 26.52100
C  17.98100 -1.85100 25.78500
C  17.83900 -1.54200 24.29800
C  16.95000 -0.30400 24.22600
C  16.68400 -0.03400 25.71000
C  19.21500 -1.57100 23.49400
C  15.68000 -0.38200 23.25800
C  14.27000 -0.91900 23.64600
N  16.01300 0.48000 28.60800
C  15.52300 1.22200 27.49700
C  14.67400 2.27700 27.98200
C  14.81700 2.21000 29.37100
C  15.56300 1.09100 29.70300
C  13.97700 3.34500 27.14700
C  14.51000 2.89300 30.59000
O  13.96500 3.98400 30.81300
C  15.10800 2.05800 31.80200
C  16.01400 2.75600 32.67500
O  17.12500 3.07800 32.38100
O  15.33100 3.15400 33.88000
C  16.12900 3.87200 34.85600
H  19.63200 -3.31600 31.84400
H  19.18000 -3.57500 25.48400
H  15.30000 1.52400 25.44600
H  17.19500 0.62600 33.66400
H  18.38800 -2.02600 33.70100
H  20.36000 -0.82900 32.87900
H  19.69700 -0.24200 34.44900
H  19.47200 0.77500 33.09100
H  15.88600 -2.06000 33.82600
H  14.89000 -0.76500 33.41700
H  15.64300 -1.72500 35.83900
H  14.96000 -0.15400 35.88500
H  20.29000 -5.82600 30.90900
H  21.27400 -4.38900 31.15800
H  21.77300 -5.50100 29.92100
H  21.91200 -7.14000 26.64200
H  20.94700 -7.14200 28.11900
H  22.34000 -6.09000 28.07000
H  17.23400 -2.35000 23.88700
H  17.59300 0.51700 23.91100
H  20.08900 -1.50100 24.14200
H  19.37100 -0.66700 22.90500
H  19.19500 -2.47400 22.88300
H  15.97800 -0.91800 22.35700
H  15.48800 0.61400 22.85700
H  13.59000 -0.10100 23.88500
H  14.47700 -1.64500 24.43100
H  14.00300 -1.45600 22.73600
H  14.64400 3.42600 26.28900
H  13.79000 4.35800 27.50300
H  13.00800 2.92400 26.87900
H  14.24600 1.64800 32.32700
H  17.14100 4.08200 34.50900
H  16.12000 3.25500 35.75400
H  15.64500 4.80400 35.14800
Mg 54.91200 23.27200 44.74300
C  52.43100 25.49400 43.60700
C  53.02700 20.69500 43.82800
C  57.70000 21.20200 44.97700
C  56.99700 26.07100 45.31500
N  52.93900 23.16000 43.84200
C  52.06600 24.14700 43.39300
C  50.75900 23.48000 42.85200
C  50.83000 22.01000 43.40500
C  52.31900 21.94100 43.78000
C  49.89700 21.79100 44.69500
C  50.58600 23.51600 41.32100
C  49.09100 23.79800 41.00000
H  48.53500 23.34600 39.65300
N  55.31300 21.20600 44.57100
C  54.36800 20.33300 44.09800
C  54.94800 18.99100 44.00900
C  56.28200 19.09500 44.44300
C  56.49200 20.51600 44.76200
C  54.26900 17.79200 43.46200
C  57.36800 17.93000 44.43900
O  57.10000 16.75200 44.16400
C  58.75600 17.99500 44.94000
N  57.03300 23.58400 45.07800
C  57.93400 22.59000 45.18800
C  59.36300 23.08800 45.48500
C  59.16500 24.65000 45.67800
C  57.66500 24.78700 45.38200
C  60.01500 22.32200 46.69400
C  60.03700 25.58400 44.78500
C  60.54400 26.83400 45.44100
N  54.80700 25.35100 44.58000
C  55.72100 26.33600 44.86500
C  55.00400 27.56900 44.79100
C  53.75600 27.34800 44.17000
C  53.71300 25.99600 44.09200
C  55.45500 28.94100 45.11600
C  52.54000 27.91500 43.73900
O  52.14000 29.09900 43.76200
C  51.65700 26.78000 43.25400
C  51.55600 26.81100 41.75900
O  52.48400 26.73100 40.99600
O  50.31500 27.16700 41.33300
C  50.10300 27.63900 39.96400
H  52.44700 19.83900 43.47700
H  58.61500 20.60700 44.93600
H  57.68300 26.89400 45.52700
H  49.94700 24.02400 43.33500
H  50.65400 21.29100 42.60500
H  48.98800 21.41400 44.22700
H  49.56200 22.63400 45.29900
H  50.40600 21.08200 45.34900
H  50.82700 22.51200 40.97100
H  51.22100 24.24600 40.81900
H  49.06600 24.88000 40.87600
H  48.38600 23.46800 41.76400
H  54.95200 17.19400 42.85800
H  53.26200 17.81800 43.04600
H  53.96400 17.08900 44.23700
H  58.72900 18.44800 45.93200
H  59.30800 18.63700 44.25300
H  59.14000 16.97600 44.97700
H  60.06200 22.94200 44.66100
H  59.21100 24.90500 46.73700
H  59.43100 21.48300 47.07400
H  60.11800 22.99400 47.54500
H  60.92200 21.86200 46.30100
H  59.52000 25.95900 43.90200
H  60.94900 25.10300 44.43200
H  59.99900 27.63100 44.93600
H  61.61900 26.96600 45.31300
H  60.30200 26.79300 46.50300
H  56.52400 28.99600 45.32000
H  54.94600 29.31300 46.00500
H  55.21300 29.49500 44.20900
H  50.65400 26.67300 43.66700
H  49.35900 28.43600 39.95800
H  49.71800 26.75200 39.46000
H  50.99600 28.11600 39.56100

