158

Mg 1.24500 8.39100 25.66900
C  2.17700 10.33300 28.51400
C  1.46400 5.60200 27.69100
C  0.59700 6.60300 23.00100
C  1.88100 11.14800 23.74300
N  1.73500 7.93600 27.81800
C  1.90600 8.96700 28.75300
C  2.06000 8.39600 30.11800
C  2.16800 6.88500 29.80600
C  1.78500 6.79200 28.39100
C  3.55100 6.25800 30.07200
C  0.90800 8.89100 31.15400
C  1.39400 9.13300 32.61700
H  2.64200 8.32700 33.03400
N  1.09100 6.32200 25.35400
C  1.07200 5.33600 26.35400
C  0.78500 4.09400 25.72900
C  0.48200 4.32800 24.39100
C  0.73200 5.79600 24.16100
C  0.95100 2.72200 26.38700
C  0.18100 3.33100 23.30400
O  0.07800 3.59800 22.13800
C  -0.00200 1.91100 23.62200
N  1.55100 8.78900 23.59400
C  0.94400 7.92100 22.75700
C  0.91200 8.52300 21.38500
C  0.91000 10.01800 21.66500
C  1.47500 9.99500 23.04800
C  2.10800 8.07000 20.41000
C  -0.44900 10.79200 21.63900
C  -0.52900 11.88600 20.53700
N  1.84100 10.34900 26.02300
C  2.04400 11.34400 25.14200
C  2.39800 12.59000 25.81200
C  2.49300 12.18700 27.16500
C  2.16800 10.82800 27.24500
C  2.65200 13.88900 25.15300
C  2.79300 12.65400 28.50300
O  3.17900 13.75400 28.82700
C  2.49600 11.48800 29.46400
C  3.73900 11.29500 30.17200
O  4.84200 10.90700 29.73600
O  3.64500 11.80200 31.44800
C  4.78400 11.39100 32.46100
H  1.33800 4.70900 28.30800
H  0.31500 6.02100 22.12200
H  1.95900 12.05700 23.14300
H  3.03500 8.76000 30.44100
H  1.41000 6.38200 30.40600
H  4.18300 7.03900 30.49500
H  3.88600 5.77700 29.15300
H  3.49100 5.44400 30.79400
H  0.05600 8.22200 31.03500
H  0.50600 9.78000 30.66800
H  0.54900 9.13200 33.30500
H  1.72400 10.17100 32.57800
H  0.03700 2.12800 26.40800
H  1.34300 2.94200 27.38000
H  1.76000 2.22200 25.85400
H  0.97900 1.46000 23.77200
H  -0.44100 1.45300 22.73500
H  -0.81300 1.75900 24.33400
H  -0.07800 8.24300 21.02300
H  1.55700 10.53900 20.95900
H  2.96700 7.74700 20.99800
H  2.49300 8.78200 19.68000
H  1.83800 7.16600 19.86500
H  -0.60700 11.21500 22.63100
H  -1.28200 10.11500 21.44800
H  -1.54400 11.88500 20.13700
H  0.04900 11.64100 19.64600
H  -0.12700 12.74500 21.07200
H  3.49100 13.69400 24.48500
H  3.04500 14.67200 25.80100
H  1.81600 14.15700 24.50800
H  1.71000 11.72300 30.18200
H  5.44900 10.64200 32.03300
H  4.23600 11.00000 33.31900
H  5.42600 12.21100 32.78200
Mg 24.70200 -6.57000 46.23800
C  26.59100 -3.88800 44.94900
C  22.16800 -5.72900 44.08000
C  23.25300 -9.51800 46.98400
C  27.85700 -7.78500 47.56100
N  24.49000 -5.04800 44.67600
C  25.32100 -4.02500 44.38800
C  24.79900 -3.16400 43.27400
C  23.30700 -3.63400 43.14600
C  23.31800 -4.89000 44.01700
C  22.15000 -2.55400 43.33300
C  25.59600 -3.18100 41.92000
C  25.82700 -1.77100 41.24300
H  25.57100 -1.67500 39.78200
N  22.93600 -7.47400 45.66600
C  21.99600 -6.88000 44.83000
C  20.89200 -7.77300 44.72000
C  21.10100 -8.83600 45.56400
C  22.46000 -8.72900 46.13000
C  19.78900 -7.54200 43.72600
C  20.15900 -10.04500 45.66600
O  19.03400 -10.03500 45.28100
C  20.47100 -11.20300 46.40100
N  25.44900 -8.33600 47.14600
C  24.57100 -9.38700 47.45400
C  25.28500 -10.53300 48.19700
C  26.79500 -10.10200 47.96500
C  26.70700 -8.63500 47.67500
C  24.82400 -10.83500 49.67900
C  27.44500 -10.92700 46.86400
C  28.58700 -11.88600 47.18000
N  26.76800 -5.91700 46.42000
C  27.88800 -6.45700 47.00300
C  28.96000 -5.51900 46.96300
C  28.58700 -4.49500 46.12500
C  27.20500 -4.78100 45.84000
C  30.33300 -5.73400 47.51500
C  28.93000 -3.24800 45.43500
O  29.97500 -2.62300 45.32200
C  27.67000 -2.85200 44.61200
C  27.24800 -1.48700 44.95100
O  27.02500 -0.63100 44.10000
O  27.23700 -1.31300 46.33800
C  27.41100 0.18800 46.68600
H  21.36700 -5.46300 43.38700
H  22.74800 -10.32700 47.51600
H  28.79400 -8.27300 47.83600
H  24.78800 -2.11400 43.56600
H  23.17900 -4.02600 42.13700
H  21.26700 -3.08200 43.69200
H  21.89500 -2.27100 42.31200
H  22.51900 -1.73900 43.95600
H  24.94600 -3.71500 41.22700
H  26.56900 -3.66400 42.01300
H  26.89300 -1.58000 41.36600
H  25.27200 -1.01200 41.79500
H  18.80700 -7.39900 44.17800
H  19.55000 -8.45200 43.17600
H  19.86000 -6.74700 42.98400
H  20.59400 -10.98300 47.46100
H  21.34600 -11.64600 45.92600
H  19.59100 -11.84400 46.35400
H  25.11000 -11.44000 47.61800
H  27.36700 -10.22900 48.88500
H  24.25100 -11.76000 49.75200
H  24.19100 -10.05300 50.09900
H  25.74800 -10.98800 50.23600
H  27.74500 -10.27500 46.04500
H  26.74700 -11.61000 46.38000
H  29.12100 -11.43400 48.01600
H  29.30800 -11.90400 46.36200
H  28.19500 -12.83400 47.54700
H  31.06400 -5.74100 46.70700
H  30.33600 -6.65700 48.09400
H  30.47300 -4.84400 48.12800
H  27.98700 -2.84700 43.57000
H  28.23300 0.63200 46.12400
H  27.64500 0.30000 47.74500
H  26.48600 0.73600 46.50900

