158

Mg 41.38000 7.44500 29.89600
C  42.94000 9.05400 32.46700
C  38.88900 6.55400 32.08900
C  39.89100 5.74000 27.36400
C  44.18100 8.10700 27.74200
N  41.03100 7.80000 32.04700
C  41.74800 8.56100 32.87800
C  41.10000 8.64300 34.22100
C  39.93000 7.59100 34.15300
C  39.87800 7.30700 32.67500
C  40.01900 6.26700 35.11000
C  40.57300 10.08000 34.74200
C  39.98100 9.99700 36.18500
H  40.50700 10.93300 37.28600
N  39.54800 6.51800 29.72000
C  38.66500 6.19300 30.77000
C  37.50900 5.55900 30.20100
C  37.72600 5.39200 28.77100
C  39.09600 5.88500 28.54200
C  36.36600 5.24000 31.11100
C  36.76700 4.85700 27.71100
O  37.01500 4.72100 26.53500
C  35.32600 4.49500 28.20600
N  41.94900 7.03400 27.77800
C  41.18100 6.26100 27.00400
C  41.71800 6.10800 25.59600
C  43.13200 6.83700 25.67900
C  43.09200 7.38100 27.13200
C  41.76100 4.65500 25.10000
C  43.35200 8.00300 24.64800
C  42.79800 9.38600 25.13700
N  43.11200 8.39900 30.02000
C  44.12100 8.64000 29.02400
C  45.18100 9.43300 29.61100
C  44.74400 9.64500 30.98700
C  43.52400 8.97200 31.16200
C  46.46600 9.84200 29.02000
C  45.10000 10.25100 32.24300
O  46.04800 10.96900 32.50400
C  43.96600 9.87400 33.27200
C  44.58500 9.19200 34.40500
O  45.22100 8.11600 34.34000
O  44.28900 9.77800 35.58500
C  44.81000 9.16400 36.81100
H  38.22700 6.17900 32.87300
H  39.37600 5.11400 26.63100
H  45.02200 8.41600 27.11800
H  41.75800 8.27900 35.01000
H  38.94700 8.05700 34.20900
H  40.65100 6.49100 35.97000
H  40.36500 5.40900 34.53400
H  39.04200 6.10600 35.56500
H  39.67500 10.39700 34.21200
H  41.32900 10.86300 34.69100
H  40.20700 9.01500 36.60100
H  38.89200 10.04000 36.14400
H  35.81700 6.18000 31.18000
H  36.70300 4.87300 32.08100
H  35.69300 4.50000 30.67800
H  34.82000 5.27600 28.77300
H  35.60400 3.63200 28.81000
H  34.72700 4.10000 27.38500
H  41.12300 6.76500 24.96000
H  43.84900 6.02000 25.61000
H  42.73000 4.20000 24.89500
H  41.10400 4.51900 24.24100
H  41.49000 3.93200 25.86900
H  42.90100 7.78100 23.68100
H  44.42200 8.16500 24.51500
H  42.43000 9.82900 24.21200
H  43.64000 10.04300 25.35300
H  41.99300 9.49300 25.86400
H  46.34200 10.67600 28.33000
H  47.03500 8.98500 28.65900
H  46.99500 10.34700 29.82900
H  43.53300 10.81100 33.62200
H  43.90100 9.01900 37.39500
H  45.52800 9.85500 37.25400
H  45.24100 8.17300 36.67200
Mg 6.90500 53.90700 41.43000
C  6.53200 50.51500 40.90200
C  10.14100 53.67200 40.08200
C  6.83700 57.21600 40.86800
C  3.57700 54.04700 42.49000
N  8.05900 52.35100 40.47500
C  7.75000 50.96400 40.50300
C  9.00900 50.07700 40.19500
C  10.10600 51.09300 40.30900
C  9.39200 52.50500 40.36200
C  11.03800 50.83600 41.57100
C  8.92500 49.27800 38.85100
C  8.80500 50.22600 37.61600
H  7.37100 50.51400 37.04700
N  8.27600 55.26800 40.56700
C  9.53800 54.99300 40.12100
C  10.21600 56.22700 39.82800
C  9.30000 57.24800 40.16600
C  8.05700 56.59500 40.57400
C  11.61900 56.27200 39.19900
C  9.61200 58.76600 40.24200
O  10.69100 59.13400 39.77900
C  8.66900 59.80200 40.79300
N  5.36800 55.46700 41.71000
C  5.62000 56.79400 41.38000
C  4.35200 57.74300 41.67600
C  3.35200 56.66800 42.17800
C  4.15600 55.32200 42.15900
C  4.53600 58.92500 42.61800
C  2.09500 56.52900 41.21100
C  0.78800 56.86300 41.96500
N  5.38300 52.59000 41.79900
C  4.09900 52.78200 42.26900
C  3.48800 51.50100 42.47800
C  4.40700 50.64000 41.95500
C  5.51700 51.30400 41.48000
C  2.10300 51.17700 42.90400
C  4.66400 49.24400 41.66100
O  3.88600 48.31000 41.81000
C  6.05900 49.09700 40.95900
C  5.75600 48.47700 39.73500
O  5.10600 49.05100 38.85300
O  6.28200 47.15000 39.65700
C  5.96000 46.44500 38.39600
H  11.17700 53.50000 39.78400
H  6.71300 58.20200 40.41400
H  2.51400 54.07300 42.73800
H  9.04300 49.37300 41.02600
H  10.78400 50.86300 39.48700
H  11.49100 51.77400 41.89200
H  11.85400 50.21400 41.20300
H  10.60300 50.22500 42.36300
H  8.11400 48.55000 38.86300
H  9.84400 48.69900 38.76700
H  9.48400 49.92200 36.82000
H  9.22300 51.18600 37.91800
H  11.75800 55.44600 38.50000
H  12.39600 56.17900 39.95800
H  11.72500 57.20300 38.64300
H  7.88700 60.14700 40.11700
H  9.22000 60.72200 40.98600
H  8.13400 59.51800 41.69900
H  4.16900 58.06300 40.65100
H  3.07300 56.82900 43.22000
H  4.74000 59.79700 41.99700
H  5.31000 58.84800 43.38100
H  3.59000 59.03600 43.14800
H  1.88500 55.52100 40.85300
H  2.23800 57.29500 40.44900
H  -0.09600 56.70200 41.34800
H  0.65000 57.89900 42.27300
H  0.59200 56.23900 42.83700
H  2.04700 50.86100 43.94500
H  1.78600 50.34000 42.28200
H  1.43800 52.02300 42.72800
H  6.66200 48.55000 41.68300
H  4.95700 46.01900 38.43800
H  6.65300 45.65300 38.11200
H  6.13300 47.02800 37.49100

