158

Mg 35.63700 1.38900 30.64400
C  33.49700 2.79500 32.94800
C  37.96600 0.89200 33.07100
C  37.84300 0.38200 28.27500
C  33.29400 1.82800 28.16700
N  35.73600 1.96700 32.74600
C  34.75100 2.50700 33.52300
C  35.18200 2.34200 34.97900
C  36.70300 2.00800 34.93700
C  36.80900 1.57600 33.50200
C  37.73200 3.12800 35.32600
C  34.28900 1.39300 35.81800
C  34.16100 1.59900 37.40500
H  34.78700 2.79900 38.17900
N  37.65400 0.78500 30.70000
C  38.39000 0.58600 31.79300
C  39.76500 0.22100 31.38200
C  39.71500 0.16400 29.99100
C  38.36000 0.51900 29.60200
C  40.89700 -0.06100 32.31700
C  40.81000 -0.24600 29.05200
O  40.77000 -0.09600 27.80400
C  42.10400 -0.87600 29.49600
N  35.57600 1.11400 28.51300
C  36.60400 0.66900 27.72900
C  36.23200 0.35500 26.25200
C  34.76500 0.90400 26.31400
C  34.54200 1.29500 27.72600
C  36.99900 1.06400 25.10100
C  33.74100 -0.18200 25.82600
C  33.61800 -0.20800 24.24400
N  33.78800 2.26400 30.52000
C  32.96300 2.38100 29.40200
C  31.74200 3.05600 29.76200
C  31.92100 3.27900 31.16800
C  33.13500 2.71800 31.55200
C  30.56600 3.44300 28.89900
C  31.33500 3.81500 32.38100
O  30.34200 4.49800 32.50100
C  32.27200 3.27900 33.62700
C  32.49200 4.37500 34.48600
O  33.29200 5.33900 34.25700
O  31.65700 4.34100 35.55800
C  31.65500 5.52700 36.34800
H  38.66500 0.67200 33.88000
H  38.49000 -0.03400 27.49900
H  32.49400 1.81600 27.42400
H  35.18700 3.37700 35.32100
H  36.95300 1.13000 35.53300
H  38.27500 2.51000 36.04200
H  37.34800 4.01100 35.83600
H  38.49100 3.21600 34.54900
H  34.82100 0.45200 35.67900
H  33.26500 1.27400 35.46100
H  34.33600 0.65700 37.92300
H  33.11200 1.89400 37.43800
H  41.26600 -1.08600 32.35900
H  40.65800 0.25600 33.33300
H  41.74000 0.51000 31.93100
H  42.67900 -1.23400 28.64200
H  42.10800 -1.63800 30.27600
H  42.72300 -0.06700 29.88400
H  36.30800 -0.71900 26.07700
H  34.74100 1.81700 25.72000
H  38.04500 1.15700 25.39300
H  36.73700 2.09400 24.86000
H  36.80500 0.47600 24.20400
H  32.76800 -0.09100 26.30900
H  34.15800 -1.13500 26.15000
H  33.93300 0.74300 23.81500
H  32.55500 -0.38900 24.08300
H  33.99500 -1.11900 23.77900
H  29.94300 2.56500 28.72600
H  31.04400 3.65000 27.94200
H  30.04900 4.32000 29.28900
H  31.82300 2.43500 34.15000
H  30.63600 5.67900 36.70500
H  31.89800 6.41000 35.75800
H  32.25400 5.42800 37.25400
Mg 9.26800 47.23400 26.43700
C  7.23200 47.01300 29.26500
C  11.90800 47.99600 28.49600
C  11.09400 48.07500 23.70300
C  6.40900 47.32900 24.36500
N  9.50000 47.45700 28.57400
C  8.59300 47.23200 29.56400
C  9.15800 47.36700 31.03500
C  10.67600 47.73700 30.73400
C  10.72600 47.86400 29.14000
C  11.24100 48.95800 31.45600
C  9.10700 46.07600 31.91800
C  10.18100 45.89000 33.04700
H  9.67600 45.37700 34.38800
N  11.33200 47.64900 26.05300
C  12.22500 47.91600 27.08300
C  13.53400 48.15700 26.50600
C  13.33300 48.24800 25.10000
C  11.91400 47.86400 24.87800
C  14.84800 48.32400 27.26200
C  14.32200 48.60400 23.90100
O  13.91000 48.67500 22.78700
C  15.70500 48.78300 24.19700
N  8.83900 47.42500 24.31600
C  9.76600 47.98100 23.49700
C  9.22200 48.31400 22.12100
C  7.72000 47.86900 22.27800
C  7.63200 47.53600 23.76000
C  9.27300 49.90900 21.82400
C  7.28200 46.71200 21.35500
C  5.86000 46.83200 20.82500
N  7.26300 47.07100 26.70100
C  6.16900 47.13100 25.77300
C  4.97600 46.95900 26.46900
C  5.31800 46.89500 27.84000
C  6.74800 46.94700 27.92500
C  3.56800 46.89300 25.90000
C  4.83400 46.71600 29.15300
O  3.73100 46.38000 29.60700
C  6.04000 46.88800 30.15800
C  5.97400 45.73000 30.99000
O  6.45200 44.60400 30.70700
O  5.41900 46.05900 32.22200
C  5.31500 44.92600 33.18000
H  12.69200 48.29600 29.19500
H  11.76700 48.32700 22.88100
H  5.47600 47.36500 23.79900
H  8.59400 48.16000 31.52600
H  11.36200 46.89300 30.80300
H  11.25600 49.86400 30.84900
H  12.19100 48.59300 31.84600
H  10.78900 49.22700 32.41100
H  9.07500 45.21700 31.24800
H  8.12300 46.15000 32.38200
H  10.68200 46.84100 33.22700
H  10.92700 45.28700 32.52900
H  15.45200 49.14600 26.88000
H  15.45000 47.41900 27.34900
H  14.59000 48.66200 28.26600
H  16.33800 48.87200 23.31400
H  16.09900 48.04400 24.89300
H  15.72100 49.78000 24.63800
H  9.72100 47.67300 21.39400
H  7.11300 48.75200 22.07600
H  10.25700 50.28500 22.10100
H  8.43400 50.47800 22.22500
H  9.21100 50.01800 20.74100
H  7.32200 45.82700 21.99100
H  7.98300 46.64800 20.52300
H  5.37100 47.75500 21.13800
H  5.32300 45.98200 21.24600
H  5.82500 46.70700 19.74300
H  3.09500 45.98100 26.26400
H  3.56900 46.78100 24.81500
H  3.06000 47.77600 26.28900
H  5.85800 47.72500 30.83200
H  4.24000 44.90500 33.35800
H  5.77600 45.37300 34.06200
H  5.80200 43.96900 32.99300

