158

Mg 26.92600 50.36300 27.50200
C  24.84600 51.76900 29.80400
C  29.38500 49.80000 29.93900
C  29.13500 49.31400 25.13600
C  24.73200 51.49300 24.92700
N  27.09600 50.79200 29.59000
C  25.98900 51.18400 30.36300
C  26.26900 50.93100 31.78500
C  27.74100 50.58900 31.79900
C  28.13700 50.33200 30.34400
C  28.55800 51.70800 32.43000
C  25.37700 49.86700 32.52900
C  24.28200 50.45200 33.53300
H  24.27400 49.70700 34.92000
N  28.95900 49.66100 27.54900
C  29.72100 49.38800 28.62200
C  31.02000 48.79000 28.23200
C  31.00000 48.81900 26.85200
C  29.72500 49.30800 26.41300
C  32.11900 48.38900 29.21600
C  32.01900 48.39800 25.88600
O  31.97800 48.87400 24.75700
C  33.26300 47.51700 26.38500
N  26.97100 50.48200 25.34100
C  27.97300 49.85500 24.57500
C  27.43900 49.60800 23.11600
C  26.06300 50.31000 23.12500
C  25.88300 50.80000 24.54100
C  28.34400 50.05500 21.99200
C  24.88700 49.22200 22.82600
C  23.68300 49.70400 21.96400
N  25.14400 51.50600 27.25800
C  24.26300 51.77400 26.23000
C  23.07000 52.53700 26.76200
C  23.27600 52.56500 28.14500
C  24.52300 51.90900 28.39800
C  22.02900 53.18000 25.90800
C  22.70400 53.04400 29.36200
O  21.72000 53.69300 29.61300
C  23.62500 52.44500 30.50800
C  23.92300 53.47900 31.54700
O  24.86000 54.20800 31.48200
O  22.98500 53.45200 32.56700
C  23.23400 54.43000 33.62900
H  30.10000 49.49900 30.70700
H  29.81400 48.84700 24.42000
H  23.93500 51.74300 24.22400
H  26.05900 51.91900 32.19600
H  27.85400 49.67500 32.38200
H  29.45700 51.92300 31.85200
H  29.00200 51.27300 33.32500
H  28.16100 52.66200 32.77600
H  25.84100 49.06600 33.10300
H  24.93100 49.41900 31.64100
H  23.32900 50.35200 33.01300
H  24.42800 51.52800 33.62600
H  32.96900 48.83600 28.70000
H  32.19700 47.30500 29.30900
H  32.04300 48.67100 30.26600
H  33.46400 46.82800 25.56500
H  33.02000 46.96600 27.29300
H  34.21600 48.00100 26.60100
H  27.28400 48.54600 22.92700
H  26.09000 51.18400 22.47400
H  28.52200 49.15700 21.40000
H  29.35500 50.42700 22.15700
H  27.75600 50.74200 21.38200
H  24.40100 48.74600 23.67800
H  25.34000 48.39600 22.27700
H  23.79000 49.34600 20.94000
H  23.74200 50.78400 21.82600
H  22.68000 49.63400 22.38400
H  21.08700 52.81600 26.31900
H  22.24700 52.91900 24.87300
H  22.10800 54.22700 26.20300
H  23.14700 51.57500 30.95800
H  23.19400 55.50500 33.45200
H  24.26500 54.24100 33.92600
H  22.58200 54.22900 34.47900
Mg -11.86700 38.96800 41.22200
C  -9.88400 36.18300 40.17900
C  -9.15700 41.04500 40.20800
C  -13.82900 41.54000 41.52200
C  -14.48200 36.80900 42.03000
N  -9.79700 38.68400 40.36800
C  -9.28300 37.44600 40.01800
C  -7.87600 37.57600 39.36600
C  -7.56900 39.07500 39.75900
C  -8.94900 39.68800 40.05100
C  -6.54900 39.24800 40.96300
C  -7.90000 37.36400 37.84700
C  -7.06200 36.30700 37.12900
H  -5.79900 36.74000 36.35400
N  -11.55700 41.03900 40.85600
C  -10.40000 41.69900 40.49600
C  -10.58600 43.17200 40.47100
C  -11.93700 43.34000 41.00300
C  -12.52200 41.95000 41.12900
C  -9.55600 44.13100 39.92300
C  -12.58900 44.72800 41.22700
O  -11.94000 45.76600 41.01100
C  -13.89900 44.84800 41.89500
N  -13.92500 39.06600 41.62200
C  -14.42700 40.27500 41.78700
C  -15.87600 40.27000 42.55300
C  -16.01000 38.69800 42.79800
C  -14.73700 38.13500 42.07800
C  -15.95100 41.21900 43.79400
C  -17.36700 38.27000 42.26900
C  -17.95600 36.96900 42.97300
N  -12.18300 36.85400 41.19600
C  -13.30200 36.09000 41.55800
C  -12.92700 34.66300 41.44400
C  -11.62800 34.67900 40.87800
C  -11.21100 36.01000 40.73500
C  -13.74900 33.49400 41.99900
C  -10.48000 33.84200 40.56300
O  -10.40200 32.63900 40.60600
C  -9.37300 34.80000 39.92100
C  -8.03400 34.46100 40.40000
O  -7.65800 34.75300 41.51200
O  -7.30300 33.76200 39.43700
C  -5.93700 33.46400 39.89700
H  -8.23300 41.62500 40.15900
H  -14.54300 42.36300 41.60600
H  -15.25700 36.11600 42.36500
H  -7.21200 36.84700 39.83200
H  -7.08200 39.58900 38.93000
H  -5.56200 39.01200 40.56600
H  -6.79900 38.53300 41.74700
H  -6.60100 40.22900 41.43600
H  -7.82400 38.35100 37.39100
H  -8.92200 37.05000 37.63700
H  -7.68200 35.74600 36.43000
H  -6.64000 35.66100 37.89900
H  -8.57100 43.72300 39.69400
H  -9.35500 44.93500 40.63000
H  -10.00300 44.65500 39.07900
H  -14.74000 44.42700 41.34300
H  -14.11800 45.85400 42.25400
H  -13.71100 44.17900 42.73400
H  -16.62200 40.56500 41.81600
H  -15.88200 38.45800 43.85400
H  -15.01100 41.72500 44.01500
H  -16.32200 40.74900 44.70400
H  -16.64500 42.00000 43.48200
H  -17.17000 38.20000 41.19900
H  -18.06600 39.10200 42.35500
H  -18.98400 37.16600 43.27800
H  -17.40200 36.67900 43.86600
H  -17.89200 36.08700 42.33600
H  -14.83700 33.46200 42.05800
H  -13.45400 33.38200 43.04300
H  -13.57200 32.50100 41.58800
H  -9.34100 34.60000 38.85000
H  -5.30300 33.44900 39.01100
H  -5.74300 32.49400 40.35400
H  -5.56600 34.23400 40.57400

