158

Mg 42.33600 41.61000 26.10700
C  41.40700 43.96300 28.61500
C  43.16300 39.44900 28.70500
C  43.26900 39.53700 23.74600
C  41.58100 44.06300 23.71400
N  42.45000 41.81500 28.46300
C  41.74000 42.72000 29.18400
C  41.58400 42.27200 30.68500
C  42.23300 40.83100 30.73300
C  42.58300 40.62600 29.20300
C  43.48500 40.57600 31.55200
C  40.10300 42.40900 31.10400
C  39.73200 43.33200 32.26800
H  39.40500 42.78100 33.66500
N  43.26100 39.83800 26.24600
C  43.43700 39.07000 27.34400
C  43.94900 37.81200 26.95800
C  43.94900 37.75900 25.56700
C  43.48200 39.12200 25.11400
C  44.23700 36.80100 27.92900
C  44.28300 36.60400 24.51800
O  44.22700 36.78400 23.31000
C  44.68400 35.28000 24.94100
N  42.56800 41.85500 23.98900
C  42.93800 40.83400 23.23600
C  42.85500 41.15600 21.73200
C  41.92600 42.46400 21.69600
C  41.98300 42.83000 23.20600
C  44.20300 41.34400 20.99600
C  40.55600 42.27300 21.11700
C  39.51700 41.70100 22.13900
N  41.64400 43.60300 26.13500
C  41.48300 44.49300 25.03700
C  41.14900 45.79300 25.53400
C  40.97100 45.59700 26.93700
C  41.31200 44.22400 27.22900
C  40.87100 47.02400 24.77200
C  40.57400 46.36700 28.21400
O  40.29700 47.51400 28.50400
C  40.91100 45.26400 29.29800
C  41.84800 45.82700 30.29400
O  42.98600 45.54300 30.43200
O  41.16300 46.57800 31.25400
C  41.84000 46.95300 32.52900
H  43.32400 38.72100 29.50300
H  43.38400 38.78900 22.95800
H  41.14800 44.78500 23.01900
H  42.12500 42.95200 31.34300
H  41.47400 40.07100 30.92200
H  44.29100 40.67300 30.82400
H  43.39300 39.55900 31.93400
H  43.52800 41.35600 32.31100
H  39.77900 41.40700 31.38300
H  39.41400 42.69700 30.31000
H  38.81600 43.85400 31.99100
H  40.56000 44.03700 32.33600
H  43.69100 35.90100 27.64300
H  44.07900 36.92900 29.00000
H  45.27800 36.50700 27.79700
H  43.80200 34.66600 25.12400
H  45.31100 35.44000 25.81800
H  45.20600 34.74200 24.15000
H  42.34400 40.34500 21.21400
H  42.32000 43.31800 21.14300
H  44.01300 41.93100 20.09800
H  44.67400 40.40800 20.69600
H  44.91800 41.78200 21.69300
H  40.48700 41.57800 20.28100
H  40.31200 43.29300 20.81900
H  38.68600 41.10300 21.76400
H  38.99400 42.55000 22.57900
H  40.01300 41.22700 22.98500
H  40.06300 46.85900 24.05900
H  41.75900 47.38100 24.25000
H  40.74200 47.87300 25.44200
H  40.03100 45.08400 29.91500
H  41.26100 46.57300 33.37100
H  41.83300 48.03400 32.66800
H  42.86700 46.60600 32.63700
Mg 36.36000 49.67500 24.19800
C  36.38600 48.35500 27.35700
C  35.23200 52.74000 25.69900
C  36.07500 51.18700 21.08700
C  37.52200 46.78900 22.82800
N  35.85400 50.41800 26.28000
C  35.95000 49.69000 27.36000
C  35.58800 50.50000 28.62000
C  35.07600 51.84900 28.06300
C  35.44200 51.63700 26.55500
C  33.53500 52.11200 28.24100
C  36.80300 50.57700 29.61400
C  36.53400 50.09800 31.06300
H  35.07700 49.89500 31.67600
N  35.76600 51.62500 23.46900
C  35.34100 52.73500 24.32300
C  35.08300 53.85600 23.55200
C  35.10200 53.43600 22.17300
C  35.64300 51.99700 22.16100
C  34.63500 55.16900 24.26600
C  34.68600 54.26600 21.04100
O  34.72600 53.77800 19.91700
C  34.11300 55.59900 21.15500
N  36.82000 49.12600 22.26200
C  36.58900 49.91000 21.12900
C  37.04000 49.16000 19.90600
C  37.60300 47.78300 20.44900
C  37.22200 47.88200 21.93000
C  35.96400 49.09400 18.82100
C  39.12700 47.60600 20.19900
C  40.22900 48.25100 21.12800
N  36.80700 47.88500 24.85900
C  37.34700 46.78900 24.20200
C  37.63200 45.74300 25.11500
C  37.31800 46.30700 26.38100
C  36.78500 47.58600 26.18300
C  38.16400 44.33900 24.77900
C  37.31900 46.12900 27.80100
O  37.76300 45.14000 28.44800
C  36.56900 47.28000 28.47000
C  35.28500 46.86100 29.00500
O  34.22100 47.21000 28.57000
O  35.56000 46.14000 30.13100
C  34.42200 45.79700 31.01100
H  34.91100 53.61300 26.27200
H  36.02600 51.65700 20.10300
H  38.04500 45.99700 22.28800
H  34.79000 49.93600 29.10400
H  35.63700 52.72000 28.40400
H  33.08100 51.55200 29.05900
H  33.02200 51.56200 27.45100
H  33.34000 53.18200 28.30000
H  37.23300 51.57000 29.74500
H  37.61800 49.93900 29.27400
H  37.09300 50.82500 31.65300
H  37.06700 49.14800 31.12000
H  35.08800 55.32400 25.24500
H  33.56700 55.09700 24.47100
H  34.77200 55.98800 23.56000
H  34.90200 56.26700 21.50200
H  33.23800 55.66700 21.80100
H  33.78300 55.99800 20.19600
H  37.83000 49.78700 19.49300
H  37.09700 46.90800 20.04200
H  36.15700 49.59500 17.87200
H  34.94500 49.37000 19.09300
H  35.93200 48.09000 18.39900
H  39.21200 47.95300 19.16900
H  39.30200 46.53800 20.06900
H  40.23900 47.63500 22.02700
H  39.83000 49.24100 21.34900
H  41.21000 48.28700 20.65400
H  39.09500 44.47900 24.22900
H  37.41900 43.73000 24.26700
H  38.50000 43.72700 25.61600
H  37.15700 47.78200 29.23900
H  33.78700 45.02500 30.57600
H  33.80200 46.69300 31.04900
H  34.74600 45.52100 32.01400

