158

Mg 8.53400 3.99400 27.85500
C  9.80900 2.03800 30.49600
C  6.72500 5.83700 30.02700
C  7.43000 5.56400 25.19400
C  10.12100 1.59800 25.77600
N  8.27400 3.90600 30.04900
C  9.05000 3.16200 31.00000
C  8.77600 3.54600 32.40200
C  7.77100 4.81000 32.13900
C  7.59800 4.90000 30.65800
C  6.48700 4.67600 32.94000
C  10.07000 3.92000 33.28600
C  9.84600 3.60100 34.77400
H  10.92900 3.97400 35.72600
N  7.20800 5.52000 27.64600
C  6.56100 6.17600 28.62200
C  5.79000 7.19900 28.07100
C  5.87300 7.08100 26.64700
C  6.84600 6.01400 26.42300
C  5.05900 8.20400 28.94900
C  5.25300 7.85100 25.54900
O  5.50500 7.71600 24.36300
C  4.22400 8.79400 25.92500
N  8.63800 3.47900 25.84200
C  8.19200 4.46200 24.96500
C  8.68200 4.19600 23.53700
C  9.48600 2.90400 23.64900
C  9.48600 2.64500 25.16800
C  7.47600 4.17000 22.52400
C  10.88800 3.00000 22.97200
C  11.26500 2.25000 21.68800
N  9.84000 2.22700 28.01900
C  10.30400 1.35900 27.08200
C  10.97900 0.29900 27.67000
C  10.93400 0.60500 28.98400
C  10.10600 1.70700 29.23100
C  11.62000 -0.87500 26.95800
C  11.37800 0.20200 30.24000
O  12.13300 -0.70400 30.56900
C  10.65700 1.18800 31.34000
C  9.75400 0.43200 32.25300
O  8.64400 -0.03500 31.98900
O  10.31700 0.38000 33.44900
C  9.47200 -0.20900 34.53600
H  6.11000 6.42300 30.71300
H  7.13800 6.06700 24.27000
H  10.70500 0.96600 25.10300
H  8.19800 2.75100 32.87200
H  8.28100 5.68500 32.54200
H  5.68600 4.07300 32.51300
H  5.98700 5.62600 33.12800
H  6.63600 4.29500 33.95000
H  10.21300 5.00000 33.27000
H  10.98400 3.43100 32.95200
H  9.67100 2.52900 34.87200
H  9.04900 4.29000 35.05300
H  5.10500 8.13800 30.03600
H  4.01200 8.19500 28.64700
H  5.40700 9.20800 28.70800
H  3.82800 9.22800 25.00700
H  4.51900 9.58700 26.61200
H  3.53500 8.11100 26.42300
H  9.35800 4.99400 23.22800
H  9.08100 1.97200 23.25500
H  6.54600 3.91000 23.02900
H  7.65400 3.42300 21.75000
H  7.30800 5.17000 22.12600
H  11.69000 2.80100 23.68200
H  11.18200 4.03100 22.77400
H  10.32700 1.81000 21.34800
H  12.02100 1.51900 21.97000
H  11.51600 2.92700 20.87000
H  12.64000 -0.58500 26.70500
H  11.01500 -1.11300 26.08300
H  11.53200 -1.74100 27.61400
H  11.41400 1.83800 31.77900
H  9.12000 -1.22900 34.38000
H  8.62200 0.46700 34.63200
H  10.09100 -0.01100 35.41100
Mg 5.48900 54.48100 41.19400
C  5.33200 51.00600 40.97600
C  8.63900 54.33000 39.87900
C  5.52300 57.84100 41.11600
C  2.13500 54.52900 42.21700
N  6.74100 52.77200 40.19700
C  6.46700 51.46500 40.38700
C  7.77800 50.68500 40.03100
C  8.90800 51.79800 39.99700
C  8.06600 53.06400 40.03500
C  9.92000 51.73700 41.17300
C  7.77600 49.82500 38.68700
C  6.94500 50.51100 37.53200
H  7.71900 50.99200 36.28000
N  6.78900 55.81800 40.42100
C  8.06900 55.60200 39.97400
C  8.85300 56.82900 39.76200
C  7.92100 57.90400 40.06600
C  6.70500 57.20800 40.60600
C  10.30800 56.94300 39.41100
C  8.26600 59.37700 39.95200
O  9.41200 59.73800 39.55300
C  7.30300 60.46300 40.38400
N  3.98200 55.89300 41.57800
C  4.35300 57.25900 41.59300
C  3.11900 58.13400 42.04300
C  1.90600 57.11900 42.05400
C  2.69200 55.77500 41.95100
C  3.30600 58.72000 43.39300
C  0.83400 57.35700 40.85100
C  -0.43900 58.20100 41.21000
N  4.05300 53.12400 41.60900
C  2.75100 53.28200 42.10900
C  2.19200 51.95700 42.37700
C  3.18100 51.07200 41.97900
C  4.26300 51.78600 41.49400
C  0.79700 51.61600 42.90100
C  3.47000 49.57000 41.95500
O  2.91300 48.50800 42.25900
C  4.79800 49.55200 41.13700
C  4.62300 48.78500 39.86000
O  3.85300 49.16600 38.93800
O  5.40600 47.64900 39.88500
C  5.29900 46.84100 38.63800
H  9.72200 54.29500 39.74200
H  5.48300 58.92400 41.24600
H  1.06700 54.52600 42.44700
H  7.82200 50.00800 40.88400
H  9.49300 51.98500 39.09600
H  9.92700 50.67500 41.42000
H  9.55700 52.39400 41.96400
H  10.81400 52.26200 40.83700
H  7.28500 48.91700 39.03700
H  8.81900 49.76700 38.37700
H  6.31900 51.35000 37.83400
H  6.30400 49.73300 37.11900
H  10.42200 56.99200 38.32800
H  10.92000 56.19000 39.90800
H  10.86600 57.80400 39.78000
H  6.44500 60.41900 39.71400
H  7.80600 61.38700 40.09700
H  7.20100 60.47200 41.46900
H  3.09100 58.89500 41.26300
H  1.38400 57.12300 43.01100
H  2.36400 58.80700 43.93400
H  3.74800 59.71200 43.30200
H  3.93700 58.08400 44.01300
H  0.48600 56.37800 40.52100
H  1.28900 57.81600 39.97200
H  -1.28400 57.72800 40.70900
H  -0.28500 59.25300 40.96900
H  -0.74300 58.12100 42.25300
H  0.06900 51.56900 42.09100
H  0.51500 52.39000 43.61400
H  0.71700 50.64400 43.38700
H  5.38100 48.91100 41.79800
H  5.64600 45.81600 38.76100
H  5.83100 47.30600 37.80800
H  4.27200 46.74000 38.28600

