158

Mg 1.36100 8.68500 26.97000
C  1.87700 10.73900 29.74700
C  1.49400 5.94400 29.18500
C  1.22800 6.54400 24.32100
C  1.90700 11.38900 24.84200
N  1.55900 8.38800 29.16900
C  1.69300 9.41800 30.14200
C  1.53600 8.89100 31.56500
C  1.87600 7.35800 31.35900
C  1.61100 7.15400 29.85800
C  3.23900 6.85300 31.73800
C  0.07200 9.16400 32.05400
C  -0.23600 9.06500 33.53700
H  0.84700 8.68700 34.57300
N  1.43200 6.57200 26.73500
C  1.40500 5.62900 27.81500
C  1.14200 4.29700 27.25900
C  0.90400 4.46800 25.86400
C  1.22000 5.90100 25.55100
C  1.14400 3.11800 28.28000
C  0.32200 3.48500 24.83500
O  -0.09800 3.83700 23.72500
C  0.15800 2.13200 25.30100
N  1.69800 8.99800 24.75700
C  1.48500 7.88600 23.97000
C  1.38200 8.49700 22.50500
C  1.27400 10.07000 22.68700
C  1.70600 10.18000 24.14900
C  2.64100 8.11100 21.79200
C  -0.13200 10.69600 22.43100
C  -0.20500 11.99500 21.61800
N  1.77400 10.69200 27.18200
C  1.97000 11.65800 26.20300
C  2.20800 12.95800 26.90500
C  2.22700 12.63700 28.28500
C  1.94100 11.20900 28.36700
C  2.32600 14.29700 26.17600
C  2.24700 13.19300 29.64500
O  2.44200 14.32600 30.09600
C  1.92000 11.96100 30.62200
C  2.91600 11.94600 31.71000
O  4.12200 11.82600 31.56200
O  2.30500 12.23500 32.88000
C  3.20000 12.60600 33.96600
H  1.36900 5.15700 29.93100
H  1.28000 5.90500 23.43700
H  1.93500 12.23500 24.15200
H  2.34800 9.18500 32.23000
H  1.18400 6.71800 31.90600
H  3.89300 6.46800 30.95400
H  3.10100 6.07000 32.48400
H  3.82200 7.68900 32.12400
H  -0.52200 8.42700 31.51300
H  -0.19900 10.19300 31.81800
H  -1.01100 8.29900 33.55700
H  -0.69400 10.03300 33.74000
H  2.11100 3.33300 28.73500
H  1.14300 2.14400 27.79000
H  0.39200 3.26600 29.05600
H  -0.54300 2.27900 26.12300
H  1.14500 1.69100 25.44200
H  -0.24100 1.48800 24.51700
H  0.48800 8.14300 21.99000
H  1.96300 10.60000 22.03000
H  3.24400 8.97600 21.51300
H  2.42500 7.47700 20.93200
H  3.15400 7.53200 22.55900
H  -0.54400 10.89400 23.42000
H  -0.72900 9.91900 21.95300
H  0.74200 12.15900 21.10300
H  -0.63600 12.79600 22.21900
H  -0.89400 11.86500 20.78500
H  2.32000 15.14200 26.86500
H  1.46400 14.46000 25.53000
H  3.17600 14.25600 25.49600
H  0.98200 12.26700 31.08400
H  3.80200 13.43200 33.58800
H  3.91700 11.83900 34.26300
H  2.61300 13.08200 34.75100
Mg 44.50800 5.34100 47.37300
C  42.77200 8.20100 47.05800
C  41.76400 3.43300 46.86900
C  46.55200 2.72900 47.11100
C  47.51100 7.46300 47.85700
N  42.58300 5.72800 46.94900
C  42.02400 6.99900 46.90000
C  40.55800 6.81400 46.41300
C  40.18900 5.39000 46.85700
C  41.60400 4.80500 46.90700
C  39.47300 5.34900 48.28400
C  40.38200 7.13100 44.82900
C  39.39400 8.19700 44.42600
H  39.23500 8.69000 42.95700
N  44.23100 3.35100 46.96900
C  42.99300 2.77700 46.80200
C  43.17500 1.38000 46.45700
C  44.61800 1.11400 46.53300
C  45.21400 2.40400 46.94500
C  42.06500 0.48900 46.06700
C  45.31800 -0.20700 46.33400
O  44.64400 -1.28300 46.24400
C  46.77600 -0.35600 46.42900
N  46.70800 5.12800 47.39800
C  47.23900 3.88900 47.39700
C  48.78100 3.98300 47.54600
C  49.02000 5.47000 47.97200
C  47.67000 6.04600 47.75500
C  49.36400 2.93600 48.50000
C  50.09800 6.17600 47.08900
C  51.27900 6.66800 47.93400
N  45.08300 7.46000 47.44000
C  46.22700 8.11300 47.74900
C  45.99400 9.60800 47.65200
C  44.59000 9.67600 47.36900
C  44.10900 8.34000 47.31100
C  47.05800 10.74000 47.70800
C  43.50400 10.57300 47.04700
O  43.50500 11.81100 46.97700
C  42.16600 9.63700 46.91500
C  41.32800 9.94700 48.00000
O  41.52800 9.60800 49.13500
O  40.07900 10.31600 47.50400
C  38.95200 10.27400 48.39600
H  40.82300 2.89200 46.75000
H  47.37900 2.01700 47.07100
H  48.44500 7.98900 48.06500
H  39.95600 7.56700 46.92200
H  39.55400 4.90100 46.11900
H  40.17000 5.19100 49.10700
H  38.70700 4.57600 48.33800
H  38.92900 6.26000 48.53400
H  39.92500 6.29700 44.29500
H  41.28800 7.33500 44.25900
H  39.55900 9.10800 45.00200
H  38.38600 7.88200 44.69700
H  41.24100 0.95200 45.52300
H  41.64900 -0.00600 46.94500
H  42.37500 -0.34900 45.44300
H  47.20100 0.30200 45.67100
H  47.14400 -1.38000 46.35900
H  47.09200 -0.12400 47.44600
H  49.31600 3.76700 46.62100
H  49.17400 5.57700 49.04600
H  50.25200 2.65000 47.93600
H  48.65100 2.14100 48.71600
H  49.79900 3.43200 49.36800
H  49.79900 7.08000 46.55800
H  50.50900 5.40600 46.43700
H  51.28500 6.13300 48.88400
H  51.14300 7.70800 48.23100
H  52.24600 6.54600 47.44600
H  47.11300 11.34100 48.61500
H  46.84600 11.42700 46.88800
H  48.00000 10.25300 47.45600
H  41.55100 9.81300 46.03300
H  39.28800 10.74600 49.32000
H  38.77100 9.20600 48.51400
H  38.11500 10.79200 47.92900

