158

Mg 1.46300 42.44700 25.92400
C  3.77900 42.76900 28.57400
C  -0.95300 41.74700 28.33400
C  -0.63300 41.40900 23.44400
C  3.95500 43.02800 23.62500
N  1.46600 42.29800 28.12900
C  2.44400 42.62400 29.04300
C  2.02400 42.56900 30.45200
C  0.54700 42.19700 30.29300
C  0.32500 42.05300 28.77100
C  0.00300 40.93300 31.01100
C  2.08400 43.94800 31.12700
C  2.52000 43.85600 32.61200
H  2.22200 42.56700 33.36200
N  -0.51800 41.68700 25.93700
C  -1.40000 41.50400 26.97500
C  -2.69000 40.94500 26.54600
C  -2.56200 40.82200 25.13400
C  -1.19900 41.35000 24.73600
C  -3.74600 40.57200 27.50000
C  -3.59200 40.24600 24.24700
O  -3.59500 40.30800 23.01300
C  -4.88200 39.63500 24.82300
N  1.61500 42.10600 23.91800
C  0.63700 41.78000 23.05500
C  1.00500 41.99000 21.55100
C  2.35700 42.71200 21.63300
C  2.71000 42.61600 23.15900
C  0.97300 40.56800 20.84400
C  2.50900 44.17100 21.10100
C  3.76800 44.54700 20.30200
N  3.51900 42.87500 26.02400
C  4.40600 43.09800 24.97000
C  5.70000 43.30200 25.55500
C  5.55200 43.22900 26.89800
C  4.18700 42.89800 27.16700
C  6.94500 43.48300 24.75300
C  6.20700 43.14200 28.25300
O  7.40800 43.24600 28.46500
C  5.04700 42.98500 29.38800
C  5.50300 41.82300 30.24400
O  5.90400 40.76200 29.77700
O  5.71600 42.16500 31.54800
C  6.27700 41.15900 32.45500
H  -1.79800 41.60600 29.01200
H  -1.26300 41.21200 22.57400
H  4.72200 43.28900 22.89200
H  2.65100 41.90800 31.05100
H  -0.13800 42.98800 30.59700
H  -0.47800 40.24000 30.32000
H  -0.83100 41.23900 31.64200
H  0.75500 40.40700 31.59900
H  1.15300 44.51000 31.20700
H  2.81100 44.56300 30.59800
H  2.06500 44.68000 33.16200
H  3.58600 43.96800 32.81000
H  -4.21400 39.63100 27.21100
H  -4.63800 41.19500 27.57400
H  -3.33100 40.20800 28.44000
H  -5.32000 40.21900 25.63200
H  -4.54400 38.65500 25.15900
H  -5.56600 39.58800 23.97600
H  0.42000 42.69900 20.96500
H  3.05400 42.08300 21.08000
H  1.98300 40.17200 20.74200
H  0.48400 40.60800 19.87000
H  0.36900 39.88600 21.44100
H  2.54000 44.74500 22.02700
H  1.62100 44.51800 20.57200
H  4.29200 45.24600 20.95500
H  3.57000 45.01900 19.33900
H  4.26900 43.59300 20.14000
H  7.00900 42.52800 24.23100
H  7.88900 43.47100 25.29800
H  6.72500 44.32900 24.10200
H  5.01000 43.84100 30.06200
H  5.48000 40.44800 32.67500
H  6.63500 41.69700 33.33200
H  7.13800 40.57200 32.13600
Mg -12.57700 15.98500 41.40700
C  -9.41500 14.30400 41.10300
C  -11.11600 18.66000 39.80100
C  -15.59000 17.27100 41.18400
C  -13.98700 12.72400 41.64100
N  -10.48700 16.46400 40.59100
C  -9.39000 15.60700 40.51900
C  -8.14500 16.27400 39.89800
C  -8.75500 17.73700 39.56100
C  -10.21800 17.63100 40.04300
C  -7.94900 18.86200 40.29500
C  -7.64400 15.50000 38.60700
C  -6.14200 15.15000 38.62300
H  -5.42500 15.64900 37.37100
N  -13.25400 17.84000 40.84400
C  -12.53500 18.76900 40.20600
C  -13.43400 19.91100 40.00800
C  -14.67100 19.57600 40.58000
C  -14.52000 18.19800 40.90100
C  -12.92100 21.25200 39.51900
C  -15.89700 20.42800 40.86400
O  -15.88600 21.58300 40.52800
C  -17.11600 20.01000 41.70900
N  -14.56400 15.08700 41.21100
C  -15.66300 15.90400 41.28900
C  -16.95100 15.05700 41.35500
C  -16.38500 13.60500 41.38700
C  -14.85400 13.82900 41.45600
C  -17.88600 15.38300 42.58800
C  -17.01500 12.61800 40.34400
C  -18.21400 11.79300 40.82500
N  -11.89200 13.97000 41.56100
C  -12.57100 12.74800 41.64800
C  -11.62600 11.69400 41.92600
C  -10.38000 12.26400 41.73400
C  -10.60100 13.65400 41.51000
C  -12.07800 10.30100 42.17700
C  -8.95400 11.91600 41.52900
O  -8.34200 10.86800 41.49500
C  -8.32600 13.26600 41.21800
C  -7.25000 13.62600 42.15000
O  -7.46700 13.96200 43.33800
O  -5.98800 13.57500 41.51900
C  -4.79600 13.80100 42.34400
H  -10.81100 19.53400 39.22200
H  -16.58800 17.68800 41.03800
H  -14.32000 11.68600 41.70000
H  -7.32800 16.22800 40.61800
H  -8.56500 17.89700 38.50000
H  -6.95400 18.49100 40.54200
H  -8.48000 19.02400 41.23300
H  -7.97500 19.85700 39.85000
H  -7.67300 16.14700 37.73000
H  -8.26700 14.61000 38.52200
H  -5.94900 14.08700 38.76600
H  -5.65900 15.61800 39.48000
H  -12.23600 21.05500 38.69400
H  -12.53200 21.85800 40.33700
H  -13.73000 21.79600 39.03300
H  -17.55700 20.87600 42.20300
H  -16.58500 19.40400 42.44300
H  -17.87000 19.45200 41.15300
H  -17.52200 15.10000 40.42800
H  -16.58300 13.17400 42.36900
H  -18.51200 16.27300 42.53500
H  -17.18300 15.39000 43.42200
H  -18.50900 14.49800 42.71500
H  -16.22200 11.94600 40.01500
H  -17.46500 13.20400 39.54200
H  -19.06000 12.17300 40.25100
H  -18.43900 11.77800 41.89100
H  -17.98700 10.79000 40.46300
H  -12.53600 9.91600 41.26600
H  -12.96100 10.31900 42.81600
H  -11.26000 9.64300 42.46900
H  -7.83400 13.11500 40.25700
H  -5.10000 14.25200 43.28800
H  -4.21000 14.40700 41.65200
H  -4.15000 12.95500 42.57900

