158

Mg 30.71500 58.71200 40.23400
C  28.00900 56.86800 39.18500
C  32.92600 56.22800 39.10700
C  33.22500 60.77700 40.70100
C  28.31600 61.32400 41.13500
N  30.51000 56.88900 39.23000
C  29.29200 56.31800 38.98300
C  29.46600 54.94600 38.31000
C  30.95100 54.58100 38.58300
C  31.51200 55.98100 38.90500
C  31.21400 53.56700 39.74200
C  29.22500 55.00700 36.73200
C  28.12600 54.13200 36.23400
H  27.69600 54.30000 34.77200
N  32.87700 58.50200 39.89600
C  33.54400 57.47700 39.36600
C  34.97500 57.73500 39.48600
C  35.09600 59.02200 40.06700
C  33.68400 59.52200 40.20800
C  36.02300 56.67000 39.18000
C  36.37700 59.62900 40.62500
O  37.47000 59.10900 40.37900
C  36.57100 61.00000 41.48400
N  30.71500 60.82000 40.73800
C  31.95900 61.35000 40.97900
C  31.82300 62.82100 41.42500
C  30.26900 62.93600 41.82500
C  29.67100 61.64400 41.12700
C  32.80100 63.29900 42.57000
C  29.50900 64.17400 41.39700
C  28.52700 64.58400 42.51300
N  28.53500 59.07800 40.23200
C  27.76300 60.09700 40.69000
C  26.36100 59.77700 40.57800
C  26.35500 58.49700 39.95500
C  27.72800 58.13700 39.81500
C  25.21400 60.65000 40.82300
C  25.52200 57.39400 39.43100
O  24.34600 57.14900 39.27000
C  26.65600 56.31300 38.95000
C  26.40200 55.00100 39.71400
O  26.90800 54.62800 40.76800
O  25.39800 54.37300 39.13500
C  25.19400 52.98400 39.61000
H  33.47800 55.29300 38.98700
H  34.08300 61.44500 40.80100
H  27.69400 62.10600 41.57400
H  28.76400 54.22300 38.72400
H  31.48800 54.16100 37.73200
H  30.40600 52.90200 40.04700
H  31.54900 54.17200 40.58500
H  31.96200 52.85700 39.39100
H  30.07900 54.77100 36.09600
H  28.96600 56.04000 36.49900
H  27.17600 54.28200 36.74600
H  28.38500 53.08800 36.41300
H  37.00300 57.14200 39.10400
H  35.83500 56.12000 38.25700
H  36.12200 56.02400 40.05200
H  35.63600 61.01000 42.04400
H  36.71000 61.89900 40.88400
H  37.33100 60.89000 42.25800
H  31.89600 63.35400 40.47700
H  30.38400 62.81100 42.90200
H  33.68500 63.73800 42.10800
H  33.01600 62.42100 43.17900
H  32.16600 64.03300 43.06800
H  28.89000 64.08400 40.50400
H  30.23000 64.98900 41.34700
H  28.71900 65.60500 42.84300
H  28.43700 63.89500 43.35300
H  27.55600 64.62500 42.02000
H  25.45200 61.61800 41.26400
H  24.49100 60.19400 41.50000
H  24.66700 60.84900 39.90200
H  26.42700 56.15800 37.89600
H  24.35800 52.64900 38.99700
H  24.80800 52.93000 40.62800
H  25.99800 52.28000 39.39400
Mg 7.62200 53.61700 41.60900
C  7.15000 50.01700 41.25400
C  10.70000 53.31500 40.45300
C  7.44000 56.87000 41.31500
C  3.88300 53.61500 42.07100
N  8.72000 51.86900 41.11100
C  8.40700 50.55000 40.84900
C  9.43500 49.83700 39.93700
C  10.66800 50.69200 40.23000
C  9.99400 52.08400 40.62700
C  11.49700 50.13400 41.46000
C  8.95700 49.79000 38.41200
C  9.45800 48.53800 37.66100
H  8.61700 47.88800 36.63700
N  8.92500 54.90500 41.00300
C  10.19900 54.62200 40.63500
C  10.90300 55.81400 40.38900
C  9.98300 56.81900 40.58100
C  8.69800 56.25800 40.99100
C  12.36600 55.91700 40.01200
C  10.35000 58.30300 40.55200
O  11.44900 58.59000 40.03400
C  9.51200 59.49000 40.96600
N  5.88300 54.96100 41.54100
C  6.14000 56.29200 41.54200
C  4.76500 57.11300 41.61800
C  3.70200 56.07800 41.74400
C  4.51400 54.81400 41.77200
C  4.60700 58.32700 42.61900
C  2.56800 56.11600 40.56700
C  2.77600 55.21400 39.37800
N  5.90800 52.22600 41.87000
C  4.51900 52.38500 42.06700
C  3.86800 51.10000 42.16800
C  4.93600 50.16700 41.94000
C  6.09700 50.90000 41.66700
C  2.45600 50.83800 42.40800
C  5.26200 48.78100 42.00800
O  4.52100 47.81200 42.32600
C  6.73300 48.59900 41.49600
C  6.82700 47.77200 40.25800
O  6.24400 47.94600 39.23300
O  7.61700 46.66400 40.48400
C  7.39300 45.54600 39.51400
H  11.72700 53.30600 40.08200
H  7.33400 57.95700 41.31600
H  2.80000 53.71100 42.17900
H  9.52000 48.81900 40.31800
H  11.27700 50.80300 39.33300
H  12.50300 50.52800 41.31900
H  11.53800 49.04700 41.38600
H  11.08100 50.58200 42.36200
H  9.42100 50.67900 37.98500
H  7.90100 49.84100 38.14800
H  9.71700 47.79600 38.41600
H  10.37000 48.84300 37.14800
H  12.77900 54.91800 39.86800
H  12.93700 56.34700 40.83400
H  12.49500 56.30000 38.99900
H  9.20900 59.39000 42.00800
H  8.62100 59.62900 40.35300
H  10.11700 60.38300 40.80800
H  4.76900 57.48600 40.59400
H  3.33000 56.33000 42.73700
H  5.32000 58.35000 43.44300
H  3.63400 58.37600 43.10800
H  4.79400 59.24500 42.06300
H  2.44700 57.13400 40.19600
H  1.64700 55.85000 41.08600
H  3.77400 54.77800 39.40100
H  2.79500 55.89000 38.52300
H  2.03400 54.44700 39.15600
H  1.89700 51.09300 41.50800
H  2.13400 51.56700 43.15200
H  2.17900 49.88000 42.84800
H  7.35700 48.09900 42.23700
H  8.25600 45.52300 38.84800
H  6.54600 45.54700 38.82800
H  7.42300 44.54200 39.93700

