158

Mg -1.75800 17.41600 26.73200
C  -2.49400 15.22700 29.31200
C  -2.66800 20.01200 28.89100
C  -1.73500 19.51500 24.13800
C  -1.51800 14.69500 24.55000
N  -2.39700 17.60400 28.90400
C  -2.55100 16.55200 29.81600
C  -2.82200 16.99600 31.27400
C  -3.04800 18.52800 30.99100
C  -2.72900 18.74900 29.48400
C  -4.48600 18.99200 31.35900
C  -1.59500 16.78200 32.24800
C  -1.71700 17.31500 33.65500
H  -1.75000 16.23300 34.75400
N  -1.95600 19.50300 26.58700
C  -2.34200 20.36300 27.59800
C  -2.35600 21.73000 27.08400
C  -2.01700 21.64300 25.68400
C  -1.88900 20.21400 25.39600
C  -2.80800 22.89100 27.86100
C  -1.84200 22.73000 24.71200
O  -1.77400 22.53800 23.49100
C  -1.75000 24.15900 25.19300
N  -1.52900 17.11900 24.52600
C  -1.54700 18.19000 23.74600
C  -1.41400 17.74400 22.30900
C  -1.23900 16.21700 22.43100
C  -1.43600 16.00400 23.88900
C  -2.65200 18.14400 21.38900
C  0.18900 15.83300 21.95800
C  1.37300 16.25900 22.98300
N  -2.01200 15.36800 26.86200
C  -1.83100 14.35200 25.86700
C  -2.12300 13.12000 26.53100
C  -2.49600 13.47600 27.79900
C  -2.35100 14.79600 27.97100
C  -2.28600 11.74300 25.81700
C  -2.97300 12.89100 28.99900
O  -3.24100 11.74300 29.18600
C  -2.95400 14.02300 30.04500
C  -1.85200 13.62000 30.97100
O  -0.63100 13.74000 30.81900
O  -2.33900 13.09100 32.15100
C  -1.55500 12.18800 33.06700
H  -2.92400 20.90900 29.45800
H  -1.59500 20.15700 23.26700
H  -1.43600 13.79300 23.94100
H  -3.66800 16.48100 31.72800
H  -2.44500 19.24200 31.55100
H  -4.31000 19.87900 31.96700
H  -5.17400 18.28200 31.81800
H  -4.94800 19.36500 30.44400
H  -0.73000 17.24900 31.77700
H  -1.37000 15.71600 32.22700
H  -2.64000 17.89400 33.67600
H  -0.86100 17.92600 33.94200
H  -3.45200 23.47400 27.20300
H  -1.92200 23.48000 28.09800
H  -3.35600 22.71300 28.78600
H  -0.94000 24.05500 25.91400
H  -2.71200 24.33900 25.67300
H  -1.60600 24.94200 24.44800
H  -0.51600 18.23000 21.92500
H  -2.03200 15.62100 21.98000
H  -3.08700 17.36300 20.76400
H  -2.40800 19.06100 20.85200
H  -3.55400 18.31300 21.97800
H  0.34900 16.12700 20.92100
H  0.17800 14.74400 21.90700
H  1.02700 16.84400 23.83500
H  2.15500 16.79300 22.44400
H  1.83400 15.39500 23.46200
H  -2.81800 11.90700 24.88000
H  -2.79000 11.02900 26.46800
H  -1.30400 11.30700 25.63600
H  -3.91000 14.35600 30.45000
H  -0.90300 11.55400 32.46700
H  -2.22400 11.44600 33.50300
H  -0.99100 12.64500 33.88000
Mg 1.20600 42.99200 26.40200
C  3.29700 43.09600 29.20100
C  -1.39300 42.11600 28.50700
C  -0.62100 42.34400 23.72900
C  3.89100 43.72500 24.32300
N  1.00700 42.76000 28.61500
C  2.02600 42.75800 29.55200
C  1.46800 42.47300 31.01000
C  0.00400 41.89000 30.66400
C  -0.07900 42.16400 29.13600
C  -0.23900 40.45500 30.99600
C  1.52800 43.72900 31.91800
C  1.60800 43.40500 33.42400
H  1.22700 41.98300 33.95700
N  -0.72500 42.49200 26.19500
C  -1.67000 42.31300 27.18400
C  -2.98000 42.09500 26.53200
C  -2.72400 42.08300 25.09500
C  -1.34200 42.32200 24.96500
C  -4.33200 41.91600 27.37800
C  -3.73200 41.96100 24.03500
O  -3.48300 42.04000 22.81500
C  -5.18500 41.65900 24.43800
N  1.67000 42.82400 24.32500
C  0.67400 42.54700 23.44100
C  1.29800 42.45600 22.05600
C  2.56500 43.34800 22.16400
C  2.71000 43.30600 23.67300
C  1.70100 40.99200 21.84700
C  2.46600 44.73700 21.54800
C  2.30200 45.96600 22.51700
N  3.19300 43.38800 26.63600
C  4.19200 43.60900 25.71300
C  5.46100 43.79500 26.45300
C  5.11800 43.65000 27.80800
C  3.75600 43.29000 27.85900
C  6.73600 44.08800 25.81200
C  5.70200 43.62800 29.03300
O  6.88100 43.74000 29.35700
C  4.49800 43.39600 30.04600
C  4.88000 42.34500 31.05200
O  5.05700 41.16700 30.86500
O  4.89200 43.01900 32.26800
C  5.04900 42.08600 33.38200
H  -2.25100 41.72800 29.06000
H  -1.23700 42.19100 22.84100
H  4.71800 43.95800 23.65000
H  1.96800 41.69200 31.58300
H  -0.76000 42.49100 31.15700
H  -0.09900 39.85400 30.09700
H  -1.21100 40.36700 31.48100
H  0.35700 40.15300 31.85700
H  0.66700 44.28400 31.54500
H  2.38900 44.33800 31.64200
H  0.90800 44.08700 33.90500
H  2.58300 43.68700 33.82100
H  -5.04300 42.63500 26.97000
H  -4.21300 42.14700 28.43700
H  -4.68000 40.88500 27.31600
H  -5.59200 42.53500 24.94200
H  -5.19200 40.83400 25.15000
H  -5.84300 41.45200 23.59400
H  0.64500 42.83300 21.26900
H  3.48200 42.85400 21.84100
H  2.68000 40.83700 21.39300
H  1.08600 40.74200 20.98200
H  1.56500 40.33300 22.70500
H  1.70000 44.76600 20.77300
H  3.43300 44.88100 21.06700
H  3.27200 46.46400 22.52200
H  2.13700 45.69400 23.55900
H  1.55900 46.69600 22.19500
H  7.30000 43.97900 26.73800
H  6.57100 45.11000 25.46900
H  6.87200 43.38700 24.98800
H  4.37600 44.33000 30.59400
H  4.79700 41.04400 33.18400
H  4.25400 42.25400 34.11000
H  6.04200 42.21900 33.81200

