158

Mg 44.86000 4.73700 47.47300
C  42.81600 7.50400 47.14300
C  42.07400 2.77600 46.92100
C  46.93700 2.11500 47.09600
C  47.52500 6.93800 47.51100
N  42.67500 5.17200 47.07400
C  42.06400 6.35600 46.96400
C  40.57700 6.22000 46.55300
C  40.34300 4.70900 46.96300
C  41.80300 4.15600 47.02800
C  39.46300 4.45400 48.26100
C  40.44300 6.41500 45.01600
C  39.72800 7.63900 44.58600
H  40.17600 8.38200 43.28700
N  44.51400 2.72800 47.18200
C  43.31500 2.12700 46.94900
C  43.49000 0.68500 46.75000
C  44.92200 0.46400 46.82300
C  45.55500 1.76900 47.05200
C  42.40800 -0.35600 46.49200
C  45.49300 -0.90900 46.72200
O  44.79900 -1.87200 46.59400
C  46.96600 -1.18600 46.82900
N  46.92100 4.55700 47.18200
C  47.55900 3.33600 47.33600
C  49.10200 3.48000 47.39800
C  49.25100 4.95500 47.72200
C  47.84100 5.54000 47.53600
C  49.70100 2.50300 48.42000
C  50.44900 5.70500 47.00300
C  51.36100 6.66000 47.75800
N  45.15300 6.79800 47.35800
C  46.31300 7.54700 47.32900
C  45.95300 8.99000 47.35200
C  44.60600 8.99900 47.31800
C  44.19500 7.63200 47.23800
C  46.95400 10.22000 47.37200
C  43.40200 9.80000 47.31900
O  43.29300 11.04400 47.40300
C  42.17700 8.87700 47.11200
C  41.25800 9.07300 48.33000
O  41.21600 8.32900 49.32900
O  40.34200 10.07800 48.04900
C  39.33300 10.29700 49.08300
H  41.16600 2.21900 46.68100
H  47.59300 1.24200 47.09400
H  48.34000 7.65900 47.59600
H  39.93800 6.92100 47.08900
H  40.00500 4.14200 46.09500
H  38.81800 5.31700 48.42600
H  40.18700 4.33200 49.06700
H  38.98400 3.47500 48.24400
H  39.94000 5.53600 44.61200
H  41.47900 6.42900 44.67900
H  39.69900 8.35700 45.40500
H  38.67300 7.44800 44.38900
H  42.62800 -0.85200 45.54600
H  41.44000 0.11400 46.31500
H  42.17400 -1.02800 47.31800
H  47.29000 -2.22000 46.71100
H  47.28800 -0.85100 47.81500
H  47.55600 -0.62400 46.10500
H  49.44400 3.21100 46.39800
H  49.31200 5.23100 48.77500
H  50.32200 3.05700 49.12500
H  50.36700 1.74900 48.00200
H  48.95400 1.94600 48.98600
H  49.96300 6.39300 46.31200
H  51.04500 5.01500 46.40600
H  51.06400 6.58400 48.80400
H  51.18100 7.69300 47.46000
H  52.43300 6.49400 47.65000
H  47.41900 10.36400 46.39700
H  47.72500 10.04400 48.12300
H  46.44200 11.14600 47.63500
H  41.65700 9.10700 46.18200
H  38.92900 11.27800 48.83200
H  39.70300 10.38300 50.10500
H  38.49300 9.62700 48.90100
Mg 16.92400 52.70500 26.80900
C  18.84600 51.09300 29.09000
C  14.47400 53.16800 29.11500
C  14.60300 53.49000 24.30500
C  19.12700 51.56600 24.26400
N  16.70100 52.25900 28.86100
C  17.73100 51.66700 29.61800
C  17.46000 51.86700 31.11400
C  15.90200 52.26900 31.03000
C  15.63700 52.59100 29.58100
C  15.01000 51.04300 31.44600
C  18.27100 52.91200 31.93800
C  18.44800 52.68500 33.42100
H  17.39700 51.86800 34.08800
N  14.92100 53.40300 26.74500
C  14.06000 53.53000 27.82800
C  12.87500 54.24900 27.44800
C  12.93900 54.40500 26.08100
C  14.19800 53.73600 25.66300
C  11.96700 54.78800 28.51800
C  11.99000 55.13500 25.12900
O  12.41500 55.36400 24.03600
C  10.74500 55.71400 25.58300
N  16.88200 52.53800 24.61200
C  15.86400 52.99100 23.84400
C  16.20700 52.80500 22.32600
C  17.76000 52.62400 22.36400
C  17.97400 52.21500 23.84600
C  15.34800 51.69300 21.56400
C  18.61000 53.92000 21.95600
C  19.28900 53.95200 20.51600
N  18.60000 51.59000 26.67000
C  19.38800 51.21500 25.61900
C  20.51200 50.51000 26.12100
C  20.28200 50.35800 27.49400
C  19.09800 51.06900 27.75800
C  21.75400 50.11700 25.23100
C  20.88300 49.87200 28.77300
O  21.84300 49.09900 28.99100
C  19.86200 50.24400 29.83900
C  19.26800 49.01500 30.43300
O  18.72500 48.09500 29.82300
O  19.37400 49.04600 31.75600
C  18.74300 48.08700 32.66000
H  13.69700 53.22900 29.88000
H  13.90500 53.64500 23.47900
H  19.87000 51.17400 23.56700
H  17.63900 50.82200 31.36900
H  15.72400 53.16400 31.62700
H  15.58000 50.12100 31.33600
H  14.15900 51.05500 30.76500
H  14.64700 51.14600 32.46800
H  17.83100 53.90700 31.87600
H  19.27800 52.98700 31.52700
H  18.59000 53.65700 33.89400
H  19.33000 52.04900 33.50100
H  11.11400 54.14500 28.73900
H  11.59600 55.78500 28.28100
H  12.61100 55.00200 29.37100
H  11.03800 56.64700 26.06500
H  10.22100 55.00700 26.22600
H  10.19000 56.00600 24.69100
H  16.07000 53.73400 21.77100
H  18.05700 51.71400 21.84400
H  14.54600 51.37700 22.23000
H  15.95200 50.83500 21.26800
H  14.93700 52.19400 20.68700
H  19.47100 53.95200 22.62400
H  17.97200 54.79300 22.09700
H  18.80600 53.21100 19.87900
H  20.36200 53.76000 20.48100
H  19.09100 54.91500 20.04500
H  22.71800 50.07100 25.73700
H  21.96200 50.88000 24.48000
H  21.58700 49.12100 24.82000
H  20.45500 50.73100 30.61300
H  19.33100 47.17200 32.72700
H  17.79100 47.80700 32.20900
H  18.65400 48.58000 33.62800

