158

Mg -1.54100 18.14300 27.24300
C  -1.94900 16.12400 30.05500
C  -2.46700 20.75900 29.12400
C  -1.19500 20.02600 24.52500
C  -1.48600 15.34400 25.22800
N  -2.24800 18.38000 29.41300
C  -2.13500 17.47600 30.42600
C  -2.51900 18.07000 31.79800
C  -2.85900 19.55600 31.43200
C  -2.54400 19.57700 29.91800
C  -4.33800 19.97200 31.73300
C  -1.24900 17.98500 32.78500
C  -1.50700 17.22900 34.06700
H  -0.26200 16.94000 34.99300
N  -1.53000 20.08900 26.95400
C  -1.89900 21.00600 27.86900
C  -1.71300 22.32900 27.30300
C  -1.24100 22.14200 25.97200
C  -1.36100 20.73900 25.75600
C  -1.83200 23.66100 27.99100
C  -0.78900 23.07800 24.89300
O  -0.46800 22.79900 23.76000
C  -0.63800 24.43000 25.25200
N  -1.18800 17.79500 25.21400
C  -1.14000 18.71300 24.22200
C  -1.03400 18.19200 22.79400
C  -1.04800 16.65000 23.12100
C  -1.24400 16.54400 24.64700
C  -2.16400 18.48700 21.81700
C  0.21400 15.88100 22.62900
C  1.37000 15.94600 23.57900
N  -1.59500 16.06600 27.51000
C  -1.61900 15.05300 26.62000
C  -1.86500 13.78500 27.29800
C  -1.89300 14.13000 28.66500
C  -1.77300 15.55200 28.73900
C  -2.06400 12.40200 26.76300
C  -2.02000 13.56900 29.97800
O  -2.18200 12.40800 30.34300
C  -1.99900 14.84900 30.95000
C  -0.79900 14.68200 31.84900
O  0.19000 15.33500 31.81100
O  -1.08600 13.72800 32.84900
C  -0.04700 13.47800 33.86900
H  -2.85600 21.61100 29.68600
H  -1.11900 20.63000 23.61800
H  -1.38700 14.40200 24.68400
H  -3.37600 17.57900 32.25800
H  -2.29200 20.34600 31.92300
H  -4.94100 20.03700 30.82700
H  -4.24900 20.94900 32.20800
H  -4.91100 19.25500 32.32100
H  -0.93200 18.99600 33.04200
H  -0.38600 17.54200 32.28900
H  -1.84400 16.21100 33.87100
H  -2.27700 17.69300 34.68400
H  -2.43200 23.44000 28.87400
H  -2.31900 24.43200 27.39300
H  -0.87800 24.14900 28.18600
H  0.07000 24.55800 26.07100
H  -1.60900 24.88800 25.43800
H  -0.13200 24.86600 24.39100
H  -0.05700 18.46000 22.39300
H  -1.92300 16.11700 22.74700
H  -3.01800 17.81100 21.80300
H  -1.72000 18.53100 20.82200
H  -2.58600 19.48100 21.95900
H  0.48000 16.39400 21.70500
H  -0.06600 14.84200 22.46100
H  1.20900 16.62200 24.41900
H  2.28000 16.20200 23.03700
H  1.55900 14.99100 24.07100
H  -2.17900 12.32800 25.68200
H  -2.93300 11.99800 27.28200
H  -1.25800 11.69500 26.96000
H  -2.85600 14.96600 31.61300
H  0.82900 14.05100 33.56500
H  0.16000 12.42500 33.67800
H  -0.53900 13.59900 34.83400
Mg -1.32800 34.91500 27.53900
C  -3.35500 33.18600 29.83600
C  -0.50300 37.13400 30.14600
C  0.31600 36.75400 25.21600
C  -2.67400 32.94000 24.95800
N  -1.83900 35.03700 29.77100
C  -2.58100 34.20000 30.43700
C  -2.47800 34.46500 31.91500
C  -1.95200 35.94200 31.90700
C  -1.23600 36.01900 30.60000
C  -3.02200 37.08200 32.04400
C  -1.64400 33.32400 32.60900
C  -2.47700 32.67500 33.70600
H  -1.82700 32.25100 35.02700
N  -0.34700 36.76500 27.64500
C  -0.11800 37.50800 28.78500
C  0.72000 38.63700 28.46100
C  1.05900 38.56100 27.04700
C  0.34800 37.31000 26.57000
C  1.12100 39.72900 29.41100
C  1.85100 39.42000 26.12200
O  2.12400 39.16800 24.91100
C  2.47600 40.56000 26.66700
N  -1.05300 34.74100 25.49200
C  -0.31000 35.60600 24.67000
C  -0.19800 35.18100 23.22800
C  -1.03000 33.82600 23.18900
C  -1.66700 33.84700 24.64900
C  -0.61100 36.23300 22.12000
C  -0.30200 32.50900 22.98700
C  -1.01400 31.35900 22.18800
N  -2.64800 33.34700 27.36400
C  -3.11900 32.69100 26.27200
C  -4.05100 31.59100 26.66000
C  -4.15800 31.77000 28.06100
C  -3.32100 32.84100 28.45000
C  -4.76100 30.55100 25.77300
C  -4.78200 31.25100 29.24700
O  -5.60400 30.30700 29.32500
C  -4.28300 32.12500 30.48200
C  -5.56900 32.74100 31.04400
O  -6.11800 33.77900 30.76000
O  -5.83700 32.03800 32.21800
C  -6.57400 32.59100 33.33200
H  -0.36300 37.87800 30.93400
H  0.83300 37.25200 24.39300
H  -3.07800 32.30400 24.16900
H  -3.53000 34.55400 32.18600
H  -1.15100 36.02700 32.64100
H  -3.91300 36.49300 32.26100
H  -3.00300 37.82300 31.24500
H  -2.74200 37.65400 32.92900
H  -0.78000 33.78600 33.08700
H  -1.27500 32.54700 31.94000
H  -2.67900 31.68500 33.29800
H  -3.42800 33.11300 34.00700
H  0.44300 39.81200 30.26000
H  1.24300 40.72200 28.97800
H  2.15400 39.48600 29.66000
H  3.22700 41.01300 26.02000
H  3.12900 40.18600 27.45600
H  1.71200 41.30400 26.89300
H  0.85700 34.99900 23.02300
H  -1.82300 33.91500 22.44600
H  -1.38400 35.85300 21.45100
H  0.26800 36.35600 21.48800
H  -1.05400 37.13700 22.53800
H  -0.06400 32.02400 23.93400
H  0.58800 32.63500 22.37000
H  -2.00500 31.72600 21.92000
H  -1.03100 30.40200 22.70900
H  -0.56200 31.23800 21.20300
H  -4.67000 29.71700 26.46900
H  -4.23600 30.40400 24.83000
H  -5.82700 30.75500 25.66400
H  -3.83400 31.39000 31.14900
H  -5.89600 32.81500 34.15500
H  -7.28700 31.88800 33.76200
H  -7.07800 33.50300 33.01200

