158

Mg 42.05700 40.91400 26.51400
C  41.25200 43.08100 28.99300
C  42.74400 38.36900 28.85900
C  42.86600 38.78700 24.02300
C  41.56500 43.51500 24.12000
N  42.18200 40.82000 28.66300
C  41.75800 41.83700 29.50100
C  41.73300 41.35700 30.97100
C  42.50400 39.92000 30.87400
C  42.50400 39.67800 29.34600
C  43.93500 39.96000 31.42100
C  40.44300 41.35700 31.66600
C  40.36400 42.07400 33.09600
H  39.89300 41.13800 34.24700
N  42.67900 38.90500 26.47600
C  42.88400 37.99500 27.53800
C  43.32000 36.72900 27.09000
C  43.30500 36.83200 25.63900
C  42.93400 38.22300 25.30900
C  43.59700 35.51300 27.89900
C  43.38800 35.79100 24.60600
O  43.29000 36.03800 23.40300
C  43.67100 34.38100 24.92400
N  42.30800 41.21600 24.36500
C  42.57400 40.03600 23.56400
C  42.55000 40.51400 22.07700
C  41.84000 41.94400 22.12700
C  41.95600 42.27000 23.61200
C  43.94500 40.58400 21.48400
C  40.29900 41.86400 21.59100
C  39.30600 40.77600 22.10100
N  41.60400 42.92600 26.50500
C  41.40100 43.91700 25.48800
C  41.02200 45.16600 26.04500
C  40.85800 44.82100 27.38400
C  41.22800 43.48200 27.65800
C  40.78900 46.42200 25.41000
C  40.51500 45.39300 28.65800
O  39.91900 46.45200 28.94500
C  40.72300 44.33900 29.76800
C  41.51500 44.95800 30.86300
O  42.66500 45.29700 30.79100
O  40.68500 45.24400 31.89300
C  41.37600 45.91000 32.95000
H  42.88100 37.65600 29.67500
H  43.06400 38.20200 23.12200
H  41.39100 44.26400 23.34400
H  42.45200 41.97900 31.50400
H  41.96200 39.07400 31.29600
H  44.55800 40.70100 30.92000
H  44.23900 38.91300 31.41100
H  43.95400 40.18500 32.48700
H  40.21000 40.30100 31.80500
H  39.73000 41.82000 30.98400
H  39.57000 42.80100 32.92800
H  41.27900 42.58500 33.39900
H  42.88800 34.77000 27.53400
H  43.46600 35.61400 28.97600
H  44.60100 35.17900 27.63600
H  42.85200 33.83600 25.39400
H  44.57200 34.22700 25.51800
H  43.79100 33.71500 24.06900
H  41.90600 39.90100 21.44600
H  42.50100 42.67200 21.65500
H  43.78900 40.24500 20.46000
H  44.62900 39.86600 21.93800
H  44.45600 41.54700 21.49600
H  40.39100 41.70200 20.51700
H  39.87900 42.86200 21.71700
H  38.98700 40.17500 21.25000
H  38.41600 41.15500 22.60400
H  39.78100 40.18400 22.88300
H  41.28700 46.43000 24.44100
H  41.34700 47.14500 26.00400
H  39.75700 46.74600 25.27600
H  39.76900 44.06500 30.21700
H  42.19000 45.31600 33.36600
H  40.69500 46.04900 33.78900
H  41.72500 46.87100 32.57200
Mg -2.36900 34.76400 26.99200
C  -4.26600 32.67400 29.16700
C  -1.72500 36.83900 29.53700
C  -0.83000 36.60100 24.72200
C  -3.77600 32.78800 24.32000
N  -3.03700 34.81700 29.12700
C  -3.55400 33.74600 29.82600
C  -3.49200 34.02600 31.38600
C  -2.76900 35.43900 31.38700
C  -2.55600 35.82300 29.89600
C  -3.54100 36.58600 32.14200
C  -2.60900 32.90500 32.11100
C  -3.28900 32.08300 33.20200
H  -2.56600 32.05800 34.52600
N  -1.40800 36.48500 27.10500
C  -1.24100 37.22600 28.25200
C  -0.47300 38.40200 27.93900
C  -0.18700 38.34900 26.53100
C  -0.75200 37.09000 26.02400
C  0.11800 39.39800 28.87200
C  0.66400 39.24200 25.64500
O  0.83700 39.14200 24.45600
C  1.22400 40.62200 26.14900
N  -2.41500 34.73300 24.84300
C  -1.61400 35.58800 24.14400
C  -1.71100 35.41900 22.61500
C  -2.84200 34.28300 22.52000
C  -3.01200 33.90400 23.97500
C  -2.11200 36.72500 21.72300
C  -2.50000 33.11300 21.56600
C  -1.84800 31.83500 22.08500
N  -3.65200 32.98900 26.78100
C  -4.16400 32.43100 25.62000
C  -5.15200 31.41300 25.98200
C  -5.16000 31.46300 27.41100
C  -4.24700 32.42000 27.77800
C  -6.11800 30.65600 24.98400
C  -5.76200 30.79600 28.51500
O  -6.61300 29.96200 28.55500
C  -5.14000 31.62300 29.80800
C  -6.23600 32.29200 30.55000
O  -6.96600 33.14200 30.10200
O  -6.29900 31.79900 31.85100
C  -7.52900 32.19100 32.53200
H  -1.29400 37.36600 30.39000
H  -0.39700 37.19400 23.91300
H  -4.41200 32.33500 23.55700
H  -4.49200 34.16000 31.79800
H  -1.79400 35.30900 31.85600
H  -3.15900 36.58000 33.16300
H  -4.61700 36.42800 32.07000
H  -3.35600 37.52400 31.61800
H  -1.78200 33.35400 32.66000
H  -2.11600 32.21700 31.42500
H  -3.46900 31.09400 32.78200
H  -4.24000 32.51600 33.51400
H  -0.34400 40.35400 28.62500
H  1.19200 39.57000 28.80200
H  -0.19900 39.19100 29.89400
H  0.36300 41.22600 26.43500
H  1.76600 41.02900 25.29600
H  1.82700 40.36100 27.01900
H  -0.86100 34.85200 22.23400
H  -3.77200 34.76200 22.21300
H  -2.57100 37.45900 22.38600
H  -2.90900 36.45100 21.03200
H  -1.29800 37.20800 21.18100
H  -1.92300 33.48400 20.71900
H  -3.40000 32.86000 21.00700
H  -2.51300 30.97600 22.17300
H  -1.33900 32.14400 22.99800
H  -1.01200 31.52800 21.45700
H  -6.63800 31.28300 24.26000
H  -6.83100 29.97600 25.45000
H  -5.44300 30.10800 24.32800
H  -4.65600 30.96100 30.52600
H  -7.76200 31.37100 33.21100
H  -8.41700 32.22400 31.89900
H  -7.37500 33.13500 33.05500

