158

Mg 1.23400 -2.48100 44.31400
C  4.66600 -1.91600 43.92700
C  0.67800 0.19100 42.04400
C  -2.01400 -3.48400 43.98300
C  1.97600 -5.41100 46.01600
N  2.56700 -1.12800 42.96800
C  3.88500 -0.92800 43.18100
C  4.49100 0.24600 42.53800
C  3.21200 1.00200 42.03000
C  2.07500 -0.05100 42.38100
C  2.98000 2.42400 42.82400
C  5.37500 -0.06800 41.34800
C  6.62300 0.89500 41.09000
H  6.56300 1.81300 39.86000
N  -0.44800 -1.83200 43.13300
C  -0.45500 -0.69400 42.36500
C  -1.80000 -0.40100 41.93500
C  -2.66700 -1.42800 42.49700
C  -1.73300 -2.29000 43.26100
C  -2.13800 0.65300 40.80400
C  -4.08200 -1.59600 42.12700
O  -4.59700 -0.58600 41.62900
C  -4.93200 -2.83300 42.33600
N  0.15400 -4.13600 44.94100
C  -1.22000 -4.22300 44.83500
C  -1.77600 -5.42700 45.60200
C  -0.47000 -6.16100 46.14400
C  0.61800 -5.13700 45.74700
C  -2.81800 -5.02800 46.73300
C  -0.30300 -7.62300 45.59900
C  0.23400 -8.63100 46.64200
N  2.94800 -3.43300 44.97700
C  3.11400 -4.58000 45.67400
C  4.50100 -4.75800 45.98200
C  5.16900 -3.75100 45.28600
C  4.18100 -2.89600 44.69400
C  5.13000 -5.83100 46.76000
C  6.50900 -3.28400 44.97000
O  7.62200 -3.62000 45.33700
C  6.22500 -2.01400 44.01700
C  6.92800 -0.82100 44.66900
O  6.84100 -0.45000 45.81100
O  7.81300 -0.23100 43.76400
C  8.51100 0.91400 44.33300
H  0.64100 1.15300 41.53000
H  -3.06500 -3.76800 44.06900
H  2.33400 -6.35500 46.43100
H  5.02300 0.82800 43.29000
H  3.21500 1.24900 40.96800
H  3.69900 2.57100 43.62900
H  1.95900 2.42100 43.20600
H  3.06100 3.27100 42.14300
H  4.81600 -0.01400 40.41400
H  5.67200 -1.09800 41.54500
H  7.40300 0.15600 40.90700
H  6.87900 1.49000 41.96600
H  -2.63600 0.14900 39.97600
H  -1.29800 1.20500 40.38100
H  -2.84400 1.28400 41.34300
H  -5.38300 -2.90400 43.32500
H  -4.41600 -3.78700 42.23000
H  -5.74000 -2.93500 41.61200
H  -2.26600 -6.02300 44.83200
H  -0.47000 -6.09600 47.23200
H  -2.90300 -3.95000 46.87400
H  -2.67800 -5.47300 47.71800
H  -3.74800 -5.53900 46.48700
H  0.39900 -7.54600 44.76800
H  -1.24100 -8.04700 45.24000
H  1.23700 -8.95900 46.37100
H  -0.30700 -9.54200 46.89800
H  0.39400 -8.29100 47.66500
H  4.45100 -6.68100 46.69400
H  5.20000 -5.63900 47.83100
H  6.00300 -6.27500 46.28100
H  6.77400 -2.39500 43.15600
H  7.87500 1.75000 44.62300
H  9.22400 1.28800 43.59900
H  9.09900 0.56800 45.18300
Mg 0.80700 43.62000 25.82100
C  2.93100 43.56100 28.67100
C  -1.69000 42.63400 27.89300
C  -1.05000 43.12700 23.07700
C  3.68900 43.95700 23.70400
N  0.66200 43.12500 28.07000
C  1.59600 43.39600 29.05300
C  0.89400 43.30300 30.48500
C  -0.58700 43.05700 30.12400
C  -0.52300 42.90900 28.61400
C  -1.22200 41.76900 30.74200
C  1.18200 44.53800 31.37300
C  0.97800 44.39800 32.94900
H  0.80500 43.04700 33.62100
N  -1.11200 42.94000 25.52200
C  -1.93700 42.54500 26.54200
C  -3.29400 42.24100 25.99700
C  -3.12100 42.33800 24.57800
C  -1.71900 42.78300 24.34900
C  -4.44200 41.84500 26.84700
C  -4.19900 42.14500 23.48300
O  -3.86100 42.16200 22.33900
C  -5.66100 41.86900 23.82500
N  1.26900 43.70300 23.75300
C  0.26200 43.44000 22.84200
C  0.92500 43.40000 21.39700
C  2.35000 43.90500 21.56400
C  2.46800 43.90300 23.13100
C  0.73500 42.14700 20.56800
C  2.56000 45.27200 20.98300
C  1.90000 46.53100 21.77200
N  2.94700 43.79900 26.07100
C  3.87500 43.91000 25.09100
C  5.21100 43.94400 25.81500
C  4.84900 43.72900 27.14800
C  3.48800 43.70500 27.30600
C  6.57800 44.07500 25.21600
C  5.43800 43.44600 28.41900
O  6.62100 43.27000 28.71600
C  4.23600 43.51600 29.48500
C  4.09200 42.34900 30.40800
O  3.34500 41.40800 30.45700
O  5.07800 42.43000 31.36800
C  5.17000 41.42700 32.44200
H  -2.58900 42.35100 28.44500
H  -1.60800 43.01900 22.14400
H  4.57200 43.92900 23.06300
H  1.25100 42.46100 31.08000
H  -1.11100 43.99400 30.31200
H  -2.23000 42.05600 31.04000
H  -0.81500 41.48000 31.71100
H  -1.07200 40.93500 30.05600
H  0.51200 45.36300 31.13100
H  2.23400 44.75300 31.18700
H  0.24500 45.13800 33.27100
H  1.87600 44.83800 33.38100
H  -5.22100 41.39600 26.23000
H  -4.98400 42.66800 27.31300
H  -4.13700 41.09500 27.57700
H  -6.26200 41.93000 22.91800
H  -6.05600 42.67000 24.45000
H  -5.72900 40.85900 24.22800
H  0.32800 44.11300 20.82900
H  2.99100 43.13800 21.12900
H  -0.00800 41.54500 21.09100
H  1.70500 41.66500 20.44900
H  0.55100 42.23900 19.49700
H  2.09100 45.37200 20.00500
H  3.58200 45.57300 20.75300
H  1.98900 46.36900 22.84600
H  0.85400 46.71700 21.53000
H  2.43700 47.45500 21.55600
H  7.18300 44.79200 25.77000
H  6.55800 44.44700 24.19100
H  7.14600 43.15100 25.10900
H  4.41100 44.33600 30.18200
H  4.23600 41.42500 33.00300
H  5.96800 41.79000 33.08900
H  5.39300 40.45400 32.00400

