158

Mg 47.72400 45.95700 43.55300
C  44.47500 46.34500 42.47500
C  47.67200 42.69300 42.35300
C  50.96300 45.63300 44.24000
C  47.72800 49.16000 44.82700
N  46.28300 44.75100 42.25400
C  45.00400 45.14000 41.99100
C  44.17900 43.96600 41.42000
C  45.13100 42.72500 41.49900
C  46.40900 43.36300 42.10500
C  44.61500 41.47900 42.34100
C  43.55600 44.31500 39.98100
C  42.27600 43.64200 39.59100
H  42.53100 42.58000 38.49800
N  49.13500 44.32200 43.46000
C  48.93100 43.11000 42.89600
C  50.15100 42.26500 43.03600
C  51.14300 43.08600 43.63400
C  50.41200 44.42300 43.83300
C  50.18100 40.84000 42.68100
C  52.52500 42.67100 43.91600
O  52.85000 41.59200 43.54700
C  53.53800 43.71500 44.46000
N  49.17100 47.29500 44.22900
C  50.43700 46.91000 44.49700
C  51.28400 48.10300 45.10200
C  50.26900 49.28200 45.17300
C  48.96400 48.57100 44.75400
C  51.91500 47.83300 46.43800
C  50.67200 50.47200 44.20200
C  51.31200 51.70300 44.88700
N  46.40600 47.49400 43.54400
C  46.55000 48.71300 44.26100
C  45.27500 49.37100 44.27100
C  44.44500 48.47800 43.65900
C  45.15800 47.36400 43.19900
C  45.02000 50.85800 44.83900
C  43.06900 48.27400 43.25200
O  42.05300 48.97000 43.25100
C  43.11300 46.91500 42.39900
C  42.04500 45.98100 42.75200
O  41.06200 45.76200 42.06700
O  42.20300 45.46200 44.03900
C  41.21800 44.49100 44.43700
H  47.63200 41.67500 41.96200
H  52.02900 45.67900 44.47400
H  47.61300 50.09900 45.37300
H  43.42700 43.61900 42.12900
H  45.39100 42.32800 40.51800
H  45.41000 41.02500 42.93300
H  44.13700 40.79900 41.63600
H  43.79500 41.71500 43.02000
H  44.30300 44.01400 39.24700
H  43.33200 45.38100 39.94300
H  41.52000 44.32900 39.21100
H  41.92900 43.10700 40.47500
H  50.05400 40.61900 41.62100
H  49.30100 40.36900 43.11900
H  50.99900 40.23300 43.07100
H  53.64500 44.46900 43.68000
H  54.49000 43.27400 44.75400
H  53.05100 44.09900 45.35700
H  52.05700 48.20700 44.34100
H  50.03900 49.58200 46.19500
H  53.00500 47.81500 46.45300
H  51.41400 46.94500 46.82600
H  51.64800 48.62100 47.14300
H  49.77500 50.60800 43.59600
H  51.42800 50.09800 43.51200
H  52.26900 51.95600 44.43100
H  51.55200 51.33200 45.88300
H  50.56700 52.49400 44.79200
H  44.00300 51.11600 45.13400
H  45.28500 51.59200 44.07800
H  45.57800 50.97600 45.76800
H  42.88200 47.34600 41.42500
H  41.57700 43.51900 44.09900
H  40.25000 44.55800 43.94000
H  41.08100 44.56600 45.51500
Mg 6.09500 57.12200 42.15600
C  5.30700 53.46300 41.92600
C  9.07200 56.21200 40.54000
C  6.46400 60.23800 41.84100
C  2.81000 57.53100 43.29000
N  7.01600 55.03800 41.36300
C  6.53400 53.75400 41.33900
C  7.54400 52.71100 40.72800
C  8.78500 53.65300 40.48400
C  8.30800 55.04200 40.83600
C  10.08100 53.24000 41.25500
C  7.00800 52.09200 39.50000
C  7.53900 50.67000 39.23700
H  7.05400 50.11000 37.87900
N  7.54100 58.10600 41.37600
C  8.71500 57.68900 40.77600
C  9.44500 58.77800 40.37800
C  8.74800 59.95200 40.69700
C  7.54500 59.45400 41.31100
C  10.84900 58.58800 39.70200
C  9.40300 61.36900 40.57600
O  10.43300 61.62400 39.97400
C  8.70800 62.57500 41.30800
N  4.65200 58.67600 42.22200
C  5.26600 59.87200 42.39800
C  4.23900 60.86400 42.91500
C  2.97200 60.05200 43.27300
C  3.51900 58.67600 42.94100
C  4.70500 61.87100 43.97200
C  1.67400 60.45300 42.42700
C  0.28000 60.29700 43.06200
N  4.47100 55.84100 42.72200
C  3.25400 56.22300 43.21000
C  2.54800 54.99500 43.58300
C  3.33400 53.89400 43.15900
C  4.46700 54.43600 42.55400
C  1.26400 54.99900 44.20800
C  3.43700 52.45600 43.16100
O  2.71300 51.59400 43.63900
C  4.74000 52.11900 42.36600
C  4.46200 51.02300 41.33900
O  3.68400 51.02800 40.38900
O  5.22900 49.94600 41.73600
C  4.91200 48.70100 41.04000
H  10.06300 56.07200 40.10300
H  6.75000 61.29200 41.82100
H  1.84800 57.81500 43.72300
H  7.67500 51.95700 41.50400
H  9.08500 53.66700 39.43600
H  9.94400 52.42100 41.96200
H  10.39300 54.08100 41.87400
H  10.95500 52.89700 40.70100
H  7.08400 52.67200 38.58000
H  5.92900 52.00300 39.62400
H  7.27400 49.98700 40.04400
H  8.62000 50.80800 39.22200
H  11.39400 57.80700 40.23100
H  11.44200 59.50200 39.65400
H  10.69900 58.06500 38.75800
H  8.74800 62.48600 42.39300
H  7.78400 62.68600 40.74000
H  9.39200 63.40500 41.13100
H  4.06900 61.45900 42.01800
H  2.67900 60.18000 44.31500
H  5.67300 62.22100 43.61500
H  5.03000 61.41900 44.90900
H  4.11200 62.77800 44.08900
H  1.54000 59.70000 41.65100
H  1.77500 61.43300 41.96200
H  -0.45400 60.69300 42.35900
H  0.25500 60.68200 44.08100
H  0.01200 59.25000 43.20400
H  0.77200 54.03100 44.10900
H  0.67200 55.79900 43.76300
H  1.21900 55.09500 45.29300
H  5.36900 51.71800 43.16000
H  3.84100 48.64400 40.84700
H  5.26100 47.84000 41.61100
H  5.40500 48.56100 40.07800

