158

Mg 16.47100 -2.60400 28.36900
C  15.58100 -0.77500 31.31000
C  18.76800 -4.32900 30.32800
C  17.96500 -3.67300 25.55300
C  14.52900 -0.46400 26.51500
N  17.21500 -2.38400 30.55000
C  16.56400 -1.74600 31.56300
C  17.21700 -2.12000 32.94700
C  18.29800 -3.17200 32.55900
C  18.06400 -3.35400 31.01400
C  19.77500 -2.62300 33.02900
C  16.06200 -2.68500 33.89200
C  15.84100 -1.92100 35.28800
H  17.05100 -1.18600 35.90400
N  17.97800 -3.95900 27.99900
C  18.72900 -4.61900 28.93700
C  19.60200 -5.52500 28.23000
C  19.41900 -5.37000 26.82100
C  18.45100 -4.30300 26.70500
C  20.53900 -6.55400 28.95600
C  20.12000 -5.98900 25.66300
O  19.69400 -5.89600 24.51300
C  21.19900 -6.96300 25.83800
N  16.16400 -2.20700 26.27800
C  16.99800 -2.69500 25.38100
C  16.81200 -2.00100 23.99000
C  15.58900 -1.14100 24.20200
C  15.37200 -1.27200 25.75600
C  18.09000 -1.30800 23.55900
C  14.35100 -1.41600 23.28300
C  14.11700 -0.36800 22.25000
N  15.21100 -1.08000 28.82700
C  14.43200 -0.30400 27.91200
C  13.67600 0.64600 28.61900
C  14.09800 0.48200 29.95100
C  14.99900 -0.55000 30.04700
C  12.63300 1.51400 28.11900
C  13.90200 0.97600 31.33600
O  13.25900 1.91800 31.70300
C  14.90600 0.15900 32.30100
C  15.79600 1.12100 33.00100
O  17.01100 1.25700 32.85000
O  15.05800 1.92000 33.81400
C  15.76600 2.97800 34.49100
H  19.44900 -4.82700 31.02100
H  18.59200 -3.73500 24.66100
H  14.03000 0.19900 25.80500
H  17.60400 -1.28600 33.53200
H  18.06000 -4.07900 33.11400
H  19.84100 -1.74700 33.67400
H  20.25900 -2.36900 32.08500
H  20.28700 -3.47100 33.48400
H  16.15900 -3.73700 34.16000
H  15.10300 -2.60300 33.38100
H  15.59400 -2.72900 35.97700
H  15.07100 -1.15200 35.35300
H  21.54100 -6.24800 28.65700
H  20.34700 -7.54700 28.54800
H  20.46100 -6.56600 30.04300
H  20.85900 -7.80400 26.44200
H  22.05700 -6.50400 26.32900
H  21.46500 -7.30000 24.83600
H  16.46700 -2.68900 23.21800
H  15.98200 -0.13000 24.09800
H  18.15300 -1.06600 22.49800
H  18.94500 -1.90800 23.87100
H  18.21800 -0.36600 24.09300
H  13.44700 -1.54500 23.87800
H  14.37400 -2.29800 22.64400
H  14.06100 -0.71900 21.22000
H  14.87100 0.41900 22.23600
H  13.18300 0.17200 22.40000
H  12.39300 1.32700 27.07300
H  12.94300 2.55100 28.24900
H  11.78700 1.32500 28.78000
H  14.36300 -0.50600 32.97400
H  16.00600 3.80800 33.82700
H  16.64600 2.58200 34.99800
H  15.12500 3.33100 35.29800
Mg 9.86100 48.36800 26.12900
C  8.07800 48.17600 29.06600
C  12.35100 50.01200 27.90000
C  11.67600 48.66500 23.33800
C  7.21300 47.46300 24.31000
N  10.30200 48.88100 28.30900
C  9.34300 48.67100 29.31500
C  9.84100 49.19200 30.70800
C  11.08700 50.11000 30.21600
C  11.25700 49.68900 28.70900
C  10.84500 51.67000 30.32600
C  10.24200 48.08000 31.78100
C  9.50000 48.18900 33.16200
H  9.58700 46.96900 34.04800
N  11.78600 49.13300 25.69700
C  12.63700 49.68000 26.58300
C  13.96000 49.85700 25.94200
C  13.78300 49.39300 24.59200
C  12.34500 49.16100 24.44200
C  15.17500 50.39600 26.71700
C  14.80800 49.25700 23.49100
O  14.55800 48.93500 22.35200
C  16.24100 49.48100 23.92900
N  9.48600 48.15700 24.08500
C  10.33700 48.25200 23.11100
C  9.63700 48.08000 21.68600
C  8.47500 47.23500 22.13400
C  8.39500 47.62200 23.57100
C  9.32700 49.55000 21.16800
C  8.63800 45.66500 21.89700
C  8.57000 44.62500 23.00600
N  7.97800 48.01400 26.52600
C  6.94100 47.59600 25.69800
C  5.83800 47.20600 26.50700
C  6.20300 47.44000 27.84100
C  7.54000 47.80400 27.80200
C  4.45500 46.77900 25.96200
C  5.73700 47.39300 29.14500
O  4.60200 47.05000 29.54800
C  6.90000 47.84000 30.04100
C  7.20000 46.67400 30.91100
O  7.86800 45.71600 30.58700
O  6.57900 46.85100 32.12800
C  6.40400 45.67900 32.94800
H  12.93600 50.78100 28.40900
H  12.28300 48.68100 22.43100
H  6.40300 46.96800 23.77100
H  8.99100 49.75800 31.08800
H  12.03100 49.91600 30.72400
H  9.81300 51.94500 30.54100
H  11.02700 52.10300 29.34200
H  11.62400 52.02700 31.00000
H  11.30900 48.26300 31.90500
H  10.09300 47.12600 31.27500
H  8.50100 48.59400 33.00000
H  10.04000 49.04900 33.55700
H  15.88900 49.59100 26.89500
H  14.82300 50.84100 27.64700
H  15.65000 51.15700 26.09800
H  16.54700 50.49600 24.18100
H  16.76300 49.18200 23.02000
H  16.57200 48.74800 24.66400
H  10.31600 47.61500 20.97100
H  7.57100 47.51300 21.59100
H  9.85400 50.37000 21.65600
H  8.26000 49.76600 21.13500
H  9.76500 49.60400 20.17100
H  9.70900 45.75100 21.70900
H  8.18900 45.33100 20.96200
H  8.63500 45.10100 23.98400
H  9.45300 44.02000 22.79900
H  7.67600 44.00600 22.93100
H  3.68700 47.46700 26.31600
H  4.25400 45.89700 26.56900
H  4.40300 46.61500 24.88500
H  6.41500 48.64100 30.60000
H  6.95500 44.80400 32.60300
H  5.35100 45.53600 33.19000
H  6.89700 45.86400 33.90300

