158

Mg 36.51500 49.37700 25.76300
C  37.00000 47.56300 28.80200
C  35.30000 51.98700 27.52800
C  35.73800 50.83500 22.80600
C  37.70100 46.58100 24.05800
N  36.27300 49.73900 27.91100
C  36.49300 48.90200 28.96200
C  36.18900 49.61600 30.31700
C  35.48300 50.95800 29.83400
C  35.66400 50.88200 28.30100
C  34.03800 51.13400 30.37800
C  37.44200 49.95400 31.21900
C  37.20700 49.70800 32.76400
H  35.88900 49.90800 33.48500
N  35.74600 51.28500 25.17600
C  35.25800 52.18000 26.09800
C  34.77500 53.32600 25.35000
C  34.98200 53.08400 23.93700
C  35.46400 51.67600 23.88200
C  34.18500 54.57200 25.98800
C  34.79100 53.94700 22.84200
O  35.18600 53.68600 21.72600
C  34.23800 55.28400 23.10600
N  36.59600 48.74600 23.75500
C  36.31500 49.59200 22.65500
C  36.63300 48.92700 21.35400
C  37.56000 47.78400 21.81600
C  37.35000 47.67700 23.28200
C  35.39500 48.52600 20.42300
C  39.09200 47.96500 21.54500
C  39.91100 46.70500 21.34000
N  37.07700 47.44100 26.27600
C  37.58300 46.45900 25.45300
C  37.74700 45.17200 26.21400
C  37.61600 45.62100 27.55400
C  37.21800 46.99900 27.53100
C  38.18300 43.85600 25.68600
C  37.69000 45.20600 28.95200
O  38.08900 44.14000 29.40000
C  37.28500 46.47900 29.90000
C  36.02500 46.01600 30.66900
O  34.87100 46.14100 30.27800
O  36.31100 45.41500 31.88400
C  35.15300 44.99100 32.71400
H  34.98200 52.87500 28.07700
H  35.71500 51.19500 21.77500
H  38.02700 45.83700 23.32900
H  35.42100 49.09900 30.89300
H  36.07200 51.76800 30.26500
H  33.92500 52.06400 30.93300
H  33.72200 50.29500 30.99800
H  33.27800 51.18800 29.59800
H  37.75400 50.99400 31.12000
H  38.34700 49.44800 30.88100
H  38.03800 50.26300 33.19800
H  37.45600 48.65200 32.86400
H  33.12600 54.68700 25.75500
H  34.78800 55.45600 25.78600
H  34.26000 54.33600 27.05000
H  33.22300 55.25700 23.50200
H  34.39700 55.86000 22.19400
H  34.90200 55.95400 23.65200
H  37.09200 49.65500 20.68600
H  37.16700 46.87500 21.36100
H  34.63000 48.29200 21.16400
H  35.51900 47.71800 19.70300
H  35.18000 49.41700 19.83400
H  39.39900 48.56000 22.40600
H  39.19800 48.58200 20.65300
H  39.21300 45.93300 21.01700
H  40.36800 46.39700 22.28100
H  40.62800 46.96500 20.56200
H  38.80200 44.02700 24.80500
H  37.33800 43.27800 25.31100
H  38.72700 43.43400 26.53100
H  38.11600 46.72400 30.56200
H  34.48400 44.31800 32.17800
H  34.53400 45.87500 32.86600
H  35.35900 44.37500 33.59000
Mg -11.29200 16.89100 41.62100
C  -8.23200 15.32900 40.71900
C  -10.22000 19.64000 39.92900
C  -14.44900 18.10600 41.67600
C  -12.50100 13.74100 42.61900
N  -9.51600 17.35500 40.21800
C  -8.38300 16.55000 40.10200
C  -7.26100 17.26600 39.36900
C  -7.79500 18.76300 39.28300
C  -9.24600 18.63200 39.81700
C  -6.86300 19.80400 39.92900
C  -7.00500 16.48100 38.00000
C  -5.51400 16.27600 37.67900
H  -4.86600 17.10700 36.39600
N  -12.28300 18.62900 40.95000
C  -11.61300 19.65600 40.28700
C  -12.54300 20.78200 40.03500
C  -13.74400 20.35300 40.60100
C  -13.54500 18.96000 41.03600
C  -12.18700 22.08300 39.29600
C  -15.02300 21.23500 40.82300
O  -15.20000 22.31600 40.32000
C  -16.10600 20.72600 41.76700
N  -13.32700 15.99200 41.96000
C  -14.36200 16.82200 42.17300
C  -15.54900 15.92500 42.58200
C  -14.92400 14.54400 43.11600
C  -13.49300 14.74100 42.49500
C  -16.61600 16.47100 43.58000
C  -15.67200 13.22400 42.81200
C  -16.18200 12.53800 44.02000
N  -10.55900 14.94900 41.78000
C  -11.12600 13.79400 42.24200
C  -10.06900 12.82200 42.38000
C  -8.94200 13.41300 41.81600
C  -9.24900 14.70000 41.45700
C  -10.32900 11.39500 43.00100
C  -7.59600 13.14500 41.46100
O  -7.05300 12.03400 41.46700
C  -7.05400 14.39800 40.69600
C  -5.98900 14.94700 41.48000
O  -5.99300 15.30300 42.63700
O  -4.92200 15.07400 40.59600
C  -3.73300 15.58000 41.29700
H  -9.86000 20.57400 39.49400
H  -15.49000 18.43100 41.62400
H  -12.89800 12.85300 43.11500
H  -6.35800 17.29100 39.97800
H  -7.96800 18.97300 38.22800
H  -6.22900 19.43600 40.73600
H  -7.55300 20.47300 40.44400
H  -6.29600 20.42100 39.23200
H  -7.45200 17.04000 37.17900
H  -7.48600 15.50300 37.97100
H  -5.34300 15.22300 37.45600
H  -4.99400 16.60900 38.57800
H  -12.56100 22.07800 38.27200
H  -11.10200 22.17800 39.26000
H  -12.54600 22.90800 39.91100
H  -16.60800 21.59200 42.19700
H  -15.64100 20.24800 42.63000
H  -16.76700 20.02900 41.25100
H  -16.02100 15.86400 41.60100
H  -14.69700 14.69000 44.17200
H  -16.29500 16.13400 44.56600
H  -17.57400 15.99700 43.36700
H  -16.62300 17.56100 43.56900
H  -15.02900 12.58600 42.20600
H  -16.62900 13.41900 42.32900
H  -17.24400 12.29500 44.00500
H  -16.06400 13.05100 44.97400
H  -15.73800 11.56400 44.22300
H  -11.03600 11.65100 43.79000
H  -9.36000 11.07700 43.38400
H  -10.83400 10.81900 42.22500
H  -6.62100 14.06100 39.75300
H  -2.87500 15.74000 40.64400
H  -3.36900 14.80000 41.96600
H  -3.81500 16.46200 41.93200

