158

Mg 8.86000 3.33300 27.91200
C  9.91600 1.62100 30.92800
C  7.25800 5.45900 29.76300
C  7.24400 4.28100 25.08300
C  10.23000 0.64000 26.09700
N  8.38700 3.23800 30.04800
C  9.11500 2.77400 31.14300
C  8.90400 3.57400 32.40200
C  7.72500 4.49500 32.00900
C  7.76300 4.40000 30.48100
C  6.34700 4.31200 32.63600
C  10.26900 4.31300 32.86100
C  10.13800 4.85000 34.30300
H  10.99400 4.08500 35.30500
N  7.41600 4.70900 27.50500
C  6.96500 5.59200 28.41800
C  6.15200 6.58000 27.72000
C  6.14500 6.32000 26.28500
C  6.95100 5.06200 26.21400
C  5.44700 7.69000 28.50700
C  5.38900 7.06200 25.19700
O  5.51000 6.68500 24.00500
C  4.67900 8.33100 25.55000
N  8.82900 2.67100 25.88700
C  8.10500 3.22500 24.89400
C  8.46200 2.70500 23.55200
C  9.51700 1.64400 23.88100
C  9.48800 1.59800 25.39000
C  7.21300 2.17600 22.77200
C  10.94700 1.90700 23.33000
C  11.31000 1.08500 22.09300
N  9.97300 1.47500 28.31400
C  10.42700 0.51000 27.45900
C  11.02800 -0.55200 28.29400
C  10.85900 -0.19400 29.63800
C  10.16100 1.05500 29.63100
C  11.78400 -1.69700 27.71300
C  11.16200 -0.47700 31.03800
O  11.83500 -1.31200 31.52300
C  10.63800 0.64800 31.86400
C  9.60700 0.01700 32.75100
O  8.47100 -0.21700 32.37500
O  10.14400 -0.46300 33.85300
C  9.38500 -1.20600 34.82400
H  7.04500 6.37500 30.31800
H  6.69400 4.65700 24.21800
H  10.62600 -0.18200 25.49700
H  8.57300 2.85500 33.15200
H  8.08600 5.50900 32.18100
H  5.67100 3.84900 31.91700
H  6.00800 5.31700 32.88900
H  6.38600 3.74200 33.56400
H  10.40400 5.19000 32.22900
H  11.16600 3.72100 32.68000
H  9.09200 4.98000 34.58100
H  10.57000 5.85000 34.32400
H  5.91000 8.66600 28.35900
H  5.47000 7.57500 29.59000
H  4.36900 7.62900 28.35600
H  3.84100 8.20500 26.23600
H  4.27100 8.83600 24.67500
H  5.41100 9.00700 25.99300
H  8.94200 3.46100 22.93100
H  9.09300 0.65600 23.70200
H  7.10300 1.14200 22.44500
H  7.19300 2.67800 21.80400
H  6.31400 2.57200 23.24300
H  11.75000 1.70900 24.03900
H  10.92200 2.89800 22.87800
H  11.33700 1.60400 21.13500
H  10.52700 0.32700 22.11200
H  12.29200 0.62300 22.19600
H  11.37100 -1.79300 26.70800
H  11.54100 -2.57100 28.31700
H  12.81800 -1.35600 27.66800
H  11.38700 1.01800 32.56500
H  10.16800 -1.82800 35.25800
H  8.63900 -1.77700 34.27100
H  8.94800 -0.47700 35.50700
Mg 23.98500 -6.85600 46.10500
C  26.35000 -4.83200 44.61800
C  21.67300 -5.53900 43.96400
C  22.14000 -9.73600 46.47600
C  26.68200 -8.54900 47.66800
N  24.08100 -5.47700 44.31700
C  25.12200 -4.71900 43.94700
C  24.81100 -3.67300 42.87200
C  23.23700 -3.67200 42.94700
C  22.94300 -5.03600 43.76200
C  22.61800 -2.41500 43.62900
C  25.36700 -4.09700 41.46000
C  25.83700 -2.92700 40.47500
H  25.37200 -2.82800 38.98100
N  22.15400 -7.45200 45.44200
C  21.27500 -6.65400 44.63300
C  19.99900 -7.29500 44.60100
C  20.09600 -8.54100 45.28900
C  21.50100 -8.62800 45.76800
C  18.83800 -6.78600 43.84300
C  18.94800 -9.52700 45.41400
O  17.85000 -9.17100 45.01600
C  19.16800 -10.80800 46.09700
N  24.38600 -8.92400 47.03500
C  23.44100 -9.87400 47.04300
C  24.01400 -11.14000 47.72800
C  25.44000 -10.69700 48.32800
C  25.54500 -9.34300 47.59300
C  23.01800 -11.91300 48.68100
C  26.54200 -11.73900 47.97800
C  26.86000 -12.86300 48.94400
N  26.07000 -6.62200 46.29600
C  26.97800 -7.35600 46.96600
C  28.31900 -6.71000 46.87200
C  28.07200 -5.62400 46.02900
C  26.71300 -5.72600 45.62300
C  29.60000 -7.11400 47.41900
C  28.64300 -4.47900 45.39600
O  29.74900 -3.97900 45.59800
C  27.60200 -3.96100 44.33600
C  27.53900 -2.47600 44.31000
O  27.94800 -1.77400 43.38300
O  27.01700 -2.04100 45.43800
C  26.99300 -0.60200 45.75800
H  20.85900 -4.99700 43.47900
H  21.60700 -10.66900 46.66900
H  27.58700 -8.94200 48.13600
H  25.18600 -2.70400 43.20000
H  22.75500 -3.74700 41.97200
H  21.97600 -1.81100 42.98800
H  23.42300 -1.78500 44.00800
H  21.92500 -2.58200 44.45300
H  24.62600 -4.63300 40.86700
H  26.13000 -4.86800 41.56500
H  26.92200 -3.03400 40.49700
H  25.55200 -2.00700 40.98600
H  18.05100 -6.65400 44.58700
H  18.55300 -7.40100 42.99000
H  19.00700 -5.75500 43.53100
H  19.45000 -10.69200 47.14300
H  19.71100 -11.50600 45.46000
H  18.15000 -11.19300 46.14100
H  24.21000 -11.76300 46.85600
H  25.23400 -10.46800 49.37400
H  22.03500 -11.44400 48.63700
H  23.38900 -11.97800 49.70400
H  22.91400 -12.92400 48.29000
H  27.49500 -11.21800 47.89300
H  26.35100 -12.19400 47.00600
H  27.04700 -13.75700 48.35000
H  25.95600 -12.87900 49.55300
H  27.66100 -12.60000 49.63600
H  29.92800 -8.13400 47.21700
H  29.59100 -7.04500 48.50700
H  30.31200 -6.33600 47.14600
H  27.99300 -4.17700 43.34200
H  27.55300 0.07200 45.11000
H  27.17300 -0.51800 46.83000
H  25.96800 -0.29200 45.55400

