158

Mg 1.52700 -0.81600 43.58800
C  4.92600 0.06000 44.01200
C  0.99200 2.29100 42.29200
C  -1.54700 -1.90000 42.86900
C  2.53300 -4.15100 44.09000
N  2.91300 0.98400 43.02600
C  4.24800 1.19500 43.42000
C  4.69000 2.59100 43.07200
C  3.30100 3.31400 42.91100
C  2.29700 2.14500 42.63700
C  2.96300 4.21300 44.17700
C  5.56400 2.74700 41.78800
C  5.63100 1.72600 40.52500
H  5.45600 2.29300 39.09300
N  -0.05500 0.08100 42.68000
C  -0.15300 1.38300 42.23100
C  -1.57700 1.66100 41.84000
C  -2.28900 0.48000 42.05400
C  -1.29600 -0.50700 42.58800
C  -2.06000 2.97300 41.25300
C  -3.74000 0.30100 41.64600
O  -4.35400 1.20300 41.03800
C  -4.51100 -0.97900 41.90100
N  0.62000 -2.74300 43.48800
C  -0.68600 -2.92800 43.24800
C  -1.17600 -4.39900 43.40500
C  0.18400 -4.99000 43.85500
C  1.23200 -3.92600 43.69800
C  -2.42900 -4.53300 44.36200
C  0.54400 -6.28900 43.15000
C  0.95200 -7.39900 44.04100
N  3.29000 -1.85900 44.08900
C  3.55000 -3.21500 44.29000
C  4.90500 -3.39500 44.70000
C  5.55300 -2.16500 44.56200
C  4.49400 -1.29200 44.14100
C  5.56400 -4.70400 44.99700
C  6.77100 -1.38500 44.77000
O  7.88900 -1.80200 44.99200
C  6.40200 0.13100 44.46400
C  6.62400 0.96500 45.74800
O  5.69800 1.43900 46.35700
O  7.93800 1.10200 45.97600
C  8.20800 2.26700 46.80800
H  0.55500 3.26800 42.07600
H  -2.55800 -2.30500 42.79200
H  2.80600 -5.17200 44.36600
H  5.28100 3.03600 43.87300
H  3.31300 3.90800 41.99800
H  2.40700 3.61200 44.89800
H  2.36600 5.07900 43.89200
H  3.84200 4.56500 44.71600
H  6.54700 2.90900 42.23000
H  5.44400 3.68500 41.24600
H  4.97900 0.86200 40.65600
H  6.67100 1.40200 40.55900
H  -2.32400 3.04300 40.19800
H  -1.30400 3.74800 41.38100
H  -2.91200 3.25500 41.87200
H  -5.50300 -0.73500 41.52000
H  -4.47800 -1.28600 42.94600
H  -3.99800 -1.63000 41.19400
H  -1.40000 -4.68800 42.37800
H  0.10700 -5.18900 44.92300
H  -2.65600 -3.48400 44.55000
H  -2.15000 -5.09400 45.25400
H  -3.23800 -4.98400 43.78700
H  1.37900 -6.03800 42.49700
H  -0.27700 -6.54500 42.48000
H  0.84200 -7.12200 45.08900
H  1.86600 -7.94000 43.79600
H  0.12900 -8.10200 43.91000
H  6.50400 -4.75100 44.44700
H  4.92600 -5.53700 44.70100
H  5.68100 -4.72200 46.08100
H  7.11600 0.52900 43.74300
H  7.53000 2.27200 47.66100
H  8.02400 3.15700 46.20700
H  9.24000 2.32200 47.15500
Mg 36.93900 49.14600 24.69600
C  36.70200 47.45400 27.74400
C  35.21000 51.84900 25.97500
C  36.61500 50.36300 21.50600
C  38.03600 46.13000 23.24700
N  35.91000 49.54200 26.61800
C  36.14500 48.78200 27.75200
C  35.56400 49.53000 28.97600
C  35.27000 50.98800 28.42300
C  35.41400 50.80000 26.91100
C  33.94500 51.61600 28.82600
C  36.58100 49.60700 30.18500
C  36.08900 49.08500 31.54500
H  36.02800 50.20100 32.61400
N  36.11400 50.91400 23.86800
C  35.58500 51.91500 24.60300
C  35.23900 53.02500 23.65100
C  35.69000 52.66500 22.34300
C  36.17300 51.29200 22.51100
C  34.60100 54.30800 24.15200
C  35.68400 53.45200 21.07400
O  36.29100 53.03800 20.15500
C  34.88400 54.79400 20.89500
N  37.30600 48.36000 22.68200
C  37.05600 49.05300 21.52500
C  37.19400 48.13400 20.37300
C  38.13500 47.00500 20.99200
C  37.74700 47.14900 22.40700
C  35.91400 47.60400 19.66100
C  39.67300 47.25900 20.56500
C  40.40400 46.06500 20.16600
N  37.35700 47.21900 25.31000
C  37.81600 46.13000 24.59300
C  37.95700 44.97300 25.47600
C  37.56600 45.44000 26.74400
C  37.17100 46.79000 26.58300
C  38.39800 43.58900 25.10700
C  37.34100 45.11800 28.14800
O  37.57100 44.08300 28.78000
C  36.84600 46.43200 28.79700
C  35.51200 46.12400 29.40600
O  34.42500 45.91500 28.89800
O  35.72300 46.01600 30.72500
C  34.68900 45.39200 31.48000
H  34.87600 52.76700 26.46400
H  36.49200 50.66600 20.46400
H  38.53100 45.21800 22.90800
H  34.63800 49.07700 29.33100
H  36.10800 51.66600 28.58200
H  34.14700 52.68400 28.90200
H  33.51600 51.31200 29.78100
H  33.24100 51.36400 28.03300
H  37.03300 50.59200 30.29800
H  37.45500 49.00300 29.94000
H  36.69200 48.25700 31.91800
H  35.02700 48.86200 31.43900
H  33.86000 54.67900 23.44500
H  35.33200 55.07400 24.41100
H  34.06600 53.96400 25.03700
H  35.46700 55.49200 21.49500
H  33.85000 54.61200 21.18800
H  35.04200 55.19700 19.89500
H  37.68400 48.70700 19.58600
H  37.91900 45.95900 20.77600
H  35.81100 46.52300 19.75600
H  36.00400 47.88000 18.61000
H  35.04600 48.04700 20.14900
H  40.23900 47.66600 21.40300
H  39.57500 47.92600 19.70800
H  39.90700 45.19700 20.59900
H  41.46400 46.06700 20.42200
H  40.50300 45.94600 19.08700
H  39.29100 43.56500 24.48200
H  37.66000 43.02000 24.54200
H  38.59600 43.06400 26.04200
H  37.58200 46.72500 29.54500
H  34.55700 44.42600 30.99300
H  33.88000 46.12300 31.48300
H  35.03900 45.15400 32.48500

