158

Mg 34.81300 3.50600 29.72800
C  32.85900 4.52800 32.36900
C  37.49400 3.22000 31.80800
C  36.82600 3.02100 27.07900
C  32.04500 3.83400 27.53500
N  35.17800 4.08400 31.91800
C  34.14000 4.15800 32.84400
C  34.76100 4.06000 34.23500
C  36.33100 3.84200 34.01000
C  36.36700 3.74600 32.43200
C  37.30900 4.98800 34.45200
C  34.09600 2.80900 34.94200
C  33.60300 3.07600 36.42600
H  34.27300 4.21400 37.15000
N  36.92700 3.08800 29.53000
C  37.82700 2.94200 30.49500
C  39.08800 2.42200 29.89000
C  38.88700 2.38700 28.46400
C  37.52700 2.86200 28.28500
C  40.28300 2.05500 30.70500
C  39.78700 1.90800 27.34200
O  39.49500 2.00200 26.12700
C  41.08000 1.23000 27.76800
N  34.42600 3.19200 27.62100
C  35.44500 3.17800 26.74300
C  34.93200 3.04100 25.32900
C  33.41800 2.98600 25.49800
C  33.25800 3.40400 26.96000
C  35.33100 4.32800 24.48600
C  32.76300 1.58800 25.19800
C  31.96600 1.47000 23.85900
N  32.89300 4.13300 29.88600
C  31.86700 4.24700 28.92100
C  30.64400 4.63800 29.58700
C  31.06400 4.84700 30.95500
C  32.41300 4.58800 31.03200
C  29.30500 4.71500 29.03000
C  30.52100 5.13700 32.26600
O  29.33500 5.32400 32.57700
C  31.66300 4.95300 33.25700
C  31.97800 6.16900 33.96300
O  32.52800 7.18300 33.60400
O  31.28100 6.06900 35.14000
C  31.09400 7.30000 35.90300
H  38.30000 3.02600 32.51900
H  37.34900 2.80900 26.14400
H  31.15000 3.68100 26.92800
H  34.61600 5.01000 34.75000
H  36.76900 2.92800 34.41000
H  38.13600 4.56600 35.02400
H  36.89400 5.81000 35.03400
H  37.78100 5.43100 33.57500
H  34.88100 2.05300 34.93400
H  33.29400 2.40000 34.32800
H  33.64600 2.17700 37.04100
H  32.56800 3.39900 36.31600
H  41.16400 2.47600 30.21900
H  40.44500 0.97800 30.66600
H  40.11900 2.42600 31.71600
H  41.39600 0.66900 26.88800
H  41.09900 0.57600 28.63900
H  41.81600 2.02500 27.88800
H  35.24100 2.17900 24.73800
H  32.95500 3.73200 24.85200
H  36.07400 4.83500 25.10200
H  34.55200 5.05900 24.26900
H  35.67700 4.05400 23.48900
H  32.19000 1.23600 26.05600
H  33.59000 0.88200 25.11900
H  30.96100 1.37700 24.27000
H  32.20900 0.63400 23.20200
H  31.99100 2.31400 23.16900
H  28.83500 5.68100 29.21000
H  28.64800 3.97800 29.49300
H  29.29500 4.64800 27.94200
H  31.61000 4.25600 34.09400
H  30.97300 7.13500 36.97400
H  30.38600 7.90400 35.33700
H  31.99900 7.90700 35.88800
Mg 49.65400 45.95200 42.73200
C  46.20500 46.68400 41.99100
C  49.24200 42.94700 41.31400
C  52.98900 45.56700 43.10300
C  49.77000 49.24000 44.04700
N  47.86400 44.99500 41.81400
C  46.65200 45.38200 41.54700
C  45.77600 44.34000 40.90200
C  46.70300 43.17200 40.61800
C  48.03800 43.75600 41.28200
C  46.37800 41.79900 41.20800
C  44.94100 44.77200 39.66100
C  43.81900 43.81100 39.10900
H  43.98000 43.03500 37.81000
N  50.94000 44.49500 42.18700
C  50.59500 43.22600 41.74000
C  51.76600 42.45100 41.78300
C  52.83700 43.16300 42.40000
C  52.28800 44.48900 42.54500
C  51.71600 40.93400 41.38200
C  54.23000 42.64800 42.73900
O  54.39400 41.47500 42.56600
C  55.42100 43.53800 43.08600
N  51.25600 47.25600 43.31200
C  52.56600 46.88900 43.39500
C  53.46900 48.10800 43.85400
C  52.39700 49.15300 44.33900
C  50.99900 48.52300 43.91000
C  54.61500 47.75500 44.86400
C  52.67900 50.65300 43.85700
C  52.72500 51.87000 44.85500
N  48.36400 47.63100 42.97800
C  48.55000 48.78700 43.64300
C  47.33700 49.51900 43.77000
C  46.35600 48.66300 43.16900
C  47.05800 47.54600 42.66900
C  47.01600 50.96700 44.25000
C  44.95900 48.59400 42.82400
O  44.03800 49.33800 42.92100
C  44.85700 47.27600 41.97900
C  43.76000 46.50400 42.64900
O  43.85300 45.87000 43.66600
O  42.63500 46.57900 41.81200
C  41.33600 46.21000 42.40600
H  49.10600 41.90700 41.00800
H  54.06000 45.54000 43.31400
H  49.71100 50.20700 44.55000
H  45.09800 43.99500 41.68300
H  47.01800 43.16000 39.57400
H  46.76700 41.67500 42.21800
H  46.97300 41.06400 40.66600
H  45.36500 41.40500 41.11700
H  45.61600 44.77500 38.80400
H  44.52000 45.76600 39.81400
H  42.96700 44.45100 38.87800
H  43.45000 43.13400 39.87900
H  52.60800 40.64800 40.82300
H  50.84600 40.97900 40.72700
H  51.51900 40.33000 42.26700
H  55.36700 43.91600 44.10700
H  55.60000 44.22100 42.25500
H  56.36300 42.99100 43.08600
H  53.84400 48.51100 42.91400
H  52.20900 49.15200 45.41300
H  55.48400 47.95900 44.23700
H  54.66400 46.73100 45.23300
H  54.70300 48.42400 45.72000
H  51.95600 50.86600 43.06900
H  53.67900 50.69500 43.42700
H  52.27100 52.75600 44.41000
H  53.75400 52.13100 45.10400
H  52.10500 51.57800 45.70200
H  47.68100 51.07400 45.10600
H  45.99600 51.26800 44.49000
H  47.41600 51.58500 43.44600
H  44.51100 47.67700 41.02600
H  41.25200 46.75100 43.34900
H  41.23900 45.14300 42.60600
H  40.53800 46.47700 41.71300

