158

Mg -2.32800 17.57900 25.50100
C  -2.62500 15.57600 28.42200
C  -3.36700 20.25900 27.66000
C  -2.06400 19.60400 22.89700
C  -2.06100 14.74800 23.65200
N  -2.85800 17.87200 27.85200
C  -2.94400 16.88100 28.79500
C  -3.48800 17.45100 30.11900
C  -4.12800 18.87300 29.65300
C  -3.38800 19.03800 28.33000
C  -5.63600 18.90800 29.50700
C  -2.44100 17.67800 31.25800
C  -2.94200 17.54100 32.69200
H  -2.20600 16.60200 33.61600
N  -2.47600 19.58500 25.33400
C  -2.93900 20.52500 26.29500
C  -2.97700 21.80600 25.70000
C  -2.41700 21.68200 24.35100
C  -2.27000 20.24700 24.18100
C  -3.31300 23.09200 26.39900
C  -2.04500 22.82900 23.31700
O  -1.67700 22.55000 22.23000
C  -2.12400 24.20000 23.72300
N  -2.33100 17.24700 23.50100
C  -2.09000 18.23500 22.61400
C  -1.92400 17.65000 21.18100
C  -1.62300 16.09300 21.49000
C  -2.06700 16.03500 22.98000
C  -3.17200 18.02700 20.25200
C  -0.09500 15.72700 21.30500
C  0.89400 16.51100 22.26300
N  -2.25100 15.62400 25.89500
C  -2.14600 14.58000 25.05200
C  -2.01200 13.33800 25.80100
C  -2.08400 13.75000 27.15500
C  -2.34700 15.16300 27.09400
C  -1.86800 11.93200 25.29400
C  -2.14400 13.28200 28.51200
O  -2.08500 12.12800 28.91500
C  -2.32700 14.48900 29.37500
C  -1.06100 14.71200 30.20500
O  -0.10100 15.43700 29.92000
O  -1.00000 13.88200 31.29600
C  0.26700 13.90100 31.98000
H  -3.50700 21.15200 28.27300
H  -1.78100 20.13400 21.98500
H  -1.79600 13.93600 22.97200
H  -4.28200 16.75500 30.39200
H  -3.92400 19.67100 30.36700
H  -6.08800 18.08500 30.06100
H  -5.92200 19.00800 28.46000
H  -5.91100 19.83400 30.01200
H  -2.04600 18.69200 31.20900
H  -1.56100 17.04500 31.15100
H  -3.91900 17.11100 32.46800
H  -3.15200 18.55800 33.02300
H  -2.46400 23.77600 26.38600
H  -3.54000 22.93300 27.45300
H  -4.23900 23.59400 26.11800
H  -1.80000 24.86800 22.92600
H  -1.36100 24.42100 24.47000
H  -3.12800 24.45800 24.06100
H  -1.01000 18.13900 20.84400
H  -2.27900 15.37700 20.99600
H  -2.83600 18.80700 19.56900
H  -3.99300 18.47900 20.81000
H  -3.57800 17.19000 19.68300
H  0.28800 16.01200 20.32600
H  0.13000 14.66500 21.40500
H  1.42000 17.28300 21.70200
H  1.64100 15.82600 22.66500
H  0.36400 16.88000 23.14100
H  -1.69000 12.01900 24.22200
H  -2.80400 11.42200 25.52500
H  -1.02200 11.45400 25.78700
H  -3.20700 14.27300 29.98000
H  0.32700 14.82000 32.56200
H  1.06900 13.90100 31.24200
H  0.40300 13.02900 32.62000
Mg 16.90900 -1.88100 28.05100
C  16.18000 0.35300 30.54700
C  19.00600 -3.66300 30.13800
C  18.37000 -3.56100 25.46200
C  15.29700 0.30800 25.81800
N  17.64700 -1.62400 30.03300
C  17.08200 -0.71400 30.93900
C  17.58700 -1.06300 32.32300
C  18.69100 -2.18700 32.09800
C  18.35600 -2.56800 30.64600
C  20.17000 -1.69100 32.17600
C  16.40900 -1.44900 33.22800
C  16.47500 -0.99900 34.69400
H  17.64800 -0.11100 35.21900
N  18.31800 -3.61900 27.84600
C  19.04400 -4.15300 28.80800
C  19.80100 -5.25900 28.31000
C  19.56200 -5.27200 26.89700
C  18.68100 -4.16200 26.69000
C  20.52900 -6.28900 29.21900
C  20.17300 -6.13000 25.78100
O  19.85100 -6.00300 24.60900
C  21.20500 -7.22700 26.15600
N  16.72900 -1.75200 25.99700
C  17.60800 -2.42600 25.17600
C  17.42100 -1.97100 23.73000
C  16.21700 -0.96300 23.76300
C  15.98400 -0.83600 25.25500
C  18.71200 -1.37800 23.17800
C  14.96900 -1.47900 22.99900
C  13.96100 -0.45400 22.56800
N  15.80200 -0.13300 28.14800
C  15.20100 0.59000 27.16000
C  14.44700 1.65500 27.77700
C  14.75800 1.60500 29.12800
C  15.70700 0.55500 29.23800
C  13.45100 2.58300 27.08400
C  14.50400 2.22100 30.41300
O  13.88800 3.22000 30.74700
C  15.57300 1.47400 31.38900
C  16.56800 2.41000 32.16500
O  17.83500 2.30200 32.09900
O  15.87900 3.28300 33.04000
C  16.79000 3.76900 34.12400
H  19.63600 -4.22600 30.83000
H  18.84200 -3.95800 24.56100
H  14.78800 0.93800 25.08500
H  18.01900 -0.17000 32.77400
H  18.54000 -2.99800 32.81000
H  20.46000 -1.69500 33.22600
H  20.28400 -0.64500 31.89100
H  20.87500 -2.26300 31.57400
H  16.39000 -2.53900 33.24700
H  15.45300 -1.16900 32.78600
H  16.55200 -1.90700 35.29100
H  15.46500 -0.67500 34.94100
H  21.60900 -6.14200 29.22800
H  20.28100 -7.31700 28.95500
H  20.22500 -6.17300 30.26000
H  21.27100 -7.85700 25.26900
H  20.80200 -7.88500 26.92600
H  22.17300 -6.83600 26.46800
H  17.19800 -2.92600 23.25500
H  16.59200 -0.08000 23.24400
H  19.35400 -1.16800 24.03400
H  18.56000 -0.38400 22.75900
H  19.17400 -2.13400 22.54400
H  14.42700 -2.15400 23.66200
H  15.33000 -2.05900 22.15000
H  14.34100 0.52900 22.84600
H  12.98900 -0.67500 23.01000
H  13.90900 -0.43900 21.47900
H  13.31500 2.41100 26.01600
H  13.86900 3.58800 27.15500
H  12.54200 2.61400 27.68400
H  15.01000 1.11800 32.25100
H  16.38400 4.74100 34.40400
H  17.86000 3.82600 33.92500
H  16.66200 3.15100 35.01300

