158

Mg 0.76900 8.06300 26.63000
C  1.09300 10.04600 29.45200
C  0.56300 5.25100 28.43500
C  0.24500 6.35700 23.72900
C  0.68900 11.05400 24.69400
N  0.97500 7.69400 28.73600
C  0.91100 8.65500 29.70400
C  0.66200 7.99200 31.01000
C  0.83500 6.46400 30.67900
C  0.82500 6.43400 29.15100
C  2.10600 5.76400 31.22400
C  -0.76000 8.33500 31.62700
C  -0.76500 8.82100 33.18300
H  0.37100 8.31800 34.11000
N  0.55700 6.05900 26.12700
C  0.55800 5.04900 27.05200
C  0.35000 3.84200 26.42000
C  0.01800 4.15200 25.00400
C  0.27000 5.57400 24.89700
C  0.22500 2.47500 27.10900
C  -0.43700 3.20000 23.85500
O  -0.66500 3.54600 22.70000
C  -0.57000 1.68200 24.09200
N  0.64100 8.66200 24.58400
C  0.51400 7.69400 23.59800
C  0.65100 8.33700 22.21700
C  0.30400 9.77000 22.53800
C  0.52200 9.88300 24.01700
C  2.03000 8.08500 21.52600
C  -1.23400 10.03000 22.28500
C  -1.56200 10.90300 21.12100
N  1.10300 10.08500 26.95500
C  1.04700 11.19500 26.08300
C  1.35800 12.41800 26.82600
C  1.41700 11.99600 28.15200
C  1.22200 10.63900 28.15900
C  1.36200 13.83400 26.26700
C  1.55400 12.44100 29.43600
O  1.85300 13.56900 29.87500
C  1.24900 11.24100 30.37800
C  2.27700 11.14700 31.44000
O  3.41400 10.80100 31.23100
O  1.70700 11.61700 32.64000
C  2.76800 11.93600 33.59700
H  0.35800 4.38900 29.07300
H  -0.10700 5.77700 22.87400
H  0.63500 11.98300 24.12200
H  1.35500 8.35000 31.77200
H  -0.00900 5.86000 31.01400
H  2.67700 6.39100 31.90800
H  2.82200 5.42300 30.47600
H  1.93800 4.91700 31.88900
H  -1.39800 7.45300 31.67800
H  -1.11500 9.19000 31.05000
H  -1.70100 8.51300 33.64900
H  -0.78000 9.91100 33.20700
H  0.68700 2.42300 28.09500
H  0.74200 1.65400 26.61300
H  -0.79100 2.10800 27.25500
H  0.37100 1.13300 24.11000
H  -1.22900 1.30800 23.30800
H  -1.07900 1.37900 25.00700
H  -0.08400 7.92700 21.52600
H  0.93900 10.47100 21.99600
H  2.65800 7.41100 22.10900
H  2.61300 8.99200 21.36500
H  1.80800 7.66100 20.54600
H  -1.81600 10.48100 23.08900
H  -1.80600 9.10200 22.27000
H  -1.06900 10.48900 20.24100
H  -1.21400 11.92200 21.29600
H  -2.63800 11.06800 21.07400
H  1.74900 13.86300 25.24800
H  2.06500 14.33000 26.93700
H  0.36800 14.27700 26.20800
H  0.29300 11.47600 30.84600
H  3.44400 12.69500 33.20300
H  3.31700 11.04100 33.89000
H  2.40700 12.29200 34.56200
Mg 53.78200 23.78900 44.05900
C  50.97500 25.79300 43.54400
C  51.89500 20.99900 43.37100
C  56.58400 22.02100 44.11600
C  55.68600 26.80300 44.47600
N  51.64500 23.51900 43.28400
C  50.71200 24.45600 43.29500
C  49.36600 23.81100 43.23300
C  49.59200 22.26500 43.28600
C  51.14100 22.21800 43.29700
C  48.95700 21.49500 44.50100
C  48.46400 24.25400 42.02200
C  49.18100 24.65500 40.74300
H  48.92200 23.87800 39.41100
N  54.19300 21.81300 43.64500
C  53.29300 20.81900 43.50500
C  53.94600 19.60100 43.51000
C  55.35600 19.84100 43.48100
C  55.45400 21.31700 43.74400
C  53.22000 18.25800 43.54800
C  56.46300 18.86900 43.30700
O  56.18900 17.68800 43.11700
C  57.90100 19.16400 43.34500
N  55.86500 24.43600 43.92500
C  56.74100 23.42900 44.18800
C  58.15400 24.02100 44.49600
C  57.95800 25.57600 44.39600
C  56.41600 25.65900 44.22400
C  58.80000 23.50100 45.83100
C  58.55500 26.33900 43.15800
C  60.11300 26.26500 43.12900
N  53.47300 25.92000 43.96000
C  54.28600 26.95700 44.33400
C  53.47700 28.07800 44.68200
C  52.18500 27.69900 44.32500
C  52.20900 26.35000 43.91500
C  53.85900 29.37400 45.17100
C  50.90000 28.20400 44.25200
O  50.44800 29.30800 44.61900
C  50.00900 27.05800 43.59000
C  49.53600 27.51300 42.25900
O  50.23900 27.63300 41.28800
O  48.23100 27.81200 42.35200
C  47.73100 28.65500 41.22700
H  51.32400 20.06800 43.34600
H  57.44800 21.44800 44.45600
H  56.23400 27.62900 44.93300
H  48.89000 24.19000 44.13800
H  49.17600 21.71600 42.44100
H  48.29500 20.77800 44.01400
H  48.41700 22.13000 45.20300
H  49.68900 20.95400 45.10000
H  47.70100 24.96100 42.34700
H  47.86500 23.34800 41.92900
H  50.25300 24.52800 40.89400
H  48.88600 25.68500 40.54100
H  52.83700 17.99000 42.56300
H  52.32700 18.37700 44.16100
H  53.92400 17.52100 43.93500
H  58.42700 18.45700 42.70400
H  58.17200 19.16500 44.40100
H  58.02600 20.14200 42.88000
H  58.87400 23.67200 43.75600
H  58.19900 25.97600 45.38100
H  58.08100 23.11000 46.55100
H  59.44700 24.19500 46.36700
H  59.43000 22.63600 45.62100
H  58.21200 27.33000 43.45600
H  57.96000 26.14100 42.26600
H  60.35200 27.26000 43.50500
H  60.60400 26.04600 42.18100
H  60.42600 25.57400 43.91100
H  53.66500 30.18300 44.46700
H  54.93100 29.40700 45.36600
H  53.21500 29.50300 46.04100
H  49.16000 26.74600 44.19800
H  47.48500 27.98300 40.40500
H  48.49400 29.38900 40.96800
H  46.84900 29.18600 41.58800

