158

Mg 35.82800 1.68600 29.08700
C  33.78000 2.46400 31.81600
C  38.56700 1.71200 31.19800
C  37.90800 1.26800 26.32900
C  33.13300 2.20600 26.88100
N  36.07900 1.95100 31.31900
C  35.11300 2.22200 32.23700
C  35.70300 2.30500 33.65700
C  37.24100 2.03700 33.43700
C  37.32500 1.87800 31.88100
C  38.22400 3.07500 33.94700
C  35.02500 1.22600 34.52000
C  34.23200 1.75800 35.72300
H  34.86600 3.04600 36.43100
N  37.84100 1.28400 28.79300
C  38.83400 1.41600 29.80700
C  40.10100 1.03600 29.25600
C  39.96100 0.81400 27.83600
C  38.50300 1.09700 27.58300
C  41.31100 0.97200 30.07900
C  40.90400 0.35700 26.83000
O  40.55700 0.03300 25.70100
C  42.40200 0.32000 27.14800
N  35.54700 1.74900 26.94800
C  36.58000 1.61500 26.05600
C  36.05200 1.98500 24.68900
C  34.45400 1.97300 24.73100
C  34.33200 2.06200 26.27500
C  36.61900 3.44900 24.32100
C  33.78900 0.87200 23.99700
C  32.35600 1.09500 23.44300
N  33.85300 2.14800 29.26100
C  32.86200 2.39500 28.30000
C  31.66900 2.79600 28.91200
C  31.98300 2.87500 30.26700
C  33.35600 2.42700 30.40800
C  30.38800 3.12400 28.29900
C  31.41900 3.15700 31.54700
O  30.21800 3.43700 31.77700
C  32.57100 2.93700 32.64200
C  32.64100 4.21500 33.37700
O  33.37200 5.11400 33.00700
O  31.77800 4.25800 34.40900
C  31.75300 5.45100 35.20200
H  39.42000 1.70800 31.88000
H  38.59600 1.27800 25.48100
H  32.28900 2.33500 26.20100
H  35.49800 3.32300 33.98900
H  37.49600 1.11800 33.96500
H  38.75600 3.53000 33.11100
H  38.84400 2.77900 34.79200
H  37.56500 3.88200 34.27000
H  35.79900 0.67500 35.05400
H  34.32800 0.58600 33.97800
H  34.16200 0.95300 36.45500
H  33.21400 1.94400 35.38100
H  41.67000 -0.02800 30.32300
H  41.23000 1.34500 31.10000
H  42.08000 1.56500 29.58400
H  42.77400 1.27500 27.52000
H  42.88300 0.10400 26.19500
H  42.52200 -0.50700 27.84800
H  36.31700 1.33200 23.85800
H  34.00300 2.91000 24.40500
H  35.81500 4.16800 24.48100
H  36.82800 3.46000 23.25200
H  37.47900 3.70000 24.94200
H  33.65900 0.01300 24.65600
H  34.38700 0.54200 23.14700
H  31.74300 0.49200 24.11400
H  32.27900 0.70300 22.42900
H  31.91200 2.09000 23.44300
H  30.08300 2.73800 27.32600
H  30.21900 4.20100 28.28700
H  29.60000 2.67100 28.90100
H  32.19400 2.30000 33.44200
H  31.41100 5.08700 36.17000
H  31.03500 6.14400 34.76200
H  32.72500 5.91600 35.36800
Mg 27.07200 49.47100 26.00100
C  25.23900 50.91600 28.79200
C  29.64500 48.89400 28.25200
C  28.89500 48.71900 23.28900
C  24.54000 50.74400 23.94300
N  27.38500 49.91000 28.32500
C  26.43000 50.33300 29.22000
C  26.90800 50.04100 30.68200
C  28.43300 49.64700 30.50800
C  28.53200 49.46000 28.92500
C  29.52800 50.61100 31.01000
C  26.00500 49.04600 31.52000
C  25.57700 49.63100 32.83400
H  26.57800 49.98200 33.91900
N  28.96400 48.83400 25.82700
C  29.85800 48.49100 26.85500
C  31.15100 48.13000 26.21100
C  31.00500 48.18700 24.78300
C  29.56800 48.59000 24.57200
C  32.37000 47.74600 26.99700
C  32.09700 48.00200 23.76000
O  31.84000 48.02400 22.57400
C  33.50000 47.72600 24.09000
N  26.72200 49.67400 23.84100
C  27.65200 49.19800 22.93500
C  27.01700 49.41600 21.51300
C  25.52000 49.89600 21.82900
C  25.53500 49.98700 23.32400
C  27.74600 50.38600 20.55600
C  24.46000 48.98800 21.16500
C  24.01700 47.64000 22.01600
N  25.25600 50.53000 26.25000
C  24.30100 50.94600 25.30900
C  23.16200 51.62900 25.95900
C  23.54300 51.60700 27.31700
C  24.81800 50.97000 27.47400
C  22.00800 52.21700 25.20400
C  23.06500 51.87400 28.69400
O  22.03000 52.42700 29.06200
C  24.12600 51.43100 29.63400
C  24.34200 52.49600 30.62100
O  25.29900 53.27100 30.60800
O  23.40300 52.45300 31.58700
C  23.65600 53.32600 32.76000
H  30.54800 48.67700 28.82500
H  29.53400 48.51300 22.42800
H  23.74100 51.04200 23.26200
H  26.90800 50.99900 31.20300
H  28.54900 48.67300 30.98500
H  30.16100 50.90300 30.17100
H  30.17100 50.32500 31.84200
H  29.06700 51.51700 31.40300
H  26.48700 48.07100 31.59500
H  25.06200 48.86800 31.00400
H  24.78300 48.97600 33.19200
H  25.10900 50.60900 32.72200
H  32.14700 47.89500 28.05300
H  33.21900 48.40200 26.80400
H  32.58800 46.74200 26.63300
H  34.05700 47.57600 23.16400
H  33.70300 46.83400 24.68200
H  33.78000 48.65000 24.59700
H  27.01100 48.44200 21.02400
H  25.38000 50.89600 21.42100
H  28.75600 50.46700 20.95700
H  27.14900 51.29700 20.54600
H  27.69900 50.06500 19.51500
H  24.84600 48.57800 20.23200
H  23.58400 49.60900 20.97700
H  24.27400 46.76800 21.41400
H  22.94700 47.64200 22.22300
H  24.51000 47.50800 22.97900
H  21.79200 51.54600 24.37300
H  22.16400 53.18400 24.72600
H  21.15900 52.29700 25.88300
H  23.86700 50.52400 30.17900
H  23.59600 54.36500 32.43900
H  24.65000 53.10000 33.14700
H  22.99200 53.13300 33.60200

