158

Mg 43.91500 3.89200 46.98500
C  42.05300 6.72700 46.87900
C  40.91000 1.98600 46.80400
C  45.76000 1.20300 46.40200
C  46.86100 5.84800 46.46500
N  41.71800 4.37500 46.96100
C  41.19600 5.58700 46.86000
C  39.68000 5.52100 46.80700
C  39.30300 4.02100 46.94700
C  40.73400 3.40200 46.84500
C  38.52400 3.69700 48.26200
C  39.09400 6.22900 45.61400
C  39.44100 5.64600 44.21800
H  39.91400 6.62900 43.17100
N  43.37300 1.85300 46.78000
C  42.12300 1.21600 46.81000
C  42.26000 -0.15600 46.64400
C  43.58700 -0.37100 46.32900
C  44.35300 0.88500 46.44700
C  41.01700 -1.08100 46.73200
C  44.08500 -1.73800 45.92000
O  43.23800 -2.62400 45.86800
C  45.46600 -1.96400 45.56600
N  46.06500 3.59700 46.50000
C  46.48100 2.36900 46.48000
C  48.07100 2.31700 46.55300
C  48.43100 3.79100 46.36900
C  47.09700 4.51000 46.49200
C  48.50700 1.74600 47.92900
C  48.97000 4.15200 44.92300
C  50.44200 4.50100 44.94900
N  44.38600 5.87400 46.67300
C  45.62500 6.54400 46.51300
C  45.37600 8.00900 46.52900
C  43.97600 8.07000 46.64500
C  43.41300 6.81700 46.75100
C  46.30400 9.08000 46.56700
C  42.91500 8.93100 46.79600
O  42.95600 10.18000 46.81100
C  41.58100 8.18500 46.85800
C  40.73000 8.68200 47.92600
O  40.42600 8.04000 48.88900
O  40.18000 9.89400 47.54600
C  38.97100 10.32500 48.25500
H  39.97100 1.44900 46.65400
H  46.40800 0.32800 46.48500
H  47.71600 6.52300 46.38700
H  39.28700 6.13200 47.61900
H  38.72500 3.68000 46.08800
H  39.23400 3.84500 49.07600
H  38.39500 2.62200 48.38400
H  37.62600 4.28100 48.46200
H  39.45600 7.25500 45.56100
H  38.00800 6.27700 45.69800
H  38.58700 5.05200 43.89100
H  40.31000 5.01300 44.39600
H  40.77700 -1.52100 45.76400
H  40.10600 -0.51100 46.91500
H  41.16500 -1.84900 47.49100
H  46.05700 -2.16600 46.45900
H  45.80700 -1.08800 45.01400
H  45.50400 -2.80700 44.87600
H  48.46600 1.81000 45.67200
H  48.99800 4.30800 47.14300
H  47.68700 1.51100 48.60700
H  49.13600 2.50100 48.40000
H  49.01900 0.80200 47.74100
H  48.37500 4.95400 44.48600
H  48.70800 3.30400 44.29000
H  50.95400 3.91800 44.18300
H  50.80900 4.15900 45.91600
H  50.67200 5.56500 44.88900
H  45.87300 10.02900 46.24800
H  47.05300 8.88000 45.80100
H  46.77000 9.20700 47.54400
H  41.10500 8.50600 45.93200
H  38.98300 10.26000 49.34300
H  38.07200 9.83600 47.87900
H  38.79600 11.39200 48.11200
Mg 35.79400 1.96100 29.61400
C  33.89400 3.28200 32.13200
C  38.70200 2.36600 31.69800
C  37.65600 0.98700 27.06100
C  33.02800 2.22200 27.40900
N  36.21900 2.88000 31.54200
C  35.22600 3.06400 32.47900
C  35.76500 3.12500 33.94100
C  37.27800 3.28200 33.61900
C  37.43900 2.79200 32.20200
C  37.85000 4.67900 33.70900
C  35.40600 1.80200 34.72100
C  34.93100 1.87000 36.19100
H  35.14900 3.15500 37.01900
N  37.86200 1.62100 29.40400
C  38.87100 1.84600 30.36700
C  40.13600 1.46000 29.85100
C  39.94000 1.21900 28.46800
C  38.41800 1.23800 28.24200
C  41.25600 1.48400 30.68100
C  40.97500 0.92500 27.40700
O  40.64600 0.65500 26.28300
C  42.42300 0.98500 27.71800
N  35.38400 1.69500 27.50400
C  36.30600 1.09600 26.76800
C  35.83100 0.87200 25.29800
C  34.26300 1.24800 25.42400
C  34.17600 1.67500 26.87000
C  36.58000 1.65000 24.13900
C  33.40300 0.04600 25.10900
C  33.00100 -0.16500 23.63900
N  33.85900 2.48500 29.70200
C  32.82800 2.48400 28.79700
C  31.62900 2.93200 29.47300
C  31.99400 3.19400 30.80200
C  33.37900 2.95900 30.84100
C  30.28300 3.03500 28.89700
C  31.51200 3.59000 32.09000
O  30.33200 3.66800 32.47600
C  32.76300 3.75900 33.04100
C  32.80100 5.12300 33.55700
O  33.52400 5.99600 33.17000
O  32.04800 5.11100 34.78100
C  32.09500 6.43900 35.55800
H  39.44800 2.34200 32.49600
H  38.21000 0.62000 26.19400
H  32.25100 2.13900 26.64600
H  35.38900 4.03800 34.40300
H  37.91600 2.68900 34.27300
H  37.21100 5.43000 34.17300
H  38.07600 5.09900 32.72900
H  38.79400 4.67700 34.25500
H  36.29000 1.16600 34.77400
H  34.70200 1.18200 34.16500
H  35.40900 1.05100 36.72900
H  33.88400 1.60500 36.33300
H  41.42700 2.47300 31.10600
H  42.22300 1.22000 30.25200
H  41.04200 0.90500 31.57900
H  42.62700 0.03600 28.21500
H  42.64700 1.90200 28.26300
H  42.88400 1.01800 26.73100
H  35.86500 -0.20000 25.10600
H  34.03600 2.21700 24.98000
H  36.94000 0.93500 23.39900
H  37.42100 2.21600 24.53800
H  35.96400 2.38500 23.62200
H  32.47500 -0.03500 25.67500
H  33.88200 -0.89500 25.37900
H  32.01200 0.28300 23.53300
H  33.10600 -1.20700 23.33800
H  33.70100 0.40400 23.02700
H  29.53300 2.48400 29.46500
H  30.21100 2.87200 27.82200
H  30.03100 4.05700 29.17900
H  32.63400 3.08300 33.88600
H  32.89600 6.35800 36.29300
H  31.24700 6.41900 36.24300
H  32.22800 7.36700 35.00200

