158

Mg 40.99000 8.47100 30.02200
C  42.89000 9.87200 32.54500
C  38.48600 7.83700 32.22500
C  39.32900 6.98500 27.44200
C  43.63600 9.15300 27.86300
N  40.72100 8.75300 32.10000
C  41.59800 9.41800 32.94900
C  41.01600 9.55800 34.38100
C  39.70700 8.65900 34.29600
C  39.56900 8.43400 32.74800
C  39.69900 7.46200 35.19200
C  40.82100 11.09700 34.82600
C  39.72300 11.28800 35.85700
H  40.19300 12.08600 37.09000
N  39.12900 7.53500 29.86200
C  38.26600 7.35700 30.89400
C  37.16000 6.57100 30.39500
C  37.35900 6.33900 29.02900
C  38.67300 6.96700 28.70900
C  35.97600 6.08800 31.25800
C  36.35900 5.58600 28.06300
O  36.56400 5.42800 26.84700
C  34.91100 5.22200 28.51400
N  41.43000 8.07600 27.96900
C  40.58600 7.56100 27.12500
C  41.07200 7.43700 25.66300
C  42.37600 8.30400 25.75600
C  42.42000 8.68000 27.26300
C  41.18400 5.97500 25.17600
C  42.33400 9.60000 24.91800
C  43.65900 9.94700 24.18400
N  42.95800 9.13600 30.16200
C  43.86000 9.48500 29.18300
C  45.10500 10.08900 29.79700
C  44.67800 10.29300 31.13800
C  43.40500 9.75900 31.27000
C  46.41600 10.45500 29.10500
C  45.06700 10.86300 32.41700
O  46.08200 11.44800 32.73300
C  43.93900 10.63400 33.36900
C  44.36900 9.75700 34.44000
O  44.92700 8.66300 34.23300
O  44.06900 10.18100 35.72300
C  44.40400 9.24700 36.84000
H  37.67000 7.72500 32.94200
H  38.76600 6.43600 26.68400
H  44.46000 9.03200 27.15600
H  41.65200 8.97900 35.05100
H  38.87800 9.33100 34.51900
H  38.94300 7.79000 35.90500
H  40.63100 7.24700 35.71500
H  39.30600 6.60300 34.64800
H  40.75000 11.70400 33.92300
H  41.77300 11.46100 35.21300
H  39.52200 10.25100 36.12700
H  38.82900 11.73000 35.41700
H  35.86500 5.02500 31.04000
H  35.06500 6.58100 30.92000
H  36.15900 6.25000 32.32000
H  34.36400 6.08100 28.90300
H  34.87100 4.36800 29.19100
H  34.30800 5.01900 27.62900
H  40.32400 8.00400 25.10900
H  43.33700 7.81300 25.59700
H  40.50100 5.81100 24.34200
H  40.76100 5.28800 25.90900
H  42.19400 5.67100 24.90200
H  42.09400 10.50700 25.47300
H  41.52400 9.52600 24.19200
H  44.01500 9.00100 23.77500
H  44.38000 10.26400 24.93700
H  43.60000 10.68600 23.38500
H  46.23500 10.97700 28.16500
H  47.07900 9.60800 28.92800
H  46.86400 11.15100 29.81400
H  43.60100 11.59900 33.74400
H  45.29100 9.48700 37.42600
H  44.56400 8.24200 36.45200
H  43.55500 9.25500 37.52300
Mg 10.13600 48.37700 25.57900
C  7.67300 48.49900 28.22600
C  12.37000 49.80400 27.84400
C  12.42800 48.42400 23.23900
C  7.65300 47.41500 23.49600
N  10.04500 49.11800 27.82000
C  8.89900 48.98300 28.68300
C  9.32000 49.37000 30.09000
C  10.66200 50.11000 29.89100
C  11.06900 49.74100 28.39000
C  10.63000 51.61200 30.14800
C  9.44800 48.06400 31.04900
C  10.50100 48.00700 32.19000
H  10.10000 47.14800 33.42600
N  12.09700 48.89700 25.59700
C  12.85700 49.37500 26.61300
C  14.28300 49.36000 26.14900
C  14.29900 48.74300 24.90200
C  12.90400 48.66400 24.53900
C  15.45100 49.90100 27.04600
C  15.47400 48.22200 24.04500
O  15.39500 47.79000 22.94200
C  16.79900 48.33300 24.65700
N  9.99000 48.14900 23.64000
C  11.10000 48.20800 22.79300
C  10.72800 47.71700 21.38800
C  9.25100 47.30400 21.52600
C  8.92700 47.64500 22.97100
C  11.04800 48.74900 20.23700
C  8.87300 45.88700 21.08600
C  8.87700 44.74100 22.16100
N  8.08100 47.97800 25.79500
C  7.17900 47.58200 24.80000
C  5.83300 47.48800 25.35400
C  6.03500 47.71700 26.71300
C  7.35600 48.03700 26.91300
C  4.43200 47.18100 24.61700
C  5.31500 47.84000 28.01600
O  4.09500 47.72000 28.28400
C  6.37700 48.30600 29.08700
C  6.62000 47.23200 30.02500
O  7.22700 46.14600 29.89500
O  5.99500 47.58500 31.20000
C  5.88300 46.50400 32.20200
H  13.11900 50.30400 28.46200
H  13.10400 48.23400 22.40300
H  6.93200 46.82900 22.92300
H  8.57200 49.92600 30.65600
H  11.40900 49.66200 30.54600
H  10.79800 52.03300 29.15700
H  11.43100 51.84800 30.84800
H  9.72500 52.04000 30.58000
H  9.65500 47.12300 30.53900
H  8.46800 48.09900 31.52500
H  10.94400 48.96700 32.45400
H  11.34500 47.35600 31.95900
H  15.11600 50.00400 28.07800
H  15.83500 50.85100 26.67500
H  16.23000 49.15600 27.20500
H  16.91500 47.68200 25.52400
H  17.00500 49.34700 25.00100
H  17.58700 48.13200 23.93200
H  11.24500 46.77000 21.24100
H  8.61600 47.99300 20.96700
H  11.99300 49.25800 20.42800
H  10.20600 49.44100 20.21800
H  11.05300 48.13900 19.33400
H  9.52100 45.52800 20.28600
H  7.95800 46.03800 20.51300
H  9.33800 44.99800 23.11500
H  9.46600 43.95300 21.69200
H  7.94800 44.27300 22.48800
H  4.09500 46.14600 24.68200
H  4.62000 47.42600 23.57200
H  3.55900 47.76800 24.90400
H  6.01600 49.16000 29.65900
H  6.78100 46.56700 32.81600
H  5.88200 45.53900 31.69300
H  5.01200 46.60000 32.84900

