158

Mg 8.18000 3.63900 27.31600
C  9.43600 1.98900 30.20600
C  6.50100 5.79700 29.48600
C  6.74400 4.84700 24.59200
C  9.67900 1.06400 25.31600
N  7.94000 3.76300 29.58800
C  8.62900 3.09900 30.51800
C  8.43100 3.73600 31.89900
C  7.41600 4.90200 31.62600
C  7.27800 4.79400 30.10500
C  5.99500 4.72200 32.24500
C  9.81500 4.25500 32.56200
C  10.11700 3.71100 33.93300
H  10.54200 4.67000 35.08400
N  6.91100 5.15000 27.05200
C  6.38200 5.95400 28.04000
C  5.48900 6.89000 27.42800
C  5.52600 6.58500 26.01800
C  6.38400 5.48400 25.79300
C  4.63900 7.75800 28.26500
C  4.75100 7.29900 24.89900
O  4.83100 7.03300 23.71100
C  3.82100 8.45100 25.23200
N  8.15000 3.08700 25.23500
C  7.46600 3.72900 24.29800
C  7.71100 3.19500 22.87800
C  8.65000 1.97400 23.16700
C  8.88600 2.04400 24.65200
C  6.45200 2.83800 22.04800
C  9.91300 1.95200 22.18000
C  9.64900 1.39800 20.77800
N  9.33000 1.90400 27.64300
C  9.83400 0.97700 26.78200
C  10.61000 -0.04800 27.53700
C  10.52800 0.33300 28.84300
C  9.79900 1.57100 28.89700
C  11.09900 -1.32300 27.05700
C  10.93600 -0.02100 30.16000
O  11.49900 -0.97100 30.62100
C  10.34200 1.08600 31.09600
C  9.55600 0.41400 32.14300
O  8.40700 -0.01600 31.99900
O  10.09100 0.52900 33.35900
C  9.41100 0.06200 34.57600
H  5.88200 6.43800 30.11700
H  6.14900 5.07200 23.70400
H  10.00000 0.25500 24.65600
H  7.99900 3.01400 32.59200
H  7.77700 5.90800 31.83800
H  5.23000 4.34400 31.56600
H  5.69900 5.74200 32.48900
H  6.00600 4.04300 33.09800
H  9.90400 5.34000 32.51600
H  10.56500 3.92500 31.84300
H  10.94300 3.01000 33.81300
H  9.34900 3.08000 34.38100
H  5.07700 7.96700 29.24200
H  3.63700 7.33600 28.34200
H  4.45600 8.69800 27.74500
H  3.04400 8.20700 25.95700
H  3.29400 8.72700 24.31900
H  4.38300 9.32100 25.57100
H  8.37300 3.96500 22.48000
H  8.05000 1.08900 22.95900
H  5.51900 2.96800 22.59600
H  6.44900 1.79500 21.72900
H  6.35000 3.53100 21.21400
H  10.68200 1.37100 22.68800
H  10.16100 3.00000 22.00900
H  10.32700 0.57400 20.55500
H  9.76900 2.18400 20.03200
H  8.64300 0.99400 20.67100
H  11.04400 -1.61100 26.00700
H  10.79400 -2.20800 27.61500
H  12.18100 -1.38700 27.17200
H  11.19800 1.56600 31.57000
H  8.99800 0.89900 35.14000
H  10.07800 -0.49500 35.23500
H  8.61200 -0.66700 34.43900
Mg 42.26600 41.52100 26.95300
C  41.14500 43.87200 29.37800
C  43.06800 39.49500 29.54600
C  43.50200 39.43400 24.67000
C  42.26200 44.08600 24.60200
N  42.22700 41.73300 29.29200
C  41.61100 42.67400 29.95200
C  41.43200 42.25100 31.42000
C  42.17400 40.84300 31.47400
C  42.55200 40.69200 30.01400
C  43.37000 40.70400 32.44900
C  39.96900 42.05200 31.90000
C  39.39300 43.10100 32.89900
H  38.94700 42.61200 34.27500
N  43.10500 39.65500 27.08100
C  43.34100 39.01900 28.26500
C  43.88600 37.65200 27.94100
C  43.96500 37.65600 26.44600
C  43.46100 38.93200 25.95600
C  44.31000 36.69600 29.01300
C  44.42800 36.55600 25.57400
O  44.64400 36.70100 24.34400
C  44.57400 35.16600 26.12100
N  42.61800 41.62400 24.87500
C  43.16900 40.65700 24.15200
C  43.50700 41.05500 22.70900
C  42.91500 42.52900 22.66800
C  42.61500 42.79000 24.17600
C  44.90600 40.97600 22.26900
C  41.67000 42.71200 21.75700
C  40.34200 42.03900 22.17400
N  41.73400 43.55600 26.94800
C  41.77200 44.44800 25.87400
C  41.20800 45.70800 26.30800
C  40.83800 45.49500 27.64900
C  41.18400 44.13900 27.99300
C  41.07500 46.97200 25.45400
C  40.17900 46.09800 28.74100
O  39.78200 47.27200 28.90200
C  40.43900 45.08200 30.01400
C  41.28600 45.74900 31.05200
O  42.50100 45.82100 30.96800
O  40.50700 46.29900 32.08800
C  41.25300 46.95900 33.10600
H  43.26600 38.78900 30.35500
H  43.79600 38.74500 23.87600
H  42.18700 44.90500 23.88400
H  42.08700 42.86400 32.03900
H  41.58900 39.96500 31.74600
H  44.26500 40.96100 31.88400
H  43.55000 39.67000 32.74400
H  43.14000 41.25300 33.36200
H  39.89400 41.05100 32.32600
H  39.27400 42.03700 31.06000
H  38.50300 43.56200 32.47100
H  40.01700 43.99200 32.96400
H  43.53500 35.93000 29.04200
H  44.55200 37.25900 29.91500
H  45.22600 36.31000 28.56600
H  45.56400 35.21500 26.57500
H  44.60900 34.36000 25.38700
H  43.81900 34.81400 26.82500
H  42.98500 40.46800 21.95400
H  43.62300 43.31000 22.39100
H  45.35800 41.96400 22.34800
H  44.96200 40.61000 21.24400
H  45.43800 40.29200 22.93100
H  41.91600 42.37300 20.75100
H  41.38800 43.75400 21.60700
H  40.49900 41.51800 23.11800
H  39.95300 41.21400 21.57700
H  39.53700 42.75400 22.34300
H  40.19200 46.94400 24.81600
H  41.92900 47.08100 24.78500
H  40.95800 47.82700 26.12000
H  39.56900 44.78600 30.60200
H  41.66900 46.23200 33.80400
H  40.58800 47.57200 33.71500
H  41.92400 47.67900 32.63800

