158

Mg 17.67900 -1.74600 28.05500
C  16.34600 0.23600 30.62800
C  19.45100 -3.43300 30.11000
C  19.03000 -3.21100 25.29600
C  15.89400 0.52300 25.77800
N  17.88400 -1.48200 30.17300
C  17.23900 -0.73300 31.13600
C  17.62600 -1.12500 32.51600
C  18.64900 -2.29000 32.31100
C  18.73400 -2.40400 30.79000
C  20.04200 -2.17000 32.97500
C  16.40700 -1.52600 33.40700
C  16.42200 -1.26800 34.92500
H  17.68100 -0.78300 35.62100
N  19.11200 -3.14900 27.81200
C  19.55800 -3.93400 28.79900
C  20.17900 -5.13300 28.30700
C  20.25700 -4.98200 26.89800
C  19.46900 -3.70700 26.56000
C  20.77200 -6.10500 29.13900
C  20.82100 -5.88000 25.87000
O  20.95600 -5.67100 24.67700
C  21.28400 -7.32900 26.19900
N  17.59500 -1.25800 25.88000
C  18.20100 -2.10700 24.96300
C  17.99500 -1.59000 23.51900
C  16.85100 -0.61100 23.74000
C  16.77200 -0.38400 25.21100
C  19.22700 -1.01700 22.80600
C  15.47100 -1.09500 23.27300
C  14.67200 -0.26600 22.23400
N  16.41200 -0.04300 28.13500
C  15.79200 0.75500 27.16500
C  15.00700 1.79000 27.75600
C  15.21100 1.59200 29.13600
C  16.01200 0.47100 29.26800
C  14.21600 2.81500 27.03200
C  14.88200 2.15800 30.49600
O  14.24600 3.17000 30.80800
C  15.52100 1.18000 31.48900
C  16.34700 2.07300 32.39300
O  17.32300 2.73500 32.03800
O  15.78900 2.02400 33.66900
C  16.30000 3.00800 34.63100
H  19.90600 -4.12100 30.82600
H  19.42300 -3.84700 24.50000
H  15.31700 1.12100 25.07000
H  18.02200 -0.22600 32.99000
H  18.24600 -3.17100 32.81000
H  20.08500 -1.17000 33.40500
H  20.80900 -2.30300 32.21200
H  20.32100 -2.88200 33.75100
H  16.06800 -2.54700 33.23100
H  15.53700 -0.96100 33.07200
H  16.15600 -2.21800 35.38800
H  15.66700 -0.48800 35.03200
H  21.83000 -6.22000 28.90200
H  20.11200 -6.92100 28.84500
H  20.69400 -5.84100 30.19300
H  21.46400 -8.05200 25.40300
H  20.55000 -7.77600 26.86900
H  22.25400 -7.24000 26.68700
H  17.60300 -2.38100 22.88100
H  17.06400 0.40800 23.41900
H  19.92600 -0.80800 23.61600
H  18.92000 -0.07900 22.34200
H  19.57400 -1.72900 22.05700
H  14.90000 -1.45600 24.12900
H  15.63500 -1.99700 22.68400
H  13.68500 -0.04900 22.64400
H  14.55600 -0.79000 21.28500
H  15.22200 0.65200 22.03100
H  14.57700 3.10400 26.04500
H  14.08600 3.64800 27.72300
H  13.34100 2.22400 26.76300
H  14.68700 0.64000 31.93900
H  16.52100 3.93700 34.10600
H  17.07000 2.54800 35.25000
H  15.38000 3.27500 35.15000
Mg -2.73900 34.82500 26.67800
C  -3.84800 33.19400 29.57300
C  -0.96000 36.91000 28.67200
C  -1.89200 36.57700 23.86000
C  -4.62800 32.54800 24.83700
N  -2.43300 34.94800 28.95200
C  -2.92100 34.22900 29.92400
C  -2.37700 34.60900 31.31300
C  -1.48300 35.88700 30.94500
C  -1.61200 35.95300 29.41900
C  -1.82900 37.07500 31.71800
C  -1.65400 33.39900 31.96900
C  -2.39600 32.89800 33.32800
H  -1.49600 32.74600 34.54400
N  -1.59300 36.49000 26.26200
C  -0.94400 37.19700 27.26200
C  -0.14100 38.19000 26.63700
C  -0.19400 37.90900 25.26700
C  -1.20400 36.92100 25.06400
C  0.81100 39.17200 27.37500
C  0.63400 38.48100 24.05900
O  0.33700 38.29300 22.94600
C  1.92400 39.36700 24.34000
N  -3.57100 34.83700 24.70100
C  -2.94900 35.60300 23.72300
C  -3.53400 35.20300 22.38600
C  -4.06300 33.75100 22.67600
C  -4.12300 33.71800 24.19500
C  -4.51500 36.21800 21.71800
C  -3.19200 32.58300 22.15700
C  -3.29900 32.24700 20.67500
N  -3.99000 33.21900 27.07700
C  -4.67300 32.40100 26.25500
C  -5.48300 31.45000 26.92300
C  -5.17500 31.76700 28.28700
C  -4.24400 32.81800 28.25800
C  -6.50500 30.57800 26.39600
C  -5.35800 31.31800 29.67200
O  -5.98200 30.38600 30.15000
C  -4.57800 32.28000 30.54100
C  -5.54800 32.92500 31.49500
O  -6.31300 33.86600 31.23800
O  -5.52400 32.33900 32.70700
C  -6.50800 32.63700 33.69400
H  -0.33700 37.71300 29.07300
H  -1.62100 37.05800 22.91700
H  -5.11900 31.80600 24.20400
H  -3.21300 34.90700 31.94600
H  -0.47500 35.80000 31.35100
H  -0.92200 37.58800 32.03600
H  -2.47400 36.85800 32.56900
H  -2.36500 37.77800 31.08100
H  -0.60200 33.60800 32.16000
H  -1.51300 32.61200 31.22800
H  -2.73000 31.87100 33.17900
H  -3.26800 33.52500 33.51500
H  1.80300 38.74100 27.51100
H  0.45800 39.39300 28.38300
H  0.94200 40.02500 26.70900
H  2.59500 38.90800 25.06600
H  1.57400 40.36800 24.59500
H  2.46100 39.37700 23.39100
H  -2.67700 35.21000 21.71300
H  -5.03700 33.65600 22.19700
H  -5.47600 35.76700 21.47100
H  -4.24300 36.59100 20.73100
H  -4.80900 37.02300 22.39200
H  -3.46600 31.65300 22.65600
H  -2.17000 32.92300 22.32600
H  -4.14400 32.72200 20.17500
H  -3.46800 31.18200 20.52000
H  -2.39300 32.55600 20.15300
H  -6.17900 29.54700 26.54000
H  -6.66300 30.76600 25.33400
H  -7.42200 30.80700 26.93700
H  -3.98300 31.79300 31.31300
H  -6.04700 33.30500 34.42100
H  -6.78200 31.69200 34.16300
H  -7.36700 33.13500 33.24300

