158

Mg 24.70200 -6.57000 46.23800
C  26.59100 -3.88800 44.94900
C  22.16800 -5.72900 44.08000
C  23.25300 -9.51800 46.98400
C  27.85700 -7.78500 47.56100
N  24.49000 -5.04800 44.67600
C  25.32100 -4.02500 44.38800
C  24.79900 -3.16400 43.27400
C  23.30700 -3.63400 43.14600
C  23.31800 -4.89000 44.01700
C  22.15000 -2.55400 43.33300
C  25.59600 -3.18100 41.92000
C  25.82700 -1.77100 41.24300
H  25.57100 -1.67500 39.78200
N  22.93600 -7.47400 45.66600
C  21.99600 -6.88000 44.83000
C  20.89200 -7.77300 44.72000
C  21.10100 -8.83600 45.56400
C  22.46000 -8.72900 46.13000
C  19.78900 -7.54200 43.72600
C  20.15900 -10.04500 45.66600
O  19.03400 -10.03500 45.28100
C  20.47100 -11.20300 46.40100
N  25.44900 -8.33600 47.14600
C  24.57100 -9.38700 47.45400
C  25.28500 -10.53300 48.19700
C  26.79500 -10.10200 47.96500
C  26.70700 -8.63500 47.67500
C  24.82400 -10.83500 49.67900
C  27.44500 -10.92700 46.86400
C  28.58700 -11.88600 47.18000
N  26.76800 -5.91700 46.42000
C  27.88800 -6.45700 47.00300
C  28.96000 -5.51900 46.96300
C  28.58700 -4.49500 46.12500
C  27.20500 -4.78100 45.84000
C  30.33300 -5.73400 47.51500
C  28.93000 -3.24800 45.43500
O  29.97500 -2.62300 45.32200
C  27.67000 -2.85200 44.61200
C  27.24800 -1.48700 44.95100
O  27.02500 -0.63100 44.10000
O  27.23700 -1.31300 46.33800
C  27.41100 0.18800 46.68600
H  21.36700 -5.46300 43.38700
H  22.74800 -10.32700 47.51600
H  28.79400 -8.27300 47.83600
H  24.78800 -2.11400 43.56600
H  23.17900 -4.02600 42.13700
H  21.26700 -3.08200 43.69200
H  21.89500 -2.27100 42.31200
H  22.51900 -1.73900 43.95600
H  24.94600 -3.71500 41.22700
H  26.56900 -3.66400 42.01300
H  26.89300 -1.58000 41.36600
H  25.27200 -1.01200 41.79500
H  18.80700 -7.39900 44.17800
H  19.55000 -8.45200 43.17600
H  19.86000 -6.74700 42.98400
H  20.59400 -10.98300 47.46100
H  21.34600 -11.64600 45.92600
H  19.59100 -11.84400 46.35400
H  25.11000 -11.44000 47.61800
H  27.36700 -10.22900 48.88500
H  24.25100 -11.76000 49.75200
H  24.19100 -10.05300 50.09900
H  25.74800 -10.98800 50.23600
H  27.74500 -10.27500 46.04500
H  26.74700 -11.61000 46.38000
H  29.12100 -11.43400 48.01600
H  29.30800 -11.90400 46.36200
H  28.19500 -12.83400 47.54700
H  31.06400 -5.74100 46.70700
H  30.33600 -6.65700 48.09400
H  30.47300 -4.84400 48.12800
H  27.98700 -2.84700 43.57000
H  28.23300 0.63200 46.12400
H  27.64500 0.30000 47.74500
H  26.48600 0.73600 46.50900
Mg 7.06600 57.13100 41.37700
C  6.32600 53.80000 41.12600
C  10.23200 56.48200 40.31600
C  7.74900 60.51800 41.09800
C  3.77300 57.83000 42.09800
N  8.06900 55.36900 40.65000
C  7.56900 54.08200 40.60800
C  8.54300 53.11400 39.91300
C  9.89000 53.85100 40.07300
C  9.37700 55.35800 40.39400
C  10.84100 53.24000 41.06400
C  8.11800 52.86100 38.44000
C  8.39600 51.45300 37.78200
H  9.41000 51.14500 36.71800
N  8.78300 58.32100 40.84900
C  10.02000 57.84000 40.55200
C  10.96700 58.96500 40.36200
C  10.23900 60.18900 40.61300
C  8.90100 59.72100 40.85900
C  12.41700 58.83900 40.11000
C  10.80400 61.60600 40.56400
O  12.01200 61.86700 40.36400
C  9.90600 62.89700 40.71700
N  5.90000 58.93700 41.39100
C  6.40900 60.17600 41.38400
C  5.34700 61.24600 41.72000
C  4.07100 60.39300 42.07600
C  4.58600 58.96200 41.81000
C  5.73600 62.28200 42.83000
C  2.85400 60.82600 41.21900
C  1.40100 60.77100 41.85600
N  5.29500 56.04500 41.57700
C  4.02600 56.46200 41.93100
C  3.31100 55.22500 42.33400
C  4.19100 54.16500 42.02100
C  5.28900 54.73800 41.54500
C  1.99900 55.10500 43.11700
C  4.35200 52.72200 41.97100
O  3.73400 51.74200 42.40400
C  5.72800 52.44500 41.24400
C  5.40900 51.76400 39.98800
O  4.69700 52.22000 39.11400
O  6.02400 50.51900 39.87400
C  5.54800 49.73100 38.74500
H  11.26600 56.28800 40.02300
H  7.83400 61.60100 40.98400
H  2.77300 57.99800 42.50100
H  8.50600 52.17200 40.45900
H  10.54300 53.77700 39.20300
H  10.23100 52.78400 41.84400
H  11.43100 53.98700 41.59300
H  11.53700 52.49800 40.67300
H  8.57900 53.65300 37.85100
H  7.03500 52.85100 38.31900
H  7.42900 51.17700 37.36100
H  8.51900 50.63300 38.49100
H  12.58100 59.06400 39.05600
H  12.96100 57.95000 40.43200
H  12.79600 59.63400 40.75300
H  9.44800 62.82900 41.70400
H  9.16100 63.09500 39.94700
H  10.51800 63.79500 40.62900
H  5.29900 61.70400 40.73200
H  3.78800 60.46400 43.12600
H  5.80800 63.31800 42.49900
H  6.70600 61.97400 43.22000
H  4.98500 62.14900 43.60800
H  2.79700 60.21800 40.31600
H  2.89500 61.86100 40.87800
H  0.94100 61.66700 41.44000
H  1.40200 60.77600 42.94600
H  0.83500 59.89600 41.53600
H  1.96000 55.70400 44.02700
H  1.72100 54.08300 43.37800
H  1.20900 55.51300 42.48700
H  6.33100 51.77200 41.85300
H  4.64200 49.19900 39.03600
H  6.22700 48.95600 38.38800
H  5.22400 50.14400 37.79100

