158

Mg 53.26900 23.04700 44.37200
C  50.87000 25.46100 43.19000
C  51.34900 20.61400 43.22900
C  55.80200 21.06100 44.99600
C  55.36500 25.88300 44.94700
N  51.42700 23.11600 43.25700
C  50.48200 24.15900 42.95400
C  49.20100 23.60500 42.42500
C  49.35100 22.04400 42.81900
C  50.78600 21.92500 43.11200
C  48.41300 21.63200 44.01600
C  49.13700 23.83200 40.92500
C  50.42400 23.75100 40.10300
H  51.15400 22.31300 40.01900
N  53.51000 21.05000 44.24800
C  52.56900 20.17800 43.79900
C  53.12900 18.83700 43.78300
C  54.39600 18.96700 44.47300
C  54.59900 20.37300 44.62600
C  52.44200 17.71500 43.11300
C  55.28300 17.86500 44.87500
O  54.96800 16.71000 44.58900
C  56.53400 18.00400 45.69400
N  55.35200 23.47600 44.65500
C  56.12900 22.48000 45.07000
C  57.53800 22.96100 45.64900
C  57.40100 24.43200 45.40400
C  55.93900 24.57600 44.96500
C  57.74800 22.52700 47.18700
C  58.36400 25.01200 44.25800
C  58.16700 24.45900 42.89700
N  53.14900 25.22000 44.29800
C  54.01900 26.16900 44.72200
C  53.31600 27.47400 44.85500
C  52.14500 27.19000 44.13200
C  52.06700 25.85700 43.85600
C  53.87100 28.73700 45.55500
C  50.87100 27.79800 43.81100
O  50.46500 28.93600 44.02300
C  50.04600 26.77400 43.02600
C  50.09200 27.28200 41.66600
O  51.10000 27.60400 41.06500
O  48.85700 27.35500 41.12900
C  48.73500 27.65600 39.68600
H  50.65300 19.87900 42.81900
H  56.66700 20.48200 45.32700
H  56.05900 26.66800 45.25400
H  48.32600 24.08900 42.85900
H  49.12400 21.41100 41.96100
H  47.89100 20.75200 43.64100
H  47.75200 22.48400 44.17700
H  49.00200 21.39600 44.90300
H  48.72100 24.80700 40.67200
H  48.53100 23.04000 40.48600
H  51.16100 24.43200 40.52800
H  50.16800 24.19900 39.14300
H  51.89300 18.02400 42.22400
H  51.64600 17.31700 43.74200
H  53.08200 16.90300 42.76700
H  56.86000 16.98100 45.88300
H  56.38500 18.51500 46.64500
H  57.23700 18.50600 45.03000
H  58.32800 22.44200 45.10600
H  57.41700 24.97700 46.34800
H  57.37500 21.50900 47.29800
H  57.34900 23.33300 47.80300
H  58.80000 22.47800 47.46800
H  59.39300 24.75500 44.51000
H  58.33100 26.09700 44.15900
H  57.31800 23.77800 42.95100
H  59.08200 23.93700 42.61800
H  57.74800 25.14800 42.16400
H  53.49400 28.61200 46.57000
H  53.62100 29.73800 45.20400
H  54.96100 28.76200 45.54600
H  49.01200 26.59400 43.32300
H  49.61200 27.51100 39.05500
H  48.54000 28.72800 39.65000
H  47.92200 27.06400 39.26500
Mg 50.61900 44.83600 42.29300
C  47.37500 45.22300 41.07900
C  50.39700 41.38400 41.28000
C  53.92500 44.49200 42.53600
C  51.02200 48.37400 42.05000
N  49.07200 43.49600 41.20000
C  47.82900 43.91200 40.90600
C  47.08200 42.78200 40.22400
C  47.94600 41.47400 40.65300
C  49.27500 42.14300 40.95900
C  47.45800 40.63400 41.91200
C  47.11000 43.02900 38.67400
C  45.80500 42.65000 37.90200
H  46.01600 42.28600 36.43100
N  51.94600 43.13000 42.08200
C  51.62000 41.84600 41.78600
C  52.84600 41.04900 41.93700
C  53.86700 41.88200 42.41100
C  53.26300 43.23300 42.42800
C  52.95600 39.60400 41.49300
C  55.35600 41.43400 42.64500
O  55.74900 40.27000 42.58500
C  56.32700 42.43100 43.13000
N  52.21500 46.27700 42.14900
C  53.50900 45.84800 42.44400
C  54.44800 47.08700 42.50900
C  53.45600 48.22600 42.32200
C  52.12200 47.63100 42.20100
C  55.29900 47.20800 43.85500
C  53.76900 49.10300 41.00700
C  53.56800 50.62700 41.20900
N  49.41500 46.45200 41.86400
C  49.69700 47.86400 41.82700
C  48.50400 48.57100 41.47600
C  47.59200 47.62500 41.16000
C  48.17900 46.32700 41.40500
C  48.42800 50.09100 41.48900
C  46.23800 47.36300 40.62300
O  45.39400 48.09300 40.17300
C  46.00200 45.80600 40.65100
C  44.86100 45.37900 41.41400
O  43.96900 44.68700 40.98300
O  44.79600 46.05600 42.56700
C  43.42200 46.15900 43.15100
H  50.25000 40.31500 41.11000
H  55.00300 44.33600 42.62200
H  51.08200 49.46100 41.97600
H  46.02900 42.73700 40.50100
H  48.15900 40.77800 39.84200
H  46.38900 40.79300 42.05400
H  47.89100 40.93600 42.86600
H  47.58000 39.56300 41.74900
H  47.93900 42.49700 38.20700
H  47.22700 44.10800 38.57600
H  45.08200 43.46600 37.90300
H  45.32300 41.82600 38.42600
H  51.95200 39.24500 41.26700
H  53.38400 39.04200 42.32300
H  53.69400 39.33600 40.73600
H  55.72200 42.89100 43.91100
H  56.60800 43.11900 42.33300
H  57.15300 42.04400 43.72700
H  55.05700 46.97100 41.61200
H  53.39900 48.92500 43.15600
H  56.27600 47.64400 43.64600
H  55.57600 46.24500 44.28300
H  54.89200 47.87300 44.61700
H  53.20000 48.80700 40.12500
H  54.83300 49.07100 40.77100
H  54.50000 51.08400 40.87700
H  53.41700 50.99100 42.22500
H  52.77500 51.01600 40.57000
H  49.00100 50.48900 42.32700
H  47.36400 50.32000 41.55100
H  48.77000 50.40700 40.50400
H  45.66800 45.46900 39.67000
H  43.48000 45.59600 44.08300
H  42.59100 45.79100 42.55000
H  43.22500 47.16300 43.52600

