158

Mg -2.33500 17.42800 27.08800
C  -2.45800 15.27300 29.84300
C  -2.82100 20.07800 29.14300
C  -2.45900 19.43500 24.31600
C  -2.26200 14.73300 24.91400
N  -2.74600 17.65900 29.30700
C  -2.50700 16.63100 30.23400
C  -2.51500 17.17200 31.72700
C  -2.89500 18.65900 31.40100
C  -2.81800 18.79500 29.87900
C  -4.07800 19.36100 32.11200
C  -1.16200 16.98200 32.53700
C  -0.99300 17.80100 33.82800
H  -0.89700 17.08600 35.18500
N  -2.43400 19.44400 26.81500
C  -2.64500 20.42000 27.79800
C  -2.60100 21.73300 27.26100
C  -2.43200 21.54100 25.81600
C  -2.38300 20.08900 25.60100
C  -2.65500 22.93000 28.07800
C  -2.33200 22.64900 24.79400
O  -2.04100 22.40500 23.62700
C  -2.31500 24.18200 25.21500
N  -2.53700 17.10500 24.97000
C  -2.49000 18.11300 24.03800
C  -2.55300 17.51500 22.62500
C  -2.09900 16.02900 22.79900
C  -2.43900 15.94500 24.28600
C  -4.00200 17.68300 21.98700
C  -0.61200 15.87200 22.34700
C  0.51500 15.32400 23.30900
N  -2.52500 15.36200 27.25200
C  -2.40800 14.36500 26.27900
C  -2.42300 13.07700 26.91800
C  -2.54800 13.37200 28.32700
C  -2.48500 14.74000 28.44400
C  -2.45100 11.88200 26.28900
C  -2.63600 12.81600 29.59800
O  -2.68700 11.64200 30.00800
C  -2.66900 14.00300 30.69200
C  -1.73300 13.65100 31.74200
O  -0.50400 13.70300 31.69500
O  -2.45800 13.19500 32.87000
C  -1.62800 12.33300 33.75800
H  -2.83600 20.86400 29.90100
H  -2.52000 20.09300 23.44700
H  -2.01800 13.91300 24.23600
H  -3.39000 16.74200 32.21400
H  -2.00800 19.22400 31.68800
H  -3.70300 20.19700 32.70300
H  -4.61400 18.62200 32.70800
H  -4.86100 19.66100 31.41400
H  -0.41400 17.38600 31.85500
H  -0.91300 15.96700 32.84700
H  -1.92000 18.36800 33.91300
H  -0.19200 18.52400 33.66900
H  -2.04300 23.76700 27.74000
H  -2.21600 22.71400 29.05200
H  -3.67600 23.30900 28.12400
H  -3.18300 24.39200 25.84000
H  -2.26300 24.72700 24.27300
H  -1.35400 24.29000 25.71900
H  -1.77300 18.00200 22.04000
H  -2.71700 15.32900 22.23600
H  -4.65600 18.25500 22.64500
H  -4.39800 16.74000 21.61200
H  -3.79800 18.22800 21.06500
H  -0.20000 16.78100 21.90900
H  -0.70700 15.10000 21.58400
H  0.07000 15.24700 24.30100
H  1.34900 16.02500 23.33400
H  0.92000 14.35900 23.00600
H  -2.25100 11.05600 26.97300
H  -1.70600 11.67700 25.52100
H  -3.36900 11.78800 25.70900
H  -3.65400 14.02000 31.16000
H  -1.11100 12.99800 34.44900
H  -0.91000 11.69600 33.24200
H  -2.34200 11.74400 34.33400
Mg 0.86900 7.96300 26.13700
C  1.56400 9.84300 29.06900
C  0.86300 5.17800 27.96600
C  0.42000 6.34500 23.31000
C  1.02400 11.02000 24.38000
N  1.20500 7.62500 28.33100
C  1.36700 8.47300 29.35500
C  1.31700 7.80100 30.76700
C  1.21700 6.29000 30.34800
C  1.10900 6.38200 28.76400
C  2.29700 5.41800 30.94700
C  0.25900 8.44000 31.84600
C  0.79100 8.44500 33.28300
H  1.73600 7.38600 33.75000
N  0.56200 6.04400 25.70800
C  0.68600 4.95800 26.55800
C  0.42900 3.71200 25.93300
C  0.26500 4.08200 24.53600
C  0.43800 5.54300 24.49600
C  0.66000 2.37400 26.65200
C  -0.10800 3.16100 23.40500
O  -0.22700 3.59500 22.28600
C  -0.51000 1.76400 23.58200
N  0.85800 8.60600 24.12900
C  0.75500 7.67500 23.16800
C  1.17500 8.35500 21.81300
C  0.93200 9.87800 22.12000
C  0.90800 9.87300 23.62300
C  2.73600 8.16500 21.56900
C  -0.39900 10.35800 21.50100
C  -1.78800 9.77400 22.08500
N  1.19700 10.03700 26.58100
C  1.26500 11.14100 25.75300
C  1.66000 12.25800 26.44400
C  1.71800 11.87300 27.79100
C  1.51700 10.47800 27.82000
C  2.10000 13.61800 25.91700
C  1.91300 12.31700 29.13100
O  2.30300 13.46800 29.43100
C  1.66300 11.08300 30.04800
C  2.73800 10.94600 31.00200
O  3.76600 10.28600 30.82500
O  2.49000 11.77400 32.04800
C  3.46800 11.99700 33.04800
H  0.85300 4.25300 28.54700
H  0.27200 5.78600 22.38400
H  0.97100 11.99100 23.88400
H  2.36100 7.81500 31.07900
H  0.23300 5.93300 30.65200
H  1.85200 4.42800 31.04900
H  2.64600 5.71200 31.93700
H  3.16100 5.41700 30.28200
H  -0.59000 7.75600 31.87400
H  -0.03500 9.41100 31.44800
H  -0.01100 8.18300 33.97200
H  1.05400 9.47700 33.51500
H  0.80500 1.64800 25.85200
H  -0.16100 2.01200 27.27000
H  1.49600 2.42400 27.35000
H  -1.22900 1.77000 24.40100
H  0.36500 1.13200 23.73600
H  -1.04700 1.37900 22.71500
H  0.59700 8.03100 20.94700
H  1.74400 10.57000 21.89700
H  3.16400 7.32100 22.11000
H  3.37900 9.02800 21.74000
H  2.79400 7.95200 20.50200
H  -0.47700 10.25200 20.41900
H  -0.42000 11.42800 21.70400
H  -2.63000 9.60600 21.41300
H  -2.14400 10.47200 22.84300
H  -1.61200 8.90500 22.71900
H  1.24000 14.28400 25.98500
H  2.34400 13.64400 24.85500
H  2.87400 14.02200 26.57000
H  0.71200 11.29800 30.53500
H  4.39500 12.45900 32.70700
H  3.74700 11.01500 33.43100
H  3.05200 12.52600 33.90500

