158

Mg 8.40600 3.82400 26.77900
C  9.95800 2.27200 29.51000
C  6.41000 5.46900 28.77500
C  6.92300 4.87400 23.91600
C  10.43500 1.62200 24.70300
N  8.10800 3.56400 28.83600
C  8.86500 3.06200 29.86200
C  8.49500 3.50800 31.23700
C  7.23000 4.42100 30.94100
C  7.23800 4.50100 29.38700
C  5.94000 4.05200 31.61300
C  9.64600 4.20100 31.99900
C  9.09500 5.12900 33.15000
H  9.75400 5.11500 34.54100
N  6.93000 5.08400 26.41000
C  6.20900 5.62800 27.36800
C  5.27500 6.55500 26.72500
C  5.55400 6.56200 25.34300
C  6.48800 5.49300 25.16000
C  4.31100 7.46000 27.61100
C  4.96300 7.36400 24.17500
O  5.24600 7.28200 23.01800
C  3.94400 8.36100 24.54600
N  8.63600 3.27100 24.59900
C  7.88200 3.88100 23.59800
C  8.16200 3.39300 22.21600
C  9.36100 2.42300 22.50900
C  9.52700 2.39300 24.01800
C  7.04000 2.76700 21.40400
C  10.77500 2.76600 21.80600
C  11.15700 1.92500 20.68000
N  9.90600 2.28700 26.95600
C  10.69700 1.61700 26.05900
C  11.54200 0.67500 26.77700
C  11.33200 0.93900 28.12800
C  10.36100 1.99400 28.19400
C  12.43500 -0.51100 26.25300
C  11.75400 0.48100 29.47700
O  12.54400 -0.37600 29.83200
C  10.87500 1.41600 30.39600
C  10.17700 0.63900 31.43900
O  9.31200 -0.14400 31.27700
O  10.73700 0.90900 32.65300
C  10.08200 0.41900 33.85300
H  5.93300 6.21300 29.41600
H  6.44300 5.16900 22.98000
H  10.92500 0.97600 23.97200
H  8.23400 2.56100 31.70900
H  7.38200 5.44300 31.28800
H  5.95000 2.96200 31.64400
H  5.00600 4.42900 31.19700
H  5.93400 4.40400 32.64400
H  10.12300 4.75200 31.18800
H  10.29800 3.45000 32.44600
H  8.09100 4.86500 33.48500
H  9.16400 6.17000 32.83500
H  4.46800 8.50200 27.33000
H  4.39600 7.36200 28.69300
H  3.26800 7.20600 27.42000
H  3.19400 7.90000 25.18900
H  3.39700 8.70400 23.66800
H  4.45200 9.22300 24.97900
H  8.57600 4.20100 21.61300
H  9.01700 1.42500 22.23700
H  6.90700 3.44500 20.56100
H  6.10800 2.76500 21.97000
H  7.17500 1.73800 21.07100
H  11.62200 2.71100 22.49000
H  10.85500 3.73700 21.31600
H  11.59500 2.53300 19.88900
H  10.28000 1.48600 20.20400
H  11.76000 1.04500 20.90300
H  12.72100 -0.34100 25.21600
H  12.00400 -1.49500 26.44300
H  13.32500 -0.52100 26.88300
H  11.58300 2.10700 30.85500
H  9.09100 0.83500 34.03100
H  10.68000 0.82400 34.67000
H  10.22800 -0.63800 34.07700
Mg 26.23800 48.98800 27.01600
C  24.27700 50.32900 29.49700
C  28.71100 48.37200 29.19500
C  28.41000 48.34600 24.41800
C  24.00600 50.35000 24.65400
N  26.45300 49.21100 29.12300
C  25.49600 49.75000 29.97900
C  25.85900 49.45500 31.46300
C  27.43100 49.08400 31.33900
C  27.52900 48.91700 29.79800
C  28.41600 50.18200 31.85400
C  25.00700 48.31900 32.05700
C  24.96700 48.20800 33.56800
H  25.74900 49.15500 34.48800
N  28.27100 48.39100 26.82000
C  29.13700 48.21500 27.84300
C  30.36600 47.82200 27.38400
C  30.28600 47.74800 25.99400
C  28.92200 48.16600 25.64900
C  31.50600 47.41600 28.23100
C  31.31700 47.53700 24.95500
O  31.15400 47.62200 23.75000
C  32.77200 47.41600 25.46700
N  26.32200 49.59000 24.89600
C  27.26300 48.98700 24.07600
C  26.83700 49.08500 22.57700
C  25.39200 49.56500 22.68100
C  25.24700 49.90800 24.13500
C  27.77300 49.89500 21.70000
C  24.44200 48.47000 22.20700
C  24.01600 47.44100 23.24900
N  24.51800 50.10600 27.01700
C  23.66700 50.56500 25.99600
C  22.49500 51.17100 26.52200
C  22.70300 51.10800 27.89000
C  23.93600 50.40900 28.12200
C  21.42100 51.80900 25.69500
C  22.13200 51.40600 29.22000
O  21.07000 51.89800 29.54400
C  23.18500 50.94000 30.29300
C  23.64000 52.09400 31.17800
O  24.40500 52.98300 30.83000
O  22.95800 52.02600 32.35700
C  23.29100 53.06100 33.35800
H  29.45100 48.24800 29.98800
H  28.89300 47.89400 23.55000
H  23.29000 50.45000 23.83600
H  25.64800 50.42700 31.90800
H  27.58700 48.14800 31.87500
H  27.91000 51.13200 32.02800
H  29.12700 50.47900 31.08300
H  28.98900 49.77300 32.68700
H  25.54900 47.44700 31.69100
H  24.02300 48.31600 31.58900
H  25.19600 47.21400 33.95200
H  23.93600 48.47300 33.80200
H  31.21900 47.23900 29.26800
H  32.17000 48.28000 28.25400
H  32.23200 46.68100 27.88200
H  32.83700 46.40700 25.87500
H  32.96300 48.24400 26.14900
H  33.39800 47.65800 24.60800
H  26.73400 48.11900 22.08100
H  25.26500 50.40400 21.99800
H  28.64300 50.26500 22.24300
H  27.28800 50.73100 21.19500
H  28.20300 49.21100 20.96800
H  24.84800 47.91700 21.36000
H  23.56900 48.95200 21.76900
H  24.58900 47.55800 24.16900
H  24.15900 46.45400 22.80800
H  22.98300 47.67300 23.50800
H  21.06000 51.04500 25.00600
H  21.83900 52.69500 25.21800
H  20.51500 52.08200 26.23600
H  22.83100 50.11400 30.91000
H  22.92600 54.06500 33.14300
H  24.37700 53.13800 33.32400
H  23.09300 52.75000 34.38400

