158

Mg 49.10300 35.32200 27.06600
C  46.98300 33.93200 29.51700
C  49.30300 38.06400 29.05000
C  50.86700 36.67000 24.70100
C  48.37700 32.57900 25.04800
N  48.12100 35.92600 29.09000
C  47.50800 35.13600 29.98900
C  47.55400 35.69700 31.41300
C  47.95300 37.16600 31.06100
C  48.58300 37.01200 29.64200
C  46.68800 38.15700 30.97500
C  48.56500 34.93000 32.35800
C  48.12700 34.86400 33.84400
H  49.04100 35.79800 34.75100
N  49.92600 37.21600 26.88300
C  49.96100 38.17600 27.83800
C  50.76600 39.32700 27.35400
C  51.19300 38.91500 26.05600
C  50.70000 37.53100 25.84700
C  50.90600 40.61000 28.12900
C  52.15300 39.63900 25.12700
O  52.48900 39.12800 24.07400
C  52.72700 40.95500 25.45400
N  49.50000 34.72000 25.07200
C  50.35700 35.48400 24.35500
C  50.46100 34.88400 22.95100
C  49.88800 33.41400 23.07500
C  49.17300 33.59400 24.41000
C  49.79600 35.76300 21.86000
C  50.89000 32.26500 23.12300
C  50.50200 31.03700 22.33600
N  47.86100 33.59000 27.18500
C  47.63200 32.63900 26.27800
C  46.79500 31.61200 26.84700
C  46.45700 32.17400 28.05000
C  47.15700 33.34400 28.24200
C  46.54400 30.21800 26.25500
C  45.71700 31.96300 29.16700
O  44.96700 31.05900 29.43800
C  45.96300 33.07000 30.13600
C  46.28700 32.59200 31.55900
O  47.29200 31.95500 31.87600
O  45.15600 32.97600 32.36600
C  45.25000 32.43300 33.76900
H  49.38800 38.87100 29.78000
H  51.43700 37.15300 23.90400
H  48.13000 31.71200 24.43100
H  46.49600 35.67400 31.67300
H  48.63400 37.49100 31.84800
H  45.73400 37.71900 31.26900
H  46.50200 38.55400 29.97700
H  46.87800 39.00100 31.63700
H  49.57900 35.32700 32.30600
H  48.67400 33.92800 31.94300
H  48.18200 33.85100 34.24300
H  47.10000 35.21600 33.94600
H  50.59000 40.61700 29.17200
H  50.19100 41.37800 27.83600
H  51.98300 40.77100 28.15200
H  52.02500 41.77300 25.61700
H  53.32000 41.24900 24.58800
H  53.45800 40.87300 26.25800
H  51.54100 34.90600 22.80000
H  49.08000 33.24100 22.36500
H  50.55800 36.43800 21.47200
H  48.93200 36.28400 22.27300
H  49.53000 35.03900 21.09000
H  51.08900 31.90800 24.13300
H  51.84900 32.67200 22.80000
H  51.39600 30.46700 22.08400
H  50.11300 31.13800 21.32300
H  49.80400 30.37000 22.84300
H  47.20700 30.02400 25.41200
H  45.54500 30.15000 25.82400
H  46.85400 29.55700 27.06400
H  45.06200 33.67600 30.22100
H  44.25100 32.21500 34.14700
H  45.49500 33.27400 34.41800
H  45.95700 31.63900 34.00700
Mg 9.86100 48.36800 26.12900
C  8.07800 48.17600 29.06600
C  12.35100 50.01200 27.90000
C  11.67600 48.66500 23.33800
C  7.21300 47.46300 24.31000
N  10.30200 48.88100 28.30900
C  9.34300 48.67100 29.31500
C  9.84100 49.19200 30.70800
C  11.08700 50.11000 30.21600
C  11.25700 49.68900 28.70900
C  10.84500 51.67000 30.32600
C  10.24200 48.08000 31.78100
C  9.50000 48.18900 33.16200
H  9.58700 46.96900 34.04800
N  11.78600 49.13300 25.69700
C  12.63700 49.68000 26.58300
C  13.96000 49.85700 25.94200
C  13.78300 49.39300 24.59200
C  12.34500 49.16100 24.44200
C  15.17500 50.39600 26.71700
C  14.80800 49.25700 23.49100
O  14.55800 48.93500 22.35200
C  16.24100 49.48100 23.92900
N  9.48600 48.15700 24.08500
C  10.33700 48.25200 23.11100
C  9.63700 48.08000 21.68600
C  8.47500 47.23500 22.13400
C  8.39500 47.62200 23.57100
C  9.32700 49.55000 21.16800
C  8.63800 45.66500 21.89700
C  8.57000 44.62500 23.00600
N  7.97800 48.01400 26.52600
C  6.94100 47.59600 25.69800
C  5.83800 47.20600 26.50700
C  6.20300 47.44000 27.84100
C  7.54000 47.80400 27.80200
C  4.45500 46.77900 25.96200
C  5.73700 47.39300 29.14500
O  4.60200 47.05000 29.54800
C  6.90000 47.84000 30.04100
C  7.20000 46.67400 30.91100
O  7.86800 45.71600 30.58700
O  6.57900 46.85100 32.12800
C  6.40400 45.67900 32.94800
H  12.93600 50.78100 28.40900
H  12.28300 48.68100 22.43100
H  6.40300 46.96800 23.77100
H  8.99100 49.75800 31.08800
H  12.03100 49.91600 30.72400
H  9.81300 51.94500 30.54100
H  11.02700 52.10300 29.34200
H  11.62400 52.02700 31.00000
H  11.30900 48.26300 31.90500
H  10.09300 47.12600 31.27500
H  8.50100 48.59400 33.00000
H  10.04000 49.04900 33.55700
H  15.88900 49.59100 26.89500
H  14.82300 50.84100 27.64700
H  15.65000 51.15700 26.09800
H  16.54700 50.49600 24.18100
H  16.76300 49.18200 23.02000
H  16.57200 48.74800 24.66400
H  10.31600 47.61500 20.97100
H  7.57100 47.51300 21.59100
H  9.85400 50.37000 21.65600
H  8.26000 49.76600 21.13500
H  9.76500 49.60400 20.17100
H  9.70900 45.75100 21.70900
H  8.18900 45.33100 20.96200
H  8.63500 45.10100 23.98400
H  9.45300 44.02000 22.79900
H  7.67600 44.00600 22.93100
H  3.68700 47.46700 26.31600
H  4.25400 45.89700 26.56900
H  4.40300 46.61500 24.88500
H  6.41500 48.64100 30.60000
H  6.95500 44.80400 32.60300
H  5.35100 45.53600 33.19000
H  6.89700 45.86400 33.90300

