158

Mg 40.70700 9.76400 29.26300
C  42.61900 10.82800 31.93600
C  38.63400 8.01200 31.42900
C  39.34800 7.87700 26.52700
C  43.24000 10.87700 27.07100
N  40.76000 9.35900 31.51700
C  41.50700 10.08100 32.41300
C  41.02400 9.82600 33.81100
C  39.64500 9.14200 33.58800
C  39.69600 8.74500 32.09300
C  39.37600 7.86600 34.49500
C  40.98200 10.99100 34.75600
C  41.46200 10.75600 36.21900
H  40.86500 11.47100 37.38200
N  39.14800 8.28500 29.00800
C  38.32500 7.78100 30.02300
C  37.29200 6.98700 29.45200
C  37.49900 6.92700 28.08400
C  38.70200 7.74300 27.81800
C  36.15600 6.30600 30.36400
C  36.63600 6.23900 27.00800
O  36.86800 6.40300 25.79900
C  35.44500 5.37800 27.37000
N  41.26100 9.33700 27.11100
C  40.49400 8.55600 26.22800
C  40.91300 8.87100 24.81800
C  42.19000 9.78800 25.03000
C  42.27100 10.00200 26.48800
C  41.19100 7.55900 24.06900
C  42.26500 10.98600 24.11500
C  41.75400 12.36200 24.61800
N  42.52400 10.82100 29.41100
C  43.45300 11.19900 28.43100
C  44.58200 11.85800 29.08200
C  44.28300 11.77700 30.44800
C  43.03200 11.07400 30.60300
C  45.68500 12.55000 28.39500
C  44.72300 12.18300 31.75400
O  45.67900 12.79000 32.17000
C  43.65000 11.57300 32.72200
C  44.39300 10.72100 33.77200
O  44.66700 9.54200 33.79200
O  44.82300 11.59600 34.74300
C  45.51700 11.14100 35.90100
H  37.85700 7.68900 32.12500
H  38.89400 7.35800 25.68100
H  43.91000 11.33800 26.34200
H  41.80700 9.17900 34.20600
H  38.79100 9.81200 33.69100
H  39.84600 7.00400 34.02100
H  38.33600 7.63200 34.72300
H  39.80500 7.93800 35.49400
H  39.91200 11.17700 34.84200
H  41.37600 11.90500 34.31100
H  42.48900 11.12100 36.24900
H  41.33800 9.73800 36.58800
H  36.24500 5.22000 30.32700
H  35.17700 6.53700 29.94400
H  36.14200 6.71200 31.37600
H  34.96100 5.16200 26.41700
H  34.80800 5.98700 28.01100
H  35.76400 4.53400 27.98200
H  40.11300 9.48000 24.39700
H  43.08500 9.21000 24.80100
H  42.18600 7.55900 23.62200
H  40.56100 7.33400 23.20900
H  41.21900 6.69200 24.72900
H  41.76900 10.73100 23.17900
H  43.29700 11.17200 23.81800
H  42.58600 13.03400 24.82900
H  41.19800 12.24600 25.54800
H  41.15100 12.81000 23.82800
H  45.47000 12.59100 27.32700
H  46.57100 11.92400 28.50000
H  45.86600 13.47300 28.94700
H  43.08100 12.33700 33.25200
H  44.86200 11.26400 36.76300
H  46.30900 11.87100 36.06800
H  45.83500 10.09800 35.89200
Mg 46.77400 16.91400 27.46900
C  44.56500 16.62000 30.41400
C  48.79300 18.72500 29.46700
C  48.26300 17.70700 24.71000
C  43.83200 15.66600 25.66800
N  46.43500 17.92600 29.70500
C  45.75200 17.32300 30.68400
C  46.27000 17.74800 32.05700
C  47.46100 18.71400 31.62200
C  47.57400 18.47900 30.14500
C  47.37100 20.21100 32.11300
C  46.67900 16.49500 32.85300
C  46.76200 16.72700 34.30500
H  46.97700 18.12500 34.90700
N  48.33200 18.01800 27.17000
C  49.15400 18.57800 28.10100
C  50.41300 18.96100 27.46200
C  50.20100 18.73700 26.11100
C  48.94600 18.04300 25.97100
C  51.64800 19.34600 28.19000
C  51.23900 19.15400 24.92300
O  50.97000 18.85600 23.78500
C  52.55700 19.78000 25.26400
N  46.12200 16.67000 25.56000
C  46.98100 17.13200 24.54400
C  46.38000 16.93900 23.11300
C  44.99100 16.14300 23.46100
C  44.95500 16.14000 24.99200
C  46.22800 18.31800 22.40800
C  44.89400 14.70500 22.76000
C  43.67300 14.46100 21.86900
N  44.65600 16.07500 27.92100
C  43.62000 15.61600 27.06800
C  42.45700 15.27900 27.91100
C  42.84900 15.64700 29.22500
C  44.14200 16.16600 29.16400
C  41.11700 14.69600 27.42600
C  42.37900 15.60200 30.58400
O  41.38600 15.14000 31.04500
C  43.54200 16.18600 31.47500
C  43.09200 17.29000 32.29800
O  42.88600 18.43100 31.82800
O  42.75700 16.87900 33.58700
C  42.29500 17.94700 34.47100
H  49.48900 19.19700 30.16300
H  48.85000 17.81200 23.79600
H  42.96100 15.30900 25.11500
H  45.52800 18.22300 32.70000
H  48.38400 18.34300 32.07000
H  46.65400 20.28000 32.93100
H  47.01400 20.74600 31.23400
H  48.34500 20.61700 32.38500
H  47.68100 16.18200 32.55800
H  46.05600 15.60200 32.80400
H  47.46800 15.98100 34.66900
H  45.78500 16.49200 34.72800
H  52.48000 18.69700 27.91800
H  51.45300 19.39100 29.26200
H  51.84500 20.35100 27.81600
H  52.42700 20.74000 25.76400
H  53.20600 19.86600 24.39200
H  53.10200 19.07400 25.89100
H  46.97900 16.22400 22.55000
H  44.18600 16.80100 23.13200
H  46.53900 19.14000 23.05400
H  45.17700 18.42100 22.13900
H  46.86000 18.29500 21.52000
H  44.99300 13.97000 23.55900
H  45.80800 14.67100 22.16800
H  43.18900 13.48900 21.96800
H  43.95200 14.55800 20.82000
H  42.90200 15.19500 22.10300
H  40.84600 15.08500 26.44400
H  40.37800 15.05300 28.14300
H  41.18000 13.61000 27.48600
H  43.93000 15.35500 32.06400
H  41.84700 18.77400 33.92000
H  43.09400 18.37400 35.07800
H  41.52300 17.62600 35.17000

