158

Mg 49.03300 34.93400 27.33600
C  46.78200 33.47300 29.66900
C  49.57300 37.28700 29.37000
C  50.18600 36.58400 24.62600
C  48.21200 32.24600 25.14500
N  48.26900 35.27100 29.26600
C  47.43100 34.60500 30.08800
C  47.54600 35.12800 31.52300
C  48.09000 36.52600 31.39700
C  48.78500 36.34600 29.97800
C  47.08700 37.62700 31.37400
C  48.50000 34.24100 32.36600
C  48.19000 34.22400 33.87700
H  49.18500 34.89900 34.83200
N  49.80400 36.75200 27.06400
C  50.01300 37.59000 28.03000
C  50.60200 38.80400 27.51100
C  50.76800 38.65300 26.10400
C  50.22600 37.27900 25.86000
C  51.02400 39.91400 28.42600
C  51.34800 39.58700 25.03300
O  51.35900 39.35400 23.84500
C  51.91600 40.90600 25.46700
N  49.14700 34.47400 25.13800
C  49.70500 35.34700 24.27800
C  49.57900 34.68200 22.88600
C  49.37500 33.18800 23.15900
C  48.86400 33.26500 24.58200
C  48.44200 35.44900 22.08300
C  50.66800 32.29000 23.11900
C  50.62400 31.04600 22.22000
N  47.84500 33.10100 27.36800
C  47.68100 32.13400 26.41400
C  46.73800 31.16100 26.91800
C  46.36800 31.69000 28.23300
C  47.04100 32.87500 28.37000
C  46.40700 29.88700 26.16700
C  45.45900 31.43900 29.36500
O  44.82000 30.41800 29.61600
C  45.70100 32.63400 30.40600
C  46.00300 32.06800 31.73200
O  46.89200 31.28100 32.05900
O  45.09600 32.62500 32.57600
C  45.15400 32.26500 33.91400
H  49.78300 38.12600 30.03800
H  50.59200 37.11500 23.76300
H  47.98600 31.48400 24.39600
H  46.49800 35.09500 31.82300
H  48.73200 36.86000 32.21300
H  47.12300 38.20100 32.30000
H  46.04900 37.30200 31.30300
H  47.22500 38.22600 30.47400
H  49.48600 34.70600 32.35200
H  48.54800 33.27100 31.87200
H  48.30700 33.17700 34.15500
H  47.15500 34.51100 34.06400
H  50.33800 40.75800 28.50300
H  51.97400 40.31900 28.07500
H  51.27700 39.46700 29.38700
H  51.23000 41.61900 25.92500
H  52.25200 41.44300 24.58000
H  52.69100 40.74600 26.21700
H  50.52400 34.68800 22.34100
H  48.57600 32.88700 22.48100
H  47.55700 34.81400 22.03600
H  48.77900 35.53900 21.05100
H  48.30800 36.42800 22.54400
H  50.82700 31.86800 24.11200
H  51.59900 32.84800 23.01800
H  51.58500 30.79400 21.77100
H  49.82500 31.13900 21.48500
H  50.36800 30.21400 22.87500
H  46.26300 30.18900 25.12900
H  45.35500 29.65800 26.33800
H  47.18500 29.16400 26.41100
H  44.80900 33.25800 30.46700
H  45.06400 33.22800 34.41500
H  46.16100 31.96200 34.19800
H  44.48700 31.48700 34.28600
Mg 36.09400 48.83700 24.57400
C  36.52000 47.23700 27.67400
C  34.21700 51.21500 25.99500
C  35.47600 49.85900 21.53000
C  37.86300 45.90800 23.04500
N  35.34200 49.09200 26.61700
C  35.73900 48.42500 27.69600
C  35.26700 49.18200 28.93600
C  34.32500 50.32400 28.42300
C  34.64600 50.22300 26.91600
C  32.82600 50.04700 28.74100
C  36.43200 49.68000 29.85700
C  36.42400 49.13900 31.29600
H  34.97900 49.00300 31.92000
N  35.06000 50.39000 23.88000
C  34.41300 51.33800 24.58800
C  33.93300 52.36300 23.73900
C  34.27500 52.02900 22.43900
C  35.03500 50.73400 22.56200
C  33.50700 53.68200 24.27500
C  34.07200 52.76800 21.12800
O  34.79800 52.46300 20.21400
C  33.14600 53.88300 21.04100
N  36.66500 48.02700 22.63700
C  36.23100 48.68100 21.49400
C  36.74000 48.06800 20.23900
C  37.68300 46.87200 20.68600
C  37.39900 46.95400 22.24800
C  35.58500 47.61300 19.32800
C  39.15600 46.93200 20.29500
C  39.97700 48.09600 20.74300
N  36.90700 46.88700 25.16600
C  37.59000 45.82600 24.42300
C  37.80300 44.74700 25.35000
C  37.50100 45.26100 26.61200
C  36.97600 46.58600 26.45100
C  38.55900 43.48800 25.09900
C  37.61500 45.06600 28.04800
O  38.06100 44.07100 28.65500
C  37.01700 46.27500 28.71900
C  35.83500 45.82300 29.67300
O  34.71500 45.65600 29.25900
O  36.25400 45.48300 30.91300
C  35.24800 44.76100 31.72400
H  33.75400 52.09200 26.45100
H  35.26100 50.09700 20.48600
H  38.46500 45.05200 22.73300
H  34.61700 48.44900 29.41300
H  34.62300 51.24000 28.93400
H  32.55000 49.08000 29.16200
H  32.36700 50.13900 27.75700
H  32.47100 50.83200 29.40800
H  36.57200 50.76100 29.85400
H  37.32500 49.21600 29.43800
H  36.99200 49.91300 31.81100
H  37.04300 48.24500 31.37600
H  33.94300 54.40400 23.58500
H  33.74500 53.92300 25.31200
H  32.42900 53.75800 24.13700
H  32.23400 53.78500 21.62900
H  32.80300 53.77000 20.01300
H  33.61800 54.85100 21.20600
H  37.32600 48.72900 19.60000
H  37.28500 45.90100 20.39200
H  34.64100 47.83800 19.82300
H  35.67500 46.53700 19.18200
H  35.52900 47.95800 18.29600
H  39.19400 46.93900 19.20500
H  39.69700 46.01300 20.51700
H  40.76600 47.73900 21.40500
H  39.36500 48.78400 21.32700
H  40.43800 48.66100 19.93300
H  39.62000 43.62600 24.89000
H  38.11300 42.93600 24.27200
H  38.43300 42.88000 25.99500
H  37.80300 46.73600 29.31600
H  35.34500 45.28800 32.67300
H  35.52100 43.70700 31.77800
H  34.18000 44.81900 31.51700

