158

Mg 2.00000 -1.74900 43.35200
C  5.37300 -0.62400 42.68300
C  0.76500 0.84700 41.57800
C  -1.05200 -3.36300 43.26800
C  3.53700 -4.87000 44.24200
N  2.98300 -0.23500 42.08200
C  4.31000 0.15400 42.10000
C  4.51500 1.44900 41.28600
C  3.08800 2.08700 41.34600
C  2.21000 0.82000 41.51400
C  2.88400 3.11200 42.49900
C  4.87900 1.11500 39.81800
C  6.09200 1.88400 39.26400
H  6.07800 2.15500 37.79300
N  0.08800 -1.24600 42.65800
C  -0.20900 -0.08800 42.00100
C  -1.63100 -0.07300 41.75400
C  -2.27300 -1.24100 42.28200
C  -1.07900 -2.03800 42.73400
C  -2.36000 1.12700 40.93700
C  -3.74000 -1.56400 42.31700
O  -4.48600 -0.77600 41.69500
C  -4.28800 -2.72200 43.11300
N  1.36100 -3.70700 43.65300
C  0.02600 -4.14600 43.63300
C  -0.07500 -5.63900 43.88500
C  1.37500 -6.12400 43.88600
C  2.14900 -4.80300 43.92700
C  -0.97800 -6.18300 45.03300
C  1.61500 -7.11000 42.75500
C  2.18400 -8.50800 43.09700
N  4.05500 -2.52800 43.73900
C  4.44500 -3.86300 44.04400
C  5.87300 -3.89100 44.19000
C  6.29900 -2.62400 43.57900
C  5.13500 -1.87700 43.32600
C  6.73100 -4.95100 44.83000
C  7.42000 -1.78200 43.25200
O  8.59600 -2.06500 43.25200
C  6.83200 -0.37700 42.82500
C  7.15500 0.56100 43.90300
O  7.16900 0.23400 45.09000
O  7.21600 1.85900 43.45700
C  7.48900 2.85600 44.56900
H  0.37900 1.71900 41.04500
H  -2.01400 -3.87100 43.17400
H  3.94400 -5.82600 44.57900
H  5.19100 2.15000 41.77600
H  2.73100 2.55300 40.42800
H  3.77900 3.73400 42.51200
H  2.88300 2.53100 43.42200
H  2.02000 3.77300 42.43900
H  4.03500 1.39200 39.18600
H  5.16000 0.06200 39.82600
H  6.97200 1.25700 39.40300
H  6.25900 2.86400 39.71100
H  -1.82300 1.31200 40.00700
H  -2.12800 2.06800 41.43400
H  -3.37900 0.94400 40.59700
H  -5.28400 -2.55400 43.52300
H  -3.61400 -2.89100 43.95300
H  -4.34800 -3.65600 42.55500
H  -0.52100 -6.03200 42.97100
H  1.69000 -6.60400 44.81300
H  -1.81900 -6.70700 44.57900
H  -1.39900 -5.48600 45.75700
H  -0.56000 -6.98400 45.64200
H  2.46400 -6.73100 42.18700
H  0.83700 -7.31200 42.01900
H  3.18500 -8.55200 42.66600
H  1.48700 -9.21400 42.64600
H  2.17200 -8.70300 44.16900
H  6.13800 -5.37900 45.63800
H  7.59200 -4.40100 45.20900
H  6.94400 -5.82100 44.21000
H  7.24300 0.01700 41.89600
H  7.46300 3.87100 44.17300
H  8.53500 2.78400 44.87000
H  6.69300 2.67000 45.29000
Mg 54.64900 24.58600 45.02100
C  51.83000 26.47900 44.03300
C  52.91800 21.80900 43.77400
C  57.47100 22.73200 45.16900
C  56.36600 27.41900 45.76700
N  52.68600 24.26200 43.91600
C  51.64100 25.13900 43.69400
C  50.36900 24.45200 43.18900
C  50.72500 22.92600 43.45600
C  52.26700 23.04000 43.67600
C  49.86100 22.28600 44.54600
C  50.00900 24.76400 41.73100
C  48.53000 24.67400 41.52700
H  48.17800 24.38400 40.09200
N  55.18400 22.52300 44.63800
C  54.23900 21.54800 44.17200
C  54.86600 20.29500 44.18000
C  56.27700 20.45200 44.43000
C  56.36300 21.93900 44.81800
C  54.06800 19.04000 44.03400
C  57.27500 19.43300 44.40300
O  57.04500 18.35000 43.92500
C  58.65600 19.71200 44.93400
N  56.62300 25.05400 45.19900
C  57.63500 24.13100 45.33400
C  59.00800 24.76100 45.72600
C  58.56800 26.20900 46.03800
C  57.07200 26.26600 45.61600
C  59.69400 23.95900 46.93300
C  59.38600 27.25700 45.20600
C  59.94500 28.40200 46.05600
N  54.17200 26.53700 45.16600
C  54.96400 27.59600 45.50100
C  54.15800 28.81200 45.58000
C  52.90500 28.36700 45.06100
C  52.96600 27.01100 44.74900
C  54.65000 30.11900 45.96900
C  51.60700 28.90200 44.61300
O  51.23400 30.06800 44.61300
C  50.94100 27.68000 43.90800
C  50.70800 28.13600 42.53700
O  51.57400 28.32200 41.66100
O  49.38000 28.44400 42.36200
C  48.98900 28.93200 41.06000
H  52.27900 20.93900 43.61300
H  58.44600 22.24800 45.25300
H  56.99500 28.30800 45.84400
H  49.47200 24.85200 43.66200
H  50.70500 22.36600 42.52000
H  49.37100 21.45000 44.04700
H  49.03000 22.84900 44.97200
H  50.54100 21.98000 45.34100
H  50.48800 23.96200 41.16900
H  50.25100 25.78700 41.44400
H  48.28100 25.71700 41.72600
H  48.01700 24.03300 42.24300
H  53.44100 19.02000 43.14300
H  53.29400 18.98800 44.79900
H  54.55800 18.07500 44.16600
H  59.05500 20.46000 44.24900
H  59.13300 18.73200 44.90600
H  58.63100 20.07200 45.96300
H  59.55100 24.70100 44.78300
H  58.63900 26.28000 47.12400
H  60.58200 23.46300 46.54200
H  58.96800 23.26700 47.36000
H  60.07500 24.60100 47.72700
H  58.73400 27.83100 44.54700
H  60.11600 26.76400 44.56400
H  59.66900 28.26200 47.10100
H  59.63900 29.38800 45.70800
H  61.02500 28.29300 45.96300
H  55.65200 30.30200 45.57900
H  54.67800 30.24800 47.05100
H  54.01700 30.90800 45.56200
H  49.96600 27.43700 44.33000
H  48.09900 29.55300 40.95700
H  48.71200 28.02600 40.52000
H  49.81500 29.32800 40.46900

