158

Mg 9.32600 3.45900 28.25800
C  11.00900 2.14200 31.12700
C  7.59700 5.61800 30.42900
C  7.70000 4.71000 25.66300
C  10.66000 0.87400 26.40500
N  9.33800 3.84900 30.54000
C  10.11800 3.19400 31.49800
C  9.84000 3.71500 32.90200
C  8.49200 4.59100 32.62000
C  8.38400 4.61500 31.11800
C  7.21700 4.13000 33.39300
C  11.02800 4.54600 33.41100
C  11.62900 4.07300 34.76100
H  10.64100 4.01200 35.97500
N  7.96900 5.00300 28.06600
C  7.42200 5.82800 29.02900
C  6.77400 6.96700 28.37500
C  6.76700 6.63300 26.99500
C  7.48300 5.41200 26.82200
C  6.05300 8.08400 29.19400
C  6.21500 7.48100 25.74100
O  6.36200 7.20100 24.52100
C  5.51600 8.81600 25.98500
N  9.09400 2.79700 26.27500
C  8.50500 3.55500 25.36200
C  8.52600 2.80900 23.96700
C  9.56000 1.70700 24.19900
C  9.71200 1.72800 25.68400
C  7.10600 2.35700 23.45500
C  10.89900 1.83600 23.26700
C  10.80200 1.20800 21.94900
N  10.55500 1.90000 28.63300
C  11.01700 0.91900 27.79500
C  11.83700 -0.03600 28.51900
C  11.92700 0.52800 29.78600
C  11.09300 1.64700 29.87500
C  12.51900 -1.21900 27.97400
C  12.58700 0.33500 31.10000
O  13.38300 -0.52500 31.48300
C  11.89000 1.31500 32.07800
C  11.13200 0.41700 33.03600
O  10.39900 -0.50200 32.74700
O  11.47800 0.77300 34.31700
C  10.65600 0.09000 35.36800
H  7.03100 6.36200 30.99300
H  7.15900 4.99100 24.75700
H  11.02900 -0.02100 25.90100
H  9.56100 2.86300 33.52200
H  8.86700 5.55700 32.95700
H  7.55900 3.52800 34.23500
H  6.60100 3.44200 32.81500
H  6.59500 4.99100 33.63800
H  10.88000 5.61900 33.29000
H  11.81500 4.31300 32.69400
H  12.36800 4.84600 34.97100
H  12.29300 3.21100 34.72100
H  5.02700 8.03700 28.83000
H  6.48900 9.03100 28.87500
H  6.19000 8.07200 30.27600
H  6.31000 9.44900 26.38200
H  4.77800 8.67200 26.77400
H  5.01200 9.25100 25.12200
H  8.98500 3.49400 23.25500
H  9.15500 0.70000 24.10000
H  6.82600 2.83600 22.51700
H  6.41900 2.70100 24.22800
H  7.02400 1.28000 23.30700
H  11.66600 1.37400 23.88900
H  11.15700 2.87900 23.08200
H  11.26800 0.22400 21.89000
H  11.19900 1.83200 21.14900
H  9.73100 1.08700 21.78800
H  13.29700 -0.80000 27.33500
H  11.83600 -1.82400 27.37800
H  12.91600 -1.85200 28.76800
H  12.68000 1.75600 32.68600
H  11.31400 -0.71300 35.69900
H  9.71900 -0.33700 35.01300
H  10.41600 0.79900 36.16100
Mg -9.52200 40.72400 42.79100
C  -8.44800 37.44700 41.64800
C  -7.05100 41.89800 40.62800
C  -10.63800 43.69200 43.30600
C  -12.35600 39.18800 44.10200
N  -7.95900 39.75600 41.32500
C  -7.59400 38.42200 41.17000
C  -6.46500 38.25700 40.16500
C  -5.94400 39.72600 39.98600
C  -7.06000 40.51900 40.71200
C  -4.48200 40.00900 40.53100
C  -6.67500 37.45300 38.81200
C  -5.68600 36.41000 38.48600
H  -4.76100 36.55200 37.32800
N  -8.86400 42.64100 42.14600
C  -7.84900 42.87800 41.19800
C  -7.72700 44.29900 41.16400
C  -8.65000 44.87800 42.09400
C  -9.45600 43.78000 42.51100
C  -6.60400 44.97400 40.47200
C  -8.73400 46.35800 42.48800
O  -7.90400 47.11500 42.11200
C  -9.84000 46.87800 43.33000
N  -11.23200 41.31700 43.54900
C  -11.39100 42.63600 43.75200
C  -12.71800 42.96100 44.50400
C  -13.25900 41.51700 44.84700
C  -12.29000 40.61000 44.08500
C  -12.61400 44.01700 45.67900
C  -14.73500 41.17400 44.72800
C  -15.46900 40.55500 45.94400
N  -10.26800 38.70900 43.04500
C  -11.45700 38.26600 43.58100
C  -11.52400 36.81900 43.52000
C  -10.33300 36.48900 42.81700
C  -9.63200 37.64600 42.47500
C  -12.68300 35.97100 44.00800
C  -9.59800 35.33800 42.30700
O  -10.05400 34.21000 42.25300
C  -8.37800 35.92800 41.50600
C  -7.15600 35.33700 42.20800
O  -6.92300 35.37600 43.40200
O  -6.35700 34.82300 41.28000
C  -4.97700 34.44400 41.70400
H  -6.22200 42.29200 40.03600
H  -11.03300 44.63500 43.69100
H  -13.23400 38.63500 44.44400
H  -5.72600 37.74600 40.78300
H  -5.89000 40.00700 38.93400
H  -4.59300 40.76700 41.30600
H  -3.76600 40.31600 39.76900
H  -4.04900 39.11500 40.98100
H  -6.65600 38.21000 38.02800
H  -7.71600 37.13000 38.78900
H  -6.16100 35.43500 38.37300
H  -5.07100 36.31500 39.38100
H  -6.81600 45.94800 40.03200
H  -5.98600 44.41400 39.77100
H  -5.86200 45.11600 41.25800
H  -9.77300 46.31500 44.26200
H  -10.81400 46.78000 42.85200
H  -9.68400 47.94600 43.48100
H  -13.39600 43.38100 43.76100
H  -13.01200 41.49500 45.90900
H  -13.25300 44.85700 45.40700
H  -11.55100 44.25000 45.73500
H  -12.88200 43.51200 46.60600
H  -14.86600 40.51000 43.87400
H  -15.12500 42.16200 44.48200
H  -15.82200 39.53600 45.78500
H  -16.35300 41.18500 46.03500
H  -14.88900 40.61800 46.86500
H  -12.92200 36.30500 45.01800
H  -12.46100 34.90700 43.93300
H  -13.56600 36.13600 43.39100
H  -8.49200 35.54800 40.49100
H  -4.47100 35.29200 42.16500
H  -4.38200 34.11000 40.85400
H  -4.89500 33.58600 42.37100

