158

Mg 35.74300 1.99900 30.51800
C  33.02700 3.09900 32.62100
C  37.77900 2.27000 33.01600
C  38.22100 1.25500 28.29300
C  33.50600 2.15800 27.74200
N  35.43300 2.73500 32.57000
C  34.28200 2.93000 33.27800
C  34.58100 3.07700 34.80100
C  36.13500 2.99700 34.77500
C  36.48000 2.66900 33.37000
C  36.94000 4.18400 35.30700
C  33.84900 1.95000 35.61800
C  33.69400 2.12800 37.09200
H  34.39000 3.33900 37.75400
N  37.77400 1.73000 30.64000
C  38.46000 1.80600 31.82300
C  39.72200 1.30200 31.63800
C  39.82800 0.94700 30.25300
C  38.56700 1.31100 29.64400
C  40.69500 1.17100 32.83300
C  41.04200 0.35200 29.54100
O  41.00200 0.08200 28.36000
C  42.33000 -0.04200 30.22600
N  35.80400 1.72500 28.33800
C  36.99000 1.42700 27.69000
C  36.82400 1.45900 26.15800
C  35.24200 1.66300 25.99800
C  34.80900 1.73800 27.46500
C  37.58300 2.65300 25.42700
C  34.51700 0.55800 25.11700
C  34.08700 -0.73500 25.88900
N  33.68600 2.40100 30.14700
C  32.94000 2.47800 29.03700
C  31.61700 2.95000 29.35400
C  31.59900 3.14400 30.69200
C  32.90200 2.90900 31.16400
C  30.55600 3.17700 28.26600
C  30.75500 3.62300 31.81400
O  29.59600 3.91900 31.87900
C  31.63800 3.61400 33.14700
C  31.68300 4.89500 33.78900
O  31.79700 5.94500 33.20700
O  31.35400 4.68900 35.09100
C  31.55200 5.91100 36.03900
H  38.44400 2.24500 33.88200
H  39.00500 0.93400 27.60400
H  32.97600 2.40800 26.82000
H  34.18500 4.06000 35.05500
H  36.39600 2.10800 35.35000
H  37.73200 3.76500 35.92800
H  36.30900 4.79700 35.95100
H  37.20700 4.86700 34.50000
H  34.45100 1.07200 35.38300
H  32.88500 1.81700 35.12700
H  33.87900 1.29300 37.76800
H  32.65800 2.43700 37.23200
H  41.47500 0.41700 32.73200
H  40.06100 1.03000 33.70800
H  41.24900 2.11000 32.85600
H  42.05800 -0.80600 30.95400
H  42.97800 0.77100 30.55300
H  43.04000 -0.52600 29.55600
H  37.00500 0.47100 25.73400
H  34.93700 2.63900 25.61900
H  38.35200 2.17900 24.81800
H  38.02900 3.38100 26.10500
H  37.02800 3.27900 24.72900
H  35.10600 0.29400 24.23900
H  33.63200 0.91100 24.58900
H  34.45300 -0.73400 26.91600
H  34.51600 -1.63400 25.44600
H  33.01500 -0.92800 25.92400
H  29.60900 3.54600 28.66100
H  30.38900 2.16400 27.90200
H  30.84400 3.91000 27.51200
H  31.35600 2.88300 33.90500
H  31.68000 5.50300 37.04200
H  30.58900 6.42200 36.00700
H  32.40700 6.50300 35.71300
Mg -5.07000 25.30700 25.93000
C  -3.94100 26.79500 28.91500
C  -7.09800 23.22900 27.83800
C  -5.71000 23.70800 23.16100
C  -2.66000 27.24600 24.24600
N  -5.44000 25.00000 28.18600
C  -4.97300 25.83100 29.21000
C  -5.66000 25.39500 30.51800
C  -6.32900 24.02700 30.15900
C  -6.28800 24.04900 28.67500
C  -5.66100 22.79600 30.70400
C  -6.73600 26.38600 31.14000
C  -6.83300 26.40900 32.67700
H  -6.18800 25.32800 33.52500
N  -6.23600 23.62800 25.60600
C  -7.07600 22.98900 26.47100
C  -7.76400 21.96900 25.77700
C  -7.34000 22.01900 24.39100
C  -6.36100 23.11500 24.35500
C  -8.76800 21.11500 26.46200
C  -7.78000 21.13900 23.18200
O  -7.31700 21.42800 22.08900
C  -8.82200 20.06900 23.34600
N  -4.54300 25.70300 23.98100
C  -4.85500 24.79400 23.06000
C  -4.12100 25.00600 21.67800
C  -3.40300 26.29500 21.95900
C  -3.47700 26.40900 23.45000
C  -3.27900 23.78700 21.25100
C  -3.86300 27.59500 21.18100
C  -2.80200 28.09500 20.15700
N  -3.65100 26.82500 26.42900
C  -2.74800 27.49300 25.61000
C  -1.97100 28.47500 26.45300
C  -2.45700 28.24000 27.73400
C  -3.42000 27.24700 27.68200
C  -1.04200 29.56900 26.04800
C  -2.43300 28.64500 29.05400
O  -1.79000 29.65800 29.52000
C  -3.40500 27.75700 29.90600
C  -2.48800 27.06400 30.84900
O  -1.64900 26.21100 30.63900
O  -2.83300 27.50400 32.08200
C  -2.25600 26.83600 33.26000
H  -7.79400 22.55100 28.33700
H  -5.81700 23.13700 22.23600
H  -1.96600 27.87100 23.68000
H  -4.96000 25.29300 31.34600
H  -7.35000 23.94700 30.53100
H  -5.04300 22.24500 29.99500
H  -6.44700 22.11400 31.02700
H  -5.07000 22.99300 31.59900
H  -7.72600 26.17700 30.73400
H  -6.54900 27.37200 30.71400
H  -7.89600 26.37800 32.91600
H  -6.52000 27.41200 32.96600
H  -9.01200 21.28000 27.51200
H  -8.58000 20.04200 26.41700
H  -9.62300 21.23300 25.79700
H  -8.87900 19.34500 22.53200
H  -9.82700 20.46100 23.50100
H  -8.47900 19.45900 24.18200
H  -5.02500 25.02600 21.06900
H  -2.34700 26.13000 21.74400
H  -2.25500 23.98800 20.93700
H  -3.87400 23.21200 20.54200
H  -3.09200 23.13700 22.10600
H  -3.91400 28.37400 21.94100
H  -4.89900 27.46900 20.86600
H  -3.28400 28.30000 19.20100
H  -2.04400 27.35600 19.89700
H  -2.35300 29.03800 20.46800
H  -0.81500 29.46200 24.98800
H  -0.19200 29.60700 26.73000
H  -1.49600 30.56000 26.06800
H  -4.26500 28.25600 30.35300
H  -1.43800 27.51700 33.49700
H  -1.78000 25.85800 33.18900
H  -2.98000 26.82700 34.07400

