158

Mg 53.63400 23.88000 46.12900
C  51.02300 25.72200 44.99300
C  51.85700 21.05200 45.14400
C  56.48600 22.02500 46.51300
C  55.54500 26.79900 46.70000
N  51.70900 23.39800 45.08500
C  50.79100 24.38200 44.78400
C  49.41200 23.73000 44.30700
C  49.62100 22.25700 44.69200
C  51.11900 22.23200 44.96200
C  48.83600 21.67600 45.92700
C  49.13600 23.90700 42.73700
C  47.70800 24.50600 42.42800
H  47.11900 23.96100 41.11500
N  54.10300 21.82500 45.84800
C  53.22400 20.83300 45.43400
C  53.96200 19.52000 45.48800
C  55.31600 19.83900 45.77000
C  55.32300 21.23500 46.10200
C  53.32000 18.22700 44.99300
C  56.43200 18.84300 45.95200
O  56.35000 17.66700 45.66100
C  57.85200 19.18700 46.48500
N  55.73100 24.36800 46.33900
C  56.62900 23.42500 46.63700
C  57.93000 23.98000 47.24800
C  57.72600 25.49400 47.07900
C  56.25200 25.57600 46.70500
C  58.20000 23.45600 48.67300
C  58.57500 26.14800 45.93400
C  59.36900 27.39900 46.44500
N  53.39900 25.89900 46.02100
C  54.25200 26.94800 46.32400
C  53.43700 28.15000 46.23700
C  52.20500 27.73300 45.67000
C  52.23300 26.36500 45.54200
C  53.67500 29.53700 46.69600
C  50.88000 28.20900 45.22600
O  50.41800 29.33700 45.28900
C  50.14700 26.92700 44.67800
C  50.17500 27.25300 43.21700
O  51.01500 26.88400 42.42000
O  49.02000 27.90900 42.82900
C  48.82300 28.21000 41.35200
H  51.20500 20.18700 45.00500
H  57.42600 21.53300 46.77300
H  55.99200 27.73300 47.04800
H  48.62900 24.08100 44.98000
H  49.35200 21.63700 43.83700
H  48.12100 20.93600 45.56800
H  48.21900 22.45600 46.37400
H  49.36600 21.34400 46.82000
H  49.24100 22.97600 42.17900
H  49.85500 24.51700 42.19100
H  47.73500 25.59600 42.42300
H  47.05000 24.43400 43.29500
H  53.58900 17.47000 45.73000
H  53.81000 17.98500 44.05000
H  52.23600 18.29900 44.89600
H  58.49200 19.86100 45.91800
H  58.35700 18.25000 46.72100
H  57.80800 19.62300 47.48400
H  58.87000 23.72500 46.75900
H  57.86000 25.94000 48.06400
H  57.34600 22.93900 49.11400
H  58.42100 24.20600 49.43200
H  58.98200 22.69900 48.72900
H  57.96900 26.51500 45.10500
H  59.31300 25.42800 45.58200
H  60.35600 27.44000 45.98400
H  59.30100 27.54900 47.52200
H  58.93700 28.31600 46.04400
H  52.99700 30.16700 46.12000
H  54.70700 29.85200 46.54100
H  53.50700 29.73700 47.75400
H  49.11000 26.82500 44.99800
H  49.85000 28.37800 41.02500
H  48.10500 29.02900 41.34800
H  48.40900 27.38100 40.77700
Mg 8.67200 48.07000 27.62100
C  7.05800 47.44000 30.77100
C  11.62900 48.28600 29.54800
C  10.31800 48.68200 24.81500
C  5.62400 48.03200 26.05400
N  9.14400 47.93600 29.93000
C  8.40200 47.65100 30.98000
C  9.08000 47.75700 32.40000
C  10.56400 48.17600 31.89500
C  10.45700 48.08400 30.37100
C  11.21300 49.48000 32.42200
C  9.11400 46.64900 33.45000
C  8.84300 47.02000 34.93600
H  9.57900 46.12900 36.00500
N  10.63500 48.37300 27.20300
C  11.72600 48.40500 28.14600
C  12.90600 48.63900 27.48400
C  12.59700 48.83800 26.09800
C  11.13800 48.64600 25.96100
C  14.30400 48.71000 28.06400
C  13.56200 49.12800 24.89600
O  13.14100 49.23500 23.77300
C  15.10500 49.18400 25.09300
N  8.05500 48.22700 25.74900
C  8.87900 48.48900 24.76100
C  8.17600 48.58700 23.33600
C  6.66700 48.49600 23.76300
C  6.74600 48.22900 25.25600
C  8.46300 49.85700 22.58500
C  5.87000 47.42300 23.05300
C  5.86100 47.55800 21.53000
N  6.79600 47.77700 28.17800
C  5.66300 47.82700 27.45000
C  4.53800 47.65000 28.24700
C  5.05100 47.47700 29.54300
C  6.42300 47.57400 29.47000
C  3.09800 47.70700 27.87900
C  4.62300 47.21400 30.86700
O  3.52900 47.08700 31.41200
C  5.98700 47.15500 31.70800
C  6.09300 45.81300 32.22000
O  6.48300 44.87300 31.57300
O  5.82500 45.68200 33.61500
C  5.90900 44.28700 34.05900
H  12.53400 48.51200 30.11700
H  10.72000 49.03000 23.86100
H  4.64900 48.11000 25.56800
H  8.62800 48.67600 32.77100
H  11.23600 47.37700 32.20600
H  10.53100 49.88900 33.16700
H  11.32100 50.18400 31.59700
H  12.19700 49.30600 32.85900
H  10.06600 46.13600 33.31700
H  8.41000 45.88100 33.13100
H  7.77700 46.95200 35.15400
H  9.11800 48.05500 35.13900
H  14.75400 47.80400 27.65700
H  14.36600 48.66900 29.15100
H  14.90600 49.58400 27.81800
H  15.48200 50.02400 25.67600
H  15.54500 49.26800 24.09900
H  15.43600 48.20300 25.43600
H  8.52000 47.78400 22.68400
H  6.12300 49.42300 23.58700
H  8.79900 50.71200 23.17100
H  7.58300 50.16700 22.02200
H  9.28400 49.64900 21.89800
H  4.84200 47.46300 23.41500
H  6.23500 46.42200 23.28600
H  6.80800 47.33500 21.03700
H  5.65800 48.61000 21.32800
H  5.06600 46.93900 21.11500
H  2.86800 46.84400 27.25400
H  2.93700 48.70700 27.47700
H  2.50600 47.75300 28.79400
H  5.99800 48.02000 32.37000
H  6.85500 43.81400 33.79500
H  5.05600 43.71300 33.69700
H  5.77000 44.24900 35.14000

