158

Mg 45.62000 3.70600 46.97800
C  43.26300 6.25900 46.55000
C  43.09500 1.47600 46.91500
C  47.86200 1.30400 47.17500
C  48.09400 6.08800 46.46300
N  43.47400 3.90400 46.67100
C  42.67800 4.99500 46.69700
C  41.23000 4.58800 46.63000
C  41.26500 3.09000 47.15600
C  42.71200 2.80000 46.85700
C  40.78200 2.91900 48.59200
C  40.64900 4.64100 45.18300
C  39.51700 5.63600 44.81700
H  39.82500 6.52500 43.60500
N  45.47600 1.67300 47.01300
C  44.37400 0.91700 47.02600
C  44.69400 -0.48700 47.16300
C  46.11500 -0.56800 47.26600
C  46.54800 0.83500 47.08700
C  43.63300 -1.57700 46.99200
C  46.98700 -1.91500 47.32800
O  46.39200 -3.00600 47.27600
C  48.52700 -1.88200 47.45100
N  47.61200 3.68300 46.68100
C  48.33400 2.65200 47.02800
C  49.83600 2.85800 47.30300
C  49.88900 4.29800 46.68000
C  48.48600 4.77800 46.53600
C  50.15400 2.69100 48.80600
C  50.77000 4.58900 45.40600
C  49.95900 4.74300 44.10200
N  45.71700 5.77400 46.62500
C  46.76200 6.62600 46.44400
C  46.33900 8.02400 46.36700
C  44.96000 7.91600 46.35200
C  44.65000 6.52100 46.52400
C  47.32100 9.20200 46.26000
C  43.64000 8.63600 46.41700
O  43.47200 9.81900 46.33600
C  42.56800 7.67300 46.53500
C  41.75000 7.91300 47.84900
O  42.03200 7.44500 48.94500
O  40.61500 8.52900 47.49600
C  39.61800 8.89200 48.48600
H  42.26600 0.79300 47.11300
H  48.65700 0.61600 47.47100
H  48.84200 6.87400 46.58400
H  40.74800 5.17200 47.41300
H  40.59400 2.46700 46.56400
H  39.89100 2.29600 48.50700
H  40.46100 3.85000 49.06000
H  41.49100 2.45000 49.27400
H  40.33400 3.64800 44.86200
H  41.54300 4.96300 44.64900
H  39.38000 6.25000 45.70700
H  38.67500 4.94800 44.74500
H  43.65700 -1.87300 45.94400
H  42.69600 -1.16400 47.36700
H  44.00600 -2.39300 47.61100
H  48.72800 -1.40400 48.40900
H  49.02800 -1.37100 46.62800
H  48.84800 -2.92300 47.41400
H  50.42000 2.14500 46.72100
H  50.30000 4.86700 47.51400
H  50.81300 1.82300 48.83100
H  49.21000 2.55700 49.33400
H  50.80700 3.54200 48.99900
H  51.50500 3.80600 45.22000
H  51.25900 5.55000 45.57000
H  50.61900 4.68900 43.23600
H  49.52000 5.74000 44.14400
H  49.21000 3.96000 43.98900
H  47.44500 9.51100 47.29800
H  46.71800 9.91200 45.69500
H  48.17800 9.30200 45.59400
H  41.79500 7.73400 45.76900
H  39.67800 9.96600 48.65900
H  39.64900 8.35900 49.43600
H  38.67600 8.67900 47.98000
Mg 50.21800 45.22800 41.49300
C  46.88000 45.85100 40.34800
C  50.14200 42.31300 39.64300
C  53.46900 45.22700 41.65000
C  50.34800 48.74700 42.24700
N  48.79400 44.30800 40.04700
C  47.45900 44.70900 39.84600
C  46.82900 43.77400 38.76200
C  47.71100 42.50600 38.81200
C  48.99400 43.04100 39.52700
C  47.06500 41.24000 39.42600
C  46.77600 44.41600 37.33500
C  45.40700 44.46100 36.58200
H  45.33600 44.37800 34.99700
N  51.56100 43.81000 40.91100
C  51.37900 42.66200 40.20000
C  52.58300 41.85400 40.27200
C  53.57600 42.56500 41.03900
C  52.86800 44.00300 41.20700
C  52.60500 40.47900 39.64900
C  54.94500 42.09300 41.48100
O  55.33400 40.97200 41.14400
C  55.79400 42.94800 42.31400
N  51.68500 46.77700 41.76200
C  52.99100 46.46300 41.86600
C  53.89400 47.61100 42.27300
C  52.83600 48.71300 42.67600
C  51.53200 48.03900 42.19400
C  54.97300 47.34400 43.33700
C  53.08200 50.01300 41.88600
C  52.64800 50.02800 40.38800
N  48.89000 46.90700 41.63700
C  49.06700 48.24900 41.92100
C  47.81400 48.93900 41.83000
C  46.94200 48.01600 41.29900
C  47.59500 46.82000 41.11100
C  47.50300 50.31300 42.21300
C  45.56000 47.84900 40.89000
O  44.63100 48.62000 40.81900
C  45.45000 46.44200 40.22100
C  44.56000 45.52300 40.94900
O  43.96000 44.60500 40.43200
O  44.30800 45.88900 42.25800
C  42.97500 45.47300 42.78200
H  49.98400 41.35700 39.13900
H  54.54100 45.02500 41.60100
H  50.44600 49.74100 42.68700
H  45.88100 43.41900 39.16700
H  48.00500 42.15600 37.82300
H  47.77500 40.62200 39.97600
H  46.70400 40.67400 38.56700
H  46.25000 41.48800 40.10500
H  47.34100 43.80100 36.63500
H  47.17900 45.42800 37.35500
H  44.96100 45.39900 36.91400
H  44.72500 43.68400 36.92800
H  51.57200 40.16000 39.78400
H  53.33200 39.72900 39.96000
H  52.80000 40.60700 38.58400
H  55.19000 43.49900 43.03500
H  56.41100 43.51500 41.61700
H  56.44500 42.28200 42.88000
H  54.44400 47.91200 41.38200
H  52.81200 48.88300 43.75200
H  55.06000 48.12200 44.09600
H  55.89800 47.38400 42.76200
H  54.90500 46.34300 43.76400
H  54.15600 50.19500 41.92200
H  52.58600 50.85200 42.37400
H  53.45200 50.51400 39.83500
H  51.70200 50.55300 40.26200
H  52.56800 48.99500 40.05000
H  47.39800 50.99900 41.37200
H  48.28000 50.62200 42.91100
H  46.51900 50.38800 42.67600
H  45.15100 46.53000 39.17700
H  43.19200 45.06900 43.77100
H  42.32700 44.77300 42.25400
H  42.50100 46.41600 43.05200

