158

Mg 46.80000 15.92800 27.67500
C  44.84100 15.78400 30.59600
C  49.12400 17.67000 29.58500
C  48.58200 16.82400 24.88300
C  44.24700 14.77600 25.83600
N  46.89600 16.75300 29.81300
C  46.01100 16.45000 30.82800
C  46.49100 17.02700 32.16300
C  47.85800 17.75600 31.77000
C  47.95400 17.40400 30.27600
C  47.84300 19.32800 32.12600
C  46.77100 15.90000 33.18300
C  46.52500 16.16500 34.63200
H  46.09000 17.51900 35.14200
N  48.60400 16.97800 27.31400
C  49.41300 17.59100 28.20700
C  50.62300 18.07900 27.55400
C  50.58000 17.68100 26.25600
C  49.17200 17.16900 26.07300
C  51.61900 18.99500 28.21000
C  51.67100 17.87900 25.10600
O  51.50100 17.47900 23.99300
C  53.05200 18.62700 25.31000
N  46.37100 15.96900 25.68200
C  47.30900 16.26800 24.72400
C  46.71100 16.06500 23.32700
C  45.47800 15.17900 23.59600
C  45.34700 15.26800 25.10900
C  46.41800 17.46700 22.59700
C  45.64900 13.75100 23.09100
C  46.63500 12.92300 23.91400
N  44.94700 15.24600 28.11700
C  43.99400 14.79000 27.21500
C  42.85800 14.21800 27.91300
C  43.11900 14.61900 29.28800
C  44.38000 15.28800 29.31500
C  41.61200 13.61300 27.33800
C  42.57600 14.64700 30.60500
O  41.50600 14.23300 30.96600
C  43.64800 15.42200 31.48800
C  43.01400 16.58200 32.23200
O  42.35800 17.41300 31.59100
O  42.83900 16.28400 33.59600
C  41.79300 17.13200 34.24800
H  49.80200 18.28900 30.17500
H  49.21500 17.02500 24.01600
H  43.51900 14.31800 25.16300
H  45.81700 17.77400 32.58400
H  48.72300 17.22900 32.17300
H  47.82300 19.88200 31.18800
H  48.77700 19.53300 32.64900
H  47.11100 19.60200 32.88500
H  47.78600 15.51400 33.08900
H  46.08500 15.06900 33.02100
H  47.56300 16.04200 34.94000
H  45.91900 15.41000 35.13400
H  52.66700 18.69500 28.19800
H  51.21800 19.20000 29.20300
H  51.55800 19.95500 27.69800
H  53.06400 19.46700 26.00300
H  53.33200 18.86700 24.28400
H  53.82700 17.93800 25.64600
H  47.51600 15.60400 22.75400
H  44.56700 15.67300 23.25900
H  45.45600 17.83200 22.95400
H  46.26300 17.29300 21.53200
H  47.09400 18.30800 22.75200
H  46.13400 13.71400 22.11600
H  44.63600 13.34800 23.09400
H  47.05500 12.14900 23.27200
H  46.05500 12.29400 24.58900
H  47.32000 13.42300 24.59900
H  41.39300 14.27500 26.50000
H  40.85300 13.78200 28.10200
H  41.85200 12.58400 27.07100
H  43.97800 14.69000 32.22500
H  41.60300 16.73000 35.24300
H  40.88800 17.35400 33.68200
H  42.24600 18.12200 34.19100
Mg 16.63600 52.07400 26.71000
C  18.61500 50.55400 28.99800
C  14.46300 53.10600 29.23700
C  14.63300 53.61400 24.39200
C  18.70900 51.04600 24.13900
N  16.57300 51.79100 28.89200
C  17.55600 51.15400 29.57800
C  17.24100 51.27900 31.04500
C  15.74300 51.85000 31.09400
C  15.57700 52.28400 29.63400
C  14.64000 50.83100 31.44100
C  18.40200 51.99900 31.73400
C  18.11000 52.53400 33.13600
H  17.35100 51.61200 34.10500
N  14.77700 53.17600 26.83800
C  14.08900 53.44700 27.93100
C  12.94900 54.34700 27.54900
C  12.94700 54.43600 26.16500
C  14.16400 53.73000 25.72500
C  12.09900 54.93300 28.70800
C  11.89700 55.22200 25.28800
O  11.97100 55.35600 24.04900
C  10.82600 56.05700 25.90100
N  16.62000 52.25600 24.59200
C  15.80700 53.09900 23.86200
C  16.07600 53.10700 22.34200
C  17.48100 52.42400 22.28200
C  17.61900 51.81000 23.70900
C  15.11300 52.46900 21.36100
C  18.65300 53.45300 22.10900
C  19.59800 53.21400 20.95800
N  18.35400 50.93700 26.53900
C  19.07100 50.62300 25.41500
C  20.24900 49.87200 25.86300
C  20.07100 49.75200 27.26200
C  18.95200 50.52300 27.65200
C  21.36900 49.30100 24.90900
C  20.58500 49.14800 28.51100
O  21.52500 48.40000 28.74200
C  19.69500 49.74600 29.68300
C  19.17600 48.70200 30.68200
O  18.29200 47.93800 30.49100
O  20.09500 48.74700 31.70600
C  19.71500 47.84600 32.76600
H  13.95900 53.36200 30.17100
H  14.00600 54.12300 23.65700
H  19.52900 50.80600 23.45800
H  17.22900 50.24900 31.40200
H  15.59000 52.83700 31.53000
H  15.02900 50.02300 32.06000
H  14.22500 50.38800 30.53600
H  13.81200 51.33600 31.93900
H  18.80000 52.83900 31.16300
H  19.19800 51.27000 31.88700
H  17.60500 53.49100 33.00100
H  19.04600 52.66800 33.67700
H  11.16400 54.38100 28.80100
H  11.85600 55.97100 28.47900
H  12.64900 54.90800 29.64900
H  10.09600 56.48400 25.21300
H  11.39500 56.83800 26.40500
H  10.38300 55.37300 26.62500
H  16.09000 54.15500 22.04300
H  17.37400 51.59800 21.57900
H  14.43000 51.81500 21.90200
H  15.61800 51.85800 20.61300
H  14.70200 53.34100 20.85200
H  19.25000 53.34800 23.01500
H  18.41600 54.51000 21.98700
H  19.46800 53.98300 20.19700
H  19.34400 52.31900 20.39000
H  20.61900 53.18200 21.33900
H  22.18900 49.87900 25.33300
H  21.34200 49.65400 23.87800
H  21.55300 48.22700 24.94800
H  20.35900 50.46100 30.16800
H  18.65300 47.95800 32.98600
H  20.25000 48.20200 33.64700
H  19.77800 46.79100 32.49800

