158

Mg 24.96700 0.53300 30.47100
C  26.93700 0.59900 33.42000
C  22.17500 0.54800 32.42900
C  23.05100 0.09900 27.65500
C  27.77100 -0.15800 28.67300
N  24.61200 0.78900 32.67400
C  25.54900 0.78300 33.68500
C  24.88900 1.08100 35.08500
C  23.38000 0.85900 34.66700
C  23.31700 0.67000 33.12200
C  22.70200 -0.39500 35.40500
C  25.13100 2.52200 35.63100
C  26.14200 2.71500 36.71500
H  25.64200 3.46700 37.97400
N  22.88000 0.33600 30.13400
C  21.90200 0.42600 31.02500
C  20.62900 0.19800 30.44300
C  20.80300 0.11600 29.03600
C  22.30200 0.19900 28.88600
C  19.32300 0.33000 31.19100
C  19.79500 0.02500 27.89700
O  20.16300 -0.12800 26.77900
C  18.27700 -0.04300 28.21600
N  25.35300 -0.00100 28.42900
C  24.42600 0.02100 27.45600
C  25.08500 -0.01700 26.08200
C  26.61900 -0.03100 26.42100
C  26.59500 0.00200 27.93600
C  24.59400 -1.15700 25.26000
C  27.37500 1.21100 25.78500
C  28.70000 0.88600 25.00000
N  27.01100 0.35100 30.85100
C  27.98100 0.03100 30.00600
C  29.19900 0.04800 30.74600
C  28.89900 0.25200 32.09200
C  27.51600 0.37400 32.13500
C  30.52500 -0.38400 30.18900
C  29.43800 0.39300 33.48200
O  30.56800 0.32500 33.98800
C  28.17100 0.65400 34.38200
C  28.06800 -0.45600 35.44000
O  27.44200 -1.53200 35.34900
O  28.88700 -0.17200 36.49500
C  28.68200 -0.96900 37.67900
H  21.29500 0.53200 33.07500
H  22.46500 -0.01700 26.74200
H  28.68400 -0.33500 28.10100
H  25.14600 0.24400 35.73400
H  22.70500 1.68600 34.88800
H  22.48600 -1.10400 34.60500
H  21.72500 -0.12100 35.80400
H  23.26900 -0.78000 36.25200
H  24.13900 2.90100 35.87700
H  25.50400 3.09300 34.78100
H  26.90300 3.39600 36.33700
H  26.65400 1.77500 36.92100
H  18.73100 1.11900 30.72800
H  19.42700 0.47300 32.26700
H  18.76500 -0.58700 31.00100
H  17.95600 0.92600 28.59800
H  18.07000 -0.88100 28.88200
H  17.69200 -0.30200 27.33300
H  24.73300 0.88600 25.58400
H  27.16100 -0.91500 26.08600
H  25.47900 -1.65200 24.86100
H  23.96200 -0.83400 24.43300
H  24.05300 -1.89800 25.84800
H  27.76500 1.81600 26.60400
H  26.73600 1.95700 25.31300
H  28.75400 1.47700 24.08600
H  28.51500 -0.12200 24.63100
H  29.56000 1.00200 25.66000
H  31.04900 0.52400 29.88900
H  30.46800 -1.00800 29.29700
H  31.10000 -0.97100 30.90500
H  28.25100 1.68000 34.74200
H  27.74100 -0.70700 38.16200
H  29.53400 -0.87500 38.35300
H  28.63400 -2.03700 37.46800
Mg 45.98600 25.30900 28.26700
C  46.83100 27.36700 30.91100
C  45.04900 22.89700 30.69100
C  45.13400 23.27300 25.76800
C  47.36800 27.56800 26.02800
N  45.94700 25.09800 30.57100
C  46.29000 26.13900 31.44800
C  46.14300 25.74900 32.94300
C  45.78100 24.15000 32.81500
C  45.56600 24.05400 31.27000
C  46.76600 23.27200 33.56000
C  45.15600 26.67500 33.66500
C  45.54300 27.01100 35.09000
H  44.52900 27.27800 36.17400
N  45.11700 23.45400 28.23400
C  44.83100 22.60200 29.29700
C  44.19000 21.42500 28.79400
C  44.26000 21.45000 27.38800
C  44.89800 22.71900 27.04100
C  43.66400 20.31400 29.66600
C  43.91500 20.31600 26.41800
O  44.13700 20.40000 25.19400
C  43.25200 19.03200 26.93600
N  46.14900 25.44700 26.16000
C  45.71200 24.51600 25.33900
C  46.07700 24.85100 23.89300
C  46.54300 26.33600 24.00800
C  46.71700 26.50800 25.51800
C  47.10500 23.93700 23.10500
C  45.48100 27.46100 23.54800
C  46.00100 28.46700 22.49500
N  47.10100 26.94200 28.36300
C  47.59900 27.81200 27.41700
C  48.26200 28.90300 28.10100
C  47.86000 28.77100 29.40900
C  47.21900 27.56900 29.60200
C  49.02200 30.06200 27.58400
C  48.16200 29.40200 30.67400
O  48.75400 30.46200 30.92600
C  47.25000 28.58500 31.69900
C  48.12100 28.43700 32.92200
O  49.06500 27.68500 32.96100
O  47.82400 29.42500 33.89600
C  48.87200 29.67900 34.93600
H  44.75200 22.23200 31.50500
H  44.82600 22.66700 24.91400
H  47.67800 28.37200 25.35800
H  47.08600 25.86700 33.47800
H  44.81800 24.08100 33.32200
H  46.24800 22.67000 34.30600
H  47.59000 23.86800 33.95400
H  47.18000 22.46900 32.95000
H  44.24700 26.08400 33.77800
H  44.88000 27.49800 33.00600
H  46.17600 27.89400 35.00400
H  46.06600 26.14800 35.50200
H  42.57500 20.31400 29.64400
H  43.93400 20.43500 30.71500
H  44.17200 19.39000 29.38900
H  44.01100 18.46500 27.47600
H  42.86800 18.44800 26.10000
H  42.50000 19.43900 27.61100
H  45.12800 24.91100 23.36200
H  47.48100 26.56400 23.50100
H  47.83000 24.50100 22.51700
H  46.59000 23.35000 22.34400
H  47.60100 23.18800 23.72100
H  45.09300 28.07400 24.36000
H  44.59700 26.96600 23.14700
H  47.07300 28.33100 22.35200
H  45.87600 29.52300 22.73600
H  45.61700 28.33400 21.48400
H  49.82600 30.13800 28.31600
H  48.42800 30.94400 27.82300
H  49.32400 30.00000 26.53900
H  46.33600 29.13800 31.91700
H  49.90500 29.47000 34.65900
H  48.60600 28.96500 35.71600
H  48.77700 30.74200 35.15800

