158

Mg 46.85000 16.68300 28.49600
C  44.98300 16.40900 31.46800
C  49.25300 18.44700 30.37100
C  48.46900 17.38500 25.66400
C  44.15900 15.37900 26.74900
N  47.04500 17.42000 30.66300
C  46.21600 17.03600 31.65300
C  46.87100 17.31900 32.97000
C  47.97300 18.30300 32.63500
C  48.16600 18.08000 31.11900
C  47.70800 19.73400 33.00200
C  47.32400 16.09200 33.75400
C  47.56700 16.33100 35.22600
H  47.16600 17.63100 35.90400
N  48.76800 17.61600 28.10100
C  49.60000 18.23600 28.99700
C  50.78000 18.71200 28.24600
C  50.44500 18.53800 26.88600
C  49.24500 17.79500 26.81800
C  51.96700 19.30600 28.92100
C  51.22700 19.06300 25.60900
O  50.81600 19.04100 24.48200
C  52.43000 19.86400 25.75700
N  46.41600 16.38200 26.52000
C  47.21200 16.78800 25.50400
C  46.55400 16.54900 24.10600
C  45.30800 15.66400 24.52300
C  45.25800 15.81600 26.04100
C  46.15200 17.71000 23.32600
C  45.32600 14.13700 24.05300
C  44.57300 14.03800 22.68200
N  44.89800 16.09400 28.97100
C  43.96900 15.49300 28.14700
C  42.84500 15.05200 28.97500
C  43.24900 15.34600 30.27300
C  44.45000 16.03900 30.21700
C  41.59200 14.43000 28.49500
C  42.91800 15.25800 31.67400
O  41.94400 14.78000 32.26300
C  43.93000 15.98500 32.41700
C  43.24200 17.12300 32.99700
O  43.20500 18.23400 32.45200
O  42.63000 16.89300 34.19100
C  42.28200 17.98700 35.02000
H  50.10100 18.90700 30.88400
H  48.83500 17.54100 24.64700
H  43.41500 14.81200 26.18500
H  46.20500 17.93200 33.57600
H  48.96600 18.06300 33.01400
H  47.24100 20.18100 32.12500
H  48.58800 20.25000 33.38700
H  46.98800 19.80700 33.81700
H  48.27700 15.82300 33.29800
H  46.70600 15.21500 33.56400
H  48.61000 16.10500 35.44400
H  46.84400 15.68800 35.72900
H  52.82100 19.54800 28.28800
H  52.23200 18.52000 29.62900
H  51.70100 20.12300 29.59200
H  52.17800 20.75700 26.32900
H  52.78600 20.28300 24.81500
H  53.20500 19.22500 26.17900
H  47.19800 15.96400 23.44800
H  44.35000 16.11400 24.26400
H  45.15600 17.53200 22.92000
H  46.85100 17.78100 22.49300
H  46.30500 18.49500 24.06600
H  44.72300 13.50100 24.70200
H  46.28900 13.65000 23.89700
H  45.17200 13.46800 21.97200
H  44.24200 15.02800 22.36900
H  43.77500 13.32600 22.89500
H  41.37000 13.55100 29.10000
H  41.53700 14.23600 27.42400
H  40.75900 15.10200 28.69700
H  44.29900 15.41000 33.26700
H  42.01300 18.89100 34.47500
H  43.01800 18.23900 35.78300
H  41.35800 17.68000 35.51000
Mg 30.58700 58.06500 41.37800
C  27.98300 56.09300 40.01700
C  32.73300 55.82300 39.90300
C  33.08000 60.25400 41.94600
C  28.21500 60.42500 42.11100
N  30.32700 56.21200 40.07900
C  29.21400 55.56000 39.71800
C  29.48800 54.25900 39.03200
C  30.93000 54.02700 39.46300
C  31.42600 55.42000 39.84200
C  31.17500 52.96000 40.50100
C  29.18800 54.24800 37.49300
C  28.07200 53.38000 36.87500
H  27.04700 54.21700 36.02200
N  32.55000 58.00900 41.02600
C  33.27400 56.96600 40.45900
C  34.66600 57.28800 40.37100
C  34.74100 58.54200 40.89100
C  33.40700 58.99400 41.37700
C  35.74900 56.28200 39.91000
C  36.02400 59.28700 41.00900
O  37.14500 58.80800 40.70000
C  36.12600 60.69600 41.41900
N  30.67000 60.11900 41.96600
C  31.80900 60.82100 42.13900
C  31.57700 62.24500 42.71300
C  30.02000 62.28200 42.62600
C  29.58400 60.82400 42.15900
C  32.29200 62.61400 44.03800
C  29.49600 63.47000 41.74100
C  28.42200 64.40700 42.38300
N  28.46900 58.27600 41.28400
C  27.62700 59.21000 41.74500
C  26.22900 58.77400 41.51600
C  26.33900 57.53400 40.89200
C  27.72300 57.32000 40.74600
C  24.96400 59.49900 41.86500
C  25.54700 56.43500 40.30600
O  24.32800 56.28300 40.27400
C  26.61500 55.45000 39.78300
C  26.47400 54.16400 40.47200
O  26.95800 53.90000 41.55500
O  25.69100 53.33700 39.69800
C  25.14800 52.12800 40.27600
H  33.34800 54.98700 39.56300
H  33.86300 60.95900 42.23400
H  27.54200 61.26400 42.30100
H  28.96700 53.43500 39.51900
H  31.49100 53.69800 38.58800
H  30.24300 52.63300 40.96100
H  31.64900 53.39300 41.38300
H  31.79400 52.18700 40.04500
H  30.07000 53.87600 36.97200
H  29.10100 55.31900 37.31200
H  27.53200 52.84300 37.65500
H  28.51100 52.62300 36.22600
H  36.02200 56.43200 38.86500
H  35.50900 55.23700 40.10500
H  36.69500 56.46500 40.42000
H  35.46700 61.25500 40.75400
H  37.16500 61.01600 41.35000
H  35.79200 60.84800 42.44500
H  31.92200 62.80400 41.84300
H  29.66500 62.36500 43.65300
H  32.98600 61.79600 44.23100
H  31.53400 62.85200 44.78400
H  32.93000 63.46200 43.79200
H  29.11600 62.94200 40.86700
H  30.33200 64.07900 41.39600
H  28.48100 65.45600 42.09100
H  28.42600 64.21500 43.45500
H  27.40500 64.09700 42.14300
H  25.13700 60.57400 41.83500
H  24.76100 59.23600 42.90400
H  24.17500 59.16600 41.19000
H  26.34200 55.45200 38.72800
H  24.11800 52.39200 40.51500
H  25.73800 51.63900 41.05100
H  25.06100 51.33800 39.53000

