158

Mg 48.32800 24.38300 29.00600
C  49.33800 26.77100 31.39500
C  47.60900 22.23600 31.58200
C  47.49300 22.09500 26.62900
C  49.32900 26.63200 26.51000
N  48.58700 24.47900 31.19600
C  48.74000 25.62500 31.95600
C  48.40200 25.34700 33.41600
C  47.99500 23.83900 33.41100
C  48.02500 23.49000 31.92000
C  48.91300 22.88300 34.19500
C  47.31800 26.41900 33.85600
C  46.70400 26.20000 35.26400
H  47.03600 27.16600 36.47300
N  47.66000 22.45700 29.06100
C  47.40300 21.78600 30.21700
C  46.85200 20.48300 29.88100
C  46.77600 20.42100 28.40500
C  47.34300 21.67200 27.92200
C  46.44300 19.41600 30.87600
C  46.24000 19.33800 27.42800
O  46.30500 19.40800 26.18200
C  45.56200 18.20500 27.93700
N  48.45400 24.28300 26.86600
C  48.02800 23.27800 26.13300
C  48.23100 23.52200 24.65000
C  48.65100 25.05700 24.63600
C  48.82600 25.37100 26.07100
C  49.28100 22.59200 23.97500
C  47.66500 26.05700 23.85900
C  48.43000 27.17300 23.07400
N  49.16900 26.26800 28.89100
C  49.45300 27.09300 27.81600
C  50.12100 28.35700 28.25100
C  50.09600 28.28000 29.66800
C  49.51100 26.99600 30.00800
C  50.75300 29.47200 27.46900
C  50.31600 28.98000 30.93700
O  50.84400 30.11300 31.06500
C  49.78100 28.08700 32.02500
C  50.80000 27.85300 33.09100
O  51.73500 27.05400 33.06900
O  50.69700 28.73600 34.10200
C  51.50000 28.56300 35.23000
H  47.32500 21.48800 32.32500
H  47.19600 21.38300 25.85600
H  49.60100 27.25500 25.65600
H  49.27100 25.65100 34.00000
H  46.93300 23.70200 33.61400
H  49.75500 23.36000 34.69600
H  49.47700 22.16100 33.60400
H  48.35800 22.29500 34.92500
H  46.57600 26.55900 33.07000
H  47.79300 27.40000 33.87700
H  46.92700 25.18200 35.58500
H  45.63300 26.30000 35.08900
H  45.42800 19.10400 30.63100
H  46.36200 19.82100 31.88500
H  46.89400 18.42400 30.90000
H  46.18600 17.60900 28.60300
H  45.23700 17.61000 27.08300
H  44.66100 18.53800 28.45200
H  47.33500 23.47900 24.03200
H  49.57400 25.11600 24.06000
H  50.23800 22.99000 23.63400
H  48.87200 22.08000 23.10400
H  49.36900 21.77600 24.69200
H  47.11200 26.65800 24.58100
H  46.99800 25.47900 23.22000
H  48.24300 28.16900 23.47400
H  48.15900 27.23700 22.02000
H  49.50400 26.99200 23.02500
H  50.81000 29.24200 26.40500
H  51.76200 29.75300 27.77300
H  50.05900 30.26200 27.75700
H  48.97900 28.70900 32.42200
H  52.19100 29.39800 35.34600
H  52.23100 27.75500 35.25000
H  50.78500 28.53500 36.05200
Mg 16.55500 51.21500 25.16700
C  18.45200 50.17300 27.87300
C  14.26100 52.37200 27.39200
C  15.09400 52.71700 22.61700
C  19.07900 49.96800 23.01400
N  16.30000 51.13600 27.35600
C  17.23200 50.74500 28.28800
C  16.85300 51.16800 29.68200
C  15.37400 51.50200 29.54900
C  15.21100 51.60100 28.03000
C  14.36800 50.54600 30.25100
C  17.76000 52.14900 30.41800
C  17.90800 51.88400 31.86400
H  17.01500 52.64300 32.83500
N  14.86300 52.29400 25.02000
C  14.11600 52.73600 26.03700
C  13.23000 53.77900 25.54800
C  13.33700 53.81600 24.12400
C  14.50800 52.97500 23.84300
C  12.17100 54.42900 26.41100
C  12.51600 54.55300 23.16000
O  12.71700 54.40500 21.96700
C  11.26500 55.36800 23.50600
N  16.94600 51.24600 23.09800
C  16.19500 51.98800 22.24400
C  16.80000 51.97400 20.76100
C  18.17800 51.19400 21.02000
C  18.04800 50.73500 22.48200
C  15.92000 51.06700 19.77600
C  19.31800 52.15600 20.62700
C  20.49800 51.52000 19.82400
N  18.36100 50.10200 25.31000
C  19.23800 49.68100 24.35900
C  20.45600 49.10900 25.05400
C  20.16700 49.32700 26.41800
C  18.88200 49.93200 26.54000
C  21.50300 48.52300 24.35000
C  20.65500 49.02300 27.77500
O  21.65900 48.47400 28.21600
C  19.63400 49.70500 28.70400
C  19.23900 48.78200 29.89000
O  18.84700 47.63000 29.81300
O  19.52600 49.37100 31.03600
C  19.58400 48.49000 32.19700
H  13.53600 52.71100 28.13600
H  14.66200 53.20700 21.74200
H  19.95000 49.71600 22.40600
H  16.99200 50.16900 30.09500
H  15.18500 52.51400 29.90700
H  14.77300 50.11500 31.16600
H  14.05900 49.78400 29.53600
H  13.47800 51.14000 30.45900
H  17.26200 53.11200 30.29900
H  18.75500 52.16200 29.97400
H  18.95600 51.83800 32.16300
H  17.60800 50.84200 31.97700
H  12.05600 55.49500 26.20900
H  12.36200 54.29600 27.47500
H  11.22300 53.94600 26.17300
H  10.54500 54.75000 24.04200
H  11.09200 55.72000 22.48900
H  11.39900 56.21800 24.17400
H  16.81700 53.01200 20.43100
H  18.21800 50.21600 20.54000
H  16.52400 50.76700 18.92000
H  15.11500 51.73700 19.47500
H  15.48100 50.15100 20.17100
H  19.75300 52.51800 21.55900
H  19.02300 53.08400 20.13800
H  21.42100 51.79500 20.33400
H  20.45100 52.02400 18.85900
H  20.49100 50.46100 19.56600
H  22.28300 49.28300 24.31700
H  21.11700 48.22900 23.37500
H  21.84400 47.59800 24.81500
H  20.06500 50.58900 29.17400
H  19.97500 48.89200 33.13200
H  20.23200 47.62800 32.04100
H  18.56800 48.13400 32.37000

