158

Mg 9.12200 4.13900 27.72500
C  10.28800 2.51700 30.56600
C  7.37700 6.31200 29.72200
C  7.70800 5.60100 24.95900
C  10.67500 1.84400 25.69000
N  8.92600 4.38200 29.91200
C  9.47100 3.63000 30.93000
C  9.11900 4.11800 32.32400
C  8.07700 5.23100 31.99800
C  8.09300 5.31100 30.43600
C  6.65100 5.06300 32.41900
C  10.40300 4.63100 33.23000
C  10.38600 4.20200 34.69800
H  10.65700 5.35900 35.71400
N  7.67800 5.78500 27.38000
C  7.17400 6.60200 28.36200
C  6.33100 7.62200 27.77100
C  6.49700 7.43400 26.36300
C  7.26900 6.24300 26.15700
C  5.47700 8.64600 28.50000
C  6.04400 8.30900 25.29600
O  6.19300 8.09100 24.11300
C  5.47400 9.65400 25.57500
N  9.12500 3.66300 25.62000
C  8.56400 4.49500 24.71700
C  8.88000 4.07600 23.31200
C  9.98800 3.02900 23.51800
C  9.87100 2.76300 24.98200
C  7.57500 3.61600 22.50800
C  11.45700 3.38500 23.11200
C  12.24500 2.19500 22.63200
N  10.23500 2.56100 28.04500
C  10.82600 1.62200 27.06100
C  11.57500 0.63600 27.79400
C  11.36400 0.95600 29.12800
C  10.54200 2.08800 29.26100
C  12.45800 -0.40300 27.28400
C  11.79300 0.52700 30.41400
O  12.46200 -0.42700 30.76600
C  11.21400 1.59900 31.42900
C  10.50100 0.79600 32.50400
O  9.57300 0.04900 32.38100
O  10.95500 1.20800 33.74000
C  10.30300 0.52700 34.86800
H  6.77600 6.92400 30.39800
H  7.36400 6.15000 24.08000
H  11.21600 1.11900 25.07900
H  8.59900 3.28300 32.79300
H  8.30100 6.19600 32.45400
H  6.49300 5.93400 33.05400
H  6.55300 4.19100 33.06500
H  5.90400 5.12600 31.62800
H  10.28500 5.70700 33.36000
H  11.39100 4.39900 32.83100
H  11.16000 3.44000 34.79100
H  9.38500 3.88000 34.98600
H  5.69000 8.54500 29.56500
H  4.41600 8.48400 28.31000
H  5.78500 9.65200 28.21500
H  4.49800 9.63400 26.06200
H  5.42800 10.06500 24.56700
H  6.18800 10.19600 26.19500
H  9.16100 4.98600 22.78200
H  9.56900 2.21900 22.92100
H  7.19700 4.46400 21.93700
H  6.86300 3.37400 23.29700
H  7.62900 2.75300 21.84400
H  11.88500 3.93100 23.95300
H  11.41600 4.06100 22.25800
H  12.88000 2.41100 21.77300
H  11.62100 1.33800 22.37700
H  12.91700 1.99500 23.46700
H  13.52900 -0.20400 27.31200
H  12.15800 -0.47700 26.23900
H  12.26400 -1.35500 27.77700
H  12.04800 2.17500 31.83200
H  10.28800 1.15700 35.75700
H  10.80300 -0.41300 35.10200
H  9.25700 0.33000 34.63600
Mg 47.32200 24.58800 27.91000
C  48.14600 26.48800 30.56700
C  47.00900 21.73700 30.00700
C  46.44600 22.68200 25.21200
C  48.14800 27.15700 25.73200
N  47.67300 24.20400 30.04500
C  47.76700 25.17700 30.97200
C  47.68900 24.66200 32.42100
C  47.58900 23.16700 32.11700
C  47.39100 22.97100 30.63300
C  48.64600 22.17300 32.75200
C  46.57300 25.37900 33.22000
C  46.90400 26.32600 34.33300
H  45.87900 26.57300 35.53200
N  46.85900 22.51600 27.63300
C  46.78500 21.56000 28.57600
C  46.59900 20.26800 27.92200
C  46.25500 20.54800 26.55300
C  46.47800 21.95600 26.43600
C  46.64400 18.93500 28.69600
C  45.87900 19.61800 25.41900
O  45.61700 19.99400 24.27100
C  45.79100 18.22200 25.70900
N  47.44500 24.83000 25.76700
C  46.91500 23.94500 24.91700
C  46.82700 24.56500 23.46500
C  47.21000 26.02400 23.63400
C  47.59900 26.08900 25.13400
C  47.63400 23.79800 22.36000
C  45.97600 26.99700 23.29800
C  46.19300 28.38600 22.68300
N  48.08600 26.40400 28.03600
C  48.40900 27.36800 27.09500
C  49.05400 28.45800 27.77300
C  48.90600 28.19400 29.15800
C  48.31100 26.94000 29.27300
C  49.65800 29.60000 27.04300
C  49.12800 28.73100 30.46900
O  49.67800 29.84000 30.72700
C  48.62700 27.66000 31.43500
C  49.88400 27.24800 32.31500
O  50.64000 26.26300 32.11900
O  49.96200 28.11800 33.35800
C  50.73600 27.65500 34.50200
H  46.83900 20.91300 30.70300
H  46.11800 22.26900 24.25500
H  48.47100 27.96100 25.06600
H  48.63000 24.79600 32.95400
H  46.60300 22.83400 32.44000
H  49.12300 22.72800 33.56000
H  49.41400 21.92600 32.02000
H  48.11300 21.31300 33.15900
H  45.89100 24.56800 33.47800
H  46.04100 25.93000 32.44400
H  46.98300 27.31300 33.87700
H  47.84700 26.04200 34.80200
H  47.03100 18.23600 27.95400
H  45.64600 18.59500 28.97100
H  47.33500 18.96300 29.53800
H  46.80600 17.87700 25.51700
H  45.10800 17.72400 25.02100
H  45.29500 17.95100 26.64100
H  45.77400 24.50800 23.19100
H  48.10300 26.23500 23.04600
H  48.28400 23.08500 22.86800
H  48.20900 24.45400 21.70700
H  47.04500 23.09600 21.76800
H  45.47900 26.92500 24.26600
H  45.35800 26.57100 22.50800
H  45.84400 28.41300 21.65100
H  47.23500 28.70600 22.71400
H  45.54100 29.12400 23.14800
H  50.11200 29.19200 26.14000
H  50.50100 30.06200 27.55600
H  48.89700 30.35900 26.86500
H  47.87900 28.03200 32.13500
H  50.62600 28.45400 35.23600
H  51.80400 27.67800 34.28700
H  50.34800 26.67100 34.76600

