158

Mg 26.90600 50.93300 26.43000
C  24.93500 51.63900 29.10900
C  29.46900 49.89400 28.64300
C  29.00200 50.25300 23.86900
C  24.58400 52.32200 24.36600
N  27.11500 50.68200 28.49200
C  26.06700 50.89800 29.39700
C  26.49600 50.57800 30.82800
C  28.04600 50.46400 30.71100
C  28.28300 50.38200 29.18400
C  28.80900 51.55700 31.41100
C  25.70400 49.44300 31.40800
C  25.18800 49.46600 32.87800
H  26.18300 49.93500 33.94000
N  28.94100 50.27200 26.24600
C  29.79200 49.88300 27.27600
C  31.04000 49.38800 26.73900
C  30.89300 49.39000 25.27200
C  29.56000 49.95900 25.01600
C  32.12500 48.82600 27.64500
C  31.93700 48.82000 24.28400
O  31.79200 49.00800 23.05100
C  33.13200 48.21300 24.78900
N  26.84000 51.29700 24.44200
C  27.76600 50.90700 23.51700
C  27.18400 50.88100 22.07400
C  25.72500 51.48500 22.29900
C  25.69100 51.67100 23.85100
C  28.04400 51.30800 20.84100
C  24.50100 50.66000 21.79900
C  23.56900 51.24200 20.69600
N  25.03900 51.72400 26.56800
C  24.27400 52.36900 25.70400
C  23.07100 52.79600 26.40900
C  23.26500 52.62500 27.76100
C  24.52700 51.99000 27.81100
C  21.73000 53.38200 25.83300
C  22.79300 52.73700 29.11900
O  21.71000 53.17200 29.48500
C  23.85100 52.08600 30.09900
C  24.31000 53.15100 31.02100
O  24.87800 54.21800 30.76700
O  23.85500 52.75200 32.29400
C  23.91300 53.82000 33.31800
H  30.13700 49.53100 29.42700
H  29.53200 49.89000 22.98600
H  23.72800 52.37200 23.68900
H  26.22300 51.50300 31.33600
H  28.41500 49.56100 31.19700
H  29.35300 50.94000 32.12700
H  28.24200 52.33900 31.91700
H  29.47700 52.11300 30.75300
H  26.14900 48.44800 31.37400
H  24.80400 49.43900 30.79300
H  24.82400 48.45100 33.03800
H  24.31600 50.12100 32.87100
H  32.11700 47.73900 27.72800
H  32.16100 49.28000 28.63500
H  33.13200 49.00600 27.26900
H  32.88700 47.39800 25.47000
H  33.75300 48.99600 25.22500
H  33.56900 47.66500 23.95400
H  26.95700 49.81800 21.99800
H  25.76700 52.50600 21.91900
H  28.42700 50.36100 20.46100
H  28.87900 51.91100 21.19500
H  27.51800 51.99000 20.17300
H  23.86000 50.45100 22.65600
H  24.87900 49.73100 21.37500
H  23.71700 50.71800 19.75200
H  23.71300 52.32100 20.64100
H  22.60200 50.99600 21.13600
H  22.00800 54.41500 25.62300
H  21.00100 53.23000 26.62900
H  21.43900 52.81400 24.95000
H  23.43000 51.22300 30.61400
H  23.83800 54.85700 32.99100
H  24.79600 53.70300 33.94500
H  22.97900 53.73300 33.87400
Mg -13.42200 17.08900 41.29500
C  -10.66800 14.84600 41.05600
C  -11.44600 19.55500 39.98800
C  -16.13500 18.81800 40.92900
C  -15.32800 14.34700 42.48400
N  -11.31500 17.15400 40.59900
C  -10.41200 16.13500 40.55400
C  -9.01000 16.65800 40.13500
C  -9.21900 18.18000 39.88000
C  -10.75600 18.33000 40.19700
C  -8.25700 19.10600 40.59200
C  -8.50300 15.91700 38.81100
C  -6.91600 15.67400 38.87900
H  -6.11400 16.45400 37.80000
N  -13.76400 18.95300 40.57800
C  -12.82500 19.84600 40.07000
C  -13.49000 21.13800 39.83400
C  -14.84800 20.86400 39.98500
C  -15.00100 19.49100 40.53300
C  -12.69800 22.40000 39.45500
C  -15.96200 21.89500 39.73400
O  -15.69300 22.99600 39.32300
C  -17.40700 21.57200 39.84100
N  -15.38500 16.61700 41.62200
C  -16.37100 17.54200 41.43200
C  -17.79200 17.10300 41.88600
C  -17.52600 15.67700 42.45200
C  -15.95800 15.53400 42.21900
C  -18.65300 18.10000 42.70000
C  -18.43400 14.51400 41.81400
C  -19.20700 13.71500 42.78800
N  -13.11200 14.97900 41.69900
C  -13.99800 14.00400 42.26900
C  -13.23400 12.75000 42.43000
C  -11.91400 13.01400 42.00600
C  -11.93500 14.34500 41.48900
C  -13.72500 11.50800 43.02900
C  -10.50800 12.51000 41.97200
O  -9.95400 11.46300 42.36900
C  -9.75400 13.59600 41.18700
C  -8.51700 13.96300 42.01300
O  -8.48100 14.69600 42.99100
O  -7.38700 13.30300 41.53500
C  -6.11200 13.64400 42.17300
H  -10.98900 20.46600 39.59700
H  -17.12000 19.28300 40.85400
H  -15.93500 13.67600 43.09600
H  -8.29800 16.49800 40.94400
H  -9.06100 18.53900 38.86300
H  -7.70700 19.76400 39.92000
H  -7.50700 18.48900 41.08800
H  -8.75500 19.71900 41.34300
H  -8.82900 16.46800 37.92800
H  -8.89300 14.90000 38.86000
H  -6.91200 14.61000 38.64100
H  -6.57800 15.74300 39.91300
H  -12.56100 22.42500 38.37400
H  -11.76400 22.30000 40.00800
H  -13.16000 23.31900 39.81700
H  -17.57300 20.68600 39.22900
H  -18.05400 22.36900 39.47400
H  -17.64600 21.27900 40.86300
H  -18.28800 16.98700 40.92300
H  -17.73000 15.76200 43.51900
H  -18.12300 19.05300 42.71500
H  -18.73200 17.74400 43.72700
H  -19.61000 18.16800 42.18300
H  -17.87300 13.92100 41.09100
H  -19.16300 15.04900 41.20500
H  -19.10500 12.63500 42.68200
H  -20.25400 13.94200 42.58700
H  -18.86600 13.92600 43.80100
H  -13.26500 10.64400 42.54900
H  -14.78700 11.30900 42.88400
H  -13.44400 11.26500 44.05300
H  -9.32300 13.26900 40.24100
H  -5.94400 13.09600 43.10000
H  -5.90900 14.70700 42.30100
H  -5.35200 13.26700 41.48800

