158

Mg 1.35300 -2.77500 45.06800
C  4.34700 -1.18900 43.76100
C  -0.28500 -0.33700 43.38400
C  -1.28900 -4.38800 45.89300
C  3.44100 -5.39500 46.20000
N  2.00300 -1.07500 43.57100
C  3.23000 -0.55900 43.31900
C  3.20400 0.69000 42.50400
C  1.76700 1.13000 42.79500
C  1.09500 -0.20700 43.21600
C  1.53900 2.33300 43.80600
C  3.67300 0.49800 41.06800
C  4.77400 1.53800 40.59600
H  6.27100 0.97300 40.38600
N  -0.53800 -2.49500 44.62700
C  -1.00900 -1.45700 43.89300
C  -2.42900 -1.62100 43.70100
C  -2.78700 -2.79800 44.39700
C  -1.53000 -3.27800 45.04700
C  -3.26200 -0.76900 42.86800
C  -4.16100 -3.55200 44.39600
O  -5.07900 -2.98500 43.80100
C  -4.40700 -4.72800 45.25100
N  1.15300 -4.67000 45.97400
C  -0.11000 -5.10500 46.29000
C  -0.00700 -6.42900 47.13800
C  1.55000 -6.71800 47.11100
C  2.09600 -5.58900 46.32100
C  -0.68400 -6.44500 48.59200
C  1.90900 -8.15200 46.53000
C  2.46400 -9.29100 47.53500
N  3.45300 -3.20300 45.10500
C  4.13200 -4.32400 45.58000
C  5.57000 -4.13300 45.41500
C  5.67300 -2.89400 44.75500
C  4.35500 -2.39100 44.52700
C  6.64200 -5.12800 45.69400
C  6.58200 -1.86600 44.27100
O  7.80100 -1.90500 44.18900
C  5.70900 -0.70300 43.68600
C  5.98300 0.54600 44.47100
O  5.26200 1.13300 45.24700
O  7.19500 1.05700 44.03600
C  7.59500 2.32400 44.56900
H  -0.81300 0.53800 42.99800
H  -2.20000 -4.87600 46.24800
H  4.17500 -6.11400 46.57100
H  3.76000 1.51000 42.95800
H  1.33000 1.35200 41.82100
H  1.16900 3.10900 43.13600
H  2.42400 2.76100 44.27500
H  0.84400 2.04300 44.59400
H  2.82000 0.49300 40.38900
H  4.11400 -0.49400 40.96800
H  4.74300 2.28500 41.39000
H  4.42100 2.04700 39.70000
H  -3.87900 -1.34500 42.17900
H  -2.65800 -0.17200 42.18500
H  -3.85600 -0.19600 43.58000
H  -3.76100 -5.58300 45.05000
H  -5.41600 -5.10800 45.09100
H  -4.17200 -4.41200 46.26700
H  -0.41200 -7.19600 46.47800
H  1.79600 -6.66500 48.17100
H  -0.35600 -7.29500 49.19000
H  -1.76400 -6.51700 48.45700
H  -0.44600 -5.49500 49.07000
H  2.72700 -7.98000 45.83000
H  1.04600 -8.61400 46.05200
H  2.64000 -8.89200 48.53400
H  3.34400 -9.80200 47.14400
H  1.61400 -9.92700 47.78200
H  7.59500 -4.66300 45.44400
H  6.38200 -5.97600 45.06100
H  6.72000 -5.46500 46.72700
H  6.18200 -0.56900 42.71300
H  8.00900 2.29700 45.57700
H  6.76000 3.02500 44.55600
H  8.33600 2.62600 43.82900
Mg 6.74800 53.04900 41.77100
C  5.48100 49.66800 41.45300
C  9.64600 51.94100 40.28600
C  7.62300 56.26500 41.42000
C  3.40000 54.06800 42.31600
N  7.45200 51.09300 40.83200
C  6.79800 49.88100 40.91100
C  7.71700 48.75300 40.33500
C  9.14800 49.41400 40.32600
C  8.78800 50.91900 40.43000
C  9.98000 49.04300 41.58200
C  7.41400 48.22300 38.92700
C  6.90800 49.25300 37.84900
H  5.59300 49.18400 37.17400
N  8.41800 54.02200 40.92400
C  9.55800 53.36700 40.50300
C  10.54700 54.37700 40.22400
C  10.04700 55.61000 40.63400
C  8.60100 55.37200 41.01500
C  11.91300 53.94900 39.77200
C  10.71600 56.92200 40.61700
O  11.73500 57.02000 40.04500
C  10.19700 58.19300 41.10300
N  5.66300 54.85400 41.86400
C  6.29700 56.04400 41.72400
C  5.35800 57.20700 42.12800
C  3.98300 56.49400 42.24100
C  4.36800 55.02300 42.10500
C  5.77700 57.99600 43.27400
C  2.93300 56.88700 41.14500
C  1.50600 57.07200 41.48800
N  4.81500 52.13200 42.03900
C  3.53000 52.66900 42.24100
C  2.52700 51.64900 42.36900
C  3.28700 50.43900 42.09800
C  4.62500 50.77800 41.83000
C  1.10000 51.94500 42.66500
C  3.16700 48.97900 41.91800
O  2.18200 48.25700 41.83900
C  4.64800 48.40400 41.76100
C  4.59700 47.30100 40.72400
O  4.31500 47.36100 39.56900
O  5.16000 46.19700 41.30200
C  5.43200 45.11900 40.39000
H  10.62800 51.56600 39.99000
H  7.77800 57.34200 41.32500
H  2.36400 54.27100 42.59300
H  7.78400 47.88700 40.99300
H  9.69500 49.14400 39.42300
H  10.97800 48.64500 41.39700
H  9.54900 48.19800 42.11900
H  9.87100 49.85100 42.30400
H  6.71400 47.38800 38.94000
H  8.34700 47.82700 38.52500
H  7.60900 49.18400 37.01800
H  6.81900 50.26000 38.25600
H  12.34400 54.77900 39.21200
H  11.95100 53.03600 39.17800
H  12.49400 53.68100 40.65500
H  10.97100 58.93700 41.29000
H  9.60400 58.05400 42.00600
H  9.55100 58.66200 40.36100
H  5.39900 57.90400 41.29100
H  3.52800 56.38000 43.22500
H  5.92100 59.04200 43.00200
H  6.73400 57.78000 43.75000
H  4.92400 58.00600 43.95300
H  3.03100 56.00500 40.51300
H  3.30600 57.71800 40.54800
H  0.91600 56.53200 40.74800
H  1.20700 58.10800 41.32800
H  1.25000 56.70700 42.48200
H  0.57500 52.37900 41.81300
H  1.08500 52.55000 43.57200
H  0.61600 51.00700 42.93800
H  4.92300 47.88000 42.67700
H  5.64100 45.51300 39.39600
H  4.59800 44.44000 40.21300
H  6.28300 44.51900 40.71100

