158

Mg -2.34800 16.60300 25.91700
C  -2.90400 14.60600 28.81800
C  -3.34900 19.38100 27.84500
C  -2.53300 18.50300 23.14700
C  -2.08400 13.77400 24.04900
N  -3.01800 16.92500 28.12800
C  -3.16400 15.97900 29.09200
C  -3.60000 16.62600 30.41200
C  -4.11800 18.04500 29.92000
C  -3.48900 18.13600 28.49100
C  -5.64600 18.10900 29.90600
C  -2.43700 16.74400 31.45400
C  -2.89800 17.17800 32.82600
H  -2.77300 16.00400 33.86700
N  -2.67100 18.64800 25.56300
C  -2.79100 19.66200 26.53600
C  -2.56000 20.93000 25.93400
C  -2.41400 20.69700 24.49800
C  -2.57000 19.22500 24.30400
C  -2.52800 22.24300 26.80000
C  -2.08400 21.66600 23.38500
O  -2.08400 21.44000 22.21400
C  -1.96100 23.10100 23.77700
N  -2.50200 16.17300 23.91300
C  -2.48800 17.12500 22.90000
C  -2.35500 16.50200 21.47800
C  -1.90800 14.98800 21.84500
C  -2.19900 14.93700 23.36100
C  -3.64300 16.65700 20.60400
C  -0.51300 14.55700 21.56000
C  0.57000 15.12200 22.45300
N  -2.38900 14.61600 26.34300
C  -2.24000 13.51200 25.43000
C  -2.35400 12.33900 26.06500
C  -2.54000 12.67000 27.43200
C  -2.55800 14.08600 27.51600
C  -2.14500 10.99400 25.45200
C  -2.69700 12.07500 28.74200
O  -2.53100 10.93200 29.14800
C  -3.05300 13.35800 29.68200
C  -2.11400 13.38600 30.82900
O  -0.96400 13.83700 30.87100
O  -2.61000 12.56900 31.83000
C  -1.91900 12.21400 33.08400
H  -3.74700 20.23200 28.40100
H  -2.34300 18.99500 22.19000
H  -1.98400 12.87400 23.44000
H  -4.38200 16.01600 30.86600
H  -3.69700 18.90300 30.44500
H  -5.90100 18.44800 28.90200
H  -6.04200 18.81800 30.63300
H  -6.12500 17.14100 30.05400
H  -1.71300 17.46000 31.06700
H  -1.96700 15.76200 31.50700
H  -3.94300 17.48200 32.77000
H  -2.31700 18.04900 33.13100
H  -2.59500 22.09700 27.87800
H  -3.43400 22.75700 26.47700
H  -1.66200 22.82200 26.47800
H  -1.90400 23.70300 22.87000
H  -0.99800 23.20700 24.27800
H  -2.75400 23.50600 24.40500
H  -1.55600 16.93300 20.87600
H  -2.61700 14.30700 21.37500
H  -4.27700 15.78500 20.76200
H  -3.39600 16.73800 19.54600
H  -4.14100 17.61500 20.75600
H  -0.41000 14.84600 20.51400
H  -0.54800 13.49500 21.31700
H  0.15600 15.63500 23.32100
H  1.12600 15.85600 21.87000
H  1.21500 14.32600 22.82700
H  -2.06600 10.21800 26.21300
H  -1.21700 10.96200 24.88100
H  -2.94700 10.72500 24.76400
H  -4.03000 13.37200 30.16300
H  -1.13500 12.97000 33.11000
H  -1.41900 11.24800 33.01100
H  -2.67800 12.36800 33.85200
Mg 8.52400 2.02800 27.58500
C  10.19800 0.96500 30.42800
C  6.93000 4.35900 29.56500
C  7.07300 3.09800 24.79400
C  10.16000 -0.46200 25.78000
N  8.60000 2.57800 29.80000
C  9.31800 2.00700 30.73700
C  9.06200 2.67600 32.14300
C  8.05800 3.79200 31.79400
C  7.81000 3.60600 30.28800
C  6.81700 3.99700 32.57100
C  10.28100 3.15900 32.93100
C  10.07700 4.25600 34.07500
H  10.52400 3.89700 35.46400
N  7.23500 3.50700 27.20300
C  6.67300 4.33400 28.20000
C  5.73000 5.17600 27.53500
C  5.83300 4.92300 26.08200
C  6.67400 3.74900 25.99000
C  4.73100 6.14400 28.11700
C  5.03400 5.51600 24.92500
O  5.25300 5.13800 23.78700
C  3.90400 6.60600 25.09500
N  8.60800 1.46300 25.58200
C  7.94600 2.08500 24.60100
C  8.19600 1.49400 23.26100
C  9.10600 0.27700 23.57900
C  9.34300 0.43700 25.03900
C  6.87600 1.08500 22.45300
C  10.37400 0.18200 22.69000
C  10.15300 -0.32200 21.34000
N  9.86300 0.56300 27.97500
C  10.39700 -0.42600 27.14200
C  11.23500 -1.31800 27.87900
C  11.23000 -0.76500 29.20000
C  10.33000 0.33100 29.20100
C  12.03300 -2.54600 27.32600
C  11.71900 -0.87700 30.58800
O  12.51300 -1.66300 31.07800
C  11.06400 0.19300 31.43600
C  10.23500 -0.34900 32.48100
O  9.16000 -0.95300 32.31900
O  10.80400 -0.25500 33.76200
C  9.91000 -0.81600 34.88300
H  6.47800 5.12400 30.20100
H  6.62800 3.40600 23.84600
H  10.70200 -1.20600 25.19300
H  8.51000 2.03300 32.82900
H  8.60400 4.73600 31.78400
H  5.99700 3.54700 32.01000
H  6.59500 5.05200 32.73100
H  6.87700 3.55500 33.56500
H  10.95100 3.57100 32.17600
H  10.79000 2.28900 33.34500
H  9.03400 4.51100 34.26400
H  10.55900 5.15600 33.69200
H  4.98600 7.07800 27.61700
H  4.95000 6.21800 29.18200
H  3.67500 5.89200 28.01700
H  3.42800 6.96500 24.18200
H  4.27800 7.56900 25.44100
H  3.14600 6.21300 25.77300
H  8.74000 2.26800 22.72000
H  8.55700 -0.66500 23.59400
H  6.00800 1.10000 23.11200
H  6.86000 0.06200 22.07800
H  6.79100 1.74200 21.58700
H  11.02300 -0.54600 23.17600
H  10.83000 1.17100 22.63700
H  10.20300 0.45500 20.57700
H  9.14200 -0.70700 21.47300
H  10.85600 -1.10400 21.05200
H  11.34500 -3.33200 27.01400
H  12.65800 -2.76300 28.19300
H  12.74100 -2.14500 26.60000
H  11.79200 0.85600 31.90400
H  9.57300 0.07300 35.41700
H  10.57400 -1.30200 35.59800
H  9.05100 -1.44100 34.63900

