158

Mg 24.02900 -6.86500 45.47500
C  26.15900 -4.66400 43.86400
C  21.41400 -5.47800 43.41600
C  22.23200 -9.73500 45.82400
C  26.77800 -8.62700 46.80600
N  23.86600 -5.18000 43.81400
C  24.90700 -4.30100 43.48400
C  24.47200 -3.19500 42.47600
C  22.82200 -3.32000 42.69200
C  22.65600 -4.75600 43.28700
C  22.25400 -2.16700 43.57500
C  24.94500 -3.45300 40.98200
C  25.49900 -2.21600 40.18400
H  24.94500 -1.89300 38.79100
N  22.01100 -7.41500 44.89800
C  21.04900 -6.68900 44.10300
C  19.83300 -7.44800 44.03700
C  20.07400 -8.68500 44.71400
C  21.49700 -8.69100 45.15900
C  18.58800 -6.96900 43.37800
C  18.92700 -9.67700 44.86900
O  17.80200 -9.41400 44.44400
C  19.01600 -10.95700 45.74000
N  24.48100 -9.03600 46.00200
C  23.51900 -9.87800 46.31400
C  24.07300 -11.17200 46.91600
C  25.60100 -10.81500 47.35800
C  25.64300 -9.45700 46.59800
C  23.23900 -11.91600 48.02900
C  26.67200 -11.80100 46.85600
C  27.45400 -12.62100 47.93600
N  26.01400 -6.62600 45.54500
C  27.01500 -7.35600 46.12200
C  28.23500 -6.64200 45.93900
C  28.00800 -5.65600 44.99900
C  26.59900 -5.71800 44.71700
C  29.58000 -6.90100 46.61500
C  28.61000 -4.55500 44.26400
O  29.76900 -4.19500 44.32400
C  27.43200 -3.99300 43.29300
C  27.38700 -2.55500 43.41200
O  27.62000 -1.77400 42.46400
O  26.88100 -2.14900 44.63900
C  26.89100 -0.67700 44.83300
H  20.70600 -4.85100 42.86900
H  21.69300 -10.68000 45.91100
H  27.63900 -9.01000 47.35800
H  24.79800 -2.26400 42.93900
H  22.34300 -3.17100 41.72400
H  21.53800 -1.56900 43.01100
H  22.98400 -1.51900 44.06000
H  21.68800 -2.45000 44.46200
H  24.03700 -3.81300 40.49800
H  25.73200 -4.20300 40.89900
H  26.57800 -2.33500 40.08200
H  25.43900 -1.38400 40.88500
H  18.21700 -7.56100 42.54100
H  18.76400 -5.97000 42.97700
H  17.70700 -6.88200 44.01400
H  19.33600 -10.56900 46.70700
H  19.63400 -11.68800 45.21800
H  18.03800 -11.41400 45.89300
H  24.02100 -11.88200 46.09000
H  25.50500 -10.57500 48.41700
H  22.35100 -11.31000 48.21300
H  23.77300 -11.84500 48.97700
H  22.98900 -12.95700 47.82500
H  27.45100 -11.23000 46.35200
H  26.16200 -12.40100 46.10200
H  27.00200 -12.45400 48.91400
H  28.52900 -12.46000 47.84900
H  27.26900 -13.69200 47.85600
H  29.41000 -7.19700 47.65000
H  30.15900 -5.98500 46.73000
H  30.16500 -7.66300 46.09800
H  27.53700 -4.26600 42.24300
H  27.90000 -0.28200 44.70900
H  26.61400 -0.48300 45.87000
H  26.27600 -0.16300 44.09400
Mg 40.73900 41.50500 27.41000
C  39.77300 43.71300 29.88400
C  41.80500 39.34000 29.67800
C  41.69000 39.51700 24.81400
C  39.79500 44.05100 25.06300
N  40.51900 41.43100 29.49700
C  40.05300 42.44200 30.38100
C  40.29700 42.07700 31.82900
C  41.13900 40.77900 31.77100
C  41.05700 40.44000 30.22500
C  42.51500 40.85400 32.44300
C  39.05000 42.00900 32.60200
C  39.21100 41.60900 34.08200
H  38.96000 42.75800 35.05200
N  41.63900 39.68600 27.31100
C  41.98700 38.95500 28.34700
C  42.57700 37.72100 27.86700
C  42.55400 37.70100 26.47000
C  41.96500 39.03800 26.14500
C  43.01400 36.56900 28.73000
C  43.17700 36.71000 25.45200
O  43.10800 36.76600 24.22700
C  43.90200 35.55300 25.99400
N  40.71400 41.70400 25.27900
C  41.17900 40.78900 24.42200
C  40.89200 41.18200 22.93200
C  40.08100 42.46600 23.11600
C  40.15500 42.82800 24.58200
C  42.08800 41.37200 22.00800
C  38.60300 42.39900 22.63000
C  37.76600 41.30300 23.34000
N  40.05900 43.46700 27.44500
C  39.75600 44.40100 26.45800
C  39.27700 45.59200 26.96900
C  39.28800 45.36300 28.38100
C  39.78100 44.12100 28.57200
C  39.00300 46.89500 26.24800
C  39.03700 45.96800 29.62800
O  38.56500 47.01000 29.91700
C  39.38000 44.88700 30.70000
C  40.46100 45.46900 31.56800
O  41.51700 45.84300 31.15300
O  40.06000 45.62800 32.94800
C  41.08800 45.98000 33.82400
H  42.05300 38.68600 30.51700
H  42.06700 38.85400 24.03300
H  39.40900 44.78100 24.34900
H  40.85700 42.89800 32.27600
H  40.65900 39.97000 32.32200
H  42.46800 41.67800 33.15500
H  43.29700 40.97500 31.69300
H  42.81000 39.94000 32.95800
H  38.25800 41.48900 32.06400
H  38.75900 43.05800 32.65600
H  40.20500 41.19800 34.26200
H  38.58800 40.75900 34.35900
H  42.65200 35.58100 28.44300
H  42.81200 36.76800 29.78200
H  44.09300 36.42000 28.73300
H  44.73300 35.86600 26.62700
H  44.29800 35.03900 25.11800
H  43.20300 34.86800 26.47400
H  40.32700 40.30800 22.60800
H  40.66100 43.20800 22.56800
H  42.80900 42.06000 22.44900
H  41.73700 41.73300 21.04200
H  42.55800 40.39400 21.90200
H  38.75800 42.08900 21.59600
H  38.05000 43.32800 22.76400
H  37.09900 40.81000 22.63400
H  37.15200 41.84900 24.05600
H  38.42000 40.60400 23.86200
H  38.25900 46.77600 25.45900
H  39.90900 47.37400 25.87700
H  38.54000 47.53200 27.00200
H  38.45300 44.76900 31.26200
H  41.24300 47.04800 33.67100
H  41.94300 45.30800 33.74800
H  40.72000 46.00500 34.85000

