158

Mg 30.05200 58.18200 41.12900
C  27.32700 56.45700 39.79000
C  32.16000 56.08600 39.42900
C  32.61400 60.48200 41.30600
C  27.80000 60.79500 42.07000
N  29.79900 56.50900 39.68100
C  28.57400 55.93500 39.35600
C  28.83600 54.54300 38.70600
C  30.34600 54.42700 38.68200
C  30.82900 55.71200 39.33900
C  31.02600 53.21600 39.38900
C  28.18700 54.38400 37.31000
C  27.92500 55.67200 36.47500
H  27.82000 55.48000 34.92500
N  32.17400 58.16700 40.66800
C  32.81000 57.21400 39.94400
C  34.20200 57.58000 39.78000
C  34.39200 58.88100 40.34600
C  33.01300 59.26200 40.76100
C  35.22000 56.72000 39.08500
C  35.70800 59.71800 40.32100
O  36.72900 59.35300 39.71300
C  35.74200 61.08500 41.01300
N  30.14300 60.39000 41.59700
C  31.36600 60.95000 41.83000
C  31.17200 62.41300 42.27200
C  29.51300 62.51800 42.49700
C  29.09500 61.17700 42.04500
C  32.11800 62.95200 43.38300
C  28.91700 63.66300 41.74700
C  27.64200 64.35600 42.21100
N  28.08500 58.50700 41.16300
C  27.27500 59.56200 41.61100
C  25.88600 59.25100 41.47700
C  25.86100 58.06200 40.78500
C  27.16800 57.64800 40.58100
C  24.69200 60.10100 41.86500
C  24.99700 57.02100 40.26400
O  23.76900 56.97200 40.25400
C  25.93300 55.85200 39.59800
C  25.77500 54.51900 40.39100
O  26.43000 54.31100 41.39600
O  24.83500 53.70300 39.86600
C  24.64200 52.42900 40.55100
H  32.78900 55.47800 38.77600
H  33.24200 61.37400 41.26600
H  27.09900 61.57200 42.38200
H  28.41600 53.65600 39.18000
H  30.64600 54.39700 37.63500
H  31.51300 53.46600 40.33100
H  31.80100 52.75800 38.77400
H  30.39600 52.36900 39.65800
H  27.26000 53.81600 37.37600
H  28.83400 53.74600 36.70800
H  28.72800 56.37700 36.69000
H  26.96900 56.07600 36.81000
H  35.95800 57.31000 38.54200
H  34.78000 56.02100 38.37300
H  35.75400 56.16800 39.85900
H  35.20300 61.83900 40.43900
H  36.76100 61.47000 41.04000
H  35.41900 60.83700 42.02400
H  31.36600 63.07400 41.42800
H  29.17500 62.56600 43.53200
H  32.81000 63.67700 42.95400
H  32.44000 62.06700 43.93100
H  31.51800 63.49800 44.11200
H  28.87900 63.47700 40.67400
H  29.70800 64.41100 41.70100
H  26.97100 64.26800 41.35700
H  27.80600 65.40600 42.45600
H  27.21000 63.94200 43.12200
H  24.86100 60.49300 42.86800
H  23.77900 59.51400 41.76900
H  24.72900 60.93800 41.16700
H  25.64600 55.61700 38.57300
H  23.75200 51.91800 40.18300
H  24.50800 52.49300 41.63000
H  25.47800 51.79900 40.24700
Mg 36.01100 49.90900 24.72400
C  36.18100 48.11200 27.74500
C  34.63000 52.52500 26.40700
C  35.39700 51.44200 21.67500
C  36.71900 46.89400 23.06800
N  35.68800 50.37400 26.87800
C  35.70900 49.47400 27.88400
C  35.40700 50.19500 29.23700
C  34.73800 51.57700 28.77400
C  35.01500 51.49500 27.24200
C  33.25100 51.77000 29.22700
C  36.60200 50.33800 30.13500
C  36.50900 49.90700 31.62200
H  35.07600 49.63100 32.17200
N  35.20200 51.76500 24.15500
C  34.75400 52.69500 24.98500
C  34.43400 53.96600 24.31300
C  34.73800 53.69900 22.96000
C  35.07500 52.25900 22.85300
C  33.82500 55.21300 24.96700
C  34.68300 54.70300 21.84100
O  34.94700 54.42800 20.65600
C  34.40800 56.16200 21.95100
N  36.03900 49.26100 22.74000
C  35.85600 50.11900 21.68500
C  36.19400 49.36900 20.36400
C  36.66700 48.01100 20.84100
C  36.45000 48.00000 22.33500
C  34.96200 49.24400 19.43700
C  38.11000 47.78500 20.46200
C  39.19000 48.76800 20.96200
N  36.43000 47.96100 25.23600
C  36.68800 46.84500 24.50000
C  37.11400 45.70200 25.32900
C  36.94300 46.20700 26.56400
C  36.41600 47.48500 26.45700
C  37.61400 44.29200 25.01000
C  37.04600 45.86800 27.97400
O  37.42200 44.85300 28.52600
C  36.46500 47.09200 28.83200
C  35.36600 46.63400 29.66300
O  34.18800 46.87600 29.42700
O  35.84800 45.84500 30.72800
C  34.92800 45.16100 31.63200
H  34.32900 53.43100 26.93600
H  35.39000 51.99800 20.73600
H  37.00500 45.97800 22.54700
H  34.64200 49.57300 29.70000
H  35.35200 52.39500 29.15100
H  32.74800 51.00900 29.82400
H  32.73700 51.95300 28.28300
H  33.20400 52.70900 29.77800
H  37.00600 51.35100 30.14300
H  37.31800 49.65500 29.67700
H  36.94800 50.62900 32.31000
H  37.11300 49.00100 31.67700
H  34.61700 55.71700 25.52100
H  33.09000 54.88900 25.70400
H  33.28200 55.83700 24.25700
H  34.83400 56.77600 21.15800
H  34.92000 56.56900 22.82300
H  33.35100 56.42500 21.99800
H  36.87900 50.07200 19.88900
H  36.13900 47.14900 20.43100
H  34.32900 50.13100 19.40400
H  34.32000 48.39900 19.68800
H  35.35100 49.13900 18.42400
H  38.04800 47.93700 19.38500
H  38.53200 46.80300 20.67600
H  39.89300 48.25500 21.61900
H  38.78600 49.64400 21.46900
H  39.69900 49.19600 20.09900
H  36.97400 43.61100 25.57100
H  38.65700 44.00700 25.15300
H  37.53100 44.11900 23.93700
H  37.32000 47.43600 29.41400
H  33.99200 44.88100 31.15000
H  34.74900 45.79600 32.49900
H  35.41500 44.24000 31.95400

