158

Mg 25.75800 0.34100 29.24500
C  27.36100 0.27500 32.43800
C  22.81000 0.56300 30.90600
C  24.27400 -0.32500 26.40200
C  28.87500 -0.71100 27.96700
N  25.14400 0.47900 31.55100
C  26.02500 0.52100 32.61600
C  25.29300 0.79600 33.87800
C  23.78300 0.76000 33.34000
C  23.85600 0.62000 31.88300
C  22.88200 -0.30800 34.06400
C  25.68800 2.16300 34.52700
C  26.02000 2.04300 36.02600
H  25.60100 3.10500 37.10900
N  23.87800 0.22000 28.69300
C  22.77700 0.34400 29.54400
C  21.57500 0.13500 28.79800
C  21.92600 -0.00300 27.46200
C  23.39600 0.04400 27.46400
C  20.17900 0.14700 29.44700
C  21.06800 -0.29000 26.23800
O  21.55700 -0.42500 25.11700
C  19.60700 -0.47400 26.35400
N  26.48900 -0.46700 27.42000
C  25.69200 -0.48000 26.34200
C  26.54900 -0.58400 25.04600
C  28.01400 -0.37500 25.57300
C  27.82200 -0.52800 27.08300
C  26.37700 -2.02300 24.45800
C  28.75200 0.94400 25.16600
C  28.05300 2.24400 25.13600
N  27.79300 -0.13000 30.02000
C  28.88100 -0.45700 29.35800
C  30.03300 -0.44100 30.28800
C  29.44600 -0.25700 31.50400
C  28.05300 -0.06100 31.26000
C  31.34500 -0.90400 29.92200
C  29.70600 -0.09000 32.90500
O  30.77300 -0.00100 33.48300
C  28.38400 0.28000 33.59200
C  28.17400 -0.81400 34.58800
O  27.55900 -1.83800 34.40700
O  28.82700 -0.45100 35.77500
C  28.86600 -1.51900 36.82800
H  21.86600 0.70600 31.43600
H  23.84000 -0.72000 25.48200
H  29.88200 -0.70100 27.54500
H  25.43200 -0.00800 34.60000
H  23.23200 1.68000 33.53500
H  22.03800 -0.59200 33.43600
H  22.46900 0.16000 34.95700
H  23.49800 -1.14000 34.40600
H  24.92200 2.92500 34.37700
H  26.53500 2.52500 33.94500
H  27.10600 2.12600 36.05300
H  25.75300 1.10000 36.50400
H  19.74900 1.14500 29.36500
H  20.23500 -0.09700 30.50800
H  19.58700 -0.68700 29.07300
H  19.42600 -1.47500 26.74600
H  19.32000 -0.22100 25.33400
H  19.33000 0.30300 27.06600
H  26.38300 0.15100 24.25900
H  28.61100 -1.19000 25.16300
H  26.47500 -1.97500 23.37300
H  25.46700 -2.51600 24.79700
H  27.20800 -2.67600 24.72400
H  29.25700 0.87800 24.20200
H  29.55200 1.01600 25.90300
H  28.12800 2.71100 24.15400
H  28.16300 3.01500 25.89800
H  26.98700 2.05300 25.26100
H  31.92400 -0.23500 29.28600
H  31.51900 -1.95100 29.67500
H  31.83900 -0.86400 30.89200
H  28.33900 1.32000 33.91600
H  29.40200 -2.40100 36.47700
H  27.93300 -1.68200 37.36700
H  29.47400 -1.20100 37.67500
Mg 30.64900 58.91000 39.85100
C  27.69600 56.90900 39.27700
C  32.52100 56.10000 38.81200
C  33.25400 60.85100 39.81500
C  28.49600 61.68400 40.05600
N  30.18800 56.75900 39.14800
C  28.90200 56.21000 39.04400
C  29.03700 54.85400 38.36700
C  30.58800 54.43100 38.69000
C  31.14100 55.83400 38.84200
C  30.80500 53.51700 39.85700
C  28.74600 54.87800 36.83900
C  27.65200 53.96900 36.25300
H  26.58200 54.67100 35.34200
N  32.73400 58.48000 39.44000
C  33.28100 57.27800 39.06500
C  34.67700 57.47200 38.94500
C  34.92800 58.85400 39.29600
C  33.63400 59.52200 39.49600
C  35.68000 56.32600 38.65400
C  36.29200 59.45100 39.46400
O  37.31200 58.81900 39.06900
C  36.51200 60.88800 40.01100
N  30.80200 60.98500 40.04000
C  32.04200 61.51200 40.07300
C  32.02300 63.10300 40.02300
C  30.46500 63.33600 40.22500
C  29.87600 61.94500 40.05700
C  32.90700 63.79800 41.10300
C  29.93300 64.54800 39.41400
C  28.71800 65.34900 40.07400
N  28.55100 59.25800 39.92500
C  27.88700 60.42200 39.99700
C  26.42300 60.16800 40.17400
C  26.32300 58.82300 39.70600
C  27.69400 58.28900 39.62400
C  25.31900 61.10700 40.34000
C  25.41300 57.77900 39.43500
O  24.20100 57.75900 39.44500
C  26.19700 56.51200 39.09800
C  25.75700 55.38000 40.00100
O  25.34400 55.52900 41.15400
O  25.78400 54.17400 39.40500
C  25.30400 53.07100 40.28000
H  33.01200 55.15300 38.58000
H  34.01100 61.62700 39.68800
H  27.87100 62.57900 40.02300
H  28.34100 54.15800 38.83500
H  31.17000 54.00300 37.87500
H  31.16700 54.10900 40.69700
H  31.62000 52.87400 39.52500
H  29.89100 52.93600 39.98400
H  29.59300 54.62200 36.20200
H  28.55700 55.93400 36.64600
H  27.13800 53.51600 37.10100
H  28.12200 53.14500 35.71600
H  35.17000 55.37400 38.50900
H  36.44100 56.20300 39.42500
H  36.06100 56.56300 37.66100
H  35.92800 61.01600 40.92200
H  36.20000 61.50300 39.16700
H  37.55100 61.10100 40.26200
H  32.22800 63.46900 39.01700
H  30.28800 63.72500 41.22800
H  33.75500 64.31200 40.65100
H  33.31000 63.13300 41.86700
H  32.38400 64.57900 41.65700
H  29.72800 64.23200 38.39100
H  30.80900 65.19400 39.35000
H  28.22600 64.63600 40.73500
H  27.87800 65.57000 39.41600
H  29.08600 66.18100 40.67400
H  24.47000 60.69500 40.88500
H  25.13200 61.38200 39.30200
H  25.65400 62.02700 40.82000
H  25.88900 56.24400 38.08700
H  25.44000 52.23100 39.59900
H  24.26200 53.11300 40.59600
H  25.97600 52.94000 41.12800

