158

Mg 30.64300 58.02500 39.72800
C  27.54700 56.38900 38.97900
C  32.28300 55.17100 38.91600
C  33.37600 59.94600 39.46300
C  28.57200 60.86700 40.56900
N  29.98700 56.09700 38.92000
C  28.69500 55.62000 38.67800
C  28.75000 54.13300 38.43800
C  30.14900 53.79000 38.92400
C  30.85400 55.06600 38.93900
C  30.36700 52.99200 40.24700
C  28.24700 53.68900 37.00000
C  27.83400 54.76300 36.01900
H  28.20700 54.52300 34.52200
N  32.55600 57.62300 39.35600
C  33.09200 56.34600 38.95600
C  34.49000 56.44100 38.58800
C  34.87800 57.83900 38.80700
C  33.62400 58.57300 39.26800
C  35.41500 55.29800 38.15900
C  36.21100 58.47600 38.42800
O  37.06400 57.78700 37.90200
C  36.53700 59.94100 38.56900
N  30.92800 60.10100 39.97800
C  32.18000 60.59000 39.95700
C  32.05900 62.14000 40.32600
C  30.64800 62.36700 40.82500
C  29.94900 61.06500 40.50300
C  33.18200 62.56800 41.33100
C  29.94000 63.49700 40.13600
C  29.06600 64.46800 40.87800
N  28.46300 58.55500 39.83800
C  27.84500 59.78500 40.09200
C  26.48300 59.58100 39.93300
C  26.29200 58.29300 39.44000
C  27.57500 57.68700 39.33200
C  25.40000 60.64100 40.18700
C  25.28600 57.42300 38.96900
O  24.11800 57.51900 38.67400
C  26.08900 56.04900 38.73400
C  25.60600 55.14600 39.76900
O  25.98500 55.04900 40.89600
O  24.79400 54.17400 39.22000
C  24.49000 53.12600 40.13800
H  32.93200 54.29800 38.82200
H  34.19000 60.67400 39.44800
H  27.91800 61.69300 40.85900
H  28.07300 53.64000 39.13500
H  30.69500 53.23200 38.16400
H  30.57500 53.76700 40.98500
H  31.20000 52.32700 40.02000
H  29.44000 52.47500 40.49400
H  27.45100 52.95400 37.12000
H  29.04200 53.16700 36.46700
H  28.04500 55.77900 36.35300
H  26.76100 54.73800 35.82700
H  34.79100 54.41300 38.03500
H  36.16500 54.97200 38.88000
H  35.84400 55.68300 37.23400
H  37.55500 60.10300 38.21400
H  36.37100 60.16900 39.62200
H  35.93300 60.63100 37.97900
H  32.34900 62.57100 39.36800
H  30.68200 62.37200 41.91400
H  32.79400 63.27100 42.06800
H  34.07200 62.96800 40.84600
H  33.57100 61.70200 41.86700
H  29.49200 63.13600 39.21000
H  30.78300 64.09900 39.79900
H  28.05400 64.10100 40.71000
H  29.24200 65.45100 40.44100
H  29.34700 64.48400 41.93100
H  24.66400 60.21800 40.87000
H  25.04700 61.08600 39.25700
H  25.86700 61.44100 40.76000
H  25.87900 55.67600 37.73100
H  24.22800 53.48500 41.13400
H  25.38100 52.54800 40.38500
H  23.85100 52.37100 39.68100
Mg -5.52800 25.14500 26.30900
C  -3.88500 26.72800 29.14500
C  -7.35500 23.32800 28.49400
C  -6.96700 23.73100 23.73700
C  -3.54300 27.24400 24.28300
N  -5.62600 25.12000 28.59400
C  -4.96900 25.88900 29.51300
C  -5.50000 25.46100 30.85800
C  -6.27800 24.12800 30.63900
C  -6.42100 24.18000 29.18600
C  -5.50900 22.88100 31.15700
C  -6.34000 26.53500 31.52000
C  -6.22100 26.58500 33.05000
H  -5.71500 25.36300 33.84600
N  -6.96700 23.79400 26.13500
C  -7.67800 23.22300 27.13900
C  -8.69700 22.33700 26.65700
C  -8.51900 22.35000 25.25900
C  -7.42800 23.27900 24.98500
C  -9.80500 21.75600 27.51800
C  -9.26800 21.66600 24.15900
O  -9.03900 21.96200 23.00100
C  -10.37200 20.60800 24.50100
N  -5.32300 25.53700 24.31300
C  -6.00400 24.76300 23.38600
C  -5.50600 25.02400 21.92700
C  -4.66500 26.29600 22.17300
C  -4.52200 26.43400 23.70100
C  -4.57300 23.90400 21.40600
C  -5.24600 27.58500 21.54800
C  -4.54900 28.01200 20.18500
N  -3.86900 26.40800 26.59500
C  -3.19000 27.20800 25.67100
C  -2.27200 28.08200 26.34900
C  -2.48200 27.83800 27.66500
C  -3.51800 26.88200 27.78800
C  -1.19000 28.97900 25.74100
C  -2.06400 28.31200 28.98600
O  -1.18400 29.04600 29.35000
C  -2.99000 27.59300 29.98500
C  -2.15400 26.75500 30.93200
O  -1.44500 25.77500 30.63000
O  -2.29400 27.34400 32.19300
C  -1.41600 26.64700 33.15400
H  -7.79000 22.62000 29.20300
H  -7.36500 23.29800 22.81700
H  -2.85500 27.81800 23.65800
H  -4.67000 25.29600 31.54500
H  -7.26200 24.10200 31.10500
H  -5.23200 22.11100 30.43800
H  -6.16600 22.39600 31.88000
H  -4.54700 23.04100 31.64300
H  -7.37800 26.48600 31.19200
H  -6.09000 27.55500 31.23000
H  -7.24200 26.75000 33.39400
H  -5.57400 27.42500 33.30600
H  -10.75100 22.27500 27.36500
H  -9.58500 21.87200 28.57900
H  -9.94400 20.70400 27.26600
H  -10.63100 20.16500 23.53900
H  -11.24000 21.06700 24.97500
H  -10.03800 19.74600 25.07800
H  -6.34000 25.17800 21.24200
H  -3.61000 26.28200 21.90000
H  -4.61400 23.95900 20.31800
H  -4.79100 22.91000 21.79700
H  -3.55900 23.97600 21.80000
H  -5.24500 28.45300 22.20700
H  -6.29300 27.46200 21.27100
H  -3.91700 27.17600 19.88300
H  -3.91200 28.89600 20.16000
H  -5.20200 28.07700 19.31500
H  -1.72700 29.66900 25.09000
H  -0.58100 28.38900 25.05600
H  -0.57900 29.50400 26.47600
H  -3.56100 28.26400 30.62600
H  -0.39400 27.01500 33.06300
H  -1.47800 25.57700 32.95400
H  -1.88100 26.83000 34.12300

