158

Mg 48.08800 15.10900 28.26200
C  45.74000 15.35900 31.00700
C  49.98400 17.61800 29.89000
C  50.13600 15.13000 25.65300
C  45.58100 13.54400 26.40800
N  47.83600 16.26400 30.22700
C  46.95500 16.14600 31.26900
C  47.29400 17.03500 32.51800
C  48.23300 18.06400 31.80300
C  48.76500 17.27700 30.52300
C  47.70800 19.53100 31.59300
C  48.03900 16.14900 33.58200
C  47.28400 16.12400 34.93500
H  48.07800 15.80700 36.12000
N  49.87600 16.16000 27.86600
C  50.51700 17.06100 28.67300
C  51.80000 17.33900 28.10300
C  51.89700 16.59200 26.90900
C  50.62600 15.88800 26.77000
C  52.81700 18.21200 28.79400
C  53.02800 16.53100 25.88100
O  52.93200 15.91900 24.80100
C  54.32000 17.30900 26.13700
N  47.78800 14.67100 26.23000
C  48.89800 14.52600 25.46200
C  48.50200 13.71900 24.21100
C  47.01000 13.43400 24.28400
C  46.77200 13.85000 25.73300
C  48.97100 14.24300 22.81500
C  46.51500 12.00900 23.87300
C  45.55100 11.96000 22.66200
N  46.12500 14.44000 28.66300
C  45.23700 13.79800 27.77900
C  44.10200 13.43300 28.49100
C  44.21000 14.12500 29.70900
C  45.49500 14.68000 29.78400
C  43.00900 12.68500 27.96300
C  43.51800 14.46400 30.90600
O  42.35600 14.16900 31.15400
C  44.55100 15.01100 31.92500
C  43.98400 16.28600 32.62400
O  43.45300 17.26300 32.09300
O  44.14600 16.16500 33.96800
C  43.73200 17.29200 34.79400
H  50.67200 18.30200 30.39000
H  50.84300 14.84700 24.87000
H  44.75800 13.10500 25.84000
H  46.33300 17.42400 32.85500
H  49.04400 18.20900 32.51700
H  48.35900 20.22900 32.11900
H  46.71100 19.51800 32.03300
H  47.86000 19.85600 30.56300
H  49.12300 16.22700 33.65400
H  47.93500 15.14400 33.17100
H  46.61000 15.27700 34.80400
H  46.66500 16.97200 35.22700
H  52.43100 18.75900 29.65400
H  53.21400 18.93600 28.08300
H  53.58400 17.53700 29.17200
H  54.86100 16.88700 26.98400
H  54.17600 18.38800 26.07100
H  54.91900 17.10200 25.25000
H  48.99800 12.74900 24.23400
H  46.40600 14.11800 23.68700
H  49.61300 15.12100 22.89100
H  48.11000 14.71900 22.34600
H  49.30600 13.43000 22.17000
H  46.09200 11.46400 24.71800
H  47.36800 11.37800 23.62300
H  46.06000 11.69700 21.73500
H  45.00000 12.89100 22.53000
H  44.76600 11.21300 22.77100
H  43.36000 11.96200 27.22700
H  42.43200 13.35000 27.32100
H  42.38000 12.23600 28.73100
H  44.86900 14.20500 32.58600
H  44.30400 18.16600 34.48100
H  43.85700 17.08000 35.85500
H  42.64900 17.40300 34.84500
Mg 30.12700 58.90300 38.56300
C  27.24100 57.05100 37.76800
C  32.05000 56.28700 37.64800
C  32.88700 60.95100 38.52100
C  28.01900 61.76600 38.85100
N  29.63100 57.04400 37.64500
C  28.41000 56.37000 37.47400
C  28.52400 54.96000 37.04300
C  30.09000 54.68300 37.36700
C  30.65700 56.11000 37.60100
C  30.39900 53.77000 38.56500
C  28.24200 54.78700 35.49800
C  26.87500 54.17900 35.05400
H  26.18100 55.06100 33.94200
N  32.21000 58.59900 38.30700
C  32.78000 57.46800 37.93400
C  34.24500 57.63300 37.88000
C  34.46000 58.97100 38.24700
C  33.16000 59.54700 38.39400
C  35.19900 56.55400 37.50000
C  35.81300 59.62100 38.50100
O  36.91900 59.08200 38.24400
C  35.92400 60.86800 39.22900
N  30.40600 61.01400 38.63800
C  31.63700 61.60900 38.56500
C  31.45700 63.11800 38.67300
C  29.93500 63.37900 38.87100
C  29.40600 61.95200 38.68800
C  32.44300 63.95500 39.59000
C  29.40200 64.42900 37.81600
C  28.45000 65.49400 38.32900
N  28.09000 59.39200 38.36900
C  27.38700 60.55600 38.66400
C  25.93700 60.35800 38.53700
C  25.83100 59.00600 38.18400
C  27.14200 58.46300 38.14300
C  24.86300 61.42700 38.75200
C  24.94200 57.90400 37.97500
O  23.69800 57.86300 38.06800
C  25.75000 56.64300 37.57700
C  25.30100 55.61000 38.44400
O  25.76100 55.44000 39.56900
O  24.33500 54.80300 37.87600
C  23.66300 53.85900 38.73500
H  32.66400 55.38500 37.60200
H  33.68800 61.65900 38.30000
H  27.35300 62.58100 39.14100
H  27.92700 54.35300 37.72400
H  30.55500 54.19600 36.51000
H  31.09400 52.94400 38.40900
H  29.52900 53.13800 38.74600
H  30.62800 54.17000 39.55200
H  29.02200 54.24700 34.96100
H  28.47000 55.79400 35.14700
H  26.34200 53.90600 35.96500
H  27.15200 53.20800 34.64200
H  35.97000 56.59400 38.27000
H  35.69000 56.90100 36.59000
H  34.75000 55.56600 37.40000
H  36.92700 61.13400 39.56400
H  35.17100 60.99300 40.00700
H  35.63400 61.60000 38.47500
H  31.78300 63.42700 37.67900
H  29.68000 63.69200 39.88400
H  31.83300 64.24500 40.44600
H  32.92400 64.82000 39.13300
H  33.19200 63.21800 39.87900
H  28.88300 64.05100 36.93600
H  30.30400 64.96800 37.52600
H  28.90600 66.42600 38.66300
H  27.85900 65.18400 39.19100
H  27.65700 65.83300 37.66300
H  23.95900 61.04900 38.27500
H  25.06800 62.44700 38.42700
H  24.80100 61.41400 39.84000
H  25.62400 56.37700 36.52800
H  23.27000 54.40000 39.59600
H  24.30700 53.08700 39.15600
H  22.96800 53.26500 38.14200

