158

Mg -1.61700 17.07000 27.27000
C  -2.16600 14.79600 29.86700
C  -1.95100 19.61400 29.26400
C  -1.63300 19.09300 24.50800
C  -1.36600 14.31400 25.00100
N  -2.08700 17.15600 29.25100
C  -2.31500 16.14100 30.25200
C  -2.61200 16.75000 31.63600
C  -2.47200 18.28100 31.35000
C  -2.08600 18.37800 29.84800
C  -3.70700 19.08500 31.88400
C  -1.59100 16.32900 32.81400
C  -1.63200 17.12500 34.18400
H  -1.54200 16.19600 35.44600
N  -1.67400 19.03600 26.96100
C  -1.78500 19.95600 27.92900
C  -1.77000 21.32200 27.35400
C  -1.72300 21.14700 25.93300
C  -1.66600 19.69600 25.71900
C  -1.87000 22.61800 28.23000
C  -1.82200 22.23400 24.83800
O  -1.77900 21.94700 23.62000
C  -1.82500 23.71100 25.22000
N  -1.48000 16.71300 25.07700
C  -1.54200 17.74300 24.16000
C  -1.41700 17.25400 22.69600
C  -1.14000 15.74800 22.90500
C  -1.31000 15.57900 24.42700
C  -2.53300 17.62100 21.69700
C  0.15700 15.28800 22.26100
C  1.42700 16.05200 22.85300
N  -1.71000 14.99600 27.35700
C  -1.57900 13.98900 26.39400
C  -1.84000 12.73700 26.92800
C  -1.95800 12.96800 28.36700
C  -1.89100 14.34400 28.55400
C  -1.77400 11.40600 26.27600
C  -2.20500 12.29600 29.63800
O  -2.31300 11.10000 29.94500
C  -2.26500 13.46500 30.66200
C  -1.03500 13.34900 31.39500
O  0.02400 13.78000 31.10100
O  -1.28500 12.80300 32.62900
C  -0.17000 12.76500 33.60700
H  -2.04100 20.33700 30.07800
H  -1.61300 19.67200 23.58200
H  -1.10700 13.43800 24.40300
H  -3.55900 16.39100 32.04000
H  -1.58200 18.67500 31.84100
H  -4.13600 18.50600 32.70200
H  -4.47900 19.45700 31.21000
H  -3.16900 19.89900 32.37000
H  -0.55600 16.18800 32.50000
H  -1.87800 15.32600 33.13100
H  -2.49400 17.78200 34.29200
H  -0.76200 17.77800 34.24200
H  -2.88100 22.98500 28.05200
H  -1.24300 23.47100 27.97200
H  -1.83100 22.27700 29.26500
H  -0.86100 23.91300 25.68700
H  -2.59500 24.01600 25.92900
H  -1.95100 24.38300 24.37100
H  -0.55600 17.72900 22.22700
H  -2.01800 15.29500 22.44500
H  -3.13200 18.42200 22.12900
H  -3.28900 16.87800 21.44100
H  -2.13700 17.90300 20.72100
H  0.14000 15.30100 21.17100
H  0.36100 14.28800 22.64300
H  1.14200 16.83800 23.55300
H  2.08300 16.47200 22.09000
H  2.00900 15.36800 23.47000
H  -1.08900 10.78600 26.85400
H  -1.49100 11.50600 25.22800
H  -2.77000 10.96500 26.27600
H  -3.06100 13.41200 31.40500
H  0.30500 13.74400 33.56000
H  0.60600 12.01100 33.47400
H  -0.63900 12.66700 34.58600
Mg 36.03000 48.56900 24.05900
C  36.51700 46.77000 27.04400
C  34.33700 50.93200 25.77500
C  35.39700 49.98200 21.14600
C  37.37000 45.65800 22.26200
N  35.46500 48.74200 26.14500
C  35.93600 48.04200 27.29500
C  35.54600 48.65600 28.56100
C  34.71900 49.92500 28.09100
C  34.76000 49.83200 26.58300
C  33.29000 50.19000 28.70100
C  36.84300 49.07900 29.34400
C  36.85800 48.89600 30.89600
H  35.56000 49.14400 31.63000
N  35.08200 50.25200 23.47500
C  34.40800 51.12600 24.33800
C  34.03000 52.30100 23.59900
C  34.23700 51.99200 22.21400
C  34.95600 50.69900 22.18800
C  33.56300 53.51200 24.31500
C  33.80500 52.78300 20.98700
O  34.12400 52.50200 19.82800
C  33.18400 54.10000 21.28300
N  36.46600 47.99200 21.99000
C  36.11300 48.80200 21.03000
C  36.49500 48.29600 19.63600
C  37.25600 46.90000 19.97500
C  37.07600 46.83500 21.47800
C  35.28500 48.02300 18.61400
C  38.81500 46.94800 19.65500
C  39.26900 46.18300 18.44000
N  36.73100 46.68200 24.50000
C  37.20400 45.60700 23.66300
C  37.36600 44.41400 24.50700
C  37.17400 44.87400 25.83300
C  36.72300 46.20300 25.77000
C  37.57200 43.03400 24.02000
C  37.27100 44.42200 27.26700
O  37.65100 43.42700 27.79400
C  36.87800 45.68400 28.04400
C  35.75900 45.44100 28.97300
O  34.62500 45.34700 28.59700
O  36.21100 45.28700 30.28000
C  35.11600 45.01500 31.27800
H  33.84700 51.73800 26.32500
H  35.23600 50.42600 20.16200
H  37.70500 44.76000 21.73700
H  34.80000 48.09500 29.12400
H  35.28800 50.82900 28.31200
H  33.37200 49.74500 29.69200
H  32.50000 49.71200 28.12000
H  33.08300 51.25800 28.76100
H  37.12500 50.07500 29.00300
H  37.66900 48.50400 28.92600
H  37.65600 49.52900 31.28400
H  37.24300 47.88600 31.03300
H  34.14800 54.30200 23.84300
H  33.81900 53.48600 25.37400
H  32.48100 53.48500 24.19200
H  32.27400 53.80500 21.80700
H  33.05000 54.53300 20.29100
H  33.78500 54.76100 21.90800
H  37.25900 48.96200 19.23500
H  36.80900 46.06900 19.43000
H  34.48300 48.69000 18.93200
H  34.93400 46.99100 18.58600
H  35.48800 48.38700 17.60700
H  39.47100 46.63400 20.46700
H  39.22100 47.94900 19.50800
H  38.49700 45.92500 17.71500
H  39.76800 45.23100 18.62000
H  39.96000 46.88500 17.97400
H  37.56100 42.33700 24.85800
H  38.55800 42.85700 23.59000
H  36.84500 42.68800 23.28500
H  37.69500 45.99400 28.69400
H  35.60900 44.94200 32.24700
H  34.75600 43.99600 31.13600
H  34.22600 45.64400 31.26900

