158

Mg 45.71300 4.96800 47.11500
C  43.64100 7.72300 46.66300
C  43.07800 2.90100 46.35200
C  47.98600 2.35000 46.95500
C  48.45800 7.16800 47.34000
N  43.75600 5.30600 46.33700
C  43.09100 6.51800 46.29900
C  41.58800 6.28600 45.80900
C  41.32900 4.79300 46.06600
C  42.81700 4.25400 46.34000
C  40.34400 4.55500 47.20300
C  41.33400 6.74900 44.34200
C  39.84200 7.21200 43.96900
H  39.53800 7.72900 42.57100
N  45.48200 2.90000 46.77500
C  44.31800 2.19700 46.59100
C  44.55500 0.78300 46.38700
C  45.98700 0.59000 46.48200
C  46.62500 1.97000 46.72100
C  43.53400 -0.27000 45.98600
C  46.70800 -0.66700 46.17900
O  46.20700 -1.75100 46.21700
C  48.15200 -0.69300 45.73300
N  47.94000 4.76400 47.24100
C  48.55900 3.56500 47.24200
C  50.07000 3.70100 47.32600
C  50.17600 5.32000 47.33400
C  48.77600 5.79600 47.35400
C  50.65000 2.94800 48.51600
C  50.87500 5.94300 46.10800
C  52.18900 6.73200 46.35200
N  46.01400 7.00700 47.11200
C  47.13200 7.74600 47.31100
C  46.84400 9.15000 47.29100
C  45.40800 9.18800 47.11600
C  45.02600 7.85900 46.97100
C  47.78200 10.32900 47.42000
C  44.24200 10.04900 46.93600
O  44.16100 11.23300 47.10100
C  43.08600 9.19300 46.55000
C  41.99600 9.29800 47.59800
O  41.94400 8.66200 48.66400
O  41.01200 10.18700 47.13700
C  39.90500 10.59900 48.04700
H  42.14400 2.37500 46.14600
H  48.66300 1.50200 46.83700
H  49.20900 7.95100 47.21400
H  41.06200 6.94800 46.49600
H  40.82000 4.25400 45.26800
H  39.62600 5.37600 47.20900
H  40.75500 4.44600 48.20600
H  39.75100 3.69500 46.89100
H  41.63500 5.90700 43.71800
H  41.95900 7.63300 44.21700
H  39.68500 8.10200 44.57800
H  39.10200 6.46100 44.24500
H  43.58600 -1.22500 46.50900
H  43.53300 -0.38400 44.90200
H  42.55500 0.17000 46.17700
H  48.34800 -1.61300 45.18200
H  48.60500 -0.59600 46.72000
H  48.50100 0.17300 45.17100
H  50.62300 3.27700 46.48700
H  50.62700 5.53700 48.30300
H  49.88800 2.51200 49.16100
H  51.41600 3.45000 49.10600
H  51.21100 2.10100 48.12000
H  50.22000 6.70500 45.68500
H  50.99600 5.20700 45.31400
H  52.31700 6.62000 47.42900
H  52.05200 7.80300 46.20200
H  53.02900 6.37700 45.75400
H  47.34100 11.26900 47.08700
H  48.66100 10.24800 46.78100
H  48.16500 10.25700 48.43800
H  42.60800 9.26000 45.57300
H  38.98000 10.11100 47.74100
H  39.72300 11.65900 47.87300
H  40.14300 10.38700 49.08900
Mg 41.00100 8.57200 30.34600
C  42.81900 9.75300 33.02100
C  38.48400 7.71500 32.53200
C  39.30900 7.52600 27.65400
C  43.56900 9.54000 28.19900
N  40.74800 8.53200 32.57200
C  41.60800 9.26600 33.42000
C  40.97700 9.42200 34.80800
C  39.74400 8.40700 34.73100
C  39.64000 8.16600 33.19100
C  39.75300 7.09800 35.57600
C  40.50200 10.82200 35.19900
C  40.04400 11.02400 36.66100
H  40.60200 12.16100 37.51600
N  39.20000 7.67800 30.13200
C  38.27800 7.40800 31.15500
C  37.10300 6.74200 30.55100
C  37.22700 6.84400 29.18800
C  38.60100 7.38100 28.91400
C  35.88000 6.28300 31.32700
C  36.22400 6.51300 28.08100
O  36.49300 6.76600 26.90500
C  34.90500 5.90200 28.32800
N  41.46400 8.31900 28.20700
C  40.56000 7.92000 27.33500
C  41.13200 7.94900 25.92700
C  42.38400 8.90400 26.07200
C  42.45200 8.97900 27.57000
C  41.53600 6.55400 25.33600
C  42.36700 10.24600 25.37300
C  41.87400 11.53700 26.04400
N  42.86000 9.42100 30.52300
C  43.82700 9.72400 29.59100
C  44.88600 10.47200 30.21200
C  44.54200 10.54600 31.55500
C  43.29900 9.84100 31.74400
C  46.07400 11.00800 29.53500
C  44.95400 11.03200 32.81600
O  45.93300 11.71800 33.20500
C  43.87000 10.52000 33.82200
C  44.60200 9.90200 34.93000
O  45.05400 8.76100 34.91300
O  44.82100 10.77200 35.97200
C  45.68200 10.31900 37.06700
H  37.66000 7.44600 33.19800
H  38.80700 7.25000 26.72500
H  44.35900 10.08100 27.67300
H  41.67100 9.01500 35.54400
H  38.83800 8.93200 35.03300
H  40.06500 6.38400 34.81400
H  38.80900 6.79000 36.02600
H  40.50300 7.10600 36.36700
H  39.67700 11.06100 34.52800
H  41.27100 11.57100 35.01400
H  40.27200 10.13500 37.25000
H  38.97900 11.20900 36.52100
H  36.15700 6.09400 32.36400
H  35.47100 5.35400 30.92900
H  35.09300 7.03400 31.39600
H  35.01600 4.91400 28.77500
H  34.41100 5.80900 27.36000
H  34.23200 6.41300 29.01600
H  40.53500 8.35300 25.10900
H  43.37800 8.54100 25.80800
H  42.61500 6.47800 25.47000
H  41.24900 6.40900 24.29500
H  41.10600 5.71200 25.87800
H  41.77900 10.12800 24.46300
H  43.37100 10.41600 24.98700
H  42.73600 12.19800 25.95500
H  41.43600 11.48000 27.04100
H  41.02600 11.91900 25.47600
H  45.83500 11.54100 28.61400
H  46.65800 10.16600 29.16300
H  46.76000 11.58600 30.15400
H  43.49600 11.51900 34.04400
H  45.00400 9.79800 37.74200
H  46.03500 11.20000 37.60300
H  46.51100 9.65700 36.81600

