158

Mg 35.16800 2.81700 30.41200
C  32.73400 3.81200 32.74700
C  37.51700 3.29100 32.91400
C  37.63800 2.48400 28.12600
C  32.87900 3.10000 27.88800
N  35.13200 3.49900 32.53900
C  33.99200 3.62600 33.30600
C  34.34900 3.78100 34.77000
C  35.94800 3.98200 34.85700
C  36.22600 3.51000 33.35500
C  36.56900 5.39900 35.20500
C  33.79600 2.69000 35.66100
C  33.88600 2.79700 37.19600
H  34.19300 4.10700 37.92600
N  37.27300 2.78400 30.54800
C  38.02200 2.95000 31.68300
C  39.43600 2.77900 31.30700
C  39.49800 2.39500 29.95700
C  38.07100 2.56100 29.46000
C  40.52400 2.89900 32.38500
C  40.65000 1.91800 29.08400
O  40.46700 1.42300 28.00800
C  42.05400 2.09400 29.60500
N  35.27000 2.74200 28.26900
C  36.35500 2.62700 27.56800
C  36.08200 2.38800 26.05700
C  34.54400 2.50400 26.04400
C  34.22100 2.87500 27.46700
C  36.76600 3.39000 25.08200
C  33.93600 1.14900 25.59500
C  32.58500 1.30600 24.88600
N  33.16300 3.30100 30.34200
C  32.41000 3.40600 29.17000
C  31.07500 3.81700 29.56900
C  31.09300 4.02100 30.96100
C  32.44000 3.77100 31.36900
C  29.84700 3.91300 28.71200
C  30.33400 4.37500 32.23100
O  29.26400 4.90200 32.37700
C  31.34100 4.13000 33.43000
C  31.40700 5.38200 34.13500
O  32.13000 6.34900 33.84000
O  30.60500 5.37300 35.24600
C  30.61200 6.46600 36.13600
H  38.28000 3.44500 33.68000
H  38.37900 2.35900 27.33400
H  32.06700 3.16700 27.16100
H  33.91900 4.72800 35.09500
H  36.38400 3.30500 35.59100
H  35.89700 5.85400 35.93200
H  36.53000 6.07700 34.35200
H  37.58700 5.27600 35.57500
H  34.32300 1.74900 35.50300
H  32.77000 2.54700 35.32100
H  34.51400 2.02500 37.64000
H  32.85700 2.55400 37.46100
H  40.31900 2.50500 33.38100
H  40.55400 3.97300 32.56900
H  41.58100 2.78600 32.14200
H  42.65300 1.96700 28.70400
H  42.32000 1.30000 30.30200
H  42.18700 3.06600 30.08000
H  36.46400 1.42300 25.72300
H  34.12500 3.29800 25.42500
H  36.80100 4.42700 25.41800
H  36.46900 3.40100 24.03300
H  37.80700 3.06700 25.09800
H  33.80200 0.49000 26.45300
H  34.55200 0.65900 24.84100
H  32.36800 2.31700 24.54200
H  31.74900 0.99100 25.51100
H  32.55700 0.56200 24.08900
H  29.05300 3.52800 29.35200
H  29.98700 3.23600 27.86900
H  29.64600 4.89400 28.28300
H  30.94600 3.32700 34.05200
H  30.24000 7.35900 35.63300
H  31.59500 6.64700 36.57200
H  29.99500 6.10000 36.95600
Mg 47.28000 17.26100 28.26500
C  45.43600 16.82000 31.36500
C  49.58900 18.99400 30.14800
C  48.97000 17.74500 25.36300
C  44.62000 15.84400 26.61900
N  47.49000 17.68600 30.53800
C  46.68600 17.44900 31.55000
C  47.17100 18.08400 32.89200
C  48.32800 18.95900 32.38600
C  48.44200 18.62200 30.93200
C  48.08000 20.46800 32.54600
C  47.74600 16.93500 33.86800
C  47.42800 17.28900 35.33300
H  47.31600 18.75200 35.76500
N  49.01400 18.31500 27.80800
C  49.85300 18.90200 28.74900
C  51.06900 19.32200 28.05600
C  50.91700 18.95700 26.64800
C  49.60000 18.34200 26.53000
C  52.30200 19.83500 28.79100
C  51.83900 19.14300 25.46000
O  51.49000 18.82700 24.35000
C  53.20900 19.68200 25.63400
N  46.81300 16.92700 26.27900
C  47.66200 17.15800 25.27200
C  46.94100 16.96000 23.92200
C  45.63500 16.13700 24.28500
C  45.66200 16.31600 25.80500
C  46.78700 18.22200 23.07700
C  45.72600 14.56900 23.91100
C  45.05100 14.19600 22.59900
N  45.43600 16.44700 28.77500
C  44.52600 15.86100 27.98300
C  43.47400 15.38100 28.77400
C  43.81200 15.66700 30.18000
C  44.97700 16.42300 30.05000
C  42.24700 14.63300 28.21300
C  43.38800 15.56400 31.52600
O  42.42300 14.96500 31.97800
C  44.44500 16.33300 32.37000
C  43.83400 17.43300 33.12700
O  43.30600 18.47200 32.68700
O  43.80100 16.98600 34.39500
C  43.22800 17.95600 35.32200
H  50.29600 19.58200 30.73700
H  49.45100 17.89000 24.39300
H  43.75000 15.35900 26.17000
H  46.38300 18.58100 33.45800
H  49.24300 18.80600 32.95900
H  47.22500 20.63800 33.20100
H  47.84500 20.86700 31.55900
H  48.94400 20.92400 33.02800
H  48.83100 16.99300 33.78400
H  47.29900 16.02200 33.47400
H  48.28700 16.89000 35.87400
H  46.52300 16.74900 35.61300
H  52.11900 20.90100 28.92900
H  53.25200 19.64500 28.29100
H  52.34800 19.39900 29.78900
H  53.68000 19.82400 24.66100
H  53.96700 18.99300 26.00600
H  53.27700 20.64600 26.13700
H  47.58200 16.40700 23.23500
H  44.74000 16.62500 23.90000
H  47.45900 18.10500 22.22600
H  46.99600 19.16700 23.57700
H  45.73000 18.35100 22.84400
H  45.58500 13.84300 24.71100
H  46.79500 14.53300 23.69800
H  45.79700 13.80700 21.90600
H  44.57000 15.08900 22.19700
H  44.23400 13.49000 22.74500
H  41.58200 14.54000 29.07100
H  42.41000 13.64900 27.77400
H  41.69900 15.18800 27.45200
H  44.89800 15.58800 33.02500
H  43.58500 18.96000 35.09200
H  43.50500 17.77600 36.36100
H  42.13900 18.00400 35.31800

