158

Mg 36.38900 2.45600 30.54600
C  34.02800 3.63500 32.71900
C  38.62000 2.24000 33.01700
C  38.78800 1.64800 28.14100
C  34.03100 2.61200 27.84600
N  36.38000 3.09400 32.62700
C  35.25200 3.38800 33.35600
C  35.44400 3.22500 34.83400
C  37.02900 3.05200 34.88800
C  37.39500 2.77700 33.44500
C  37.91700 4.16100 35.59200
C  34.68400 2.00000 35.44900
C  34.12500 2.29100 36.84200
H  34.64000 3.48700 37.64300
N  38.42000 1.95100 30.63200
C  39.14900 1.84500 31.74800
C  40.44100 1.34400 31.42200
C  40.55700 1.17600 30.05200
C  39.22700 1.67200 29.53600
C  41.36600 1.02800 32.59400
C  41.78600 0.65000 29.25900
O  41.81900 0.67300 28.00800
C  43.00400 0.06800 30.04700
N  36.39300 2.26100 28.19300
C  37.51000 1.92800 27.53400
C  37.21700 1.78400 26.07900
C  35.63200 1.98300 25.97800
C  35.27000 2.28900 27.40300
C  38.14600 2.81800 25.23500
C  34.86700 0.87100 25.16900
C  34.72700 -0.46700 25.91800
N  34.42000 2.98400 30.27800
C  33.60000 2.96300 29.20100
C  32.21800 3.24300 29.59900
C  32.44000 3.51300 31.00300
C  33.78600 3.42900 31.32800
C  31.01300 3.23400 28.68500
C  31.70900 3.93100 32.16400
O  30.49200 4.14100 32.25500
C  32.69000 3.98700 33.29400
C  32.72600 5.29700 34.00700
O  33.24300 6.32800 33.54200
O  32.09500 5.14400 35.21900
C  32.19700 6.42600 35.92500
H  39.25900 2.10200 33.89200
H  39.62200 1.36500 27.49600
H  33.29200 2.63400 27.04200
H  35.11700 4.19700 35.20500
H  37.18500 2.08600 35.36800
H  38.90000 4.20400 35.12200
H  38.01100 3.79700 36.61500
H  37.37000 5.10400 35.60100
H  35.24700 1.07400 35.56400
H  33.86100 1.67600 34.81200
H  34.40500 1.41600 37.42900
H  33.06600 2.40300 36.61100
H  41.11800 1.36600 33.60000
H  42.33400 1.38400 32.24000
H  41.23200 -0.05200 32.66500
H  43.39600 1.04900 30.31600
H  43.50900 -0.56400 29.31700
H  42.63800 -0.59400 30.83200
H  37.41600 0.80300 25.64600
H  35.33800 2.90300 25.47200
H  38.99800 2.25100 24.86000
H  38.49900 3.73800 25.70000
H  37.49700 3.15100 24.42500
H  35.33700 0.68400 24.20300
H  33.95400 1.40900 24.91400
H  34.74800 -1.20100 25.11300
H  33.80600 -0.55400 26.49400
H  35.60400 -0.78500 26.48300
H  30.04900 3.15900 29.18900
H  31.13000 2.43800 27.95000
H  31.03300 4.19500 28.17100
H  32.37500 3.26500 34.04700
H  31.72900 7.28200 35.43800
H  33.25400 6.59300 36.13400
H  31.74300 6.25500 36.90100
Mg 0.79300 43.13300 26.36500
C  2.69500 42.90600 29.28800
C  -2.07200 42.47000 28.15200
C  -0.75300 42.72000 23.43700
C  3.83700 43.43200 24.63500
N  0.34100 42.59400 28.46500
C  1.32200 42.77300 29.49900
C  0.64000 42.90500 30.89000
C  -0.88300 42.52600 30.50600
C  -0.89000 42.59800 28.92600
C  -1.45900 41.22400 31.12900
C  0.84800 44.27700 31.50800
C  1.32800 44.38100 32.93300
H  0.97000 43.27900 33.94100
N  -1.11400 42.77800 25.87000
C  -2.20500 42.57200 26.74000
C  -3.43500 42.47700 26.01300
C  -3.06900 42.51700 24.63300
C  -1.58000 42.67800 24.60400
C  -4.81700 42.45600 26.63600
C  -3.88100 42.53600 23.40800
O  -3.40100 42.78400 22.31700
C  -5.31200 42.46100 23.47300
N  1.50500 42.85100 24.40000
C  0.66300 42.78100 23.33700
C  1.38600 42.71100 21.96100
C  2.77300 43.27900 22.34000
C  2.72900 43.12200 23.90400
C  1.45400 41.32700 21.32300
C  3.11900 44.72800 21.83000
C  4.24400 44.80000 20.78100
N  2.92500 43.03500 26.80700
C  3.99900 43.33500 25.99800
C  5.17600 43.61600 26.78300
C  4.73500 43.24600 28.08000
C  3.32000 43.04300 28.05800
C  6.52700 44.00700 26.32400
C  5.12300 43.04200 29.49000
O  6.26100 42.98100 29.91300
C  3.85700 42.91600 30.35900
C  4.02800 41.69600 31.29900
O  3.97900 40.53600 30.90500
O  4.22000 42.17100 32.56300
C  4.57000 41.19000 33.53900
H  -3.02800 42.28500 28.64500
H  -1.06200 42.77300 22.39000
H  4.73800 43.80300 24.14200
H  1.08700 42.08900 31.45700
H  -1.52300 43.37000 30.76500
H  -0.74900 40.80600 31.84300
H  -1.53700 40.49700 30.32000
H  -2.42600 41.33000 31.62100
H  -0.03600 44.91100 31.43700
H  1.50800 44.89500 30.89900
H  0.93000 45.30900 33.34500
H  2.41700 44.41900 32.95900
H  -5.53100 43.18600 26.25400
H  -4.89800 42.63100 27.70800
H  -5.29300 41.48100 26.52900
H  -5.75400 41.88500 24.28600
H  -5.60900 41.94600 22.55900
H  -5.69400 43.48100 23.41700
H  0.85400 43.42700 21.33400
H  3.57300 42.62800 21.98800
H  2.43700 41.10100 20.90900
H  0.79000 41.21000 20.46600
H  1.30400 40.67200 22.18100
H  3.25900 45.41300 22.66700
H  2.16000 45.00500 21.39200
H  5.08900 45.33100 21.21900
H  3.86800 45.34600 19.91600
H  4.51400 43.84000 20.34200
H  6.89900 43.33300 25.55300
H  7.26000 44.00400 27.13100
H  6.53900 44.98500 25.84300
H  3.81400 43.80500 30.98900
H  3.98900 41.33000 34.45100
H  5.62400 41.29200 33.79600
H  4.38500 40.14500 33.29100

