158

Mg 25.09200 1.17800 29.72600
C  27.21500 1.05400 32.67100
C  22.43700 1.27700 31.87900
C  23.30100 1.43100 27.11900
C  27.98800 0.48300 27.90100
N  24.83000 1.13400 31.99300
C  25.78400 1.23500 32.92000
C  25.20800 1.42500 34.31000
C  23.67100 1.41000 34.04900
C  23.63800 1.17500 32.54800
C  22.78500 0.53000 35.01500
C  25.67800 2.68200 35.10500
C  26.23300 2.47300 36.53600
H  25.93000 3.69600 37.51400
N  23.05700 1.30100 29.51200
C  22.07800 1.28500 30.52900
C  20.77600 1.39900 29.89000
C  21.02800 1.52400 28.51200
C  22.52000 1.41700 28.31400
C  19.50200 1.41400 30.64500
C  20.00400 1.72000 27.43300
O  20.44900 1.80600 26.28600
C  18.51400 2.01000 27.68500
N  25.62900 0.98300 27.78900
C  24.64400 1.25100 26.83800
C  25.15900 1.38100 25.39600
C  26.72400 1.11100 25.61000
C  26.82100 0.84100 27.16100
C  24.31000 0.62700 24.26800
C  27.71600 2.31500 25.37600
C  27.25000 3.64400 26.09900
N  27.10600 0.62900 30.21500
C  28.15700 0.37800 29.33000
C  29.40300 0.18000 30.05400
C  29.02900 0.41900 31.36200
C  27.65400 0.66100 31.38700
C  30.75100 -0.22500 29.53700
C  29.55300 0.63900 32.76200
O  30.69000 0.51900 33.24500
C  28.35100 0.97900 33.61600
C  28.15400 0.05500 34.77400
O  27.64000 -1.03000 34.63400
O  28.74300 0.50100 35.93900
C  28.91100 -0.41600 37.07600
H  21.57100 1.52600 32.49600
H  22.84700 1.68800 26.16000
H  28.93300 0.49100 27.35300
H  25.45700 0.53600 34.88900
H  23.37600 2.43500 34.27100
H  22.21100 -0.26900 34.54500
H  22.14700 1.23700 35.54500
H  23.33300 0.04300 35.82200
H  24.87000 3.41300 35.08300
H  26.56800 3.12800 34.66000
H  27.31000 2.53100 36.37900
H  26.05600 1.48700 36.96500
H  19.10000 2.42700 30.62100
H  19.67200 1.08400 31.67000
H  18.83600 0.71400 30.14000
H  17.88000 1.14700 27.48200
H  18.30900 2.65200 26.82800
H  18.38200 2.58800 28.60000
H  24.97400 2.39100 25.03100
H  26.95600 0.18500 25.08500
H  23.46800 0.08200 24.69300
H  25.04600 -0.06800 23.86300
H  23.94100 1.28900 23.48400
H  27.51600 2.40600 24.30800
H  28.72500 1.95400 25.57400
H  26.55100 3.29600 26.85900
H  26.63100 4.25200 25.43900
H  28.08300 4.19800 26.53300
H  31.28800 0.67700 29.24500
H  30.85400 -1.00200 28.77900
H  31.23900 -0.77000 30.34500
H  28.53100 1.96400 34.04700
H  28.01900 -0.26100 37.68300
H  29.86300 -0.23600 37.57500
H  28.95300 -1.45200 36.73800
Mg 7.16500 53.78500 40.88600
C  6.43000 50.25700 40.54700
C  10.34800 53.15800 39.77600
C  7.47100 57.09400 40.35800
C  3.71900 54.21900 41.45300
N  8.22800 51.93700 40.15100
C  7.78700 50.64500 40.25000
C  8.87700 49.68000 39.80500
C  10.19000 50.58800 39.89700
C  9.58000 52.02400 39.84100
C  10.88600 50.34900 41.23200
C  8.85800 48.88200 38.45500
C  8.55700 49.78900 37.24300
H  7.56100 49.33300 36.20000
N  8.73000 54.98900 40.21500
C  9.99700 54.49600 39.86600
C  10.84100 55.70600 39.69000
C  10.04100 56.86600 39.87400
C  8.68600 56.36800 40.17600
C  12.26000 55.56900 39.17200
C  10.50700 58.29300 39.84100
O  11.65800 58.54900 39.52000
C  9.66700 59.46400 40.32400
N  5.69800 55.37400 40.66500
C  6.15800 56.69200 40.55000
C  5.08200 57.68800 40.75900
C  3.85000 56.73900 40.91900
C  4.45100 55.36500 41.05000
C  5.30900 58.63200 42.01700
C  2.92000 56.80300 39.67200
C  1.45800 57.04900 39.94500
N  5.40500 52.51200 41.11800
C  4.09000 52.86000 41.41400
C  3.25100 51.68600 41.74600
C  4.16300 50.67600 41.36200
C  5.42200 51.21800 41.00500
C  1.77000 51.76500 42.22900
C  4.31300 49.25000 41.31500
O  3.54000 48.34400 41.51900
C  5.73300 48.91200 40.74600
C  5.54000 48.06800 39.57500
O  4.95000 48.40400 38.56700
O  5.92000 46.78800 39.89300
C  5.29300 45.79500 38.99700
H  11.41700 52.98000 39.64000
H  7.60700 58.16600 40.19700
H  2.66200 54.42100 41.64000
H  8.80700 48.90400 40.56800
H  10.81600 50.43300 39.01900
H  10.90900 51.24900 41.84700
H  11.88500 50.00800 40.96100
H  10.37800 49.55700 41.78200
H  8.08000 48.11900 38.47700
H  9.82400 48.38600 38.35900
H  9.55000 50.03500 36.86700
H  8.25700 50.76400 37.62700
H  12.35600 56.42000 38.49700
H  12.53500 54.62000 38.71200
H  12.89000 55.80200 40.03000
H  10.26100 60.36400 40.48100
H  9.18800 59.17600 41.26000
H  8.92900 59.76700 39.58100
H  5.08800 58.34400 39.88900
H  3.32800 56.82300 41.87200
H  5.32800 59.67100 41.68800
H  6.35300 58.47900 42.29300
H  4.65700 58.38700 42.85500
H  3.00900 55.95700 38.99100
H  3.05900 57.76500 39.17800
H  0.88300 56.21300 39.54500
H  1.20400 58.01600 39.51100
H  1.33100 57.02500 41.02700
H  1.15400 51.51500 41.36600
H  1.34800 52.75000 42.42400
H  1.47300 51.11200 43.05000
H  6.30200 48.38600 41.51300
H  5.33200 46.06100 37.94000
H  4.20900 45.83300 39.10200
H  5.79000 44.87000 39.28900

