158

Mg 25.74100 0.10400 29.48500
C  27.62100 -0.28400 32.46200
C  22.98800 0.26600 31.40400
C  23.94000 0.12000 26.63100
C  28.71800 -0.68100 27.61500
N  25.30900 -0.16800 31.73400
C  26.27600 -0.12600 32.76100
C  25.63300 0.02500 34.09900
C  24.07300 0.19900 33.75800
C  24.11900 0.05100 32.20400
C  23.03300 -0.68800 34.55900
C  26.26400 1.26200 34.85400
C  25.63200 1.80600 36.14000
H  26.62700 1.91200 37.33600
N  23.73800 0.20700 29.10400
C  22.70900 0.19500 29.99200
C  21.37500 0.26400 29.38400
C  21.63000 0.24100 27.95900
C  23.17400 0.29200 27.84200
C  20.09600 0.20000 30.17100
C  20.65000 0.25400 26.80900
O  20.91200 0.28900 25.60400
C  19.21400 0.40400 27.16200
N  26.24100 -0.10000 27.42700
C  25.35400 0.04300 26.46800
C  26.03000 -0.15200 25.08100
C  27.54400 -0.26600 25.41800
C  27.49600 -0.40900 26.93000
C  25.50300 -1.37300 24.40600
C  28.26200 1.14100 25.00600
C  29.75300 1.08300 24.85400
N  27.81300 -0.31900 29.88500
C  28.87600 -0.65500 29.04900
C  30.02300 -0.95700 29.82100
C  29.63600 -0.75500 31.19800
C  28.27800 -0.39100 31.16000
C  31.33400 -1.34900 29.21500
C  30.10100 -0.62200 32.56300
O  31.17400 -0.68100 33.16000
C  28.82600 -0.24400 33.42300
C  28.82900 -1.31000 34.45800
O  28.69000 -2.50000 34.29300
O  28.96800 -0.72000 35.68100
C  28.80200 -1.67100 36.80600
H  22.10300 0.50600 31.99700
H  23.37300 0.14500 25.69800
H  29.54300 -0.91800 26.94100
H  25.60900 -0.87400 34.71500
H  23.93500 1.24400 34.03400
H  23.41100 -1.29700 35.38100
H  22.52000 -1.33300 33.84600
H  22.32800 0.00500 35.01800
H  26.39300 1.98900 34.05300
H  27.28600 0.94700 35.06500
H  24.76900 1.21200 36.44100
H  25.19100 2.74500 35.80800
H  19.37000 1.00900 30.08900
H  20.33200 0.15500 31.23400
H  19.56700 -0.74700 30.07300
H  18.60400 0.57400 26.27400
H  19.00800 1.19900 27.87800
H  18.94100 -0.59200 27.50900
H  25.75600 0.72100 24.48900
H  28.11100 -1.14200 25.10300
H  24.82000 -1.91400 25.06000
H  26.30600 -2.08100 24.20000
H  25.00200 -1.15500 23.46200
H  27.96000 2.03100 25.55900
H  27.77000 1.37300 24.06200
H  30.09900 0.10500 24.52000
H  30.23600 1.24900 25.81600
H  30.19000 1.84500 24.20800
H  31.42600 -2.37300 28.85400
H  32.12400 -1.15700 29.94200
H  31.44100 -0.69500 28.35000
H  29.08100 0.75300 33.78500
H  27.80500 -1.41900 37.16800
H  29.46300 -1.25300 37.56500
H  29.01300 -2.71900 36.59100
Mg 8.56200 48.48900 25.25000
C  6.33100 48.55600 28.11900
C  11.00000 49.40100 27.43400
C  10.44000 48.40500 22.68000
C  5.60200 48.15200 23.24200
N  8.59100 48.92600 27.59100
C  7.64800 48.73100 28.52700
C  8.14100 49.28100 29.90000
C  9.55600 49.96500 29.53900
C  9.76500 49.31400 28.10200
C  9.68800 51.53100 29.62800
C  8.22300 48.18200 30.93400
C  7.58100 48.62100 32.22900
H  7.55400 47.61200 33.42400
N  10.51900 48.60600 25.07900
C  11.36700 49.04600 26.07600
C  12.73400 49.18400 25.49600
C  12.61500 48.82900 24.14500
C  11.18100 48.55500 23.91300
C  13.93800 49.74400 26.30100
C  13.67800 48.72000 23.13500
O  13.36700 48.43000 21.98900
C  15.07400 49.03900 23.37300
N  8.04300 48.24000 23.21000
C  9.06100 48.17000 22.36600
C  8.51900 47.91900 20.87900
C  7.02200 47.47800 21.22800
C  6.82500 47.91000 22.63700
C  8.70400 49.10500 19.90200
C  6.83600 45.91800 21.06900
C  5.69900 45.52200 20.09600
N  6.48200 48.50400 25.51100
C  5.46100 48.29500 24.64400
C  4.18500 48.30800 25.34800
C  4.52200 48.34900 26.65100
C  5.91300 48.48900 26.76000
C  2.86500 48.13100 24.75900
C  3.85800 48.43100 27.94000
O  2.68400 48.33000 28.25800
C  5.07300 48.54900 29.00700
C  4.86100 47.36200 29.94100
O  5.48800 46.30400 29.82000
O  3.97000 47.62600 30.95100
C  3.84300 46.60700 32.00100
H  11.77200 49.70100 28.14600
H  11.03800 48.51700 21.77300
H  4.70800 48.18100 22.61600
H  7.39400 50.03900 30.13400
H  10.38700 49.60600 30.14500
H  8.76600 52.10800 29.69500
H  10.27800 51.93600 28.80500
H  10.25900 51.75000 30.53000
H  9.26300 48.05200 31.23400
H  7.72800 47.34900 30.43600
H  6.54700 48.82000 31.94500
H  7.95800 49.61400 32.47200
H  13.68400 49.97100 27.33600
H  14.20800 50.65100 25.76000
H  14.72600 48.99200 26.25200
H  15.24200 50.08800 23.61800
H  15.63400 48.71800 22.49500
H  15.44800 48.42400 24.19100
H  9.15600 47.10900 20.52500
H  6.35900 48.10000 20.62600
H  8.97900 50.07000 20.33000
H  7.79600 49.18300 19.30400
H  9.52700 48.77500 19.26800
H  6.63100 45.51700 22.06200
H  7.72700 45.46500 20.63500
H  5.63600 46.35600 19.39700
H  4.76000 45.41500 20.64000
H  5.81900 44.52400 19.67500
H  2.45700 47.18700 25.11900
H  2.77600 48.14800 23.67200
H  2.29400 48.96100 25.17400
H  4.97900 49.48300 29.56100
H  4.41100 45.68100 31.91100
H  2.77000 46.42400 32.05900
H  4.11000 47.08400 32.94400

