158

Mg 36.54900 0.43400 30.51100
C  34.24700 1.69400 32.97500
C  38.89500 0.33700 32.99200
C  38.59200 -0.41000 28.05700
C  33.99000 0.91000 28.20700
N  36.51700 0.90800 32.72100
C  35.51600 1.35400 33.48800
C  35.90500 1.52300 34.86200
C  37.46900 1.43000 34.80300
C  37.68300 0.81200 33.42200
C  38.22900 2.80000 35.00200
C  35.26600 0.32900 35.70500
C  34.98700 0.63500 37.21400
H  35.61900 1.93200 37.80200
N  38.50400 -0.10900 30.53300
C  39.33600 -0.08700 31.64000
C  40.66400 -0.41400 31.25400
C  40.63600 -0.63000 29.81000
C  39.18700 -0.34900 29.37500
C  41.83700 -0.59600 32.19100
C  41.64800 -1.13000 28.96000
O  41.43700 -1.28300 27.75900
C  42.95100 -1.63500 29.48600
N  36.32400 0.20800 28.48400
C  37.29300 -0.12400 27.63000
C  36.87300 -0.21000 26.18800
C  35.32100 0.02100 26.32800
C  35.14100 0.29600 27.79300
C  37.58900 0.79400 25.29800
C  34.40300 -1.19800 25.89900
C  33.74200 -1.09500 24.51100
N  34.50900 1.13200 30.48500
C  33.57100 1.20600 29.43000
C  32.36700 1.66000 29.95800
C  32.54500 1.91800 31.30300
C  33.92500 1.57500 31.62200
C  31.13400 1.80600 29.04400
C  31.91400 2.27500 32.53800
O  30.73500 2.48100 32.75200
C  32.98200 2.19900 33.64600
C  33.09500 3.50400 34.29100
O  33.84200 4.38200 33.90200
O  32.43800 3.55600 35.51800
C  32.82300 4.60800 36.52300
H  39.58100 0.31800 33.84100
H  39.29000 -0.47200 27.21900
H  33.24000 0.82100 27.41800
H  35.50100 2.47100 35.21800
H  37.85900 0.73500 35.54700
H  37.62200 3.67700 34.77700
H  39.11800 2.83400 34.37200
H  38.46100 2.66500 36.05900
H  35.82800 -0.60500 35.72800
H  34.35300 -0.04700 35.24300
H  35.16200 -0.29000 37.76300
H  33.91700 0.82300 37.28900
H  42.83900 -0.38000 31.81900
H  41.75800 -1.61300 32.57300
H  41.73000 0.08900 33.03200
H  43.57400 -0.80700 29.82600
H  43.54400 -2.35800 28.92600
H  42.69100 -2.26500 30.33700
H  37.04000 -1.20500 25.77600
H  35.08700 0.92100 25.75900
H  36.85600 1.32900 24.69500
H  38.26000 0.28600 24.60500
H  38.23200 1.48000 25.85000
H  33.66000 -1.47900 26.64600
H  35.10700 -2.03000 25.89700
H  32.72200 -0.71200 24.55700
H  33.85700 -2.06400 24.02600
H  34.24900 -0.44100 23.80200
H  30.59800 2.70900 29.33500
H  30.52200 0.90500 29.09200
H  31.48100 1.85600 28.01200
H  32.59500 1.59200 34.46400
H  33.62300 5.23400 36.12900
H  33.22500 4.21700 37.45700
H  31.93000 5.19100 36.74700
Mg -10.38600 40.16700 42.51400
C  -9.64400 36.71300 41.71200
C  -7.59900 41.11600 40.77200
C  -11.52200 43.33700 42.62900
C  -13.55200 39.02100 43.52600
N  -8.82300 38.99500 41.33500
C  -8.76600 37.63300 41.16700
C  -7.49800 37.31400 40.31800
C  -6.73300 38.73200 40.13100
C  -7.73700 39.68800 40.73400
C  -5.32700 38.84700 40.85000
C  -7.65300 36.45200 39.00800
C  -6.50900 35.45000 38.74200
H  -5.47900 35.91900 37.71000
N  -9.70200 42.03400 41.83000
C  -8.46700 42.18700 41.18900
C  -8.19400 43.62900 41.07100
C  -9.29400 44.39600 41.46700
C  -10.21400 43.27200 42.06700
C  -6.88900 44.18900 40.47200
C  -9.49400 45.92400 41.38400
O  -8.58800 46.62900 40.93000
C  -10.66900 46.54100 42.02500
N  -12.31800 41.06900 42.86500
C  -12.45400 42.41300 43.01500
C  -13.95700 42.69000 43.27800
C  -14.62000 41.34600 43.42000
C  -13.43400 40.40500 43.31500
C  -14.06000 43.50400 44.57000
C  -15.75400 40.93700 42.41700
C  -17.14100 40.68300 43.05000
N  -11.37600 38.23100 42.77200
C  -12.66100 37.94800 43.18700
C  -12.97700 36.49700 43.13600
C  -11.80200 36.02500 42.59400
C  -10.88500 37.09500 42.28300
C  -14.31100 35.85600 43.46000
C  -11.12100 34.75900 42.15500
O  -11.48400 33.63400 42.15000
C  -9.78000 35.25300 41.57500
C  -8.53200 34.43100 41.89500
O  -7.60300 34.69100 42.64500
O  -8.63100 33.30900 41.17700
C  -7.46400 32.39200 41.27100
H  -6.62000 41.46300 40.43500
H  -11.87900 44.36800 42.68400
H  -14.54700 38.70200 43.84400
H  -6.73300 36.82700 40.92300
H  -6.50800 38.92300 39.08200
H  -5.37600 39.67100 41.56200
H  -4.47500 39.09300 40.21600
H  -5.11400 38.04200 41.55400
H  -7.61800 37.17900 38.19700
H  -8.59700 35.91500 38.91600
H  -7.02700 34.55000 38.40800
H  -6.00400 35.21000 39.67800
H  -6.13200 43.51700 40.87500
H  -6.65600 45.19200 40.83100
H  -6.94500 44.21500 39.38400
H  -10.73600 46.26300 43.07600
H  -11.53500 46.18500 41.46700
H  -10.55500 47.61100 41.85300
H  -14.42400 43.28600 42.49500
H  -14.95800 41.14300 44.43600
H  -13.23700 43.28300 45.25000
H  -15.02200 43.31400 45.04700
H  -13.96200 44.57000 44.36500
H  -15.45800 40.11500 41.76300
H  -15.81500 41.79900 41.75300
H  -17.06000 40.48100 44.11800
H  -17.53900 39.74400 42.66600
H  -17.82400 41.51200 42.86200
H  -15.06400 35.94500 42.67700
H  -14.74200 36.43400 44.27700
H  -14.12000 34.83500 43.79000
H  -9.89100 35.07700 40.50500
H  -7.24100 32.25700 42.33000
H  -6.55200 32.64800 40.73100
H  -7.78100 31.42700 40.87800

