158

Mg 48.69500 36.10300 27.34700
C  46.84200 34.18800 29.42800
C  48.96100 38.47000 29.86800
C  50.30900 38.09700 25.08200
C  48.38200 33.61100 24.94300
N  48.08300 36.21500 29.51800
C  47.36700 35.29500 30.16200
C  47.37600 35.58300 31.66800
C  47.73500 37.10100 31.67300
C  48.33900 37.29400 30.27700
C  46.56600 38.07700 31.93000
C  48.41800 34.62900 32.32700
C  48.40500 34.42200 33.84200
H  47.54500 35.18800 34.84700
N  49.48800 38.08400 27.47300
C  49.47000 38.86900 28.60200
C  50.35900 40.06400 28.37400
C  50.59700 39.97800 26.93600
C  50.11900 38.68900 26.40400
C  50.81100 41.07700 29.43900
C  51.35800 41.06400 26.09400
O  51.70400 40.89500 24.91100
C  51.66300 42.30800 26.79400
N  49.08300 35.96600 25.30300
C  49.79000 36.87600 24.58300
C  50.27000 36.33200 23.27100
C  49.82600 34.80900 23.27300
C  49.08100 34.74200 24.58500
C  49.79500 37.20100 22.03400
C  50.99800 33.82200 22.94600
C  51.18300 33.40300 21.50700
N  47.88300 34.20300 27.14300
C  47.79400 33.34300 26.14700
C  46.98800 32.19700 26.44000
C  46.56000 32.48200 27.76600
C  47.13400 33.73800 28.12200
C  46.61000 31.04300 25.69300
C  45.71100 32.01000 28.80100
O  45.13300 30.94300 28.83700
C  45.78400 33.13700 29.91600
C  46.06400 32.37900 31.09800
O  46.85300 31.41700 31.31400
O  45.24800 32.90600 32.15000
C  45.10600 32.10100 33.39300
H  49.21900 39.10700 30.71700
H  50.90300 38.61700 24.32700
H  48.29700 32.83600 24.17900
H  46.36100 35.33500 31.98000
H  48.50100 37.26200 32.43100
H  46.72300 38.83200 32.70000
H  45.60400 37.69200 32.26800
H  46.47500 38.55600 30.95500
H  49.40300 35.00900 32.05700
H  48.44200 33.65100 31.84500
H  49.38500 34.31900 34.30700
H  48.00800 33.41300 33.95100
H  51.86200 41.35600 29.37100
H  50.59700 40.77500 30.46500
H  50.27400 42.02000 29.34300
H  50.79300 42.61400 27.37600
H  51.88100 43.06500 26.04000
H  52.42900 42.04300 27.52200
H  51.35900 36.31700 23.32700
H  49.03200 34.63400 22.54800
H  49.32600 36.56600 21.28200
H  50.62400 37.77500 21.61900
H  49.03800 37.92400 22.33800
H  50.90100 32.85800 23.44600
H  51.91300 34.24000 23.36500
H  51.38900 32.33300 21.50100
H  52.10200 33.88400 21.17300
H  50.26500 33.53100 20.93300
H  45.84300 31.35000 24.98300
H  46.15600 30.36600 26.41600
H  47.44000 30.47400 25.27300
H  44.75100 33.48300 29.92300
H  45.54600 31.11000 33.28400
H  44.06500 31.82200 33.55500
H  45.54400 32.61900 34.24600
Mg 43.13400 42.21600 26.23100
C  42.11500 44.43300 28.64500
C  44.24300 40.05000 28.55600
C  44.19100 40.20700 23.72000
C  42.04200 44.44500 23.83000
N  43.26200 42.24800 28.30900
C  42.65500 43.22800 29.15000
C  42.64500 42.75800 30.61700
C  43.46400 41.43100 30.60300
C  43.65200 41.20700 29.02000
C  44.86300 41.42900 31.35900
C  41.13800 42.54300 31.09900
C  41.02200 41.78000 32.42300
H  40.22400 42.55200 33.45600
N  44.18900 40.46600 26.14600
C  44.52000 39.69100 27.24900
C  44.99400 38.35700 26.80400
C  44.87900 38.33600 25.36800
C  44.52100 39.70500 24.98700
C  45.62300 37.31800 27.67900
C  45.20000 37.23000 24.30600
O  45.29800 37.43600 23.10300
C  45.11800 35.84400 24.81300
N  43.16100 42.35900 24.09900
C  43.63600 41.38000 23.28700
C  43.53800 41.69900 21.72800
C  42.64800 42.93400 21.79100
C  42.59300 43.29600 23.34500
C  44.96500 41.96700 21.25200
C  41.24800 42.71500 21.21600
C  40.52100 41.55100 21.88300
N  42.25400 44.14200 26.18500
C  41.91700 44.98200 25.14400
C  41.47300 46.23700 25.66800
C  41.42500 46.04800 27.06100
C  41.90300 44.74100 27.34500
C  41.01300 47.48600 24.83700
C  41.04600 46.57000 28.28600
O  40.69000 47.72900 28.51100
C  41.48900 45.50800 29.43700
C  42.55100 46.09100 30.29300
O  43.63900 46.44800 29.90600
O  42.07200 46.20400 31.62400
C  42.78900 47.08900 32.55300
H  44.48500 39.28000 29.29100
H  44.44900 39.53600 22.89800
H  41.61700 45.07100 23.04300
H  43.10500 43.55700 31.19800
H  42.91800 40.59900 31.04700
H  45.02900 42.41400 31.79500
H  45.66700 41.27000 30.64000
H  44.87600 40.58500 32.04900
H  40.63800 41.97400 30.31400
H  40.58200 43.46700 31.25600
H  42.02300 41.55900 32.79500
H  40.59800 40.80100 32.20200
H  45.94200 37.79400 28.60600
H  46.49400 36.88000 27.19100
H  44.83800 36.58700 27.87200
H  44.45700 35.68800 25.66500
H  46.14500 35.57300 25.06000
H  44.73000 35.24100 23.99200
H  42.97900 40.94100 21.17800
H  43.07700 43.83600 21.35400
H  45.10300 41.65000 20.21900
H  45.69700 41.34300 21.76500
H  45.15400 43.03100 21.39100
H  41.31300 42.46100 20.15800
H  40.72900 43.66900 21.31600
H  40.24300 40.84300 21.10200
H  39.63100 41.87400 22.42300
H  41.22700 40.96300 22.46900
H  41.90200 48.03700 24.53000
H  40.40300 48.15200 25.44700
H  40.41100 47.09700 24.01600
H  40.61000 45.19200 29.99800
H  42.63000 46.79600 33.59100
H  42.41900 48.08900 32.32700
H  43.84700 47.08100 32.29000

