158

Mg 41.64800 8.43600 28.84300
C  43.01100 9.91400 31.62400
C  39.26200 6.95300 31.00900
C  40.20400 6.92000 26.26100
C  44.20100 9.62000 26.79400
N  41.13800 8.46700 30.99500
C  41.86200 9.11500 31.92600
C  41.27200 8.84900 33.35100
C  40.33700 7.65300 33.14300
C  40.23100 7.68200 31.67400
C  40.77800 6.21400 33.70000
C  40.63700 10.11500 34.00600
C  40.84700 10.17600 35.49400
H  40.68900 11.52500 36.27200
N  39.94700 7.13000 28.62800
C  39.11900 6.63600 29.61500
C  38.10800 5.74300 28.98000
C  38.32200 5.72500 27.54500
C  39.50200 6.63900 27.39900
C  36.96400 4.97900 29.91400
C  37.50700 5.05600 26.43500
O  37.73000 5.25900 25.22100
C  36.32900 4.17300 26.86500
N  42.23900 8.13500 26.83800
C  41.42000 7.58500 25.92800
C  42.01800 7.54500 24.54400
C  43.13400 8.62700 24.69100
C  43.25200 8.82600 26.16500
C  42.40700 6.12600 24.02100
C  42.86100 10.02900 24.01600
C  42.10100 11.14800 24.77000
N  43.21100 9.62900 29.16000
C  44.20200 9.98000 28.21100
C  45.17000 10.80100 28.95300
C  44.63500 10.90900 30.26500
C  43.58100 9.98700 30.36000
C  46.32700 11.54000 28.35200
C  44.85800 11.42500 31.60300
O  45.72400 12.12900 32.10500
C  43.83100 10.67800 32.55400
C  44.42700 9.86400 33.65300
O  44.95400 8.79600 33.47200
O  44.26800 10.51100 34.89100
C  44.75500 9.80400 36.11700
H  38.52000 6.44900 31.63100
H  39.71600 6.47600 25.39100
H  44.95900 10.07400 26.15200
H  42.04500 8.50800 34.03900
H  39.40100 7.93300 33.62700
H  41.30700 5.56300 33.00500
H  39.98500 5.66200 34.20500
H  41.53300 6.47700 34.44100
H  39.55600 10.11900 33.86600
H  41.15000 11.01600 33.66900
H  41.82900 9.80300 35.78700
H  40.12600 9.43000 35.82800
H  36.06900 5.60000 29.91700
H  37.19900 4.82300 30.96700
H  36.71100 4.01500 29.47400
H  36.75300 3.46900 27.58100
H  35.94800 3.73600 25.94200
H  35.62300 4.88300 27.29600
H  41.25700 7.90900 23.85300
H  44.00600 8.10600 24.29600
H  41.75700 5.42800 24.54800
H  43.42800 5.90400 24.33300
H  42.27900 6.08000 22.93900
H  42.37500 9.74800 23.08100
H  43.81100 10.39800 23.62700
H  41.72800 10.84400 25.74800
H  41.20600 11.30900 24.17000
H  42.64700 12.09000 24.82200
H  47.24400 11.04500 28.67000
H  46.12300 12.54100 28.73100
H  46.28400 11.55400 27.26300
H  43.42200 11.58600 32.99900
H  44.18000 10.10200 36.99400
H  45.82700 9.85200 36.30900
H  44.43200 8.76700 36.02300
Mg 52.38800 24.06800 44.34600
C  49.45300 26.02400 43.77300
C  50.85600 21.33100 43.54700
C  55.49800 22.58300 44.35200
C  54.03100 27.12100 44.87000
N  50.35100 23.74000 43.56600
C  49.31000 24.65900 43.43100
C  47.97900 23.83400 43.32100
C  48.55700 22.35600 43.08000
C  50.01400 22.43100 43.45100
C  47.83200 21.15400 43.82200
C  47.04500 24.29700 42.14400
C  47.74900 24.56900 40.81300
H  47.33600 23.82100 39.52400
N  53.07800 22.19800 43.98600
C  52.20400 21.11300 43.87900
C  52.92200 19.86500 43.85900
C  54.31000 20.20500 44.10400
C  54.38400 21.70400 44.12000
C  52.18900 18.53600 43.82400
C  55.47400 19.28800 44.25400
O  55.23700 18.13700 44.07500
C  56.88900 19.76600 44.63700
N  54.49100 24.85800 44.35900
C  55.54200 23.99900 44.35900
C  56.84300 24.80400 44.66200
C  56.40700 26.28000 44.62400
C  54.92600 26.08300 44.51600
C  57.54300 24.47700 45.97000
C  57.05400 27.19800 43.45900
C  56.38200 27.10200 42.11300
N  51.88600 26.16800 44.50200
C  52.64900 27.26700 44.79000
C  51.80900 28.41900 45.03300
C  50.48900 27.97200 44.58600
C  50.60900 26.57900 44.25800
C  52.23300 29.78700 45.60300
C  49.08700 28.31400 44.51400
O  48.44600 29.31600 44.82000
C  48.36900 27.02500 43.80600
C  47.93100 27.44300 42.45200
O  48.63500 27.65300 41.44600
O  46.59600 27.78600 42.60100
C  45.95800 28.37100 41.42300
H  50.28300 20.42600 43.33500
H  56.49300 22.21500 44.61100
H  54.59500 28.03000 45.09100
H  47.34700 23.83200 44.20900
H  48.57000 22.19000 42.00200
H  47.41600 20.42400 43.12800
H  46.94700 21.60400 44.27100
H  48.39700 20.61900 44.58600
H  46.42100 25.08300 42.56900
H  46.24400 23.60700 41.87800
H  48.83400 24.53000 40.91000
H  47.49200 25.58800 40.52400
H  52.19000 18.37300 42.74600
H  51.13200 18.68600 44.04400
H  52.64800 17.73000 44.39600
H  57.40800 18.84600 44.90400
H  56.95700 20.22700 45.62200
H  57.47400 20.36400 43.93700
H  57.55600 24.59700 43.86400
H  56.60800 26.68600 45.61500
H  58.61300 24.43800 45.76400
H  57.25400 23.46400 46.25000
H  57.36100 25.07300 46.86400
H  58.12500 27.07700 43.29700
H  56.81300 28.20300 43.80500
H  55.36000 26.73100 42.04000
H  57.10100 26.46400 41.59800
H  56.44200 28.10000 41.67900
H  51.61600 29.81800 46.50100
H  52.06300 30.65400 44.96400
H  53.28900 29.64700 45.83400
H  47.63200 26.82200 44.58300
H  46.44100 29.32000 41.19100
H  44.93800 28.68200 41.65100
H  45.90900 27.67900 40.58300

