158

Mg 35.66200 3.13500 30.44800
C  33.17600 3.76700 32.71000
C  38.05600 3.61400 32.85400
C  38.05600 2.54200 28.07400
C  33.28800 3.48700 27.85500
N  35.63600 3.78300 32.47700
C  34.50400 3.73900 33.30900
C  34.83100 3.80600 34.79900
C  36.33600 4.20500 34.73400
C  36.72300 3.83800 33.27300
C  36.61100 5.69700 35.14300
C  34.51200 2.51300 35.55100
C  34.38600 2.58000 37.09200
H  35.13200 3.63200 37.86300
N  37.78300 3.02900 30.47300
C  38.59700 3.25900 31.56100
C  39.97700 3.10700 31.15500
C  39.97800 2.76600 29.77600
C  38.54200 2.77400 29.37800
C  41.15600 3.05300 32.11000
C  41.09700 2.42800 28.77300
O  40.91800 2.26500 27.53100
C  42.47700 2.28300 29.15500
N  35.62000 3.04100 28.26500
C  36.74600 2.60200 27.58100
C  36.36700 2.19000 26.11100
C  34.78600 2.52200 26.00300
C  34.53900 3.12900 27.42800
C  37.33400 2.67900 24.97400
C  33.92400 1.25700 25.79300
C  32.66500 1.38500 24.81400
N  33.57900 3.60700 30.22200
C  32.74400 3.65300 29.15800
C  31.42800 3.88700 29.64500
C  31.53900 3.89200 31.03700
C  32.89500 3.78200 31.31200
C  30.32000 4.13900 28.70100
C  30.83800 4.12700 32.29000
O  29.65500 4.44600 32.50500
C  31.91600 3.99900 33.46700
C  31.99500 5.39000 34.09800
O  32.48300 6.45300 33.58000
O  31.57700 5.16700 35.37600
C  31.92600 6.21400 36.34000
H  38.80000 3.65200 33.65200
H  38.76500 2.41700 27.25300
H  32.57000 3.49900 27.03300
H  34.26000 4.66800 35.14300
H  36.82700 3.51500 35.42000
H  37.37100 5.72200 35.92400
H  35.69400 6.11100 35.56200
H  37.10600 6.34600 34.42200
H  35.33600 1.83600 35.32600
H  33.64800 1.97500 35.16000
H  34.45500 1.62000 37.60500
H  33.33600 2.87300 37.10800
H  41.71800 3.96200 31.89400
H  41.74900 2.15000 31.96700
H  40.74200 3.13600 33.11500
H  43.09800 2.03500 28.29400
H  42.55100 1.55200 29.96000
H  42.69800 3.24100 29.62500
H  36.47300 1.10800 26.19400
H  34.54200 3.21300 25.19600
H  37.88000 3.55600 25.32300
H  36.78600 2.82700 24.04400
H  38.03600 1.85300 24.85500
H  33.54600 0.89600 26.74900
H  34.59900 0.56100 25.29300
H  32.91500 0.77800 23.94400
H  32.28300 2.38000 24.58700
H  31.79200 0.96400 25.31300
H  29.32800 4.22300 29.14400
H  30.21500 3.38400 27.92200
H  30.49100 5.08500 28.18700
H  31.89000 3.13900 34.13600
H  32.07300 7.18300 35.86400
H  32.78500 5.92900 36.94800
H  31.02800 6.28900 36.95300
Mg 16.80000 52.12600 26.04000
C  18.58400 50.75100 28.59500
C  14.26500 52.88600 28.22700
C  14.93700 53.44700 23.42500
C  19.05900 50.89600 23.73100
N  16.55100 51.91100 28.12500
C  17.47700 51.47400 28.98000
C  17.03200 51.83300 30.43000
C  15.48400 52.14800 30.29400
C  15.39900 52.31700 28.77500
C  14.42700 51.15300 30.89400
C  17.89800 52.94900 31.03900
C  18.44300 52.68200 32.49300
H  17.39700 52.06800 33.45000
N  14.97900 53.20500 25.82400
C  14.05500 53.34500 26.85900
C  12.93200 53.96100 26.39200
C  13.03800 54.11400 24.96700
C  14.34300 53.58400 24.67100
C  11.70300 54.20300 27.29800
C  11.98900 54.56200 23.96200
O  12.15800 54.55800 22.76200
C  10.67000 55.05500 24.44600
N  16.91200 52.11100 23.86700
C  16.04300 52.75000 23.05100
C  16.59300 52.84600 21.58900
C  17.91900 52.04900 21.74000
C  18.00200 51.70700 23.20000
C  15.58800 52.53400 20.42000
C  19.19200 52.83400 21.27400
C  19.86700 52.14300 20.03300
N  18.46900 51.07600 26.11200
C  19.30000 50.58800 25.15000
C  20.39300 49.85100 25.69300
C  20.18800 49.89900 27.06700
C  18.95700 50.59500 27.27100
C  21.50400 49.17600 24.89300
C  20.65700 49.46200 28.37300
O  21.44900 48.58300 28.64700
C  19.67900 50.12700 29.41800
C  19.17400 49.12000 30.35100
O  18.74600 48.01600 30.04800
O  19.44700 49.51100 31.64200
C  19.25300 48.47900 32.66500
H  13.38100 52.97000 28.86300
H  14.45000 53.91900 22.57000
H  19.78900 50.60500 22.97200
H  17.16600 50.93500 31.03400
H  15.38800 53.19500 30.58300
H  13.81500 50.66800 30.13300
H  13.69000 51.73700 31.44600
H  14.78300 50.38900 31.58500
H  17.53600 53.93400 30.74400
H  18.75300 52.94100 30.36300
H  18.91400 53.58300 32.88500
H  19.24000 51.95500 32.33700
H  10.95900 53.41300 27.19100
H  11.18000 55.13200 27.07000
H  11.94300 54.28100 28.35900
H  10.26000 55.28100 23.46100
H  10.72600 55.97600 25.02600
H  10.16600 54.19700 24.89100
H  16.74800 53.92400 21.53400
H  17.73100 51.09900 21.24100
H  16.05300 51.86600 19.69500
H  15.37600 53.38100 19.76900
H  14.65800 52.08500 20.76900
H  19.86400 52.98700 22.11800
H  18.80700 53.80800 20.97000
H  19.24800 52.40700 19.17600
H  20.04500 51.07700 20.17500
H  20.77700 52.62200 19.67000
H  21.89900 49.91400 24.19500
H  21.17200 48.25900 24.40400
H  22.33400 48.88300 25.53500
H  20.21100 50.88900 29.98700
H  18.20500 48.25600 32.46300
H  19.29900 48.76700 33.71500
H  19.83900 47.58700 32.44500

