158

Mg 48.16700 25.58400 28.47300
C  49.03300 27.53000 31.28700
C  47.38500 23.05400 30.62400
C  47.66200 23.58600 25.83600
C  49.76900 27.89500 26.53100
N  47.96200 25.36100 30.65900
C  48.42000 26.30000 31.60400
C  48.09400 25.84300 33.02300
C  47.85800 24.31000 32.90300
C  47.70000 24.19600 31.30500
C  48.95200 23.43800 33.69200
C  46.93700 26.65900 33.65700
C  47.11400 27.15000 35.09400
H  45.81900 27.32600 35.95400
N  47.24000 23.72900 28.26900
C  47.06200 22.83700 29.27200
C  46.52600 21.62400 28.67300
C  46.54800 21.73900 27.20500
C  47.14400 23.07000 27.05600
C  46.09500 20.49000 29.48000
C  46.11400 20.86500 26.10100
O  46.26400 21.18600 24.91100
C  45.31400 19.57300 26.45600
N  48.71700 25.77200 26.47100
C  48.28700 24.83500 25.51900
C  48.76300 25.25000 24.12900
C  49.34800 26.69200 24.36100
C  49.27400 26.80100 25.86600
C  49.77400 24.30700 23.50700
C  48.47500 27.80100 23.60400
C  49.24200 28.92400 22.84200
N  49.17600 27.35300 28.75900
C  49.76600 28.23300 27.85900
C  50.41000 29.44000 28.55900
C  50.04300 29.18800 29.90000
C  49.36000 27.93600 29.97000
C  50.95900 30.62400 27.87800
C  50.17600 29.70700 31.19700
O  50.85700 30.67300 31.58500
C  49.57200 28.60500 32.17800
C  50.57400 28.28800 33.26300
O  51.18000 27.23700 33.22700
O  50.65300 29.25800 34.22800
C  51.37700 28.99100 35.47100
H  47.32100 22.19900 31.30000
H  47.75700 22.83800 25.04700
H  50.31100 28.55800 25.85400
H  48.95400 26.15000 33.61800
H  46.91500 23.94400 33.31000
H  49.65000 22.88800 33.06100
H  48.36600 22.78000 34.33300
H  49.64900 24.05700 34.25700
H  46.08300 25.98300 33.69900
H  46.64800 27.53900 33.08200
H  47.74600 28.02800 35.22700
H  47.85500 26.47400 35.51900
H  46.54400 20.49900 30.47300
H  46.48900 19.57000 29.04800
H  45.00800 20.43700 29.52700
H  45.92800 18.89100 27.04400
H  45.00000 18.95300 25.61600
H  44.38000 19.84200 26.94800
H  47.86600 25.35100 23.52000
H  50.40400 26.69600 24.09000
H  49.23300 24.00700 22.61000
H  50.03500 23.46800 24.15200
H  50.67500 24.82400 23.17600
H  47.87800 28.30100 24.36700
H  47.75900 27.45000 22.86000
H  50.12000 28.61200 22.27600
H  49.49600 29.72700 23.53500
H  48.51600 29.30600 22.12500
H  50.85900 30.62600 26.79200
H  51.99700 30.56700 28.20600
H  50.40700 31.48700 28.25000
H  48.73300 29.10200 32.66600
H  52.07800 29.76700 35.77600
H  52.06400 28.14600 35.52000
H  50.61700 28.88100 36.24400
Mg 37.02700 48.96500 24.97500
C  37.30400 47.04100 27.83900
C  35.18300 51.25800 26.62300
C  36.29000 50.51900 21.97000
C  38.36600 46.27500 23.10600
N  36.19200 48.99300 26.96000
C  36.66900 48.28800 27.97500
C  36.15800 48.84100 29.28100
C  35.24000 50.04900 28.89700
C  35.44700 50.07400 27.39200
C  33.72300 50.02400 29.32400
C  37.39200 49.23200 30.15500
C  37.01500 49.72800 31.52900
H  35.62600 49.64500 32.12300
N  36.08800 50.75700 24.47300
C  35.40800 51.59000 25.30100
C  35.14000 52.80200 24.63300
C  35.21600 52.51500 23.23100
C  35.84200 51.19300 23.17200
C  34.61600 54.05400 25.37200
C  34.92000 53.43900 22.02600
O  34.95500 53.02300 20.89700
C  34.66700 54.87900 22.27500
N  37.09400 48.32800 22.79000
C  36.86400 49.24500 21.80600
C  37.33800 48.65100 20.46300
C  38.20700 47.43900 20.86500
C  37.86100 47.32600 22.38100
C  36.20500 48.30700 19.40800
C  39.71700 47.45700 20.52800
C  40.20400 46.92300 19.19300
N  37.79100 47.12700 25.37300
C  38.24600 46.11400 24.49100
C  38.69600 44.98600 25.33800
C  38.38900 45.33600 26.67700
C  37.70900 46.58900 26.60500
C  39.36200 43.68500 24.82700
C  38.36400 44.82600 28.05800
O  38.70900 43.78200 28.56800
C  37.78400 45.98900 28.87800
C  36.57800 45.50000 29.67000
O  35.41300 45.40600 29.30400
O  36.90000 45.66000 30.97900
C  35.89600 45.08600 31.92800
H  34.64800 52.02700 27.18500
H  36.30500 51.16700 21.09000
H  38.87000 45.60200 22.40800
H  35.64000 47.96500 29.67100
H  35.64500 51.01800 29.19000
H  33.46200 50.90900 29.90400
H  33.67200 49.16900 29.99800
H  33.10600 49.77400 28.46000
H  38.07200 49.97000 29.73000
H  37.95600 48.31600 30.32900
H  37.33500 50.76900 31.47400
H  37.68400 49.14600 32.16300
H  33.77500 54.57300 24.91100
H  35.42700 54.78100 25.39700
H  34.27600 53.80700 26.37800
H  33.70700 55.05200 22.76200
H  34.78600 55.43600 21.34500
H  35.44300 55.14400 22.99400
H  38.02400 49.43100 20.13200
H  37.69000 46.54300 20.52000
H  35.19200 48.28100 19.80800
H  36.63200 47.41300 18.95200
H  36.15100 49.02900 18.59300
H  40.28900 47.02000 21.34600
H  40.19300 48.43600 20.59000
H  39.32500 46.54500 18.67100
H  41.09000 46.29600 19.29500
H  40.47800 47.81600 18.63300
H  39.63600 43.88800 23.79200
H  38.65800 42.85300 24.84300
H  40.33900 43.49000 25.27000
H  38.62100 46.30400 29.50000
H  35.85700 45.56500 32.90700
H  36.24700 44.10100 32.23600
H  34.90400 44.94900 31.49700

