158

Mg 48.44200 34.28400 27.81600
C  46.40200 32.70000 30.17800
C  48.66800 36.95400 29.98800
C  49.82500 36.15800 25.26400
C  47.45600 31.81900 25.57200
N  47.78000 34.66900 29.91400
C  47.04800 33.83500 30.68200
C  47.09100 34.31300 32.10600
C  47.28800 35.85200 31.89600
C  47.98500 35.83600 30.53000
C  45.96100 36.77700 31.87500
C  48.33100 33.56200 32.78800
C  48.18100 33.49400 34.32400
H  47.21300 34.49000 35.02800
N  49.27200 36.18500 27.69700
C  49.34100 37.11500 28.75400
C  50.19600 38.18400 28.33500
C  50.47500 37.99800 27.00700
C  49.88900 36.74200 26.57300
C  50.64300 39.32200 29.22600
C  51.30000 38.87500 26.06200
O  51.21200 38.72000 24.84600
C  52.21300 39.97300 26.60100
N  48.47500 34.11300 25.77000
C  49.17100 34.96200 24.94600
C  49.32100 34.33000 23.53900
C  48.70400 32.92400 23.67900
C  48.13300 32.93500 25.10500
C  48.82900 35.26400 22.41600
C  49.63500 31.74900 23.36500
C  50.52000 31.79200 22.05800
N  47.30000 32.47800 27.85100
C  46.99000 31.61300 26.84700
C  46.10600 30.58400 27.31300
C  45.87200 30.94500 28.71800
C  46.52400 32.15700 28.91100
C  45.68800 29.39400 26.48500
C  45.21900 30.53000 29.90900
O  44.54800 29.59100 30.30000
C  45.38800 31.78800 30.84200
C  45.57100 31.44000 32.29700
O  46.39100 30.75500 32.83500
O  44.49200 32.01400 32.92600
C  44.34300 31.59400 34.38300
H  48.64200 37.76100 30.72300
H  50.34400 36.62500 24.42400
H  47.19000 30.99100 24.91100
H  46.10500 34.24400 32.56500
H  48.02100 36.17300 32.63600
H  45.88500 37.38400 32.77700
H  45.11300 36.10500 31.74500
H  45.91900 37.45700 31.02400
H  49.25600 34.08900 32.55200
H  48.35200 32.49800 32.55100
H  49.17100 33.80400 34.65800
H  47.94500 32.51000 34.72900
H  51.70900 39.31300 29.45200
H  50.11900 39.25300 30.17900
H  50.36100 40.24500 28.71900
H  51.64600 40.78600 27.05500
H  52.72200 40.39600 25.73500
H  52.83500 39.44100 27.32100
H  50.38400 34.22200 23.32300
H  47.83300 32.77200 23.04200
H  48.47200 34.51900 21.70600
H  49.51900 35.97300 21.96000
H  47.94600 35.87700 22.59600
H  49.07100 30.81600 23.39100
H  50.36400 31.68200 24.17200
H  50.32800 32.63900 21.39900
H  50.20800 30.98400 21.39700
H  51.57600 31.63000 22.27600
H  46.39000 29.20900 25.67200
H  44.75300 29.57800 25.95600
H  45.64100 28.47400 27.06800
H  44.46700 32.34000 30.66000
H  44.30300 30.53300 34.63200
H  43.54600 32.04400 34.97400
H  45.26500 32.00900 34.79000
Mg 26.37200 51.20300 25.42300
C  23.87700 52.02400 27.86800
C  28.56900 50.42700 27.80500
C  28.60900 50.79300 22.91100
C  24.21800 52.53700 23.06800
N  26.25100 51.41800 27.59500
C  25.09400 51.54800 28.38000
C  25.51400 51.38200 29.84600
C  27.03700 50.97500 29.80700
C  27.34900 50.95800 28.32300
C  27.99300 51.84100 30.73000
C  24.55600 50.45100 30.63400
C  24.12500 50.93400 32.04000
H  24.02200 49.99500 33.23000
N  28.21400 50.54100 25.33400
C  28.96500 50.27100 26.41100
C  30.25500 49.89500 26.01300
C  30.32300 49.87200 24.57800
C  29.00100 50.37200 24.17100
C  31.38800 49.59900 27.03200
C  31.52400 49.76900 23.68300
O  31.41000 49.85600 22.49800
C  32.84600 49.46200 24.43100
N  26.47500 51.83500 23.39000
C  27.43600 51.44900 22.54000
C  27.18600 51.73700 21.02700
C  25.72600 52.21100 21.08500
C  25.45200 52.19100 22.63000
C  28.16100 52.78400 20.41700
C  24.73500 51.14500 20.51300
C  23.81700 51.71300 19.45500
N  24.42800 52.05100 25.36100
C  23.67100 52.44700 24.36600
C  22.29000 52.75200 24.78000
C  22.40500 52.64700 26.17200
C  23.68600 52.22600 26.50900
C  21.20200 53.17600 23.89400
C  21.68200 52.87300 27.38700
O  20.53200 53.28200 27.55100
C  22.65600 52.53400 28.59300
C  22.94300 53.68500 29.51800
O  23.65000 54.63000 29.30300
O  22.31400 53.38300 30.74600
C  22.45000 54.46500 31.77700
H  29.15800 49.95900 28.59600
H  29.29200 50.62900 22.07400
H  23.61900 52.91300 22.23700
H  25.54700 52.36500 30.31600
H  27.10700 49.92400 30.08500
H  28.51200 52.66700 30.24300
H  28.69500 51.23700 31.30600
H  27.41100 52.21000 31.57500
H  25.06500 49.48800 30.67600
H  23.64400 50.25200 30.07100
H  23.11500 51.31100 31.88000
H  24.80800 51.76100 32.23500
H  32.30100 50.19500 27.02200
H  31.75900 48.57400 27.00600
H  31.08000 49.72100 28.07100
H  33.28500 50.31600 24.94700
H  33.40900 49.31100 23.51000
H  32.75100 48.49700 24.92900
H  27.39800 50.89200 20.37200
H  25.63800 53.14700 20.53300
H  28.52100 52.53400 19.41900
H  29.02100 52.85800 21.08300
H  27.66800 53.75600 20.42600
H  24.11300 50.60000 21.22200
H  25.42400 50.45000 20.03300
H  23.74900 50.94900 18.68100
H  24.15200 52.64900 19.00900
H  22.82300 51.87100 19.87300
H  21.64500 53.90700 23.22000
H  20.32400 53.50800 24.44800
H  20.86400 52.31800 23.31300
H  22.13800 51.78900 29.19700
H  22.75500 53.88500 32.64800
H  21.49100 54.96200 31.92200
H  23.32400 55.10500 31.65900

