158

Mg -2.44200 17.20100 25.89100
C  -2.66600 14.86200 28.53900
C  -3.45700 19.59400 28.17200
C  -2.70300 19.46800 23.43000
C  -1.75800 14.78600 23.74900
N  -2.77300 17.17800 28.28600
C  -2.89200 16.10500 29.11000
C  -3.35300 16.51700 30.49100
C  -3.65700 18.08300 30.26300
C  -3.28200 18.30500 28.80300
C  -5.10300 18.44800 30.68100
C  -2.48200 16.07100 31.65700
C  -2.44400 16.99300 32.81700
H  -2.09600 16.30100 34.09900
N  -2.66500 19.28000 25.87900
C  -3.10300 20.09800 26.93400
C  -3.17000 21.54400 26.48500
C  -2.85200 21.48600 25.09700
C  -2.75000 20.09400 24.76600
C  -3.54700 22.73500 27.36400
C  -2.67200 22.62200 24.05700
O  -2.42000 22.44000 22.86100
C  -2.65900 23.97600 24.56100
N  -2.33300 17.16000 23.90500
C  -2.57100 18.16500 23.03200
C  -2.52900 17.73800 21.59400
C  -1.94100 16.26700 21.76800
C  -1.99600 16.01700 23.24500
C  -3.87900 17.72800 20.77000
C  -0.54800 16.09100 21.02500
C  0.75200 16.15400 21.91700
N  -2.36500 15.20800 25.99800
C  -1.88900 14.38200 25.06400
C  -1.84900 13.02900 25.56300
C  -2.10800 13.19500 26.92900
C  -2.37400 14.55300 27.19300
C  -1.59800 11.74100 24.75500
C  -2.16000 12.45800 28.16400
O  -1.98000 11.30600 28.41800
C  -2.47500 13.55200 29.27700
C  -1.27700 13.57300 30.13300
O  -0.17600 13.99800 29.89800
O  -1.63900 13.06200 31.33800
C  -0.58300 12.88900 32.35400
H  -3.81400 20.31800 28.90700
H  -2.90100 20.15200 22.60200
H  -1.47900 14.07500 22.96800
H  -4.33400 16.04700 30.57100
H  -2.87700 18.69100 30.72200
H  -5.55200 17.85800 31.48000
H  -5.76400 18.40600 29.81500
H  -5.05100 19.49000 30.99900
H  -1.45000 15.93100 31.33700
H  -2.92100 15.10700 31.91700
H  -3.34900 17.60100 32.84500
H  -1.62000 17.68200 32.63100
H  -2.63400 23.32900 27.36900
H  -3.80900 22.43900 28.38000
H  -4.33900 23.31800 26.89400
H  -3.64900 24.26800 24.90800
H  -2.40400 24.69100 23.77900
H  -1.97500 23.98400 25.41000
H  -1.81600 18.37200 21.06700
H  -2.62200 15.58500 21.26000
H  -4.53900 18.32800 21.39600
H  -4.42400 16.80500 20.57300
H  -3.84300 18.42000 19.92800
H  -0.48400 16.99300 20.41500
H  -0.51700 15.22200 20.36800
H  1.48600 16.80100 21.43600
H  1.13500 15.18300 22.23200
H  0.63300 16.76400 22.81200
H  -1.00600 11.14900 25.45300
H  -1.09800 11.78000 23.78700
H  -2.57000 11.32900 24.48500
H  -3.34900 13.21200 29.83100
H  -0.78600 12.28500 33.23800
H  -0.33000 13.84100 32.82000
H  0.29900 12.48000 31.86200
Mg 16.77100 -2.14500 27.77400
C  16.07000 0.07000 30.64900
C  18.45300 -4.16200 29.98700
C  17.84400 -3.53500 25.13000
C  15.23300 0.47900 25.80100
N  17.19700 -1.98800 30.10300
C  16.77900 -1.07500 30.99700
C  17.29800 -1.47700 32.39400
C  18.18400 -2.78900 32.11700
C  17.92300 -3.03800 30.64700
C  19.68900 -2.66700 32.51800
C  16.11000 -1.81200 33.40700
C  16.42400 -1.58500 34.87300
H  17.73700 -0.95800 35.31100
N  17.89100 -3.74800 27.59000
C  18.47900 -4.48300 28.58700
C  19.12100 -5.59600 27.95400
C  18.94100 -5.41500 26.57700
C  18.21200 -4.17900 26.38500
C  19.84200 -6.68300 28.66500
C  19.33300 -6.35000 25.50100
O  19.20900 -6.00500 24.33200
C  19.91000 -7.73700 25.76000
N  16.50800 -1.58800 25.74200
C  17.20100 -2.31300 24.84700
C  17.00300 -1.72600 23.34400
C  16.02500 -0.55600 23.64200
C  15.89700 -0.56300 25.14000
C  18.39400 -1.53700 22.78100
C  14.64200 -0.59600 22.80100
C  13.32400 -0.60300 23.61000
N  15.80300 -0.20200 28.09400
C  15.16700 0.66500 27.19400
C  14.55400 1.82600 27.87000
C  14.95500 1.59400 29.22100
C  15.68700 0.35700 29.29100
C  13.94300 3.13700 27.19500
C  14.98200 2.24000 30.45100
O  14.60800 3.38400 30.76600
C  15.69100 1.26400 31.51400
C  16.90000 1.91900 32.00700
O  18.00600 1.95200 31.61500
O  16.40500 2.65900 33.09500
C  17.47200 3.25800 33.95100
H  19.05900 -4.87500 30.55000
H  18.22100 -3.98100 24.20800
H  14.72500 1.28100 25.26200
H  17.84900 -0.60000 32.73500
H  17.79000 -3.57000 32.76700
H  19.94700 -3.41300 33.27100
H  19.84900 -1.74900 33.08400
H  20.36100 -2.72800 31.66200
H  15.83300 -2.86500 33.36600
H  15.11200 -1.41000 33.23200
H  16.32400 -2.49500 35.46400
H  15.54200 -0.99900 35.13400
H  20.93000 -6.63100 28.64600
H  19.51200 -7.68800 28.40000
H  19.76200 -6.63800 29.75100
H  20.79800 -7.77200 26.39100
H  20.17300 -8.07800 24.75800
H  19.13300 -8.42900 26.08400
H  16.40200 -2.41400 22.74900
H  16.48400 0.38500 23.33900
H  19.22800 -1.88300 23.39200
H  18.59700 -0.47200 22.67300
H  18.43300 -2.16000 21.88800
H  14.68800 -1.40400 22.07100
H  14.69800 0.28100 22.15600
H  12.54300 -0.90900 22.91500
H  12.96000 0.37000 23.94100
H  13.36400 -1.38300 24.37100
H  14.31500 3.06000 26.17300
H  14.29600 4.09600 27.57300
H  12.86100 3.00900 27.17700
H  14.93900 1.03800 32.27000
H  18.48400 3.03700 33.61000
H  17.35200 2.97800 34.99800
H  17.25400 4.32100 33.85700

