158

Mg 48.56100 35.02900 28.09900
C  46.49900 33.72500 30.71200
C  48.39700 38.05300 29.87600
C  49.85000 36.43500 25.40300
C  47.70400 32.16100 26.29100
N  47.49600 35.73900 30.01500
C  46.94300 34.96400 30.97800
C  46.92400 35.64100 32.35000
C  46.95100 37.11100 31.88100
C  47.71300 36.98000 30.55200
C  45.57200 37.84900 32.02600
C  48.21600 35.19700 33.18300
C  47.96500 34.87400 34.65600
H  47.50500 36.00000 35.60300
N  49.13800 37.00400 27.68500
C  49.00800 38.07600 28.59100
C  49.77600 39.10200 28.08500
C  50.15200 38.76900 26.73600
C  49.69600 37.38100 26.49200
C  50.23200 40.38700 28.90800
C  50.97600 39.45400 25.60900
O  51.16100 38.87800 24.54400
C  51.29300 40.95400 25.75000
N  48.75500 34.41600 26.12800
C  49.51600 35.06600 25.24300
C  49.74400 34.22600 23.95600
C  49.04500 32.88000 24.25400
C  48.41300 33.14800 25.62300
C  49.44300 34.94500 22.66700
C  49.91600 31.67300 24.25500
C  51.05400 31.76900 25.33900
N  47.27100 33.26500 28.40700
C  47.08100 32.18800 27.57100
C  46.31200 31.25600 28.26000
C  45.99900 31.79200 29.54100
C  46.62500 33.06300 29.51400
C  45.89500 29.95600 27.67800
C  45.33200 31.57000 30.74400
O  44.72100 30.58800 31.09900
C  45.63800 32.85900 31.57400
C  46.11700 32.31600 32.85600
O  47.21200 31.86900 33.10000
O  45.06100 32.30400 33.77400
C  45.21300 31.30700 34.86100
H  48.33800 39.01700 30.38400
H  50.26100 36.88600 24.49700
H  47.50900 31.26600 25.69600
H  45.99500 35.44000 32.88400
H  47.54700 37.65000 32.61700
H  45.43200 38.52100 31.18000
H  45.45200 38.32200 33.00100
H  44.68300 37.23400 31.88600
H  49.04700 35.89200 33.06700
H  48.51700 34.24300 32.75100
H  48.82600 34.29800 34.99500
H  47.13800 34.17000 34.75500
H  49.98100 40.43300 29.96700
H  49.98300 41.31900 28.40000
H  51.31900 40.40900 28.82800
H  51.84400 41.17100 26.66500
H  50.30000 41.39500 25.84000
H  51.95200 41.28400 24.94700
H  50.82200 34.16400 23.80900
H  48.31300 32.70800 23.46500
H  49.16500 35.96200 22.94700
H  48.55400 34.54800 22.17900
H  50.29300 34.94000 21.98500
H  50.39900 31.57700 23.28300
H  49.41400 30.75400 24.55500
H  50.85100 32.46000 26.15800
H  52.01500 31.94400 24.85500
H  51.14400 30.83500 25.89300
H  46.68800 29.49600 27.08800
H  44.97700 30.19700 27.14000
H  45.79300 29.31300 28.55100
H  44.70800 33.40300 31.73900
H  45.43400 30.35500 34.38000
H  44.24600 31.27800 35.36300
H  45.96900 31.40600 35.64000
Mg 42.79000 41.61500 26.02300
C  42.10600 43.77700 28.67500
C  44.36000 39.62800 28.33700
C  43.81000 39.68100 23.51100
C  41.53100 43.95700 23.86700
N  43.02400 41.65800 28.25700
C  42.57600 42.52600 29.12700
C  42.89300 42.22400 30.57900
C  44.03100 41.14200 30.42400
C  43.83300 40.75300 28.90200
C  45.40500 41.55400 30.86000
C  41.58700 41.66600 31.23200
C  41.06800 42.46800 32.42700
H  41.78400 42.40300 33.66300
N  43.80000 39.82600 25.90600
C  44.33200 39.15500 26.95500
C  44.91000 37.95200 26.47700
C  44.82400 37.94800 25.05900
C  44.18100 39.20400 24.77300
C  45.48400 36.93700 27.39700
C  45.25400 36.98800 24.02600
O  45.31500 37.27200 22.80700
C  45.46200 35.55600 24.36900
N  42.71400 41.79500 24.02400
C  43.12200 40.85800 23.16300
C  42.81300 41.31900 21.75800
C  41.92100 42.61300 21.86700
C  42.02400 42.78900 23.34900
C  44.01600 41.45100 20.79400
C  40.41700 42.45200 21.32500
C  39.43600 41.53000 22.14000
N  42.01700 43.47200 26.17900
C  41.59900 44.34900 25.18900
C  41.33600 45.62100 25.77000
C  41.40300 45.38200 27.15800
C  41.83000 44.09800 27.34300
C  41.08800 46.96400 25.11000
C  41.18300 45.98200 28.43300
O  40.71500 47.07900 28.67500
C  41.56000 44.97100 29.51900
C  42.46000 45.63800 30.50800
O  43.62700 45.95700 30.31200
O  41.60300 46.03200 31.48700
C  42.24800 46.89100 32.49300
H  44.81200 39.06700 29.15800
H  43.87400 39.07000 22.60800
H  41.08200 44.58600 23.09500
H  43.13000 43.04900 31.25000
H  43.77800 40.23600 30.97500
H  45.44000 42.60400 31.15100
H  45.88600 41.61300 29.88400
H  45.81200 40.76200 31.48700
H  41.73200 40.59400 31.36100
H  40.88300 41.82100 30.41500
H  40.13100 42.03300 32.77700
H  40.97600 43.50600 32.10900
H  45.46400 37.08900 28.47600
H  46.50400 36.67600 27.11600
H  44.83900 36.05800 27.38900
H  45.17300 34.86000 23.58100
H  44.82400 35.39100 25.23700
H  46.47000 35.36300 24.73700
H  42.12100 40.61400 21.29700
H  42.38600 43.47100 21.38300
H  44.95000 41.12600 21.25100
H  44.19200 42.50500 20.58100
H  43.88600 41.06600 19.78300
H  40.35800 42.04400 20.31600
H  40.04600 43.47600 21.37300
H  39.79200 41.07700 23.06600
H  39.19800 40.64600 21.54900
H  38.49900 42.07900 22.22900
H  42.04500 47.18000 24.63400
H  40.96600 47.73900 25.86600
H  40.18200 46.83800 24.51800
H  40.68300 44.53700 29.99900
H  41.54700 47.65600 32.82700
H  43.24700 47.22700 32.21500
H  42.53500 46.25400 33.33000

