158

Mg 0.43900 7.87900 26.30100
C  1.34900 9.74900 29.04400
C  0.36200 5.11000 28.36700
C  0.11200 5.98700 23.56000
C  1.16200 10.65700 24.34300
N  0.92600 7.44800 28.44000
C  1.10400 8.43600 29.40300
C  1.09400 7.80900 30.78700
C  1.18500 6.27000 30.58100
C  0.85200 6.25900 29.00400
C  2.60400 5.63200 30.81700
C  -0.23000 8.20500 31.55300
C  -0.35200 7.90600 33.04100
H  0.85500 7.28300 33.77600
N  0.07000 5.84500 26.03800
C  -0.01300 4.90200 26.98900
C  -0.46300 3.68600 26.37400
C  -0.65300 3.97700 24.94800
C  -0.15200 5.29800 24.78300
C  -0.71500 2.39000 27.06400
C  -1.28800 3.09600 23.85100
O  -1.41300 3.44800 22.66100
C  -1.81700 1.77300 24.13300
N  0.67800 8.26400 24.26300
C  0.47600 7.29500 23.32100
C  0.75700 7.80500 21.85300
C  1.09100 9.30700 22.12300
C  1.02400 9.42700 23.69700
C  1.81800 7.01300 21.03400
C  0.19900 10.38600 21.35800
C  -1.24100 10.36100 21.72600
N  1.11300 9.84000 26.58400
C  1.15700 10.92200 25.66200
C  1.36900 12.20000 26.36800
C  1.53500 11.70400 27.73300
C  1.26600 10.35400 27.75400
C  1.51500 13.57100 25.78400
C  1.78000 12.15100 29.04100
O  1.88600 13.36500 29.37600
C  1.58500 10.93700 29.96100
C  2.86900 10.97000 30.77900
O  3.83600 10.17000 30.62500
O  2.66600 11.81500 31.85700
C  3.58500 11.53300 32.99800
H  0.30400 4.19900 28.96600
H  0.03700 5.38300 22.65300
H  1.54600 11.50600 23.77400
H  1.93500 8.24200 31.32700
H  0.42000 5.69900 31.10700
H  3.16100 5.29800 29.94200
H  2.42000 4.70800 31.36400
H  3.18400 6.22200 31.52600
H  -1.07400 7.60300 31.21700
H  -0.53600 9.24000 31.39700
H  -1.16200 7.21100 33.25800
H  -0.60000 8.83700 33.55100
H  -1.77600 2.25300 27.27200
H  -0.22300 2.35500 28.03700
H  -0.31000 1.56600 26.47600
H  -0.91000 1.17300 24.20900
H  -2.24200 1.33200 23.23200
H  -2.45800 1.62900 25.00300
H  -0.21900 7.71600 21.37800
H  2.12200 9.55800 21.87200
H  2.60000 7.71600 20.75000
H  1.44100 6.52400 20.13600
H  2.31000 6.17100 21.52200
H  0.53600 10.42900 20.32200
H  0.49600 11.37500 21.70800
H  -1.57300 11.39200 21.84100
H  -1.37600 9.83500 22.67100
H  -1.86800 9.97600 20.92200
H  1.79700 14.29500 26.54900
H  0.61600 13.83700 25.22700
H  2.31500 13.61700 25.04500
H  0.70900 11.05200 30.60000
H  4.22000 12.40300 32.83300
H  4.16400 10.60900 32.98200
H  2.98700 11.69800 33.89400
Mg 35.30000 2.89700 28.85000
C  33.59500 4.22000 31.65800
C  38.07600 2.68000 30.74900
C  37.12700 2.30600 26.07100
C  32.60600 3.75200 26.96700
N  35.70500 3.44100 30.98900
C  34.92700 3.78400 32.00300
C  35.62400 3.74300 33.41700
C  37.08700 3.45500 33.00800
C  36.95800 3.14000 31.43200
C  38.09700 4.59800 33.15100
C  34.93400 2.69900 34.38500
C  34.41900 3.22800 35.77500
H  34.92300 4.61600 36.37000
N  37.32600 2.49800 28.46800
C  38.26700 2.31600 29.40900
C  39.46200 1.87400 28.81600
C  39.27900 1.86600 27.41600
C  37.88800 2.17800 27.26500
C  40.67600 1.42100 29.60600
C  40.24800 1.50100 26.34900
O  39.90900 1.58100 25.13700
C  41.70000 1.15500 26.54700
N  34.82900 2.88500 26.83600
C  35.77800 2.46300 25.91600
C  35.20200 2.55200 24.54100
C  33.67300 2.93500 24.70000
C  33.69500 3.30100 26.21300
C  35.96700 3.28000 23.44400
C  32.68600 1.74200 24.28900
C  31.50200 2.19500 23.32700
N  33.51100 3.72100 29.22200
C  32.45900 3.88300 28.31700
C  31.24700 4.18300 28.98500
C  31.57100 4.32200 30.34900
C  33.01800 4.10300 30.41900
C  29.83300 4.38100 28.35300
C  31.05200 4.60500 31.70000
O  29.93800 4.85700 32.16500
C  32.38300 4.54100 32.58200
C  32.48800 5.81900 33.41400
O  33.09300 6.84300 33.12200
O  31.78900 5.59600 34.59900
C  31.49200 6.81900 35.27400
H  38.94900 2.67700 31.40500
H  37.67300 2.08000 25.15200
H  31.73700 4.00600 26.35600
H  35.47500 4.73200 33.85000
H  37.53000 2.61300 33.54100
H  38.99400 4.16600 33.59300
H  37.66600 5.37000 33.78800
H  38.24900 5.10200 32.19600
H  35.76300 2.00200 34.50400
H  34.15500 2.23800 33.77800
H  34.80000 2.44300 36.42800
H  33.33000 3.23400 35.72400
H  40.51800 1.44600 30.68400
H  41.58600 1.98700 29.40500
H  40.92400 0.40400 29.30300
H  41.73500 0.27900 27.19400
H  42.16300 1.99800 27.06000
H  42.21100 0.86800 25.62800
H  35.16800 1.49600 24.27300
H  33.43300 3.76900 24.04000
H  37.01500 3.52600 23.61000
H  35.55500 4.28500 23.34700
H  35.83200 2.71500 22.52100
H  32.26600 1.35600 25.21800
H  33.10300 0.88000 23.76800
H  30.62800 2.36200 23.95600
H  31.24200 1.50900 22.52100
H  31.61900 3.18200 22.87900
H  29.23200 3.55800 28.74100
H  29.68800 4.39900 27.27300
H  29.35800 5.32200 28.63000
H  32.22800 3.70900 33.26800
H  32.40200 7.40300 35.41000
H  31.04900 6.59700 36.24500
H  30.74900 7.37200 34.70000

