158

Mg 40.98000 9.39800 29.83500
C  42.92600 10.31400 32.57000
C  38.57800 8.41400 32.00800
C  39.23200 8.23800 27.33100
C  43.71700 10.07300 27.72200
N  40.87500 9.10500 32.05200
C  41.69000 9.75600 32.92500
C  41.02900 9.86900 34.33800
C  39.76900 8.89600 34.13600
C  39.69400 8.69600 32.66300
C  39.87700 7.58200 34.95800
C  40.75600 11.35700 34.77200
C  40.16000 11.50800 36.19700
H  41.13600 12.03800 37.29300
N  39.18100 8.50400 29.69000
C  38.24800 8.37500 30.65500
C  37.00500 7.75700 30.16600
C  37.35000 7.39700 28.78700
C  38.65100 8.04300 28.54100
C  35.89700 7.45400 31.03600
C  36.60400 6.59500 27.79900
O  37.02700 6.31300 26.68600
C  35.19700 5.91900 28.21100
N  41.37900 9.31800 27.73500
C  40.49200 8.71600 26.91600
C  41.10000 8.75900 25.39300
C  42.52900 9.22500 25.61500
C  42.58000 9.55900 27.11900
C  41.04200 7.35200 24.65800
C  42.98300 10.31600 24.54900
C  42.69700 11.72800 24.98800
N  42.96300 10.08900 30.05200
C  43.95000 10.33500 29.11000
C  45.13300 10.85000 29.77700
C  44.78400 10.89300 31.14400
C  43.44300 10.38900 31.21900
C  46.33200 11.44600 29.17700
C  45.18800 11.33400 32.42700
O  46.19400 11.94900 32.72600
C  44.05500 10.98700 33.35600
C  44.66000 10.07500 34.31900
O  44.75100 8.86700 34.14100
O  45.06800 10.78400 35.38300
C  45.72100 9.90600 36.37800
H  37.73800 8.17500 32.66300
H  38.89000 7.71300 26.43600
H  44.56700 10.20900 27.05000
H  41.69600 9.39800 35.06000
H  38.90100 9.52200 34.34600
H  39.89500 6.84500 34.15400
H  38.97400 7.58400 35.56800
H  40.74500 7.55200 35.61700
H  40.07700 11.76800 34.02500
H  41.64400 11.95900 34.57700
H  39.88600 10.48500 36.45700
H  39.34900 12.22800 36.08600
H  35.79200 8.20800 31.81700
H  35.88600 6.47000 31.50500
H  35.01700 7.58500 30.40600
H  35.37800 5.30700 29.09400
H  34.85600 5.22400 27.44300
H  34.40500 6.66500 28.13800
H  40.45800 9.47500 24.88000
H  43.26200 8.42000 25.57100
H  40.62300 6.58400 25.31000
H  41.96200 7.01500 24.18100
H  40.36800 7.44600 23.80700
H  42.56500 10.02700 23.58500
H  44.05100 10.26500 24.33500
H  41.75300 11.72600 25.53200
H  42.63900 12.40600 24.13700
H  43.50900 12.10100 25.61300
H  45.99500 11.93300 28.26200
H  46.97400 10.58700 28.97900
H  46.75700 12.21900 29.81700
H  43.73700 11.89300 33.87200
H  46.64700 9.45700 36.02000
H  45.03800 9.14500 36.75700
H  46.01000 10.55300 37.20600
Mg 5.97700 53.19300 39.64500
C  5.35500 49.71200 39.59300
C  9.24000 52.55500 39.21400
C  6.41400 56.54900 39.14100
C  2.47800 53.71800 39.76600
N  7.15200 51.30400 39.12700
C  6.71800 50.05800 39.38400
C  7.93900 49.08100 39.35200
C  9.12300 50.02600 39.59400
C  8.51000 51.36500 39.26400
C  9.71800 49.92500 41.03100
C  7.98900 48.19600 38.00700
C  7.95800 49.02700 36.70400
H  6.61700 48.91800 35.88600
N  7.56000 54.29100 39.21000
C  8.86800 53.88900 39.14800
C  9.75500 54.94900 38.79500
C  8.99400 56.11000 38.89200
C  7.55400 55.70700 39.10400
C  11.16400 54.75900 38.53700
C  9.53600 57.55900 38.75300
O  10.74500 57.83900 38.48500
C  8.75600 58.72500 39.27300
N  4.58000 54.94900 39.30400
C  5.03400 56.18900 39.30300
C  3.94400 57.19000 39.64500
C  2.63800 56.33300 39.61200
C  3.24700 54.88500 39.53100
C  4.20900 57.92700 41.00900
C  1.74500 56.65800 38.34300
C  0.39400 57.23400 38.72600
N  4.28000 52.05000 39.74800
C  2.90200 52.42000 39.97600
C  2.16100 51.27600 40.41700
C  3.06500 50.18600 40.27200
C  4.30800 50.70800 39.84100
C  0.70900 51.22100 40.86600
C  3.27700 48.74400 40.37700
O  2.44300 47.90600 40.70800
C  4.72300 48.35400 39.87800
C  4.47300 47.61100 38.60800
O  3.82200 48.06400 37.70700
O  5.04900 46.38400 38.64900
C  4.33700 45.41100 37.78900
H  10.32600 52.46700 39.27900
H  6.42000 57.64000 39.19600
H  1.41000 53.91200 39.88600
H  7.86100 48.34600 40.15200
H  9.91900 49.69200 38.92800
H  9.28100 49.11900 41.62000
H  9.59800 50.86200 41.57600
H  10.72200 49.51100 40.94200
H  7.15100 47.50000 37.95900
H  8.90600 47.61100 38.08400
H  8.81500 48.63200 36.15900
H  8.25400 50.05100 36.93000
H  11.38700 55.47300 37.74400
H  11.29500 53.77200 38.09300
H  11.79300 54.75200 39.42700
H  9.38900 59.60200 39.40800
H  8.14000 58.54200 40.15300
H  8.09000 59.21100 38.56100
H  4.04400 57.97700 38.89700
H  2.11800 56.39000 40.56800
H  3.83500 57.39000 41.88000
H  3.89600 58.97100 40.97800
H  5.26200 57.86000 41.28300
H  1.53200 55.82600 37.67200
H  2.20100 57.35000 37.63500
H  0.48500 58.13300 39.33600
H  -0.14600 56.43300 39.23200
H  -0.14200 57.46600 37.80600
H  0.60200 50.60400 41.75900
H  0.13100 50.70100 40.10200
H  0.23900 52.15100 41.18700
H  5.10700 47.66200 40.62800
H  3.26400 45.46900 37.97700
H  4.74700 44.42500 38.00900
H  4.53600 45.72200 36.76400

