158

Mg 36.10100 2.79500 30.22200
C  33.65500 3.89400 32.45300
C  38.44900 3.16300 32.86800
C  38.52600 2.02800 28.06800
C  33.78300 2.99600 27.63100
N  36.06200 3.47700 32.40100
C  34.92200 3.75100 33.06800
C  35.15100 3.62200 34.59700
C  36.68000 3.87000 34.66100
C  37.13000 3.47800 33.23500
C  37.12800 5.36300 35.00800
C  34.59600 2.32900 35.24100
C  33.97000 2.41200 36.60600
H  34.62500 3.37200 37.60400
N  38.15600 2.57600 30.42300
C  38.91900 2.76700 31.58900
C  40.31900 2.37200 31.29000
C  40.33100 1.91300 29.91100
C  38.98100 2.19100 29.38400
C  41.43900 2.35100 32.28100
C  41.45400 1.33200 29.09800
O  41.40600 1.15800 27.85500
C  42.78000 1.12500 29.73400
N  36.25900 2.91200 28.14000
C  37.33100 2.37200 27.47700
C  37.07400 2.12200 25.95200
C  35.51300 2.43400 25.85800
C  35.16900 2.84100 27.28100
C  37.91700 3.02200 24.98400
C  34.65000 1.24700 25.39100
C  33.85100 1.37000 24.01000
N  34.17200 3.26000 30.00700
C  33.33700 3.32500 28.89500
C  32.04400 3.70300 29.28300
C  32.10200 3.90600 30.64900
C  33.41600 3.60500 31.03900
C  30.80900 3.85900 28.46600
C  31.28200 4.38300 31.76700
O  30.15000 4.88500 31.82300
C  32.26500 4.13500 33.05700
C  32.20900 5.35400 34.01000
O  32.54400 6.48900 33.74900
O  31.72800 4.93800 35.22500
C  31.47800 5.94900 36.21900
H  39.06900 2.91900 33.73300
H  39.36700 1.62600 27.49800
H  32.99900 3.06200 26.87500
H  34.58000 4.46900 34.97600
H  37.09300 3.18400 35.40000
H  37.85800 5.77400 34.31000
H  37.69100 5.36000 35.94100
H  36.22100 5.96000 34.91500
H  35.42300 1.62800 35.36000
H  33.87300 2.00100 34.49400
H  34.02000 1.43600 37.08800
H  32.91200 2.67400 36.56100
H  42.41700 2.59900 31.86800
H  41.47100 1.39700 32.80600
H  41.21700 3.20100 32.92700
H  43.26100 2.07600 29.96300
H  43.38900 0.58800 29.00700
H  42.63100 0.58100 30.66600
H  37.33600 1.07400 25.81200
H  35.32800 3.27600 25.19200
H  38.12900 3.92100 25.56300
H  37.22100 3.22400 24.17000
H  38.76900 2.43700 24.64000
H  33.93500 0.94700 26.15600
H  35.33000 0.41200 25.22100
H  32.83700 1.70800 24.22400
H  33.91600 0.45300 23.42500
H  34.31100 2.13300 23.38200
H  29.95800 3.76600 29.14000
H  30.70900 3.11700 27.67400
H  30.73800 4.81600 27.94800
H  31.99200 3.20000 33.54500
H  32.26900 5.91000 36.96800
H  30.52500 5.75300 36.71100
H  31.44000 6.95800 35.80900
Mg -5.71300 25.61900 26.16300
C  -4.78800 27.20800 29.22400
C  -7.67800 23.61900 27.96600
C  -6.44700 24.11000 23.37600
C  -3.35400 27.64000 24.55300
N  -6.11200 25.45200 28.29900
C  -5.69100 26.17800 29.37600
C  -6.37400 25.73900 30.65900
C  -7.05600 24.34300 30.32600
C  -6.92600 24.40700 28.71900
C  -6.41600 23.12300 30.93600
C  -7.35800 26.68700 31.34700
C  -7.09800 26.97800 32.84200
H  -6.49000 25.92200 33.74900
N  -6.90700 24.05300 25.71300
C  -7.76300 23.43200 26.58400
C  -8.74400 22.56100 25.87900
C  -8.28100 22.68700 24.53900
C  -7.17400 23.63200 24.48200
C  -10.06400 21.96500 26.42500
C  -8.81500 21.99800 23.31700
O  -8.36700 22.23800 22.16900
C  -10.06500 21.13400 23.40300
N  -4.92400 25.79400 24.30200
C  -5.42600 25.08800 23.26700
C  -4.68200 25.30600 21.96900
C  -3.58200 26.43700 22.30000
C  -3.92100 26.63000 23.83600
C  -4.12000 24.03600 21.37600
C  -3.79600 27.69700 21.34800
C  -3.13300 27.46900 19.96900
N  -4.32900 27.14000 26.64600
C  -3.44400 27.94100 25.88900
C  -2.92700 28.97500 26.73900
C  -3.39200 28.77300 28.08300
C  -4.23600 27.61900 28.02000
C  -1.98000 30.12400 26.30100
C  -3.29000 29.14200 29.51500
O  -2.54800 29.99300 30.02400
C  -4.25800 28.25500 30.26300
C  -3.41200 27.65800 31.37400
O  -2.48300 26.87000 31.19200
O  -3.85100 28.10900 32.60000
C  -2.91700 27.75700 33.68400
H  -8.33500 22.92800 28.49800
H  -6.63400 23.74400 22.36400
H  -2.67100 28.38900 24.14700
H  -5.55800 25.69100 31.38000
H  -8.10000 24.22000 30.61300
H  -6.28700 22.46800 30.07400
H  -7.13100 22.80100 31.69300
H  -5.42700 23.26100 31.37300
H  -8.36700 26.28900 31.23700
H  -7.27900 27.56500 30.70600
H  -8.04200 27.27800 33.29800
H  -6.43700 27.83300 32.98300
H  -10.96900 22.35400 25.95800
H  -10.31900 22.21400 27.45500
H  -9.99700 20.87800 26.44800
H  -9.82400 20.43700 24.20600
H  -10.21600 20.64500 22.44100
H  -11.02600 21.52500 23.73500
H  -5.43400 25.84200 21.39000
H  -2.61600 25.93400 22.25000
H  -3.07400 24.26000 21.16400
H  -4.61600 23.74400 20.45000
H  -4.19500 23.19100 22.05900
H  -3.44300 28.57600 21.88600
H  -4.86000 27.89200 21.21500
H  -3.36500 28.38800 19.43000
H  -3.69600 26.64000 19.54200
H  -2.04900 27.37500 19.89800
H  -2.12600 30.32100 25.23900
H  -1.00000 29.65000 26.34900
H  -2.02700 30.99700 26.95200
H  -5.06000 28.91600 30.59400
H  -2.39900 26.80000 33.62000
H  -3.45300 27.91500 34.62000
H  -2.12500 28.50500 33.66000

