158

Mg 26.45400 50.09700 26.44800
C  24.66200 51.56500 29.03300
C  28.90100 49.15000 28.62700
C  28.25000 49.12200 23.79400
C  24.28600 51.84900 24.25200
N  26.77900 50.33600 28.55200
C  25.80700 50.86400 29.44200
C  26.28100 50.58500 30.88100
C  27.71800 49.94100 30.71000
C  27.84500 49.79400 29.21300
C  28.93500 50.76900 31.21700
C  25.31800 49.62600 31.64400
C  25.10100 49.94500 33.08100
H  25.97300 50.82400 33.87500
N  28.27000 49.14200 26.23400
C  29.12500 48.83600 27.24900
C  30.26400 48.11700 26.73000
C  30.02900 47.94400 25.31800
C  28.85500 48.81500 25.04600
C  31.37500 47.58300 27.63300
C  30.77000 47.17600 24.29900
O  30.65000 47.36200 23.12500
C  31.67500 46.21800 24.81400
N  26.30600 50.57200 24.30600
C  27.06500 49.76700 23.49800
C  26.63800 49.86900 22.07500
C  25.41200 50.84200 22.14400
C  25.27200 51.16000 23.63600
C  27.74300 50.26700 21.01200
C  24.16500 50.05900 21.68800
C  23.09900 50.87500 20.80100
N  24.77200 51.26300 26.59200
C  24.03800 51.96800 25.64600
C  22.95900 52.74500 26.32100
C  23.12700 52.55200 27.63500
C  24.27300 51.78400 27.74900
C  21.86600 53.52300 25.61200
C  22.60800 52.82600 28.95500
O  21.66000 53.57700 29.23800
C  23.59900 52.11200 30.03400
C  23.99600 53.25900 30.94700
O  24.87400 54.06900 30.73800
O  23.21200 53.26100 32.11500
C  23.74200 54.22100 33.13300
H  29.61500 48.86900 29.40400
H  28.77600 48.75500 22.91000
H  23.60200 52.31700 23.54200
H  26.30300 51.56400 31.35900
H  27.80000 49.05300 31.33700
H  29.53100 51.12900 30.37800
H  29.46500 50.09500 31.88900
H  28.64400 51.68100 31.73900
H  25.64000 48.58500 31.66000
H  24.28300 49.58100 31.30800
H  24.81800 49.05400 33.64100
H  24.15100 50.47700 33.10600
H  31.41000 48.03200 28.62600
H  32.33000 48.04400 27.38100
H  31.31800 46.49500 27.67300
H  31.16800 45.52200 25.48300
H  32.56800 46.67200 25.24300
H  32.02700 45.58800 23.99800
H  26.34000 48.85900 21.79400
H  25.54700 51.75500 21.56400
H  28.47300 50.96700 21.41800
H  27.26100 50.65900 20.11600
H  28.38300 49.41400 20.79000
H  23.86000 49.49500 22.57000
H  24.42200 49.28100 20.96800
H  23.65600 51.72700 20.41100
H  22.22600 51.07900 21.42100
H  22.78300 50.33900 19.90600
H  21.85200 53.44500 24.52500
H  22.04400 54.57700 25.82700
H  20.91100 53.11400 25.94000
H  23.09100 51.26000 30.48700
H  24.70900 53.95000 33.55800
H  23.10200 54.24000 34.01500
H  23.80600 55.21500 32.69200
Mg 16.76800 52.68800 26.71900
C  18.62400 51.00000 29.02600
C  14.28100 53.34200 29.04700
C  14.70500 53.94200 24.29400
C  18.95200 51.70600 24.22100
N  16.44300 52.12100 28.74900
C  17.42900 51.53000 29.55500
C  17.06900 51.73600 31.04000
C  15.56800 52.14400 30.96300
C  15.36400 52.57400 29.45800
C  14.61000 51.07100 31.37300
C  18.00800 52.66600 31.93700
C  18.34400 52.30700 33.36500
H  17.24300 51.69600 34.23400
N  14.75400 53.69400 26.72500
C  13.90000 53.87000 27.77200
C  12.70200 54.59200 27.39600
C  12.86000 54.79700 25.97600
C  14.17600 54.14100 25.55700
C  11.52800 54.82600 28.30500
C  11.96400 55.46800 24.97200
O  12.28900 55.65800 23.83700
C  10.74600 56.09600 25.46400
N  16.94000 53.00300 24.65400
C  15.94200 53.45800 23.84300
C  16.26700 53.29800 22.32600
C  17.72500 52.89200 22.39000
C  17.86100 52.44300 23.81700
C  15.35800 52.15400 21.72300
C  18.84000 53.96500 21.93600
C  19.48800 54.81700 23.00500
N  18.46500 51.59200 26.61200
C  19.21500 51.20200 25.45700
C  20.15500 50.26100 25.87600
C  20.00700 50.12600 27.24900
C  18.99200 51.01300 27.68900
C  21.24100 49.68100 25.02400
C  20.54800 49.59500 28.44800
O  21.55400 48.95300 28.56300
C  19.67000 50.10800 29.69400
C  19.01600 48.85000 30.40000
O  18.34500 48.02300 29.92000
O  19.22800 49.01300 31.76700
C  18.74400 47.91000 32.57200
H  13.64400 53.72300 29.84800
H  14.08200 54.41400 23.53100
H  19.56700 51.26900 23.43100
H  17.05900 50.75100 31.50800
H  15.42400 53.00300 31.61900
H  14.86600 50.81900 32.40200
H  14.79200 50.18500 30.76400
H  13.62900 51.52500 31.22700
H  17.59900 53.67500 31.98200
H  18.92100 52.60600 31.34500
H  18.74500 53.13500 33.94900
H  19.14100 51.56300 33.34500
H  10.77500 54.06000 28.11900
H  11.04200 55.78700 28.14200
H  11.86400 54.94100 29.33500
H  10.33000 56.60500 24.59500
H  10.99000 56.91900 26.13600
H  10.14100 55.27700 25.85200
H  16.08400 54.18300 21.71700
H  17.76700 51.98900 21.78100
H  14.39700 52.66800 21.74700
H  15.33200 51.29300 22.39100
H  15.62800 51.96500 20.68400
H  18.40100 54.62800 21.19100
H  19.54100 53.30400 21.42800
H  19.60300 55.83200 22.62500
H  20.43800 54.35700 23.27800
H  18.85500 54.83000 23.89300
H  20.77800 49.10100 24.22500
H  21.90400 49.00500 25.56300
H  21.71100 50.58200 24.62800
H  20.38300 50.58700 30.36500
H  17.66800 47.73700 32.55900
H  19.05100 48.17700 33.58300
H  19.15900 46.98100 32.18000

