158

Mg 41.32700 7.93200 29.51300
C  43.11400 9.73500 32.05900
C  39.07800 6.99200 31.89800
C  39.76200 6.42900 27.15900
C  44.10000 8.58500 27.42100
N  41.16300 8.30800 31.77000
C  41.91200 9.16200 32.50200
C  41.35200 9.20900 33.94300
C  40.18900 8.12100 33.95600
C  40.14600 7.71500 32.51100
C  40.33400 6.87200 34.92500
C  40.88800 10.70000 34.37100
C  40.15100 10.80700 35.79500
H  40.50000 11.88800 36.82200
N  39.60000 6.88200 29.51100
C  38.84900 6.57500 30.58600
C  37.77800 5.74000 30.17800
C  37.81800 5.78200 28.76100
C  39.07700 6.41200 28.35900
C  36.77200 5.22800 31.18400
C  36.85100 5.11000 27.75900
O  37.01500 5.27400 26.53800
C  35.64200 4.28000 28.32300
N  41.91000 7.54400 27.58000
C  41.02800 6.82300 26.81500
C  41.65800 6.47600 25.38700
C  42.94900 7.37900 25.44000
C  42.99600 7.89400 26.87400
C  41.89400 4.92100 25.19400
C  42.94700 8.58600 24.44500
C  41.83900 9.56000 24.62200
N  43.27500 8.83200 29.67600
C  44.26000 9.05600 28.73700
C  45.42100 9.82400 29.37400
C  44.90400 10.19400 30.53700
C  43.65700 9.53500 30.74300
C  46.63800 10.38500 28.74200
C  45.25300 10.99900 31.65900
O  46.15700 11.75900 31.92500
C  44.09400 10.77100 32.68700
C  44.67500 10.27600 33.98900
O  45.16100 9.23400 34.11100
O  44.56500 11.22500 34.95000
C  45.25100 11.02700 36.23100
H  38.33300 6.87500 32.68800
H  39.24800 5.89100 26.35900
H  44.87800 8.91500 26.72900
H  42.22900 8.87100 34.49300
H  39.23400 8.62100 34.11300
H  41.37300 6.75800 35.23100
H  40.17200 5.97100 34.33300
H  39.58700 6.88600 35.71900
H  40.24000 11.04400 33.56500
H  41.74700 11.37100 34.40600
H  40.40000 9.87100 36.29500
H  39.07000 10.85000 35.66300
H  36.57100 4.17800 30.96900
H  35.89500 5.87200 31.12700
H  37.11200 5.26300 32.22000
H  35.05700 4.93600 28.96900
H  36.02500 3.46400 28.93400
H  34.97300 3.97500 27.51700
H  40.89100 6.77000 24.67100
H  43.90000 6.85000 25.38900
H  41.32700 4.39900 25.96500
H  42.91000 4.64900 25.48300
H  41.68500 4.45100 24.23300
H  42.94500 8.03200 23.50600
H  43.86800 9.16900 24.40900
H  41.16500 9.40200 25.46400
H  41.33500 9.55000 23.65600
H  42.20500 10.57500 24.77800
H  46.45500 11.30600 28.18800
H  46.95500 9.58600 28.07200
H  47.34800 10.56600 29.54900
H  43.62500 11.69700 33.02200
H  44.52400 10.66100 36.95500
H  45.77800 11.93500 36.52400
H  46.09300 10.33400 36.20700
Mg -10.72000 39.81500 43.83800
C  -9.61700 36.81100 42.40200
C  -8.10400 41.46700 42.05500
C  -12.23200 42.76600 44.54500
C  -13.57200 38.10000 44.80500
N  -9.05600 39.21200 42.43600
C  -8.84600 37.92200 41.99100
C  -7.62600 37.86800 40.98000
C  -7.07900 39.32100 41.18700
C  -8.11200 40.07700 41.95200
C  -5.65200 39.57300 41.65200
C  -7.94500 37.41700 39.52100
C  -7.19400 36.16400 39.08400
H  -6.01700 36.38200 37.97600
N  -10.19900 41.86300 43.44100
C  -9.13700 42.31200 42.59800
C  -9.21000 43.68700 42.57900
C  -10.38700 44.13100 43.34300
C  -11.00800 42.87800 43.85100
C  -8.26000 44.60100 41.78700
C  -10.68800 45.53600 43.60800
O  -10.04700 46.37900 43.04000
C  -11.70200 45.94500 44.69200
N  -12.61800 40.34300 44.64400
C  -13.01100 41.62100 44.75100
C  -14.55700 41.71900 45.13500
C  -14.92400 40.26500 45.36800
C  -13.65900 39.48800 44.93000
C  -14.80900 42.71800 46.34800
C  -16.16200 39.84500 44.57200
C  -17.05300 38.92900 45.33500
N  -11.46300 37.80900 43.72900
C  -12.61600 37.29000 44.17100
C  -12.65500 35.87200 44.07600
C  -11.48800 35.61400 43.39600
C  -10.80000 36.85100 43.17400
C  -13.56600 34.82800 44.57600
C  -10.67600 34.62000 42.72100
O  -10.79800 33.37100 42.65500
C  -9.39500 35.33900 41.99600
C  -8.24000 34.80400 42.75500
O  -7.75800 35.32700 43.72300
O  -7.74300 33.77900 42.06200
C  -6.53400 33.11900 42.57100
H  -7.35900 42.09600 41.56300
H  -12.87600 43.64800 44.52900
H  -14.52700 37.66900 45.11300
H  -6.96200 37.12900 41.42700
H  -6.89600 39.78900 40.22000
H  -4.99800 38.70300 41.70900
H  -5.68000 39.93200 42.68100
H  -5.15100 40.31100 41.02600
H  -7.57600 38.20800 38.86700
H  -9.01100 37.25500 39.36400
H  -7.99500 35.54000 38.68600
H  -6.81200 35.62200 39.94900
H  -8.83500 44.85300 40.89600
H  -7.45800 43.99300 41.37000
H  -7.98800 45.53300 42.28300
H  -12.71100 45.78100 44.31600
H  -11.50500 46.97600 44.98700
H  -11.62200 45.24600 45.52500
H  -15.00900 42.10700 44.22200
H  -15.01200 40.10300 46.44300
H  -15.26300 42.23000 47.21100
H  -15.44600 43.55900 46.07700
H  -13.81900 43.04300 46.66900
H  -15.94900 39.34100 43.62900
H  -16.73600 40.76900 44.50800
H  -17.07500 37.93700 44.88400
H  -18.06300 39.33000 45.25100
H  -16.78300 38.96300 46.39100
H  -13.95900 35.22900 45.51000
H  -13.06100 33.91900 44.90200
H  -14.29600 34.66100 43.78400
H  -9.27300 35.11200 40.93600
H  -5.66600 33.77100 42.66500
H  -6.39800 32.43900 41.72900
H  -6.69700 32.66600 43.54900

