158

Mg 43.97400 5.76000 46.38000
C  41.98200 8.81900 46.08500
C  41.12000 4.05700 45.53300
C  45.93100 3.25800 46.00700
C  46.79000 7.98400 46.53700
N  41.78000 6.39900 46.01300
C  41.17200 7.68400 45.86400
C  39.69100 7.59000 45.54200
C  39.40100 6.05300 45.55200
C  40.86100 5.42300 45.75500
C  38.34400 5.62000 46.62800
C  39.39200 8.29300 44.18800
C  40.46300 8.03700 43.05800
H  40.09800 8.17000 41.57300
N  43.61700 3.87200 46.00900
C  42.35600 3.30300 45.64000
C  42.49100 1.87800 45.53100
C  43.88800 1.57300 45.73800
C  44.60900 2.91700 45.95700
C  41.38700 0.95100 45.02000
C  44.56800 0.18100 45.58900
O  43.95200 -0.78300 45.21500
C  45.90000 -0.08800 46.03100
N  46.14300 5.67800 46.32200
C  46.64000 4.45700 46.24100
C  48.14900 4.50800 46.35300
C  48.43600 6.07300 46.55300
C  47.04600 6.65600 46.53300
C  48.82800 3.70900 47.45500
C  49.56400 6.57400 45.61500
C  50.92300 6.91300 46.26200
N  44.35500 7.85500 46.24100
C  45.56400 8.60000 46.45900
C  45.36600 10.02200 46.47100
C  43.91400 10.16700 46.33200
C  43.37000 8.79900 46.24300
C  46.40100 11.13000 46.73800
C  42.82100 11.12300 46.36500
O  42.89400 12.34100 46.48900
C  41.51000 10.25100 46.11200
C  40.58400 10.46100 47.28400
O  40.82000 10.04000 48.39900
O  39.38300 11.10700 46.95900
C  38.34500 11.24600 47.95500
H  40.23800 3.52700 45.16800
H  46.67200 2.46300 45.90100
H  47.71200 8.56900 46.49400
H  39.06500 8.04400 46.31000
H  38.94300 5.65800 44.64500
H  38.02500 6.47400 47.22600
H  38.72800 4.82700 47.27000
H  37.43400 5.18100 46.21900
H  39.38400 9.35600 44.43200
H  38.55600 7.92200 43.59500
H  40.97100 7.09100 43.24100
H  41.12400 8.88400 43.24600
H  41.61800 0.69500 43.98600
H  40.39600 1.37300 45.18800
H  41.51600 0.03400 45.59400
H  45.98600 -1.17100 46.12100
H  46.21700 0.29800 47.00000
H  46.56100 0.24600 45.23100
H  48.47100 4.14800 45.37500
H  48.84600 6.22200 47.55200
H  48.14300 3.67600 48.30200
H  49.70900 4.26700 47.77400
H  49.13500 2.74900 47.03900
H  49.16800 7.46400 45.12700
H  49.72500 5.75100 44.91900
H  51.20800 7.96000 46.15400
H  51.73300 6.29200 45.88100
H  50.90000 6.66200 47.32200
H  46.06500 12.06800 46.29800
H  47.29100 10.84200 46.17800
H  46.63700 11.24000 47.79600
H  40.97200 10.56600 45.21800
H  38.06200 12.23700 48.31200
H  38.64800 10.75300 48.87800
H  37.36900 10.87700 47.63900
Mg 9.94500 47.66000 25.70900
C  7.96600 47.95400 28.62000
C  12.52700 48.87700 27.59200
C  11.91100 47.38900 22.97800
C  7.17400 46.84000 23.90300
N  10.10000 48.47900 27.88100
C  9.27200 48.15600 28.86100
C  9.83300 48.47300 30.22200
C  11.24700 49.15600 29.88500
C  11.36500 48.82400 28.34200
C  11.28300 50.66000 30.22800
C  10.04000 47.26100 31.13000
C  9.72100 47.60700 32.57500
H  9.69500 46.48200 33.55700
N  11.93600 48.13800 25.35300
C  12.78500 48.63100 26.22200
C  14.02600 48.75400 25.57300
C  13.98100 48.19300 24.26200
C  12.54900 47.91100 24.13200
C  15.11200 49.42900 26.39300
C  15.10600 47.92900 23.21000
O  14.86600 47.58500 22.06400
C  16.42900 48.16700 23.69400
N  9.62900 47.38900 23.65500
C  10.56100 47.19900 22.75500
C  10.06400 46.64700 21.41900
C  8.55400 46.48400 21.78100
C  8.37500 47.00500 23.22700
C  10.22900 47.52200 20.16100
C  8.02800 45.00400 21.64300
C  8.36800 44.05600 22.80900
N  7.99000 47.30100 26.16700
C  6.97800 47.05700 25.23800
C  5.72200 47.01400 26.01200
C  5.98800 47.39200 27.34600
C  7.45900 47.59400 27.32300
C  4.31400 46.76900 25.41500
C  5.51600 47.53700 28.66100
O  4.38700 47.40300 29.10000
C  6.80500 47.83500 29.55400
C  6.84500 46.59800 30.43700
O  7.07800 45.46800 30.12300
O  6.46200 46.99000 31.62300
C  5.93200 45.91500 32.48800
H  13.36700 49.14300 28.23800
H  12.57800 47.27700 22.12000
H  6.32300 46.61900 23.25600
H  9.25600 49.24400 30.73200
H  12.13100 48.62700 30.24100
H  10.38900 51.01200 30.74300
H  11.39400 51.28700 29.34300
H  12.14600 50.93300 30.83400
H  11.10600 47.04100 31.19100
H  9.47600 46.36700 30.86700
H  8.80700 48.19800 32.62900
H  10.50700 48.26100 32.95100
H  14.62300 50.25100 26.91600
H  15.77300 49.85900 25.64100
H  15.48700 48.68200 27.09200
H  16.68500 49.22500 23.63000
H  17.20700 47.70900 23.08400
H  16.41200 47.89200 24.74900
H  10.44500 45.62800 21.34300
H  7.86800 47.07100 21.17100
H  11.02300 48.25500 20.30800
H  9.40400 48.15600 19.83400
H  10.43800 46.73100 19.44100
H  8.54000 44.53000 20.80600
H  6.98500 44.89900 21.34300
H  8.78800 44.51400 23.70500
H  9.09100 43.29800 22.50700
H  7.45000 43.69200 23.27100
H  4.32700 46.96700 24.34300
H  3.54600 47.27500 26.00000
H  4.01600 45.73700 25.60100
H  6.54600 48.67900 30.19400
H  4.84300 45.91300 32.45500
H  6.22800 46.13100 33.51400
H  6.26000 44.88800 32.33100

