158

Mg 54.35100 23.73700 44.94800
C  51.90300 26.05100 43.79700
C  52.33900 21.19700 43.65200
C  56.87400 21.64400 45.46100
C  56.23200 26.59500 45.78100
N  52.42500 23.63700 43.76100
C  51.73900 24.72800 43.27000
C  50.70100 24.24100 42.28300
C  50.44200 22.77300 42.75400
C  51.78400 22.46900 43.38900
C  49.27200 22.57100 43.71800
C  51.27900 24.28500 40.85100
C  50.54800 25.15600 39.80800
H  51.42600 25.71400 38.62000
N  54.52400 21.68200 44.66900
C  53.58200 20.79100 44.21300
C  54.10600 19.48400 44.26800
C  55.38900 19.51900 44.86100
C  55.67200 20.95100 45.01900
C  53.42700 18.28400 43.60000
C  56.24600 18.35100 45.38800
O  55.81700 17.23800 45.27100
C  57.56700 18.52700 46.19300
N  56.31700 24.09400 45.28200
C  57.15200 23.05300 45.53400
C  58.58800 23.63900 45.94000
C  58.32300 25.18600 45.88800
C  56.85300 25.30600 45.69800
C  59.09500 23.17600 47.34500
C  59.12800 25.86800 44.76900
C  59.81400 27.19000 45.23900
N  54.05300 25.88300 44.99700
C  54.85900 26.84100 45.45500
C  54.10500 28.05800 45.68100
C  52.89800 27.82100 45.00500
C  52.92900 26.45900 44.56000
C  54.61000 29.23800 46.62900
C  51.66300 28.41600 44.56100
O  51.10200 29.49000 44.74300
C  50.94900 27.29400 43.78200
C  50.58200 27.84800 42.39500
O  51.38000 27.90300 41.47500
O  49.30600 28.18800 42.27600
C  48.79000 28.93800 41.09600
H  51.58800 20.44000 43.41400
H  57.76600 21.04400 45.65400
H  56.90500 27.43800 45.94700
H  49.85600 24.91800 42.41400
H  50.30600 22.10100 41.90600
H  48.56200 21.78000 43.47800
H  48.76400 23.53500 43.73700
H  49.65000 22.40000 44.72600
H  51.14900 23.30100 40.40200
H  52.34600 24.50600 40.82100
H  50.10000 25.92000 40.44300
H  49.80000 24.46200 39.42500
H  52.91100 18.56300 42.68200
H  52.69200 17.84300 44.27300
H  54.18800 17.54600 43.34700
H  57.41800 19.18700 47.04800
H  58.36100 18.93600 45.56900
H  57.83000 17.52700 46.53700
H  59.36000 23.30000 45.24900
H  58.51600 25.61100 46.87300
H  58.78700 22.13600 47.45100
H  58.68800 23.78500 48.15300
H  60.18000 23.27300 47.37900
H  58.52300 26.13700 43.90200
H  59.84300 25.20000 44.28900
H  59.22100 28.05000 44.92600
H  60.76600 27.31500 44.72200
H  59.94700 27.15400 46.32100
H  55.68500 29.40600 46.56900
H  54.37800 28.92100 47.64600
H  54.13500 30.19100 46.39800
H  50.03100 26.94200 44.25200
H  49.28600 29.88500 40.88300
H  47.70900 29.07800 41.09900
H  49.02100 28.47500 40.13600
Mg 16.23400 51.79400 26.66600
C  18.25900 50.50200 29.31800
C  13.96700 52.74100 29.09400
C  14.67700 53.52300 24.33800
C  18.39700 50.41300 24.36600
N  16.27700 51.86300 29.02300
C  17.14300 51.24400 29.83700
C  16.69900 51.25200 31.28500
C  15.17000 51.70900 31.15000
C  15.07000 52.11100 29.64800
C  14.11100 50.68300 31.67300
C  17.59300 52.21500 32.13000
C  17.79800 51.79900 33.58400
H  17.24800 52.60500 34.72600
N  14.51700 52.86300 26.68800
C  13.71500 53.15500 27.76600
C  12.60400 53.91000 27.27100
C  12.89000 54.31200 25.92800
C  14.08900 53.54600 25.55500
C  11.41700 54.26000 28.10400
C  12.19700 55.29100 25.04600
O  12.57900 55.63200 23.92300
C  10.97300 56.05600 25.56300
N  16.42900 51.90200 24.57100
C  15.67500 52.73000 23.80800
C  16.23300 52.82600 22.32900
C  17.33400 51.66900 22.36500
C  17.41200 51.28200 23.86600
C  15.05800 52.82000 21.26200
C  18.78100 52.05200 21.78000
C  19.66900 53.15700 22.45700
N  17.90400 50.55500 26.77700
C  18.66200 50.06900 25.72700
C  19.83800 49.37400 26.29100
C  19.65100 49.42400 27.65600
C  18.54400 50.26300 27.92400
C  20.95500 48.71100 25.48000
C  20.19500 49.01900 28.89600
O  21.16000 48.26500 29.04400
C  19.40100 49.68600 30.06000
C  18.78000 48.49200 30.81600
O  18.32500 47.46100 30.32500
O  18.97000 48.73600 32.21200
C  18.41600 47.67200 32.94800
H  13.27300 52.96900 29.90600
H  14.23500 54.17200 23.58000
H  19.03200 49.98700 23.58600
H  16.74100 50.20900 31.60000
H  14.98600 52.68800 31.59400
H  13.65200 51.07100 32.58300
H  14.60800 49.80200 32.08000
H  13.40900 50.47400 30.86500
H  17.15700 53.21100 32.05200
H  18.53900 52.34100 31.60500
H  18.87900 51.85000 33.71800
H  17.48600 50.77600 33.79500
H  11.70800 55.00300 28.84700
H  11.13900 53.36600 28.66300
H  10.52400 54.51500 27.53500
H  10.04300 55.50300 25.69800
H  10.75500 56.87400 24.87600
H  11.26900 56.60500 26.45600
H  16.75900 53.75600 22.11200
H  16.92000 50.81500 21.82900
H  15.34300 52.14500 20.45500
H  14.90700 53.81500 20.84300
H  14.10700 52.47000 21.66400
H  18.71000 52.28900 20.71800
H  19.39600 51.16100 21.65200
H  19.51000 54.13400 22.00200
H  20.68800 52.78400 22.34500
H  19.46000 53.19700 23.52600
H  21.57200 49.47700 25.01000
H  20.51300 48.02200 24.76100
H  21.59700 48.00200 26.00400
H  19.98100 50.31400 30.73700
H  18.61900 46.71700 32.46300
H  17.36400 47.82800 33.18700
H  19.04800 47.54800 33.82700

