158

Mg -9.82400 39.26200 40.70900
C  -8.89300 35.92500 40.59600
C  -6.72800 40.02000 39.11100
C  -10.91300 42.46000 40.03300
C  -13.01800 38.30500 41.62900
N  -8.13600 38.08500 39.77300
C  -7.99000 36.71900 39.93400
C  -6.69200 36.25000 39.23200
C  -5.79700 37.57800 39.15100
C  -6.91200 38.61900 39.32300
C  -4.64300 37.62600 40.14900
C  -7.01600 35.40700 37.92500
C  -6.80300 36.08100 36.64400
H  -7.79700 35.72300 35.45800
N  -8.89800 40.97200 39.75500
C  -7.63200 41.09500 39.31300
C  -7.37600 42.46700 38.93600
C  -8.55500 43.20100 39.09900
C  -9.54100 42.15200 39.61800
C  -6.00200 43.01400 38.64000
C  -8.72000 44.71500 38.74600
O  -7.77700 45.41800 38.29100
C  -10.00300 45.38200 39.08700
N  -11.81100 40.20500 40.62200
C  -11.91000 41.54600 40.45400
C  -13.39000 42.01000 40.65800
C  -14.07600 40.63200 41.00600
C  -12.90900 39.63800 41.22800
C  -13.75100 43.19000 41.57000
C  -15.02900 40.12300 39.87700
C  -16.22800 39.31100 40.46000
N  -10.77600 37.59800 41.21400
C  -12.00400 37.38300 41.68900
C  -12.10700 35.98600 41.99800
C  -10.92700 35.37000 41.57100
C  -10.11500 36.42600 41.16100
C  -13.27500 35.23900 42.58100
C  -10.24600 34.14900 41.42300
O  -10.60800 33.01700 41.67000
C  -8.94200 34.37900 40.73500
C  -7.70200 33.67300 41.35200
O  -7.00300 32.85400 40.72000
O  -7.60400 33.83400 42.75000
C  -6.50200 33.05700 43.39800
H  -5.68800 40.22400 38.84800
H  -11.43800 43.38600 39.79100
H  -14.03100 37.94900 41.83100
H  -6.24800 35.63800 40.01800
H  -5.36300 37.78300 38.17200
H  -4.67800 38.60200 40.63200
H  -3.69700 37.50200 39.62200
H  -4.75800 36.86000 40.91600
H  -8.05600 35.08600 37.98300
H  -6.36900 34.53000 37.94600
H  -5.81000 35.82400 36.27300
H  -6.81200 37.15700 36.82000
H  -5.21400 42.29700 38.87000
H  -5.83400 43.80300 39.37400
H  -5.89400 43.38700 37.62200
H  -10.01900 46.46900 39.17000
H  -10.26800 45.03800 40.08700
H  -10.71300 45.15400 38.29200
H  -13.60200 42.39000 39.65800
H  -14.60900 40.53700 41.95200
H  -12.94100 43.31300 42.28800
H  -14.66000 43.11700 42.16700
H  -13.84200 44.14000 41.04200
H  -14.52000 39.41100 39.22800
H  -15.39200 40.97800 39.30600
H  -17.20100 39.65900 40.11200
H  -16.30700 39.45700 41.53700
H  -16.22600 38.26400 40.15500
H  -12.97700 34.21800 42.81900
H  -14.16000 35.39000 41.96400
H  -13.58100 35.69400 43.52300
H  -8.92600 34.00100 39.71300
H  -6.55300 32.01300 43.08600
H  -6.37000 33.17400 44.47400
H  -5.52000 33.37400 43.04800
Mg 0.56000 43.70400 26.40200
C  2.46500 43.08800 29.46800
C  -2.23900 43.36100 28.29400
C  -1.03400 43.24700 23.54500
C  3.64800 43.50100 24.75700
N  0.24600 43.14000 28.62100
C  1.09000 43.10700 29.66700
C  0.30300 42.91300 30.99100
C  -1.17500 42.74800 30.42100
C  -1.03200 43.20300 29.03700
C  -1.65100 41.27300 30.45500
C  0.47300 44.02700 31.98500
C  0.54700 43.79500 33.50000
H  0.24600 42.39200 34.04600
N  -1.40700 43.46000 25.98300
C  -2.42200 43.39200 26.89400
C  -3.72300 43.40900 26.13300
C  -3.40600 43.41500 24.80300
C  -1.87000 43.26600 24.68400
C  -5.05000 43.46900 26.91300
C  -4.34000 43.43700 23.58800
O  -3.85500 43.31700 22.45500
C  -5.78200 43.50700 23.74700
N  1.19800 43.44700 24.45300
C  0.34700 43.26600 23.38500
C  1.13500 43.20900 21.99400
C  2.56000 43.45000 22.42500
C  2.50200 43.48700 23.99200
C  0.83800 41.95500 21.04100
C  3.32800 44.82000 22.04500
C  4.19900 44.77600 20.78800
N  2.62600 43.49400 26.94000
C  3.77000 43.42700 26.12800
C  4.93100 43.33500 26.95100
C  4.43900 43.15000 28.26100
C  3.06400 43.19500 28.18700
C  6.39000 43.27800 26.59200
C  4.86600 42.93800 29.64600
O  5.98500 42.86300 30.06200
C  3.58300 42.98500 30.51400
C  3.58300 41.68700 31.20300
O  3.53600 40.49400 30.81400
O  3.78300 42.01400 32.55700
C  4.21000 40.96100 33.49700
H  -3.14800 43.26700 28.89100
H  -1.59400 43.10700 22.61800
H  4.50400 43.38300 24.08900
H  0.45700 41.95200 31.48100
H  -1.90300 43.31200 31.00400
H  -0.86500 40.64100 30.86800
H  -2.03300 40.89400 29.50700
H  -2.45800 41.04900 31.15300
H  -0.29800 44.78200 31.82900
H  1.42400 44.52300 31.79400
H  -0.02800 44.57300 34.00200
H  1.55300 44.01200 33.85700
H  -5.81500 44.12500 26.49800
H  -4.91200 43.69100 27.97100
H  -5.31800 42.41700 26.81400
H  -6.28400 43.84700 22.84200
H  -5.99400 44.25500 24.51200
H  -6.10000 42.50900 24.04800
H  0.89300 44.06300 21.36200
H  3.22900 42.61400 22.22000
H  0.49600 42.30500 20.06700
H  0.03800 41.32000 21.42100
H  1.73000 41.34700 20.89000
H  3.78000 45.29400 22.91600
H  2.53500 45.55700 21.91200
H  5.14600 45.30200 20.91200
H  3.54200 45.36800 20.15100
H  4.40000 43.79100 20.36700
H  6.54500 43.89100 25.70500
H  6.62400 42.24000 26.35700
H  6.94800 43.75200 27.40000
H  3.53500 43.86500 31.15500
H  3.53000 40.12600 33.33300
H  4.02100 41.32300 34.50800
H  5.26700 40.70000 33.54200

