158

Mg 17.56400 -2.00400 27.85200
C  16.22600 0.02800 30.50100
C  19.59700 -3.40500 30.11100
C  19.13600 -3.45300 25.37700
C  15.63200 0.01700 25.65100
N  17.86100 -1.65100 30.13100
C  17.21300 -0.88300 30.94300
C  17.60100 -1.18700 32.39600
C  18.96000 -1.94100 32.19300
C  18.78200 -2.39900 30.71100
C  20.19300 -0.98700 32.51500
C  16.51000 -1.71900 33.31600
C  16.23000 -0.83400 34.50700
H  17.31400 -0.34400 35.49500
N  18.96400 -3.47600 27.77800
C  19.65200 -3.97800 28.83000
C  20.59000 -5.01000 28.41600
C  20.35300 -5.09300 26.97100
C  19.47200 -3.97700 26.64300
C  21.55900 -5.71300 29.28400
C  20.94400 -6.09500 25.95000
O  20.63700 -6.00400 24.74300
C  21.92000 -7.22600 26.35600
N  17.46400 -1.67000 25.89500
C  18.25200 -2.38500 25.05900
C  18.04700 -1.92800 23.61700
C  16.89300 -0.98600 23.65700
C  16.56400 -0.86100 25.15500
C  19.23500 -1.31000 22.78500
C  15.61600 -1.28200 22.70700
C  15.21300 -0.09700 21.87800
N  16.11700 -0.37900 27.97500
C  15.38200 0.29700 27.03000
C  14.38400 1.14600 27.65900
C  14.69200 1.11100 29.03000
C  15.77400 0.19600 29.15800
C  13.26300 1.84400 26.97300
C  14.35100 1.62500 30.29100
O  13.59400 2.48300 30.67000
C  15.29900 0.88000 31.29300
C  15.89000 1.95700 32.09400
O  16.86100 2.61200 31.75900
O  15.17600 2.03600 33.23600
C  15.56700 3.13500 34.16400
H  20.40700 -3.63200 30.80700
H  19.50800 -3.82600 24.42000
H  14.99700 0.52900 24.92400
H  17.90900 -0.23900 32.83700
H  19.00800 -2.83200 32.81900
H  20.93100 -1.14700 31.72900
H  20.68000 -1.29800 33.43900
H  20.06500 0.09600 32.53200
H  16.83400 -2.72600 33.57800
H  15.52700 -1.83700 32.85900
H  15.49800 -1.32100 35.15100
H  15.63200 -0.00200 34.13400
H  21.30800 -6.77300 29.32400
H  21.66000 -5.36100 30.31100
H  22.51300 -5.40400 28.85800
H  22.87800 -6.80200 26.65700
H  22.15600 -7.88900 25.52300
H  21.43000 -7.78900 27.15100
H  17.81700 -2.79300 22.99500
H  17.22600 0.04800 23.56700
H  19.22900 -0.22100 22.76700
H  19.29200 -1.61900 21.74100
H  20.12500 -1.69000 23.28700
H  14.81800 -1.37900 23.44400
H  15.76400 -2.19500 22.12900
H  14.84800 -0.47000 20.92100
H  15.98500 0.64100 21.66200
H  14.34500 0.37900 22.33300
H  12.63100 2.23400 27.77100
H  12.60300 1.14100 26.46400
H  13.55600 2.66300 26.31600
H  14.58300 0.21600 31.77800
H  15.26000 4.09900 33.75900
H  16.64400 3.04200 34.30500
H  15.24000 2.98800 35.19300
Mg 47.72200 16.63700 29.31900
C  45.87200 16.36300 32.28200
C  49.96300 18.51900 31.02600
C  49.34000 17.28500 26.43000
C  45.04100 15.32900 27.49400
N  47.81700 17.50000 31.37900
C  47.00300 17.13100 32.38100
C  47.58700 17.66400 33.73700
C  48.77700 18.59300 33.29600
C  48.86100 18.26600 31.81300
C  48.60700 20.09100 33.49300
C  48.05700 16.42100 34.65800
C  47.87800 16.73200 36.14300
H  47.53800 18.17300 36.57300
N  49.49500 17.58700 28.85400
C  50.28600 18.27400 29.70800
C  51.57100 18.64700 29.05900
C  51.44900 18.21300 27.67100
C  50.04500 17.67300 27.56700
C  52.79600 19.26900 29.77500
C  52.42200 18.28200 26.51600
O  52.04100 18.08400 25.36500
C  53.87400 18.59700 26.76600
N  47.23400 16.28000 27.23500
C  48.07900 16.67100 26.19900
C  47.37100 16.51500 24.84800
C  46.05800 15.69700 25.25100
C  46.09000 15.82200 26.73900
C  46.94700 17.84100 24.10000
C  45.98700 14.25600 24.64800
C  45.27400 14.00100 23.29300
N  45.81000 16.02700 29.69000
C  44.81500 15.47800 28.88000
C  43.74500 14.94300 29.67900
C  44.13500 15.21000 31.10500
C  45.39200 15.95300 30.98300
C  42.56800 14.14900 29.14900
C  43.73500 15.12000 32.48200
O  42.73100 14.73000 33.01600
C  44.80300 15.86100 33.30100
C  44.12900 16.91000 34.10000
O  43.72400 18.03300 33.70200
O  44.05900 16.50400 35.39900
C  43.01500 17.27000 36.10800
H  50.74300 19.09500 31.52700
H  49.81500 17.48900 25.46800
H  44.24100 15.05000 26.80500
H  46.69600 18.15700 34.12800
H  49.68200 18.28000 33.81700
H  47.90600 20.14700 34.32600
H  48.18100 20.58600 32.62000
H  49.53500 20.62200 33.70200
H  49.11000 16.23900 34.44300
H  47.43900 15.57200 34.36500
H  48.85600 16.48700 36.55700
H  47.18900 15.96200 36.49300
H  52.51000 19.59700 30.77400
H  53.25200 20.02300 29.13300
H  53.48800 18.44200 29.93300
H  54.09500 18.09400 27.70700
H  54.06400 19.65800 26.92800
H  54.41900 18.20200 25.90800
H  47.98300 16.01400 24.09800
H  45.17900 16.24000 24.90400
H  47.13500 18.66600 24.78700
H  45.94500 17.84100 23.67000
H  47.58700 17.95900 23.22600
H  45.34400 13.76400 25.37900
H  47.01100 13.88700 24.60800
H  45.94800 13.40700 22.67600
H  45.09500 14.93300 22.75600
H  44.25600 13.63600 23.43000
H  42.77100 13.62600 28.21500
H  41.86900 14.97800 29.04200
H  42.14100 13.42500 29.84400
H  45.21400 15.15800 34.02600
H  43.33000 18.23000 36.51500
H  42.80700 16.70900 37.01900
H  42.09600 17.18100 35.52900

