158

Mg -1.21900 18.32700 28.03700
C  -1.87000 16.02800 30.48700
C  -1.87200 20.82200 30.21700
C  -0.75300 20.41500 25.42400
C  -1.16300 15.51600 25.66600
N  -1.73100 18.34800 30.21200
C  -1.69500 17.38000 31.02200
C  -1.88900 17.88000 32.54800
C  -2.25500 19.39600 32.36100
C  -2.02700 19.56500 30.84100
C  -3.60100 19.83300 32.95300
C  -0.63800 17.56900 33.43800
C  -0.92200 16.90600 34.86100
H  0.21200 16.79300 35.84800
N  -1.28300 20.30800 27.87300
C  -1.47900 21.17000 28.90600
C  -1.39400 22.50800 28.34800
C  -1.02200 22.41400 26.99300
C  -0.99800 21.01800 26.70600
C  -1.67600 23.78100 29.22300
C  -0.82400 23.54100 26.05600
O  -0.82600 23.33200 24.83700
C  -0.73700 24.89700 26.52500
N  -0.90600 18.01000 25.87100
C  -0.78100 19.06400 25.05400
C  -0.56800 18.69600 23.61200
C  -0.38400 17.13200 23.73600
C  -0.82500 16.80600 25.11200
C  -1.64300 19.11900 22.57100
C  1.06100 16.61800 23.50900
C  2.17100 16.97900 24.45200
N  -1.42000 16.19400 28.00200
C  -1.46000 15.20600 27.03800
C  -1.70100 13.99500 27.59600
C  -1.82000 14.18900 28.96400
C  -1.70700 15.60300 29.18300
C  -1.83400 12.74700 26.85300
C  -2.00400 13.59800 30.31100
O  -2.18900 12.43700 30.60600
C  -1.95900 14.77300 31.32900
C  -0.78600 14.49100 32.06600
O  0.41600 14.74300 31.76600
O  -1.12200 13.90800 33.30800
C  0.05400 13.44200 34.02800
H  -2.04000 21.63600 30.92500
H  -0.55200 21.10200 24.59900
H  -1.04800 14.72100 24.92700
H  -2.77200 17.35900 32.92000
H  -1.56500 19.99800 32.95100
H  -4.06000 19.00400 33.49300
H  -4.29300 20.18300 32.18800
H  -3.46000 20.64900 33.66200
H  -0.05500 18.46200 33.66600
H  0.05700 16.90400 32.92500
H  -1.46700 15.97600 34.69700
H  -1.66400 17.57300 35.30100
H  -0.75100 24.29100 29.49300
H  -2.21300 23.50500 30.13100
H  -2.26000 24.55700 28.72700
H  -0.17700 24.88600 27.46000
H  -1.67100 25.43600 26.68400
H  -0.26300 25.58700 25.82700
H  0.40800 19.07600 23.30800
H  -0.93900 16.57300 22.98200
H  -2.40900 19.62300 23.16100
H  -2.10000 18.22900 22.13700
H  -1.18100 19.83900 21.89600
H  1.52700 17.01500 22.60800
H  1.17300 15.56900 23.23500
H  2.68800 17.90200 24.18600
H  2.79000 16.09300 24.31300
H  1.86700 17.03800 25.49700
H  -2.81600 12.32400 27.06400
H  -1.16700 11.98400 27.25200
H  -1.77500 12.77500 25.76500
H  -2.82900 14.73100 31.98400
H  0.12000 12.37300 34.22900
H  -0.02800 14.01900 34.94900
H  1.02600 13.77900 33.66700
Mg 45.75100 3.91200 47.08500
C  43.41800 6.63300 46.54600
C  43.17100 1.79400 46.54000
C  48.01000 1.63700 46.80200
C  48.37700 6.40700 47.13500
N  43.58300 4.23100 46.51600
C  42.81900 5.42300 46.41300
C  41.33900 5.04500 46.00200
C  41.26900 3.51500 46.19600
C  42.71400 3.11800 46.42400
C  40.23400 2.98800 47.23800
C  41.05500 5.48000 44.51400
C  40.34500 6.78000 44.21500
H  40.86900 7.61900 43.02200
N  45.59900 1.96400 46.87100
C  44.41100 1.23800 46.65500
C  44.74400 -0.12300 46.70700
C  46.18600 -0.20100 46.66200
C  46.67700 1.16000 46.82500
C  43.68400 -1.19300 46.55500
C  47.01500 -1.53900 46.60800
O  46.47800 -2.61300 46.56200
C  48.58700 -1.58100 46.70300
N  47.91200 4.03700 46.78300
C  48.61100 2.89000 46.74400
C  50.15500 3.12200 46.75300
C  50.29500 4.63200 46.92500
C  48.76100 5.08600 46.93200
C  50.94400 2.21500 47.68600
C  51.22700 5.36000 45.91400
C  52.52500 5.99400 46.35300
N  45.89800 6.05600 46.94000
C  47.06000 6.86800 47.00900
C  46.64700 8.32300 47.01000
C  45.18600 8.23600 46.91800
C  44.79100 6.88100 46.75700
C  47.46500 9.60500 46.82600
C  43.94300 9.02400 46.88800
O  43.75100 10.22600 47.00400
C  42.76200 8.00400 46.73500
C  41.92800 8.09100 47.99300
O  42.19800 7.58600 49.06300
O  40.86000 8.95400 47.78200
C  40.07300 9.34300 48.97800
H  42.33000 1.10700 46.42900
H  48.80900 0.92300 46.59300
H  49.20800 7.09700 47.29500
H  40.71200 5.67500 46.63400
H  40.87700 2.97300 45.33600
H  39.39400 2.71000 46.60200
H  39.96900 3.82800 47.88000
H  40.66100 2.13000 47.75800
H  40.59700 4.65900 43.96200
H  41.98800 5.52400 43.95200
H  40.31600 7.41400 45.10200
H  39.28600 6.64300 43.99600
H  43.78300 -1.62300 45.55800
H  42.62900 -0.92300 46.60900
H  43.82100 -1.93500 47.34100
H  48.84900 -0.95800 47.55900
H  48.97300 -1.19400 45.76000
H  48.87300 -2.61800 46.87500
H  50.50100 2.88000 45.74800
H  50.73400 4.83200 47.90200
H  50.37600 2.07600 48.60600
H  51.92000 2.67400 47.84300
H  51.13300 1.25400 47.20700
H  50.65100 6.18400 45.49300
H  51.40200 4.69700 45.06600
H  52.28400 7.04100 46.53500
H  53.32300 6.09300 45.61700
H  52.97700 5.49200 47.20800
H  48.33800 9.50300 47.47000
H  46.84100 10.37600 47.27800
H  47.72900 9.76200 45.78000
H  42.18400 8.25700 45.84600
H  40.68500 9.89000 49.69500
H  39.81800 8.44400 49.54100
H  39.19400 9.91200 48.67500

