158

Mg 44.56000 5.00000 48.08000
C  42.52400 7.76600 47.49700
C  41.78100 2.99300 47.13500
C  46.64200 2.37600 47.79700
C  47.28700 7.19900 48.18500
N  42.49000 5.36000 47.27800
C  41.95800 6.57700 47.01400
C  40.50900 6.54300 46.49400
C  40.18800 5.03400 46.70700
C  41.49900 4.37400 47.12100
C  39.10200 4.67500 47.76400
C  40.30500 7.19200 45.06500
C  38.88000 7.70300 44.63500
H  38.48200 7.35000 43.17700
N  44.20800 2.94600 47.76700
C  43.01800 2.34000 47.35700
C  43.28100 0.91800 47.30500
C  44.66400 0.67400 47.48000
C  45.22300 2.01000 47.70900
C  42.14800 -0.06800 47.11300
C  45.34800 -0.68500 47.61700
O  44.70800 -1.68100 47.32900
C  46.78600 -0.90100 48.10100
N  46.63600 4.84600 47.85900
C  47.24600 3.63000 47.91600
C  48.75500 3.83500 48.07200
C  48.95100 5.35800 47.90100
C  47.51400 5.84700 47.92900
C  49.33900 3.19600 49.31000
C  49.80100 5.91100 46.65900
C  49.06400 6.08700 45.28300
N  44.87400 7.01500 48.07600
C  46.01400 7.74600 48.20200
C  45.62600 9.17000 48.32600
C  44.25800 9.21400 48.01700
C  43.83300 7.86600 47.89600
C  46.49000 10.39200 48.46000
C  43.12000 10.07000 47.80000
O  42.90400 11.29600 47.83500
C  41.96400 9.11400 47.48800
C  40.96000 9.34800 48.43400
O  40.97100 9.11800 49.59600
O  39.84100 9.95100 47.86000
C  38.70000 10.12900 48.73200
H  40.93500 2.37900 46.82000
H  47.41200 1.61700 47.95400
H  48.12700 7.88400 48.32100
H  39.85900 7.03400 47.21800
H  39.90000 4.71300 45.70600
H  38.18800 4.38400 47.24700
H  38.88800 5.58900 48.31700
H  39.39800 3.94100 48.51500
H  40.39400 6.27600 44.48100
H  41.09200 7.81500 44.63900
H  38.91800 8.78600 44.52600
H  38.13000 7.41300 45.37200
H  41.24000 0.38700 46.71800
H  42.03400 -0.68300 48.00600
H  42.52100 -0.71900 46.32200
H  47.12500 -0.28400 48.93300
H  47.45100 -0.65900 47.27200
H  46.82300 -1.98800 48.17000
H  49.13100 3.27800 47.21400
H  49.35300 5.72400 48.84600
H  49.27200 2.11000 49.36100
H  48.92200 3.76500 50.14000
H  50.39400 3.46200 49.37400
H  50.45400 5.07100 46.42200
H  50.39400 6.78600 46.92400
H  49.47500 5.40100 44.54300
H  49.20200 7.09300 44.88700
H  48.02700 5.79300 45.45000
H  46.32900 10.90400 49.40900
H  46.23200 11.06400 47.64100
H  47.49800 10.01000 48.29900
H  41.60600 9.37400 46.49200
H  39.06700 10.44900 49.70600
H  38.04400 9.25900 48.77800
H  38.04200 10.92900 48.39300
Mg 16.34600 52.50100 26.52200
C  18.10400 50.90300 29.17600
C  13.80500 53.12100 28.67900
C  14.60800 53.71500 23.86900
C  18.68400 51.00800 24.31700
N  16.09000 52.02600 28.66800
C  16.96300 51.58100 29.55400
C  16.45900 51.78900 31.01400
C  14.91600 52.15000 30.84200
C  14.91400 52.47600 29.27100
C  13.79500 51.10900 31.23100
C  17.29800 52.97700 31.70700
C  17.15900 53.19500 33.26300
H  16.40400 52.20900 34.19600
N  14.43400 53.26800 26.29200
C  13.50400 53.46700 27.30100
C  12.30400 54.10100 26.73700
C  12.57500 54.32900 25.37800
C  13.95300 53.77000 25.13400
C  11.11300 54.32300 27.67900
C  11.78800 55.10700 24.42300
O  12.07300 55.23800 23.22300
C  10.58500 55.91600 24.91300
N  16.54300 52.19500 24.31700
C  15.78800 53.00300 23.50800
C  16.37400 52.98400 22.02000
C  17.82200 52.35200 22.31600
C  17.72300 51.81400 23.69200
C  15.41600 52.04600 21.18100
C  19.04800 53.37800 22.22400
C  20.26200 52.88500 21.44400
N  18.12100 51.26500 26.67500
C  18.93300 50.77600 25.67400
C  19.87600 49.85300 26.29700
C  19.72000 49.99900 27.66900
C  18.55500 50.78400 27.86100
C  20.99300 49.22100 25.59600
C  20.26000 49.51800 28.98700
O  21.25100 48.85200 29.31700
C  19.23700 50.23900 30.00700
C  18.75100 49.22300 30.94900
O  18.15300 48.23700 30.57100
O  19.09300 49.45600 32.23500
C  18.69600 48.50000 33.35600
H  13.09000 53.42700 29.44500
H  14.28200 54.23600 22.96700
H  19.46500 50.77400 23.59000
H  16.56200 50.88300 31.61100
H  14.67300 53.06800 31.37800
H  13.05700 51.01500 30.43500
H  13.35900 51.39800 32.18800
H  14.31600 50.16200 31.37100
H  17.04200 53.90100 31.18800
H  18.33500 52.82000 31.41000
H  16.71000 54.18100 33.37800
H  18.15400 53.42400 33.64400
H  10.11100 54.22400 27.26200
H  11.17900 55.32900 28.09400
H  11.25000 53.52800 28.41100
H  10.31500 56.68900 24.19400
H  10.78400 56.40400 25.86700
H  9.66600 55.33100 24.94300
H  16.39600 54.01300 21.66000
H  17.99900 51.46600 21.70700
H  15.93400 51.16100 20.81100
H  14.89000 52.63800 20.43100
H  14.57200 51.74400 21.80000
H  19.40900 53.72100 23.19400
H  18.65700 54.22300 21.65700
H  20.41800 53.58800 20.62600
H  20.18300 51.85700 21.09000
H  21.09500 52.95100 22.14400
H  20.94800 48.13300 25.55300
H  21.84500 49.56800 26.18000
H  21.17100 49.61400 24.59400
H  19.82200 50.95100 30.59000
H  18.19900 47.61700 32.95300
H  17.89700 48.89600 33.98200
H  19.50200 48.18400 34.01900

