158

Mg 46.36500 35.60900 28.77300
C  44.57500 33.39700 30.89400
C  46.74900 37.76100 31.38100
C  47.13800 37.90000 26.57000
C  45.55300 33.39400 26.06800
N  45.74600 35.57300 30.81500
C  45.08300 34.52700 31.49300
C  45.28700 34.78900 33.04500
C  45.38900 36.32400 33.07500
C  46.08700 36.53300 31.75800
C  43.99600 37.03300 33.11400
C  46.56700 34.09800 33.68600
C  46.40100 33.60400 35.16100
H  45.67700 34.53300 36.08900
N  47.04500 37.51200 28.96600
C  47.21000 38.22500 30.14400
C  47.89600 39.38600 29.87800
C  48.03900 39.48500 28.45500
C  47.39500 38.27500 27.94400
C  48.67300 40.19300 30.84800
C  48.73300 40.56000 27.69200
O  48.66500 40.66700 26.44100
C  49.41700 41.70900 28.36500
N  46.10500 35.70900 26.63600
C  46.67200 36.75300 25.96100
C  46.41800 36.58000 24.42100
C  46.16200 35.03800 24.30000
C  45.88700 34.66300 25.75900
C  45.14200 37.33300 23.83600
C  47.41400 34.29100 23.88400
C  47.38600 33.47300 22.56500
N  45.30400 33.74100 28.46300
C  45.11700 33.00800 27.36000
C  44.50100 31.76300 27.78400
C  44.25600 31.84000 29.14200
C  44.78800 33.05900 29.54600
C  44.17400 30.60100 26.81300
C  43.73400 31.15800 30.35400
O  43.19800 30.06400 30.51700
C  43.76400 32.23300 31.45600
C  43.96500 31.57900 32.82400
O  45.00600 30.99100 33.15300
O  42.91300 31.89100 33.70700
C  42.95000 31.12100 34.95200
H  46.76300 38.49700 32.18700
H  47.58000 38.53300 25.79700
H  45.61800 32.72700 25.20500
H  44.42300 34.41900 33.59600
H  45.96300 36.67000 33.93500
H  44.18800 37.97000 32.59100
H  43.80900 37.26000 34.16400
H  43.15400 36.42500 32.78300
H  47.40500 34.79300 33.62000
H  46.70600 33.24400 33.02300
H  47.41200 33.48000 35.54800
H  45.88000 32.65000 35.24400
H  48.45600 39.88500 31.87000
H  48.47400 41.26200 30.92400
H  49.70700 39.98800 30.57100
H  48.61600 42.14100 28.96500
H  49.85800 42.30900 27.56900
H  50.20500 41.24800 28.96100
H  47.30100 36.89300 23.86400
H  45.27400 34.68700 23.77600
H  44.75000 38.05300 24.55500
H  44.33100 36.73400 23.42300
H  45.44100 37.91800 22.96600
H  47.75400 33.54400 24.60200
H  48.23700 35.00500 23.87400
H  46.63500 33.89900 21.90000
H  47.20900 32.45100 22.90100
H  48.34600 33.51200 22.05100
H  44.96500 30.43300 26.08300
H  43.24700 30.83700 26.29000
H  44.04900 29.75300 27.48600
H  42.72400 32.55600 31.40400
H  43.15000 30.07400 34.72500
H  41.95700 31.14800 35.40200
H  43.69700 31.41400 35.69000
Mg 30.34700 59.69200 40.05500
C  27.61000 57.88500 38.65500
C  32.36100 56.88200 39.34100
C  33.10400 61.57400 40.63600
C  28.30300 62.48200 40.14300
N  29.99200 57.77300 38.91100
C  28.81500 57.25800 38.51500
C  29.03200 55.89400 37.90100
C  30.33700 55.46700 38.64000
C  30.96500 56.78900 38.96100
C  30.21900 54.62100 39.94300
C  29.15300 55.93900 36.36400
C  28.14100 55.03600 35.57400
H  27.28200 55.91900 34.69100
N  32.43300 59.29100 40.00700
C  33.05300 58.08400 39.78000
C  34.46300 58.31400 39.95300
C  34.65300 59.60900 40.33400
C  33.37700 60.19100 40.37900
C  35.35800 57.11400 39.93600
C  35.96500 60.12100 40.76500
O  37.01000 59.47300 40.56400
C  36.18900 61.36200 41.49800
N  30.67000 61.74900 40.12100
C  31.89500 62.29600 40.48000
C  31.76100 63.80800 40.68700
C  30.24500 64.07200 40.44800
C  29.69700 62.65200 40.27800
C  32.32800 64.44100 42.04500
C  30.00000 65.00400 39.25100
C  29.51300 66.43100 39.51200
N  28.28800 60.05900 39.67700
C  27.62300 61.23400 39.87800
C  26.14700 61.02000 39.52600
C  26.10100 59.68600 39.07100
C  27.44200 59.20500 39.12900
C  25.01400 61.95700 39.65000
C  25.19800 58.67500 38.65500
O  23.98600 58.65000 38.52300
C  26.09700 57.43800 38.37400
C  25.67800 56.27800 39.24300
O  26.34600 55.97500 40.17700
O  24.49800 55.70100 38.78200
C  23.82500 54.80900 39.68000
H  32.91500 55.94900 39.21400
H  33.91500 62.20200 41.01200
H  27.69000 63.38300 40.07300
H  28.21300 55.27200 38.26500
H  30.94000 54.86900 37.95700
H  30.25700 53.54600 39.76900
H  29.23700 54.79900 40.38200
H  30.94100 54.88800 40.71500
H  30.10300 55.61500 35.93800
H  28.83200 56.95000 36.11400
H  27.64700 54.33100 36.24300
H  28.68100 54.31000 34.96600
H  35.01100 56.27400 39.33500
H  35.30600 56.80500 40.98000
H  36.40600 57.26400 39.67700
H  37.19400 61.44000 41.91200
H  35.54400 61.33800 42.37600
H  36.01300 62.25600 40.90000
H  32.41700 64.21900 39.91900
H  29.73800 64.40200 41.35400
H  31.49100 64.75500 42.66900
H  32.91200 65.32800 41.79800
H  32.94400 63.77500 42.64900
H  29.15600 64.51300 38.76600
H  30.85100 65.04500 38.57200
H  28.57400 66.78300 39.08300
H  30.31800 67.08800 39.18400
H  29.34300 66.36500 40.58700
H  24.79600 62.31300 38.64300
H  25.26400 62.85800 40.21000
H  24.17400 61.44700 40.12300
H  25.84700 57.13400 37.35800
H  23.40000 54.14500 38.92600
H  23.09200 55.36300 40.26600
H  24.51300 54.28500 40.34300

