158

Mg 48.90000 45.14800 42.91600
C  45.45200 45.49000 41.91400
C  48.62300 41.82800 42.07600
C  52.12000 45.11400 42.81900
C  48.71300 48.59200 43.56500
N  47.31300 43.95500 41.83300
C  46.00900 44.25400 41.62500
C  45.20900 43.07500 41.21000
C  46.06300 41.95800 41.83400
C  47.43900 42.58100 41.93300
C  45.51000 41.41000 43.13100
C  44.93500 42.95300 39.68400
C  45.60500 43.97800 38.74600
H  45.21300 43.91400 37.29800
N  50.24600 43.59900 42.58700
C  49.94200 42.29500 42.29000
C  51.11800 41.56000 42.53900
C  52.16900 42.46100 42.63700
C  51.55700 43.79400 42.67000
C  51.22900 40.06900 42.45200
C  53.63500 42.03000 42.85400
O  54.01300 40.90200 42.65600
C  54.71200 43.07200 43.22400
N  50.21500 46.68100 42.95600
C  51.56000 46.39200 43.04800
C  52.36900 47.77000 43.22800
C  51.23600 48.73200 43.63900
C  49.96500 47.96900 43.41500
C  53.45200 47.59000 44.31600
C  51.22800 50.18400 42.99400
C  51.45700 51.30800 43.92100
N  47.35700 46.71300 42.98200
C  47.51300 48.08100 43.25000
C  46.19500 48.72800 43.15600
C  45.40300 47.73500 42.61100
C  46.11900 46.55300 42.49400
C  45.92400 50.22400 43.21800
C  44.06500 47.49500 42.07700
O  43.13700 48.25200 41.93500
C  44.11800 46.03800 41.51800
C  42.94100 45.33400 42.12600
O  42.13000 44.78100 41.38300
O  42.74400 45.50300 43.46300
C  41.46300 44.88700 43.88500
H  48.41500 40.76300 41.95400
H  53.20600 45.21800 42.87500
H  48.66600 49.59900 43.98400
H  44.22700 43.01200 41.68000
H  46.13300 41.09800 41.16800
H  45.22900 40.36700 42.98700
H  44.66200 41.93900 43.56700
H  46.29300 41.47600 43.88700
H  43.87900 43.17500 39.53400
H  45.14000 41.92900 39.37000
H  46.69400 44.01600 38.74800
H  45.33100 44.95600 39.14200
H  51.80100 39.81300 41.56000
H  50.26900 39.60000 42.23700
H  51.68200 39.77200 43.39900
H  55.58500 42.49900 43.53700
H  54.17300 43.60700 44.00600
H  54.94700 43.73200 42.38900
H  52.68500 47.99700 42.21000
H  51.30400 48.88500 44.71600
H  53.73400 48.51200 44.82500
H  54.40300 47.26300 43.89500
H  53.15600 46.81400 45.02100
H  50.21700 50.26700 42.59700
H  51.81900 50.17700 42.07900
H  51.70700 52.19500 43.34000
H  52.28200 51.08000 44.59700
H  50.63700 51.54500 44.59800
H  46.54900 50.85500 42.58500
H  45.91800 50.53800 44.26200
H  44.90300 50.40900 42.88400
H  43.98400 45.96200 40.43900
H  40.66800 45.20600 43.21100
H  41.17300 45.22600 44.87900
H  41.63500 43.81100 43.90300
Mg 42.80300 41.23900 25.99900
C  41.91700 43.62500 28.48600
C  44.04900 39.35700 28.61300
C  43.65500 39.09400 23.77600
C  41.86400 43.57500 23.64200
N  42.85500 41.43400 28.40400
C  42.46100 42.46000 29.11700
C  42.49300 42.00200 30.62200
C  43.69900 40.99600 30.57800
C  43.53800 40.52300 29.11100
C  45.08200 41.71100 30.75800
C  41.01700 41.65100 31.12000
C  40.70100 42.19500 32.53300
H  41.69300 41.91800 33.69200
N  43.61700 39.43300 26.16000
C  44.03600 38.81200 27.33500
C  44.53700 37.47100 26.94100
C  44.36400 37.34300 25.52700
C  43.87300 38.60000 25.04800
C  45.02200 36.55600 27.90400
C  44.65200 36.10100 24.67600
O  44.68500 36.10700 23.43800
C  44.80700 34.73300 25.42600
N  42.84200 41.25300 23.98100
C  43.22800 40.30800 23.20800
C  43.02100 40.56300 21.76500
C  42.36600 41.99800 21.76000
C  42.35100 42.32400 23.20700
C  44.32700 40.45100 20.87000
C  40.97500 42.11400 21.13900
C  39.84800 41.38800 21.86300
N  42.08600 43.24400 25.95500
C  41.80300 44.09900 24.89700
C  41.30900 45.37400 25.36000
C  41.33600 45.16700 26.76500
C  41.82400 43.86700 27.08900
C  41.10000 46.62900 24.59200
C  41.00100 45.84300 27.93100
O  40.62700 47.01900 28.15600
C  41.28500 44.85700 29.12700
C  42.15500 45.50700 30.13400
O  43.27500 45.88700 29.89400
O  41.54800 45.31600 31.31400
C  42.48700 45.45900 32.44600
H  44.50500 38.73100 29.38300
H  43.68500 38.33000 22.99700
H  41.40100 44.23000 22.90100
H  42.65700 42.94400 31.14600
H  43.55800 40.09000 31.16700
H  45.52200 41.41600 31.71100
H  44.95000 42.79200 30.75300
H  45.73900 41.53800 29.90600
H  41.03900 40.56500 31.20500
H  40.21800 41.85400 30.40800
H  39.73500 41.76300 32.79600
H  40.46400 43.25900 32.52300
H  44.97000 36.95600 28.91700
H  46.05400 36.42100 27.57800
H  44.45100 35.62900 27.94600
H  43.91700 34.46400 25.99400
H  45.64800 34.83100 26.11300
H  45.10500 33.93000 24.75200
H  42.19000 39.94500 21.42500
H  42.98000 42.71900 21.21900
H  44.14100 39.72200 20.08100
H  45.15100 40.23300 21.55000
H  44.52000 41.41900 20.40900
H  41.13900 41.72200 20.13500
H  40.75200 43.17600 21.03300
H  39.14500 42.15200 22.19500
H  40.12100 40.86700 22.78100
H  39.41500 40.70300 21.13400
H  41.35600 47.40900 25.30900
H  40.02200 46.74600 24.48700
H  41.75000 46.85500 23.74600
H  40.27500 44.74800 29.52000
H  41.98100 45.20700 33.37900
H  42.58900 46.54400 32.48400
H  43.40700 44.87600 32.41400

