158

Mg -1.09800 17.38600 26.95700
C  -1.92000 14.98500 29.46800
C  -1.93000 19.83100 29.14300
C  -0.76500 19.35600 24.41500
C  -0.69300 14.60900 24.82200
N  -2.05600 17.34500 29.03000
C  -2.02500 16.30900 29.89500
C  -2.23600 16.78300 31.30500
C  -2.48600 18.33000 31.11700
C  -2.08700 18.54500 29.72800
C  -3.87400 18.78000 31.34100
C  -1.19400 16.23600 32.31200
C  -1.23300 16.91400 33.63200
H  -0.67800 16.13600 34.81500
N  -1.31400 19.29400 26.80700
C  -1.58700 20.19400 27.82900
C  -1.51200 21.49300 27.37700
C  -1.10800 21.37000 25.95200
C  -1.07100 19.97800 25.61600
C  -1.71700 22.71300 28.14000
C  -0.83800 22.47500 24.90900
O  -0.55500 22.24600 23.68500
C  -0.85400 23.87800 25.43600
N  -0.96700 16.98100 24.86900
C  -0.62400 18.03600 24.11300
C  -0.40100 17.64600 22.63800
C  -0.16200 16.08400 22.74700
C  -0.53400 15.81300 24.20000
C  -1.60700 17.94800 21.77400
C  1.29700 15.60000 22.44100
C  2.43400 16.18700 23.36500
N  -1.35700 15.18100 27.05100
C  -1.07900 14.22300 26.15600
C  -1.55800 12.91200 26.59200
C  -1.79500 13.12400 27.96600
C  -1.72600 14.54500 28.13700
C  -1.50500 11.63600 25.83500
C  -2.26700 12.57400 29.21500
O  -2.72800 11.46200 29.49300
C  -2.20900 13.69100 30.24500
C  -0.95900 13.28800 31.09200
O  0.19600 13.59400 30.90400
O  -1.40900 12.50300 32.21900
C  -0.40800 11.95100 33.14700
H  -1.99400 20.62800 29.88700
H  -0.54400 19.98400 23.55000
H  -0.43800 13.71600 24.24700
H  -3.07900 16.19700 31.67200
H  -1.84300 18.83800 31.83500
H  -4.06300 19.56800 30.61200
H  -3.84300 19.11800 32.37600
H  -4.52300 17.90600 31.28100
H  -0.22200 16.37200 31.83700
H  -1.40300 15.20200 32.58400
H  -2.22700 17.29200 33.86900
H  -0.53000 17.71700 33.41600
H  -2.25300 22.59700 29.08200
H  -2.15100 23.54200 27.58300
H  -0.68200 22.97700 28.35700
H  -0.24100 24.08700 26.31300
H  -1.87400 24.20000 25.64500
H  -0.42300 24.49300 24.64600
H  0.46700 18.15100 22.21400
H  -0.82300 15.34900 22.28700
H  -2.33700 18.01300 22.58000
H  -1.71900 17.25000 20.94400
H  -1.54100 18.90700 21.26000
H  1.60100 15.86800 21.42900
H  1.41800 14.51800 22.49100
H  2.08500 17.01000 23.98900
H  3.27200 16.52100 22.75500
H  2.92000 15.49000 24.04700
H  -0.98000 11.87500 24.91000
H  -2.51900 11.37700 25.53100
H  -0.99200 10.85300 26.39400
H  -3.03700 13.70800 30.95400
H  -0.90300 11.77600 34.10200
H  0.39700 12.67600 33.27200
H  -0.10400 10.97700 32.76500
Mg 47.27600 15.81100 28.08300
C  45.20700 15.75800 31.04400
C  49.53500 17.73700 29.71800
C  48.78700 16.34700 25.14100
C  44.57300 14.38800 26.38500
N  47.29100 16.66800 30.15800
C  46.47600 16.43100 31.18600
C  47.11200 16.97100 32.55400
C  48.43300 17.65300 32.04400
C  48.46900 17.27000 30.55800
C  48.54100 19.18400 32.22200
C  47.28100 15.79900 33.54500
C  46.95900 16.06200 35.01100
H  47.17300 17.52200 35.47300
N  49.03700 16.76100 27.51800
C  49.79700 17.55100 28.33000
C  50.94500 18.03000 27.61800
C  50.78200 17.63000 26.23800
C  49.47600 16.88900 26.27900
C  52.06800 18.78200 28.27400
C  51.62700 17.88300 25.01800
O  51.32500 17.41300 23.99700
C  52.90800 18.65200 25.12500
N  46.64600 15.67100 26.04900
C  47.54200 15.75900 25.04000
C  46.97600 15.23400 23.74600
C  45.79400 14.27000 24.24400
C  45.65100 14.85100 25.65400
C  46.52100 16.30100 22.66200
C  46.16300 12.74500 24.21100
C  45.79600 11.99700 22.90300
N  45.28500 15.30700 28.56300
C  44.34600 14.65100 27.73600
C  43.10500 14.40200 28.56200
C  43.45700 14.78500 29.89700
C  44.70400 15.40200 29.81500
C  41.82200 13.83800 28.04600
C  42.90400 14.90800 31.25500
O  41.76800 14.64300 31.63800
C  44.10900 15.43700 32.10100
C  43.66700 16.70700 32.74100
O  43.70500 17.82200 32.23900
O  43.33600 16.44200 34.05400
C  42.87600 17.57700 34.85700
H  50.10200 18.44500 30.32600
H  49.26500 16.37000 24.15900
H  43.86800 13.74400 25.85600
H  46.36000 17.69500 32.86800
H  49.33500 17.22500 32.48300
H  47.63600 19.42500 32.78000
H  48.47200 19.59800 31.21600
H  49.45500 19.49100 32.73200
H  48.34600 15.57600 33.60200
H  46.68500 14.95400 33.19900
H  47.59200 15.36500 35.56000
H  45.91200 15.76100 34.99800
H  51.95800 18.93800 29.34700
H  52.19500 19.75200 27.79200
H  52.98500 18.22600 28.07900
H  52.80900 19.39700 25.91400
H  53.05200 19.17800 24.18100
H  53.67800 17.94900 25.44100
H  47.69400 14.59000 23.23800
H  44.85300 14.42400 23.71700
H  46.62800 17.30500 23.07200
H  45.51500 16.17500 22.26200
H  47.23400 16.11900 21.85800
H  45.68500 12.31700 25.09300
H  47.24600 12.62800 24.22300
H  45.22700 11.15100 23.28900
H  46.59200 11.65900 22.24000
H  45.16900 12.57300 22.22200
H  41.47400 13.00800 28.66100
H  41.85800 13.47600 27.01800
H  41.05900 14.61200 28.13200
H  44.37800 14.63400 32.78800
H  41.82200 17.83000 34.75100
H  43.40400 18.52200 34.73000
H  43.10700 17.40700 35.90900

