158

Mg 53.91300 24.21800 44.10500
C  51.16500 26.45200 43.27500
C  51.98500 21.84800 42.50000
C  56.41200 22.25400 44.50700
C  55.79300 26.99900 44.81600
N  51.94500 24.26100 42.74100
C  50.98800 25.23800 42.66100
C  49.75100 24.67200 41.89200
C  49.88500 23.11800 42.20900
C  51.35300 23.07300 42.46200
C  49.02800 22.58600 43.38100
C  49.69800 24.97700 40.34800
C  50.97700 25.30400 39.56400
H  50.76800 25.66900 38.07900
N  54.15000 22.27100 43.62900
C  53.23700 21.43500 43.07300
C  53.80800 20.06000 43.16300
C  55.03600 20.20000 43.89400
C  55.27300 21.61100 44.01600
C  53.09700 18.78500 42.54500
C  55.88000 19.01000 44.45000
O  55.44600 17.89000 44.29300
C  57.17300 19.25800 45.30100
N  55.80600 24.56600 44.52300
C  56.76900 23.58900 44.65800
C  58.15400 24.08700 44.90400
C  57.86800 25.62400 45.05400
C  56.39800 25.76800 44.74800
C  58.96300 23.42500 46.03600
C  58.86200 26.62000 44.43600
C  58.51300 27.05700 42.96400
N  53.62500 26.38100 44.08600
C  54.46200 27.27300 44.57100
C  53.75400 28.57600 44.67900
C  52.46500 28.31300 44.11800
C  52.42200 26.94000 43.85600
C  54.19700 29.91300 45.23000
C  51.17400 28.88500 43.78300
O  50.75700 30.00200 44.03000
C  50.28000 27.67900 43.26000
C  49.91000 28.01700 41.87900
O  50.70700 28.34400 41.03500
O  48.58900 28.24500 41.86000
C  48.16400 29.16200 40.76000
H  51.40800 21.04200 42.04300
H  57.20100 21.56800 44.82200
H  56.33100 27.87900 45.17300
H  48.88100 25.12500 42.36700
H  49.70000 22.52600 41.31200
H  48.35300 23.36500 43.73400
H  49.69100 22.26200 44.18400
H  48.53300 21.65500 43.10600
H  49.04200 25.84700 40.29200
H  49.33200 24.26600 39.60700
H  51.67200 24.47800 39.71500
H  51.52900 26.08000 40.09500
H  52.18200 18.85700 41.95700
H  52.77100 18.17100 43.38500
H  53.87200 18.25500 41.99100
H  57.62700 18.31400 45.60300
H  56.99400 19.86300 46.19000
H  58.02000 19.61400 44.71400
H  58.63800 23.99100 43.93200
H  57.84000 26.04600 46.05900
H  58.49100 22.56100 46.50400
H  58.98500 24.16200 46.83900
H  59.94800 23.19300 45.63300
H  59.84000 26.13800 44.44500
H  59.05600 27.54200 44.98400
H  57.85600 27.90600 42.77400
H  58.20100 26.18400 42.39200
H  59.48300 27.24800 42.50700
H  55.28300 29.93600 45.32000
H  53.80000 29.97300 46.24300
H  53.89400 30.78800 44.65500
H  49.41300 27.48200 43.89100
H  48.86800 29.99100 40.67900
H  47.25500 29.67700 41.07200
H  48.00400 28.77300 39.75500
Mg 9.76400 47.98000 27.01800
C  8.01200 47.68900 29.95700
C  12.49600 48.98700 28.73100
C  11.51100 47.92500 24.05500
C  6.83100 47.14800 25.15700
N  10.15100 48.27200 29.14800
C  9.30500 48.12400 30.18000
C  10.05200 48.37400 31.52700
C  11.28700 49.17500 30.98800
C  11.36200 48.81900 29.53000
C  11.19000 50.74300 31.07100
C  10.39000 47.08900 32.36900
C  10.13400 47.24800 33.87100
H  10.12200 45.99400 34.69100
N  11.75000 48.49600 26.48600
C  12.70800 48.77900 27.35300
C  13.99700 48.82700 26.65700
C  13.75200 48.38500 25.31400
C  12.26700 48.25000 25.21100
C  15.25400 49.18100 27.29600
C  14.73400 48.17000 24.22600
O  14.28700 47.83100 23.14500
C  16.19900 48.31900 24.45900
N  9.21400 47.65500 24.90400
C  10.11700 47.73400 23.88600
C  9.51600 47.54000 22.52000
C  8.03900 47.13800 22.81900
C  7.98100 47.38300 24.37700
C  9.72100 48.81500 21.60200
C  7.66500 45.64100 22.45000
C  6.26000 45.29000 21.91400
N  7.78400 47.67700 27.44900
C  6.75000 47.27400 26.55500
C  5.60700 46.91300 27.36700
C  6.03800 47.20000 28.69900
C  7.40400 47.55500 28.70500
C  4.24800 46.67200 26.85200
C  5.57500 47.25100 30.05300
O  4.46300 47.07700 30.57900
C  6.92100 47.45500 30.91200
C  7.07700 46.19700 31.69500
O  7.52200 45.16300 31.24800
O  6.55700 46.39700 33.00600
C  6.66700 45.21600 33.82800
H  13.42600 49.25500 29.23600
H  12.05600 47.81700 23.11500
H  5.95400 46.81200 24.60000
H  9.45300 49.05500 32.13200
H  12.19400 48.86900 31.51000
H  11.17000 51.04900 30.02400
H  11.95900 51.33500 31.56700
H  10.25400 51.08100 31.51600
H  11.45300 46.88300 32.24100
H  9.89400 46.25400 31.87400
H  9.12300 47.65100 33.93800
H  10.99600 47.83300 34.19100
H  15.40300 49.20800 28.37600
H  15.70600 50.11500 26.96200
H  15.86700 48.28300 27.21400
H  16.79300 48.06000 23.58300
H  16.42000 47.54800 25.19600
H  16.43500 49.33100 24.78800
H  9.94600 46.73700 21.92100
H  7.30400 47.82900 22.40500
H  10.26500 49.57800 22.16000
H  8.78900 49.18300 21.17500
H  10.38900 48.53300 20.78900
H  7.87900 44.95100 23.26600
H  8.38100 45.26100 21.72100
H  5.56200 46.11800 21.79400
H  5.90200 44.63300 22.70700
H  6.30500 44.67900 21.01300
H  4.25900 45.72800 26.30800
H  4.07100 47.40700 26.06600
H  3.45800 46.63900 27.60300
H  6.86800 48.36300 31.51300
H  7.53800 44.63000 33.53800
H  5.82000 44.56400 33.61400
H  6.55900 45.49600 34.87600

