158

Mg 8.61600 3.50000 26.95400
C  9.87500 2.38800 30.05100
C  6.47800 5.64200 28.71200
C  7.18500 4.40100 24.00600
C  10.23500 0.99700 25.31100
N  8.05800 3.87000 29.20100
C  8.92400 3.42000 30.20400
C  8.44100 4.09400 31.50000
C  7.47900 5.19100 31.04600
C  7.24900 4.84600 29.59700
C  6.22000 5.25800 31.96300
C  9.69200 4.65900 32.28500
C  9.34500 5.32400 33.69200
H  9.82800 4.69900 35.00500
N  7.21900 4.99300 26.43300
C  6.43500 5.68400 27.29900
C  5.71200 6.75600 26.51800
C  5.91800 6.36100 25.10400
C  6.80600 5.16500 25.13400
C  4.80800 7.85000 27.16500
C  5.31400 7.02700 23.83500
O  5.60100 6.74500 22.65200
C  4.46000 8.32900 23.96800
N  8.70900 2.79100 24.83500
C  7.98300 3.29200 23.82300
C  8.30100 2.61600 22.47600
C  9.37100 1.62700 22.93100
C  9.44900 1.77000 24.48100
C  7.17300 1.97900 21.77200
C  10.81100 1.79300 22.24200
C  11.70900 2.98100 22.76700
N  9.79700 1.97400 27.48600
C  10.45500 1.04600 26.71700
C  11.20300 0.13700 27.55700
C  11.08800 0.65200 28.82000
C  10.14100 1.74200 28.77000
C  11.96000 -1.03700 27.02600
C  11.46700 0.49300 30.26100
O  12.18300 -0.30400 30.85300
C  10.76100 1.54200 31.03000
C  10.04800 0.94100 32.09300
O  8.89500 0.50600 32.05500
O  10.87200 0.87200 33.15800
C  10.28200 0.31900 34.41900
H  5.95700 6.38700 29.31700
H  6.77000 4.80700 23.08100
H  10.78800 0.14100 24.91900
H  7.93600 3.30200 32.05200
H  7.85500 6.20000 31.21800
H  6.08600 6.26000 32.37100
H  6.29900 4.46800 32.71000
H  5.40900 5.06700 31.26000
H  10.24900 5.34800 31.65000
H  10.36000 3.84300 32.56300
H  8.26800 5.32500 33.85800
H  9.66400 6.36400 33.76700
H  3.78300 7.71100 26.82200
H  5.10100 8.88200 26.97000
H  4.72000 7.67000 28.23700
H  5.13900 9.07700 24.37700
H  3.59100 8.21900 24.61600
H  4.20700 8.63900 22.95400
H  8.73600 3.40500 21.86200
H  9.15300 0.56300 22.83200
H  6.23400 2.06700 22.31800
H  7.43100 0.92100 21.73100
H  7.00900 2.36200 20.76500
H  10.67000 1.80600 21.16100
H  11.35600 0.87200 22.45100
H  11.16000 3.53600 23.52700
H  11.89700 3.68600 21.95800
H  12.70400 2.74700 23.14500
H  12.24600 -1.51300 27.96400
H  12.88700 -0.66900 26.58700
H  11.42400 -1.70900 26.35600
H  11.55300 2.13800 31.48500
H  9.77000 -0.64200 34.37600
H  9.67100 1.07800 34.90900
H  11.19300 0.18800 35.00300
Mg -5.72000 24.89100 26.29100
C  -4.41800 26.21000 29.26800
C  -7.34400 22.69500 28.16900
C  -6.56200 23.37800 23.51000
C  -3.69900 27.19200 24.45800
N  -5.89000 24.54600 28.59300
C  -5.37700 25.27100 29.59700
C  -5.82300 24.69100 31.00200
C  -6.60300 23.43700 30.53000
C  -6.57100 23.54800 29.01200
C  -6.00100 22.09500 31.12200
C  -6.69100 25.74100 31.79300
C  -6.23200 25.85600 33.23900
H  -5.97900 24.58800 34.06300
N  -6.88200 23.34200 25.82300
C  -7.49400 22.59900 26.75300
C  -8.44400 21.70800 26.13300
C  -8.25200 21.82700 24.68900
C  -7.20400 22.87800 24.60000
C  -9.47600 20.79800 26.87300
C  -8.91900 21.09700 23.53000
O  -8.61900 21.30100 22.36700
C  -9.96800 20.06900 23.80000
N  -5.18800 25.31200 24.28300
C  -5.65400 24.52800 23.32000
C  -5.09700 24.96600 21.98400
C  -4.31700 26.23900 22.22500
C  -4.40000 26.27300 23.74400
C  -4.30500 23.74300 21.38600
C  -4.95400 27.51300 21.63700
C  -4.02400 28.41200 20.79100
N  -4.35500 26.43000 26.71100
C  -3.59000 27.30200 25.84600
C  -2.80900 28.16800 26.74800
C  -3.03800 27.72700 28.03200
C  -3.98700 26.67700 27.97500
C  -1.81300 29.27300 26.28900
C  -2.57000 27.88400 29.34300
O  -1.66100 28.54400 29.81900
C  -3.42900 26.99300 30.24700
C  -2.54600 26.05300 30.96200
O  -1.94000 25.14500 30.44900
O  -2.54800 26.36300 32.26800
C  -1.87200 25.38600 33.15300
H  -7.71300 21.86700 28.77800
H  -6.89800 22.93000 22.57300
H  -2.94700 27.84100 24.00500
H  -4.88700 24.52500 31.53400
H  -7.68000 23.51000 30.67700
H  -6.69000 21.46600 31.68600
H  -5.21200 22.21500 31.86400
H  -5.57700 21.51300 30.30400
H  -7.77500 25.65200 31.71800
H  -6.53900 26.66300 31.23300
H  -6.95900 26.44300 33.80100
H  -5.29000 26.40400 33.26200
H  -10.48900 20.95300 26.50100
H  -9.58400 21.17600 27.89000
H  -9.18600 19.76500 26.68300
H  -10.84800 20.62900 24.11800
H  -9.52500 19.37200 24.51200
H  -10.23500 19.52000 22.89800
H  -5.94600 25.18500 21.33700
H  -3.32900 26.01800 21.82200
H  -4.57100 22.73700 21.70900
H  -3.23900 23.93400 21.51200
H  -4.52100 23.83200 20.32100
H  -5.31200 28.07900 22.49600
H  -5.88500 27.46300 21.07100
H  -4.33600 28.42900 19.74700
H  -2.99000 28.07300 20.73400
H  -3.94000 29.44300 21.13500
H  -2.09500 30.28800 26.56900
H  -1.53500 29.07100 25.25500
H  -0.93500 29.05900 26.89800
H  -3.90400 27.59100 31.02500
H  -2.27100 25.61800 34.14000
H  -0.80600 25.60100 33.22800
H  -2.15100 24.33800 33.04400

