158

Mg 1.36000 -2.16600 43.90100
C  4.61400 -0.86100 43.58000
C  0.19600 0.78900 42.42100
C  -1.73200 -3.44400 44.05800
C  2.84600 -5.23400 45.04500
N  2.34900 -0.34400 42.95200
C  3.68800 -0.01400 42.92600
C  3.86700 1.42800 42.32600
C  2.41200 2.01300 42.44200
C  1.59200 0.75500 42.53500
C  2.30500 3.07100 43.58800
C  4.53000 1.44400 40.93800
C  5.79600 2.36600 40.82200
H  6.95300 1.49900 40.45800
N  -0.55600 -1.38400 43.35200
C  -0.75500 -0.20100 42.72400
C  -2.17800 -0.11100 42.43500
C  -2.78800 -1.26900 42.86300
C  -1.70000 -2.12600 43.47700
C  -2.61700 1.08000 41.72700
C  -4.27100 -1.56500 42.70200
O  -4.98200 -0.80200 42.07800
C  -4.88100 -2.79000 43.49900
N  0.69200 -4.18600 44.20200
C  -0.69100 -4.32000 44.41100
C  -0.95400 -5.62200 45.09700
C  0.46600 -6.18300 45.48800
C  1.41700 -5.17500 44.85800
C  -1.75300 -5.44700 46.36600
C  0.66900 -7.65700 45.12100
C  1.23600 -8.63800 46.18600
N  3.32000 -2.92800 44.30000
C  3.69500 -4.10600 44.85700
C  5.09700 -4.07500 45.03300
C  5.53000 -2.79300 44.57800
C  4.38700 -2.14800 44.13900
C  6.02500 -5.19900 45.41100
C  6.66800 -1.89900 44.41400
O  7.81200 -2.07400 44.71600
C  6.13400 -0.60800 43.76000
C  6.33500 0.59700 44.66500
O  6.07600 0.63400 45.86700
O  6.89700 1.63200 44.01000
C  7.46000 2.73600 44.71900
H  -0.09900 1.77900 42.06800
H  -2.72200 -3.82700 44.31600
H  3.23500 -6.12500 45.54100
H  4.53100 1.95600 43.01000
H  2.13500 2.52700 41.52200
H  1.44100 2.74700 44.16700
H  1.96100 4.01500 43.16400
H  3.15600 3.23900 44.24900
H  3.77400 1.83300 40.25700
H  4.67600 0.42000 40.59200
H  6.11600 2.74900 41.79100
H  5.48500 3.10200 40.08100
H  -2.16200 1.17500 40.74100
H  -2.44600 2.08600 42.11000
H  -3.63400 0.94100 41.36100
H  -4.35700 -3.66600 43.11600
H  -5.92900 -2.83600 43.20300
H  -4.84100 -2.70900 44.58500
H  -1.46200 -6.28200 44.39500
H  0.70800 -6.09100 46.54600
H  -2.81900 -5.36200 46.15400
H  -1.46600 -4.58900 46.97300
H  -1.53300 -6.31300 46.99000
H  1.25600 -7.59200 44.20400
H  -0.23600 -8.06100 44.66900
H  0.78400 -9.61500 46.01600
H  1.02400 -8.32200 47.20800
H  2.31100 -8.78500 46.07300
H  6.85000 -4.75200 45.96600
H  6.35500 -5.68700 44.49300
H  5.52900 -5.91000 46.07000
H  6.69800 -0.42400 42.84600
H  7.71900 2.43800 45.73500
H  6.74700 3.55300 44.82600
H  8.33200 2.98300 44.11300
Mg 43.60400 42.34300 26.37200
C  42.80300 44.64900 28.88500
C  45.46600 40.51700 28.72700
C  44.61700 40.36400 24.03100
C  42.14900 44.44800 24.01300
N  44.12300 42.57600 28.53900
C  43.56300 43.58600 29.37800
C  44.00200 43.41000 30.83100
C  44.84900 42.12600 30.73900
C  44.85700 41.66600 29.32600
C  46.17300 42.04600 31.51400
C  42.89800 43.34500 31.90000
C  43.35700 44.06600 33.12600
H  42.48500 44.48300 34.31800
N  44.67800 40.58600 26.36900
C  45.45100 40.03000 27.36000
C  46.02300 38.76700 26.87700
C  45.61700 38.64900 25.50200
C  44.88400 39.88700 25.24900
C  46.67400 37.86100 27.84600
C  45.96500 37.57800 24.49900
O  45.47100 37.49900 23.34400
C  46.78400 36.39500 24.98600
N  43.59200 42.54100 24.27900
C  44.04100 41.51800 23.53600
C  43.90600 41.78600 22.00900
C  42.81700 42.92700 22.06600
C  42.93800 43.36300 23.50200
C  45.31500 42.25800 21.47700
C  41.48600 42.46100 21.43700
C  40.79400 41.31100 22.33700
N  42.75600 44.18900 26.41300
C  42.20900 44.93000 25.36900
C  41.62700 46.16000 25.89000
C  41.77600 46.11600 27.23100
C  42.49500 44.90600 27.49300
C  41.05800 47.29900 25.12200
C  41.61100 46.82600 28.50900
O  41.07500 47.89500 28.83500
C  42.30200 45.91300 29.64700
C  43.37900 46.67700 30.41900
O  44.54900 46.86200 30.09800
O  42.80100 47.23600 31.50500
C  43.78400 48.00400 32.27300
H  45.91800 39.95700 29.54900
H  45.00300 39.80400 23.17700
H  41.65000 45.06700 23.26300
H  44.73300 44.17900 31.08000
H  44.15500 41.36900 31.10400
H  45.99500 41.49900 32.44100
H  46.43800 43.02900 31.90300
H  46.99400 41.66400 30.90800
H  42.77800 42.31500 32.23500
H  41.90300 43.62400 31.55300
H  43.77000 45.02600 32.81500
H  44.21100 43.59500 33.61300
H  46.59800 38.23000 28.86800
H  47.73800 37.78500 27.62400
H  46.12300 36.92100 27.89400
H  46.41500 36.00500 25.93500
H  47.81300 36.73000 25.11700
H  46.76100 35.59900 24.24200
H  43.50700 40.88300 21.54700
H  43.12500 43.82400 21.52900
H  45.04200 42.95800 20.68700
H  45.87200 41.40300 21.09300
H  45.98500 42.64400 22.24500
H  41.81100 42.13400 20.44900
H  40.85900 43.34600 21.33200
H  40.05200 41.75900 22.99700
H  41.50900 40.75400 22.94300
H  40.45600 40.50900 21.68100
H  41.90400 47.96300 24.94600
H  40.49200 47.89200 25.84100
H  40.42700 47.17800 24.24100
H  41.51900 45.63600 30.35300
H  44.64000 47.40100 32.57600
H  43.30400 48.28000 33.21200
H  44.29800 48.77800 31.70300

