158

Mg 47.83500 34.19500 26.65500
C  46.04300 32.52100 29.20100
C  48.07600 36.95600 28.70700
C  49.37700 35.82600 24.20900
C  47.41500 31.43200 24.66300
N  47.14100 34.68500 28.70700
C  46.55000 33.78300 29.64800
C  46.45500 34.40300 31.07400
C  47.03700 35.85700 30.78100
C  47.45900 35.86500 29.33000
C  46.06900 37.08800 31.09000
C  47.29700 33.59800 32.11800
C  48.21800 34.37800 33.11600
H  47.37800 35.34300 33.96000
N  48.67100 36.14500 26.46000
C  48.61800 37.10200 27.44500
C  49.12800 38.31400 26.85000
C  49.63500 37.98100 25.58800
C  49.24300 36.58500 25.37000
C  49.18700 39.65400 27.52100
C  50.30000 38.88300 24.54400
O  50.55500 38.52100 23.37500
C  50.59600 40.29900 24.93200
N  48.12000 33.75600 24.57600
C  49.02200 34.50900 23.87100
C  49.38100 33.84300 22.53100
C  48.74800 32.42700 22.70300
C  48.00500 32.54200 24.06200
C  48.93600 34.60900 21.27100
C  49.73800 31.21500 22.65600
C  49.39400 29.94800 21.83900
N  46.74400 32.40000 26.77900
C  46.75200 31.34700 25.83500
C  46.05600 30.27000 26.40700
C  45.69100 30.70400 27.67600
C  46.22600 31.93200 27.90200
C  45.71200 28.93400 25.66000
C  44.98500 30.32100 28.85000
O  44.25200 29.34500 29.11000
C  45.17900 31.50500 29.99800
C  45.92100 30.80900 31.09400
O  47.08600 30.45400 31.19900
O  45.08200 30.72400 32.20900
C  45.59900 29.93700 33.27800
H  48.10400 37.78300 29.41900
H  49.85800 36.30300 23.35300
H  47.42400 30.51000 24.07900
H  45.42500 34.50500 31.41700
H  47.93200 36.03300 31.37700
H  46.45300 37.64900 31.94200
H  45.03500 36.86600 31.35400
H  45.92700 37.71100 30.20700
H  47.73900 32.85100 31.46000
H  46.64600 33.05800 32.80600
H  49.05200 34.80700 32.56000
H  48.57000 33.66500 33.86200
H  48.75900 39.74000 28.51900
H  48.80200 40.44800 26.88100
H  50.17900 39.84400 27.93100
H  49.72600 40.95400 24.97200
H  51.13900 40.75200 24.10200
H  51.13700 40.34600 25.87700
H  50.46200 33.70200 22.49800
H  47.98000 32.21700 21.95900
H  49.77800 34.66700 20.58200
H  48.65600 35.63200 21.52400
H  48.05100 34.13800 20.84300
H  49.98600 30.89300 23.66800
H  50.72200 31.56600 22.34700
H  48.34700 30.00500 21.54200
H  49.35800 29.04100 22.44200
H  49.97500 29.74700 20.93900
H  45.07000 28.99500 24.78100
H  45.43300 28.15000 26.36400
H  46.69300 28.79600 25.20500
H  44.20700 31.83300 30.36700
H  46.49900 30.53500 33.42000
H  45.85400 28.92700 32.96000
H  45.05900 30.03100 34.22100
Mg 9.12800 48.89500 26.48100
C  6.95500 49.41800 29.19000
C  11.71900 50.17100 28.24600
C  11.06800 48.20500 23.86700
C  6.18600 48.43400 24.46300
N  9.28300 49.62100 28.52900
C  8.31700 49.58400 29.55300
C  8.86000 50.16700 30.90800
C  10.20800 50.79200 30.31800
C  10.43000 50.19200 28.91600
C  10.15600 52.31800 30.22800
C  9.09700 48.99300 31.94500
C  8.94500 49.50600 33.36700
H  8.46900 48.44800 34.38600
N  11.14300 49.12900 26.09600
C  12.08300 49.61400 26.97200
C  13.41400 49.42700 26.49300
C  13.23500 48.87100 25.16700
C  11.74800 48.70600 25.01300
C  14.66200 49.70800 27.28600
C  14.41500 48.28700 24.18400
O  14.12900 47.82300 23.13900
C  15.82300 48.28200 24.55800
N  8.72200 48.49400 24.40500
C  9.70100 48.01500 23.62800
C  9.13000 47.41600 22.37200
C  7.59700 47.78700 22.38200
C  7.42500 48.24300 23.87500
C  9.86600 47.99400 21.19200
C  6.69300 46.49900 22.08100
C  5.54100 46.67400 21.09000
N  7.05200 48.90300 26.68000
C  5.97600 48.75200 25.79300
C  4.75500 48.74400 26.52500
C  5.13000 49.09800 27.83200
C  6.50400 49.12200 27.90500
C  3.40800 48.29400 26.01800
C  4.55700 49.40800 29.11100
O  3.38000 49.31600 29.44500
C  5.76200 49.73300 30.00700
C  5.59000 48.82000 31.16800
O  5.94200 47.65600 31.21200
O  4.98400 49.50500 32.10100
C  4.54200 48.76600 33.22600
H  12.60800 50.59000 28.72300
H  11.75000 48.00400 23.03800
H  5.21200 48.31900 23.98200
H  8.19900 50.97400 31.22400
H  10.92900 50.50800 31.08400
H  9.92000 52.61700 29.20700
H  11.13500 52.70300 30.51300
H  9.41100 52.73100 30.91000
H  10.11000 48.59100 31.94100
H  8.41100 48.17700 31.71600
H  8.26800 50.36100 33.35300
H  9.94900 49.81200 33.65900
H  15.39900 50.45300 26.98400
H  15.26200 48.80000 27.33800
H  14.45800 49.96000 28.32600
H  16.48000 47.90100 23.77600
H  15.88700 47.64200 25.43800
H  16.14400 49.32000 24.47200
H  9.34700 46.35100 22.29700
H  7.33200 48.66400 21.79300
H  10.73600 48.62500 21.37500
H  9.30100 48.69100 20.57300
H  10.23500 47.22600 20.51200
H  6.31900 46.13000 23.03600
H  7.30600 45.71300 21.63900
H  5.32900 47.74100 21.01200
H  4.67400 46.07300 21.36500
H  5.84300 46.21200 20.15000
H  3.46400 47.32100 25.52900
H  2.98600 49.06200 25.36900
H  2.80900 48.16500 26.91900
H  5.71500 50.78700 30.28200
H  5.38600 48.61400 33.89800
H  4.07000 47.81000 33.00000
H  3.81600 49.39100 33.74600

