158

Mg 6.74900 53.04300 41.60800
C  6.30900 49.47300 41.22200
C  9.92900 52.58700 40.19600
C  6.90700 56.19100 41.32700
C  3.35800 53.09900 42.43000
N  7.83300 51.23400 40.64800
C  7.51700 49.95200 40.71800
C  8.69800 49.05700 40.24800
C  9.93300 49.99200 40.14700
C  9.21800 51.34300 40.41200
C  11.16500 49.66900 41.08900
C  8.52400 48.40400 38.80800
C  8.42800 49.34400 37.56500
H  7.31400 49.07400 36.61900
N  8.23100 54.33900 40.82600
C  9.48200 53.91500 40.40000
C  10.23800 55.15700 40.18200
C  9.37900 56.29600 40.52300
C  8.16600 55.60800 40.98200
C  11.60900 55.31300 39.51200
C  9.59900 57.74900 40.22700
O  10.57900 58.05300 39.54300
C  8.67100 58.87300 40.68500
N  5.27700 54.44400 41.76400
C  5.62100 55.73200 41.66400
C  4.51400 56.64700 42.00900
C  3.32600 55.63700 42.13900
C  4.00100 54.29800 42.14500
C  4.70200 57.52400 43.27200
C  2.30200 55.65200 40.91000
C  0.79100 55.67200 41.34800
N  5.15900 51.63700 41.91800
C  3.90100 51.83700 42.29600
C  3.25000 50.55600 42.59800
C  4.16400 49.62600 42.16000
C  5.29500 50.33400 41.73700
C  1.84100 50.40000 43.03400
C  4.36100 48.26500 41.92700
O  3.62500 47.24700 42.11400
C  5.78100 48.04100 41.41500
C  5.55400 47.35600 40.11100
O  4.91600 47.76700 39.16000
O  6.32100 46.16900 40.14100
C  6.05900 45.17900 39.07700
H  10.98700 52.46500 39.95200
H  6.89200 57.28300 41.32300
H  2.30400 53.03800 42.70900
H  8.88200 48.15600 40.83300
H  10.39600 49.89600 39.16500
H  12.09400 49.65700 40.52000
H  11.07300 48.64400 41.44900
H  11.18500 50.38300 41.91200
H  7.57200 47.87200 38.80700
H  9.29500 47.64200 38.69300
H  9.33600 49.18100 36.98300
H  8.27300 50.40600 37.75900
H  11.58900 55.95000 38.62800
H  12.07200 54.33600 39.37000
H  12.16300 55.80700 40.31000
H  8.52100 58.87600 41.76500
H  7.71600 58.79900 40.16400
H  9.10200 59.85300 40.48000
H  4.18700 57.38100 41.27300
H  2.80100 55.83000 43.07500
H  4.10500 57.24000 44.13900
H  4.35000 58.53800 43.08000
H  5.76000 57.49100 43.53300
H  2.43200 54.85100 40.18200
H  2.27600 56.60400 40.37900
H  0.46500 56.71200 41.31000
H  0.69000 55.26700 42.35500
H  0.10100 55.09400 40.73400
H  1.69900 50.19300 44.09500
H  1.41100 49.53400 42.53000
H  1.19500 51.16300 42.60100
H  6.43200 47.56200 42.14600
H  5.10400 44.72300 39.34000
H  6.76400 44.35600 39.19000
H  6.08600 45.67700 38.10800
Mg -6.01800 25.39100 25.37700
C  -4.11100 26.43800 28.29200
C  -7.66200 23.22900 27.56900
C  -7.12100 23.88900 22.77900
C  -3.79100 27.37200 23.49500
N  -5.86400 24.92700 27.70500
C  -5.15100 25.55800 28.63500
C  -5.75600 25.33000 30.05300
C  -6.72200 24.10200 29.82700
C  -6.76400 24.09400 28.28000
C  -6.27300 22.76900 30.60100
C  -6.42600 26.56900 30.66900
C  -6.07200 26.67300 32.19100
H  -7.22400 26.19500 33.06400
N  -7.35500 23.93400 25.18500
C  -8.04200 23.24700 26.14300
C  -9.05900 22.38400 25.50400
C  -8.87000 22.49700 24.14600
C  -7.76200 23.45300 24.00100
C  -10.09800 21.64500 26.30700
C  -9.49300 21.74500 22.88900
O  -9.09200 21.70700 21.75700
C  -10.63100 20.89200 23.14700
N  -5.66200 25.73400 23.37400
C  -6.14700 24.85900 22.47900
C  -5.52800 25.04500 21.04500
C  -4.62600 26.35400 21.25400
C  -4.71500 26.58500 22.77300
C  -5.07000 23.83700 20.25200
C  -5.09000 27.68800 20.56300
C  -4.44200 28.14800 19.20200
N  -4.31600 26.61400 25.77800
C  -3.58100 27.36000 24.89800
C  -2.46800 28.03300 25.55200
C  -2.70100 27.78200 26.92000
C  -3.76900 26.81900 26.99100
C  -1.46300 28.83100 24.87600
C  -2.23600 28.11800 28.28600
O  -1.37000 28.89500 28.75000
C  -3.17600 27.24500 29.16500
C  -2.36900 26.49200 30.13900
O  -2.04400 25.32200 29.92700
O  -2.00400 27.19200 31.30000
C  -1.42200 26.34200 32.35800
H  -8.22000 22.71200 28.35300
H  -7.46500 23.43000 21.85100
H  -3.06700 27.93900 22.90600
H  -4.96200 24.99800 30.72200
H  -7.72400 24.31300 30.20000
H  -7.12500 22.30700 31.10000
H  -5.35600 22.78300 31.19000
H  -6.14000 22.03900 29.80300
H  -7.48700 26.42400 30.46600
H  -5.99900 27.46000 30.20900
H  -6.02500 27.74100 32.40400
H  -5.17000 26.15400 32.51500
H  -10.36000 20.65600 25.93100
H  -10.98800 22.27400 26.33400
H  -9.83100 21.48500 27.35100
H  -11.15600 20.77700 22.19900
H  -11.35400 21.41100 23.77600
H  -10.21900 19.94500 23.49500
H  -6.36500 25.29900 20.39500
H  -3.58100 26.22500 20.97100
H  -5.94300 23.18500 20.21500
H  -4.31700 23.34200 20.86500
H  -4.68800 24.15100 19.28100
H  -4.94700 28.41100 21.36600
H  -6.15100 27.53600 20.36500
H  -3.84400 29.05100 19.32300
H  -5.15300 28.31700 18.39400
H  -3.76500 27.40900 18.77100
H  -1.14400 28.30900 23.97400
H  -0.63100 28.73200 25.57300
H  -1.77600 29.87100 24.78100
H  -3.84200 27.84100 29.78900
H  -2.18300 26.23200 33.13100
H  -0.55300 26.82400 32.80600
H  -1.11400 25.33500 32.07600

