158

Mg 26.18300 50.22800 26.83300
C  24.40100 51.79300 29.33000
C  28.58400 49.17300 29.08000
C  28.15900 49.03500 24.25800
C  24.03500 51.73300 24.53000
N  26.44000 50.45200 28.91900
C  25.44900 50.99400 29.78700
C  25.67600 50.62200 31.22300
C  27.20800 50.12300 31.14300
C  27.44800 49.86500 29.60600
C  28.26300 51.15300 31.73500
C  24.67000 49.49300 31.67300
C  24.41300 49.37200 33.19400
H  25.19700 50.11500 34.28000
N  28.11300 49.19900 26.66800
C  28.84200 48.80000 27.75400
C  30.09200 48.19100 27.31000
C  30.02200 48.14800 25.89700
C  28.76300 48.80300 25.54700
C  31.07300 47.63200 28.29600
C  30.90300 47.53000 24.86800
O  30.77800 47.66800 23.65500
C  32.16000 46.73300 25.37400
N  26.14100 50.45100 24.77300
C  27.01200 49.78100 23.88400
C  26.57400 50.04700 22.43200
C  25.18100 50.61200 22.57600
C  25.18600 50.99300 24.03700
C  27.62400 50.84100 21.64400
C  24.03600 49.65700 22.17600
C  22.87600 50.27100 21.43700
N  24.59300 51.54300 26.88300
C  23.77900 52.08200 25.87800
C  22.67300 52.88700 26.44900
C  22.84000 52.75600 27.82400
C  24.06500 52.07100 28.02500
C  21.52500 53.53800 25.73300
C  22.29000 53.04300 29.16300
O  21.15500 53.45600 29.51300
C  23.35700 52.50200 30.20000
C  23.68600 53.58400 31.22100
O  24.60700 54.36300 31.05400
O  22.89900 53.48400 32.35700
C  23.26200 54.51700 33.34700
H  29.22100 48.87900 29.91600
H  28.64500 48.51400 23.43100
H  23.30800 52.11500 23.81000
H  25.61000 51.48100 31.89100
H  27.42500 49.15300 31.59000
H  28.62700 50.74200 32.67700
H  27.82800 52.10600 32.03600
H  29.15700 51.32700 31.13600
H  25.17200 48.57800 31.35900
H  23.74800 49.59300 31.10000
H  24.40500 48.31700 33.47000
H  23.38100 49.72000 33.14800
H  30.80100 47.65600 29.35100
H  32.00800 48.17600 28.16300
H  31.36400 46.60100 28.09500
H  31.78200 45.87200 25.92500
H  32.90000 47.32500 25.91300
H  32.66500 46.25200 24.53500
H  26.54400 49.05100 21.98900
H  25.16100 51.53500 21.99700
H  27.72100 50.67200 20.57200
H  28.63500 50.78500 22.04800
H  27.39000 51.89100 21.46900
H  23.71000 49.10400 23.05700
H  24.39300 48.92100 21.45600
H  23.07900 51.32600 21.25500
H  21.93000 50.19100 21.97300
H  22.87000 49.81000 20.45000
H  20.77900 52.75200 25.85000
H  21.50000 53.53400 24.64300
H  21.28100 54.49000 26.20500
H  22.86300 51.70100 30.75000
H  23.46400 55.45900 32.83700
H  24.10200 54.20300 33.96700
H  22.30500 54.63400 33.85500
Mg -10.63100 17.07500 40.28800
C  -7.16700 16.50900 40.66300
C  -9.97100 20.52800 40.06400
C  -13.94600 17.58500 39.34400
C  -11.03900 13.72500 39.33200
N  -8.78600 18.32000 40.33100
C  -7.46000 17.85600 40.37700
C  -6.51800 18.99200 40.12500
C  -7.35200 20.28600 40.32300
C  -8.80600 19.70300 40.27100
C  -7.11200 21.18500 41.63800
C  -5.83800 18.99200 38.72200
C  -4.30400 18.90800 38.76900
H  -3.69600 18.01700 37.74900
N  -11.82200 18.80400 39.82800
C  -11.32700 20.09200 39.81400
C  -12.40100 20.95800 39.54700
C  -13.63700 20.19500 39.43200
C  -13.21400 18.79800 39.54200
C  -12.28900 22.48400 39.42600
C  -15.13700 20.80100 39.33200
O  -15.24000 22.00100 39.30800
C  -16.28100 19.89400 39.31800
N  -12.22800 15.87800 39.39700
C  -13.52300 16.24400 39.32700
C  -14.48700 15.10500 39.04900
C  -13.50900 13.88900 38.85600
C  -12.15900 14.54300 39.15300
C  -15.50100 14.96200 40.28200
C  -13.66800 13.37000 37.44800
C  -13.35900 14.50500 36.45100
N  -9.44200 15.38600 40.36400
C  -9.70700 14.09000 39.82400
C  -8.59100 13.24400 40.04500
C  -7.57600 14.12000 40.43400
C  -8.10100 15.47800 40.48500
C  -8.40300 11.73400 39.62400
C  -6.15200 14.28100 40.79300
O  -5.31500 13.43100 40.98000
C  -5.85600 15.82000 40.88800
C  -5.17100 16.19500 42.09500
O  -4.11700 16.78600 42.03200
O  -5.77900 15.75500 43.27100
C  -5.02300 16.03500 44.48700
H  -9.63800 21.56500 40.14500
H  -15.00100 17.56900 39.06300
H  -11.15100 12.66500 39.09500
H  -5.69600 19.01300 40.84000
H  -7.21800 21.06500 39.57300
H  -6.10100 21.33200 42.01800
H  -7.72000 20.78600 42.45100
H  -7.59200 22.12200 41.35700
H  -6.06300 19.98100 38.32200
H  -6.26100 18.37600 37.92800
H  -3.81100 18.65400 39.70700
H  -3.83800 19.83500 38.43600
H  -12.69100 22.66300 38.42800
H  -11.29700 22.92800 39.51000
H  -12.87800 23.00400 40.18100
H  -17.19600 20.46900 39.45500
H  -16.27000 19.43000 40.30400
H  -16.37000 19.05400 38.62800
H  -15.10900 15.22800 38.16200
H  -13.71500 13.08500 39.56300
H  -14.95100 15.08200 41.21500
H  -15.96800 13.97800 40.25500
H  -16.31000 15.68400 40.39400
H  -14.61100 12.82800 37.38200
H  -12.84200 12.66400 37.35100
H  -14.13200 14.67800 35.70300
H  -12.43500 14.23200 35.94000
H  -13.03700 15.44800 36.89400
H  -8.13000 11.70800 38.56900
H  -9.32300 11.16300 39.75300
H  -7.71700 11.24200 40.31400
H  -5.20700 16.13300 40.07100
H  -5.12100 17.12100 44.50400
H  -3.98100 15.73400 44.38300
H  -5.45300 15.61300 45.39500

