158

Mg 25.69100 0.74600 29.37700
C  27.78300 0.30500 32.10400
C  23.08800 1.19700 31.51800
C  23.69800 0.90400 26.70900
C  28.35600 0.23900 27.29700
N  25.40700 0.59400 31.57600
C  26.41000 0.52400 32.52000
C  25.93000 0.83200 34.00300
C  24.42200 0.98700 33.67600
C  24.26200 0.90800 32.14600
C  23.42700 0.08100 34.47900
C  26.69400 2.07100 34.63700
C  27.60700 1.80400 35.80000
H  27.46300 2.69500 37.05300
N  23.65200 1.00300 29.12900
C  22.76600 1.20500 30.15400
C  21.50400 1.51200 29.55900
C  21.63900 1.28700 28.19600
C  23.04000 1.12700 27.93600
C  20.27300 1.80100 30.48600
C  20.61700 1.39700 27.17800
O  20.85100 1.19800 25.99700
C  19.16100 1.57400 27.59800
N  25.97800 0.78900 27.32700
C  25.03600 0.72900 26.41900
C  25.57800 0.80900 24.97800
C  27.11100 0.72400 25.19100
C  27.15600 0.60000 26.74000
C  25.04300 -0.30400 24.04100
C  27.97500 1.90000 24.72400
C  29.40200 1.51700 24.17700
N  27.63500 0.27700 29.60100
C  28.61200 0.08600 28.64100
C  29.84700 -0.29000 29.29200
C  29.51500 -0.18300 30.62900
C  28.18900 0.15900 30.76700
C  31.15100 -0.72300 28.64700
C  30.06600 -0.26200 31.93100
O  31.22900 -0.56800 32.23500
C  28.95100 0.06900 32.96800
C  28.90400 -1.11600 33.83700
O  28.77800 -2.28700 33.46200
O  28.98800 -0.73500 35.15900
C  28.86000 -1.80200 36.19700
H  22.27500 1.61900 32.11300
H  23.26400 1.15300 25.73800
H  29.16700 0.16200 26.57000
H  26.18700 -0.11000 34.48800
H  24.15900 2.01100 33.93900
H  23.32200 -0.81600 33.87000
H  22.49000 0.63800 34.49000
H  23.74700 -0.22400 35.47500
H  25.98200 2.72500 35.14200
H  27.32500 2.57000 33.90100
H  28.63400 1.92700 35.45700
H  27.55800 0.75800 36.10500
H  19.71000 0.86700 30.48900
H  19.64200 2.64300 30.20400
H  20.49600 2.14400 31.49600
H  18.52400 1.42600 26.72700
H  19.12000 2.63900 27.82500
H  18.91700 0.84500 28.37200
H  25.32700 1.77500 24.54000
H  27.55300 -0.16000 24.73200
H  24.18100 0.14000 23.54300
H  24.61100 -1.18100 24.52300
H  25.86700 -0.56900 23.37900
H  28.04200 2.68900 25.47300
H  27.41100 2.29700 23.87900
H  30.11800 2.11700 24.73900
H  29.53900 1.74500 23.12000
H  29.58800 0.44400 24.21900
H  31.22500 -0.22300 27.68200
H  31.23500 -1.81000 28.64200
H  31.99900 -0.32200 29.20100
H  29.20700 0.90700 33.61500
H  29.11000 -2.79800 35.83000
H  27.90600 -1.77400 36.72300
H  29.53600 -1.61600 37.03200
Mg 41.50800 8.10300 29.79200
C  43.34700 9.34800 32.53400
C  39.28200 6.70200 31.94200
C  39.86600 7.08200 27.11800
C  44.10100 9.34500 27.80800
N  41.42300 7.88000 32.01400
C  42.23300 8.53200 32.96100
C  41.72100 8.19500 34.39400
C  40.54600 7.21400 34.11300
C  40.37600 7.25700 32.60500
C  40.74400 5.72500 34.56400
C  41.34400 9.38600 35.23500
C  41.96500 9.35500 36.66900
H  42.09300 10.55400 37.48600
N  39.82100 6.95900 29.56200
C  38.96900 6.61200 30.59500
C  37.76600 5.98000 30.07600
C  37.92300 6.14000 28.58200
C  39.24600 6.73700 28.31000
C  36.69300 5.46600 30.91600
C  36.90400 5.82400 27.52200
O  37.04000 6.01200 26.34600
C  35.60100 5.23600 27.87200
N  41.93900 8.22100 27.69800
C  41.11800 7.61600 26.80200
C  41.81800 7.62900 25.41800
C  43.15400 8.50500 25.64000
C  43.02100 8.78900 27.09700
C  42.11000 6.26900 24.77500
C  43.17000 9.85300 24.85000
C  42.06900 10.89500 24.92400
N  43.33600 9.24000 30.05600
C  44.27600 9.58800 29.15800
C  45.35600 10.24900 29.89500
C  45.02100 10.29200 31.24500
C  43.79800 9.63400 31.24200
C  46.54900 10.84300 29.29100
C  45.48100 10.72600 32.55600
O  46.42800 11.33500 33.03100
C  44.37200 10.12200 33.43800
C  45.04700 9.36600 34.61600
O  45.43300 8.21200 34.58400
O  45.43900 10.34500 35.49800
C  46.28800 9.93200 36.61500
H  38.54200 6.35700 32.66700
H  39.26200 6.69400 26.29600
H  44.95500 9.47400 27.14000
H  42.51300 7.68600 34.94400
H  39.62700 7.44300 34.65100
H  40.06600 5.52800 35.39500
H  41.79900 5.56300 34.78300
H  40.61100 5.08800 33.68900
H  40.27400 9.55100 35.35900
H  41.58700 10.32500 34.73700
H  42.96300 8.91600 36.66800
H  41.21600 8.79600 37.23000
H  35.93300 6.24300 30.99200
H  37.02500 5.18600 31.91600
H  36.20700 4.60700 30.45400
H  35.17200 5.87000 28.64900
H  35.71200 4.23800 28.29600
H  34.95500 5.11600 27.00300
H  41.12900 8.09700 24.71500
H  44.06700 7.95600 25.40900
H  41.45700 5.53600 25.25000
H  43.13200 5.97600 24.53500
H  41.66500 6.31600 23.78100
H  43.42900 9.48400 23.85800
H  44.05200 10.41800 25.15200
H  41.33900 10.50400 25.63200
H  41.47500 10.97600 24.01400
H  42.40300 11.86200 25.30100
H  47.46400 10.36600 29.64300
H  46.50900 11.84000 29.73200
H  46.49000 10.89500 28.20400
H  43.86200 11.00100 33.83100
H  47.34100 10.08800 36.38000
H  46.10900 8.91800 36.97300
H  46.00000 10.59600 37.43000

