158

Mg 23.08600 -6.06000 44.89800
C  25.48800 -4.08500 43.41800
C  20.73900 -4.42500 42.93600
C  20.73900 -8.67400 45.36200
C  25.41300 -8.00200 46.35700
N  23.08000 -4.52800 43.42900
C  24.25000 -3.78300 43.09400
C  23.93900 -2.59800 42.20200
C  22.40000 -2.60800 42.25300
C  22.03000 -3.91900 42.89700
C  21.63800 -1.39900 42.85800
C  24.48100 -2.88400 40.74900
C  25.07500 -1.69300 39.98800
H  26.19900 -2.06000 39.01500
N  21.03100 -6.46400 44.32100
C  20.25200 -5.58300 43.62300
C  18.89300 -6.13400 43.42400
C  18.86000 -7.38700 44.14500
C  20.26100 -7.54400 44.64400
C  17.81400 -5.50700 42.49900
C  17.68600 -8.36800 44.17900
O  16.53600 -7.96400 43.92000
C  17.71500 -9.84600 44.55500
N  23.04200 -8.11200 45.70800
C  21.99500 -8.88300 45.89400
C  22.38700 -10.18900 46.61400
C  23.77800 -9.83700 47.12300
C  24.10100 -8.60300 46.39100
C  21.35100 -10.67500 47.66300
C  24.84600 -10.93400 46.96000
C  25.88600 -11.05300 48.07500
N  25.04000 -6.15900 44.86800
C  25.94500 -6.91700 45.68600
C  27.29300 -6.34800 45.59800
C  27.15100 -5.26700 44.72200
C  25.76300 -5.20000 44.25300
C  28.53800 -6.90600 46.15600
C  27.93100 -4.19800 44.03400
O  29.15200 -3.92000 44.14100
C  26.86000 -3.44400 43.12400
C  26.97200 -2.00300 43.52400
O  26.44300 -1.42500 44.47700
O  27.77700 -1.41500 42.55300
C  27.99200 0.01500 42.69000
H  20.10500 -3.80700 42.29700
H  19.99900 -9.47700 45.39000
H  26.19400 -8.53900 46.90100
H  24.44700 -1.72000 42.60100
H  22.14800 -2.75400 41.20200
H  21.06500 -1.63700 43.75500
H  20.91300 -0.98400 42.15800
H  22.40800 -0.65400 43.05800
H  23.69500 -3.40200 40.20000
H  25.25000 -3.65600 40.72200
H  25.35000 -0.94100 40.72700
H  24.23600 -1.23700 39.46200
H  17.44200 -6.35000 41.91700
H  18.07300 -4.74200 41.76700
H  16.99800 -5.06500 43.07100
H  16.70900 -10.19800 44.32700
H  17.98200 -10.03600 45.59500
H  18.30000 -10.41300 43.83100
H  22.51100 -10.99200 45.88800
H  23.61500 -9.47400 48.13700
H  20.52000 -9.97000 47.69700
H  21.78700 -10.97800 48.61500
H  20.99200 -11.61000 47.23400
H  25.37300 -10.78800 46.01700
H  24.29700 -11.87500 46.93800
H  26.82100 -11.50800 47.74700
H  25.55800 -11.82700 48.76900
H  26.06700 -10.11600 48.60200
H  28.91000 -6.09500 46.78300
H  29.33000 -7.07900 45.42700
H  28.43600 -7.81400 46.75000
H  27.27300 -3.53100 42.12000
H  29.01000 0.26300 42.38900
H  27.77000 0.50000 43.64000
H  27.46200 0.54900 41.90100
Mg 53.55300 24.24900 45.07600
C  51.30400 26.55400 43.82100
C  52.05500 21.84800 43.08100
C  56.17100 22.22800 45.43400
C  55.44600 26.94600 46.40800
N  52.00100 24.18200 43.51000
C  51.28500 25.34900 43.11500
C  50.26500 24.98200 42.01100
C  50.12300 23.46800 42.25500
C  51.49500 23.11400 42.97200
C  48.82700 23.18100 43.09500
C  50.90200 25.35700 40.67200
C  49.91500 25.74300 39.59200
H  50.54200 26.46000 38.35800
N  53.94600 22.21100 44.63800
C  53.19000 21.42500 43.84700
C  53.69500 20.07300 43.85400
C  54.83300 20.12700 44.77000
C  55.02500 21.51300 44.99500
C  53.23100 18.94600 43.00900
C  55.66500 18.93800 45.12700
O  55.40200 17.82200 44.68100
C  56.96600 18.99800 45.94900
N  55.56300 24.55200 45.87100
C  56.43200 23.52100 45.86600
C  57.79100 23.99900 46.30800
C  57.50200 25.48100 46.71300
C  56.02700 25.70700 46.37600
C  58.51700 23.22100 47.51100
C  58.52000 26.50600 46.09100
C  59.12100 27.53800 47.06500
N  53.31600 26.36700 45.31200
C  54.15600 27.31900 45.86000
C  53.36300 28.54400 45.99600
C  52.18400 28.30400 45.22800
C  52.28700 26.96300 44.80600
C  53.74700 29.81000 46.70900
C  50.91100 28.87500 44.77700
O  50.38500 29.98400 44.99500
C  50.31800 27.69300 43.85000
C  50.07900 28.33600 42.54800
O  50.93400 28.76800 41.80200
O  48.74100 28.37000 42.27200
C  48.29200 28.90600 40.98000
H  51.53800 21.16100 42.40700
H  57.10100 21.66400 45.53200
H  56.12000 27.78500 46.58800
H  49.29800 25.47400 42.11900
H  50.08300 22.87100 41.34400
H  49.17600 22.57500 43.93200
H  48.14100 22.62100 42.46000
H  48.35600 24.02000 43.60800
H  51.55800 24.61900 40.21000
H  51.42400 26.26500 40.97500
H  49.02200 26.28100 39.91200
H  49.50700 24.80900 39.20400
H  54.02000 18.51500 42.39200
H  52.43000 19.20600 42.31700
H  52.72000 18.24000 43.66300
H  57.13000 18.02400 46.40900
H  56.97100 19.89000 46.57600
H  57.77700 19.13700 45.23400
H  58.42700 23.91300 45.42700
H  57.54100 25.65500 47.78800
H  58.56500 23.92100 48.34600
H  59.48800 22.78900 47.27100
H  58.08000 22.34800 47.99600
H  57.94700 27.11900 45.39500
H  59.30700 25.91500 45.62200
H  59.06400 27.37300 48.14100
H  58.59800 28.47600 46.87800
H  60.10600 27.84800 46.71600
H  53.77200 30.56600 45.92400
H  54.74900 29.78700 47.13500
H  53.00500 30.03700 47.47500
H  49.36300 27.34400 44.24200
H  48.34700 29.98600 41.11800
H  47.26800 28.53600 40.93700
H  48.97700 28.51900 40.22600

