158

Mg 0.17700 -2.57200 44.39500
C  3.68900 -2.23200 44.30300
C  -0.02800 0.24100 42.48700
C  -3.06000 -3.21900 44.11100
C  0.61900 -5.69500 45.85200
N  1.78400 -1.20000 43.35100
C  3.09800 -1.16500 43.53000
C  3.76700 0.02200 42.75500
C  2.50600 0.88100 42.41500
C  1.32000 -0.08800 42.73000
C  2.39300 2.18700 43.18700
C  4.64400 -0.43100 41.55100
C  5.62400 0.61500 40.97100
H  5.25500 1.09800 39.60500
N  -1.26100 -1.60800 43.43000
C  -1.20000 -0.46600 42.72500
C  -2.51000 -0.03000 42.31700
C  -3.41700 -1.08700 42.62000
C  -2.59400 -2.01400 43.49200
C  -2.69100 1.07900 41.33200
C  -4.77200 -1.17600 42.05500
O  -5.26000 -0.32300 41.31000
C  -5.53900 -2.42400 42.24900
N  -1.06800 -4.10100 45.00400
C  -2.36300 -4.15100 44.82400
C  -3.03200 -5.43800 45.23400
C  -1.85300 -6.27900 45.80500
C  -0.68000 -5.32200 45.48500
C  -4.23800 -5.28100 46.19000
C  -1.77400 -7.76600 45.28500
C  -1.55900 -8.87400 46.33600
N  1.74500 -3.69300 45.07300
C  1.75400 -4.92800 45.67000
C  3.15400 -5.29400 45.94400
C  3.89400 -4.21600 45.42200
C  3.02000 -3.31800 44.82200
C  3.65100 -6.43900 46.66200
C  5.28500 -3.70600 45.28700
O  6.34600 -4.12500 45.74500
C  5.15900 -2.52200 44.35000
C  5.98500 -1.34900 44.85500
O  5.74400 -0.59300 45.76800
O  7.03800 -1.07400 43.90800
C  8.02000 -0.05000 44.29400
H  -0.14000 1.19100 41.96000
H  -4.11600 -3.48600 44.18700
H  0.74800 -6.65800 46.35000
H  4.38400 0.54100 43.48800
H  2.53700 1.32900 41.42200
H  3.33600 2.69600 43.38600
H  1.77500 2.15400 44.08400
H  1.95800 2.91800 42.50600
H  3.91700 -0.63000 40.76400
H  5.23600 -1.29000 41.86600
H  6.60700 0.14500 40.97800
H  5.72800 1.42900 41.68800
H  -2.33500 0.79800 40.34100
H  -2.18000 1.98800 41.64900
H  -3.72000 1.40700 41.18300
H  -4.94900 -3.30400 41.99300
H  -6.35700 -2.33800 41.53300
H  -5.94500 -2.32000 43.25600
H  -3.26700 -5.94500 44.29800
H  -1.96100 -6.48100 46.87100
H  -4.01100 -5.59800 47.20800
H  -4.88200 -6.03800 45.74200
H  -4.55100 -4.24200 46.29100
H  -0.94500 -7.76300 44.57700
H  -2.70900 -8.04500 44.80000
H  -0.59000 -9.35900 46.22300
H  -2.26700 -9.68800 46.17600
H  -1.58800 -8.50600 47.36100
H  3.12800 -6.56700 47.60900
H  4.70000 -6.22400 46.86800
H  3.48800 -7.33600 46.06400
H  5.48600 -3.02800 43.44200
H  7.42600 0.64100 44.89300
H  8.33600 0.47800 43.39400
H  8.79100 -0.57500 44.85700
Mg 17.24000 50.92400 25.90400
C  18.95000 49.78300 28.64000
C  14.95500 52.48600 28.02100
C  15.74300 52.11000 23.18100
C  19.71600 49.53400 23.80900
N  17.13400 51.30600 28.11600
C  17.87500 50.60200 29.04000
C  17.37400 50.82300 30.44700
C  16.04300 51.62000 30.23200
C  16.03800 51.83900 28.72400
C  14.83500 50.89600 30.80500
C  18.47300 51.50400 31.35500
C  18.20400 51.58600 32.87600
H  17.21600 50.64000 33.56900
N  15.51100 52.08500 25.58600
C  14.71300 52.59900 26.57600
C  13.66900 53.30700 25.93700
C  14.05300 53.47800 24.51200
C  15.09800 52.48100 24.37500
C  12.67700 54.06600 26.69700
C  13.58500 54.49000 23.44200
O  14.06000 54.55300 22.30800
C  12.58700 55.53400 23.93800
N  17.64000 50.90000 23.86000
C  16.92300 51.38700 22.86800
C  17.16100 50.85800 21.45900
C  18.59600 50.39700 21.69900
C  18.69500 50.30900 23.17500
C  16.15500 49.70000 21.19600
C  19.67100 51.36200 21.09900
C  20.56100 50.90000 19.94600
N  18.97300 49.94000 26.11300
C  19.81200 49.34600 25.19000
C  20.85200 48.62100 25.85700
C  20.50100 48.65800 27.21700
C  19.35400 49.51200 27.32700
C  22.03200 47.98500 25.30100
C  20.95000 48.31200 28.59200
O  22.00600 47.69400 28.93800
C  19.91500 48.99400 29.55400
C  19.35900 47.96000 30.41500
O  18.51000 47.16900 30.00300
O  19.99100 47.97600 31.65700
C  19.57600 46.94600 32.60300
H  14.20600 52.89100 28.70500
H  15.21300 52.47600 22.30000
H  20.41400 48.98300 23.17500
H  17.12600 49.91000 30.98800
H  16.03900 52.62500 30.65300
H  14.03500 50.74200 30.08100
H  14.48400 51.52800 31.62100
H  15.05400 49.93300 31.26600
H  18.44500 52.55100 31.05500
H  19.46100 51.10400 31.12600
H  17.89000 52.62600 32.96300
H  19.16900 51.41700 33.35300
H  12.99100 55.08800 26.91000
H  12.49600 53.53300 27.63100
H  11.72300 54.05200 26.16900
H  13.01200 56.17000 24.71400
H  11.59400 55.19500 24.23100
H  12.57700 56.27900 23.14200
H  17.15200 51.62200 20.68200
H  18.88100 49.42500 21.29800
H  15.87300 49.93200 20.17000
H  15.25500 49.60100 21.80300
H  16.54800 48.68400 21.16000
H  20.37100 51.42600 21.93100
H  19.36600 52.39600 20.93600
H  20.21600 49.90400 19.66900
H  21.59500 50.80700 20.27800
H  20.49300 51.54100 19.06700
H  22.31800 48.55600 24.41800
H  21.70900 47.03600 24.87200
H  22.82200 47.76000 26.01800
H  20.56900 49.69400 30.07200
H  20.15400 47.06600 33.51900
H  19.69300 45.94300 32.19400
H  18.56600 47.12200 32.97400

