158

Mg 9.23600 48.11600 25.83000
C  7.30700 48.32600 28.68000
C  11.90200 49.46100 27.60800
C  10.97400 48.34300 23.05700
C  6.18100 47.44300 23.94100
N  9.52300 48.83400 27.92800
C  8.61100 48.80500 28.94200
C  9.23100 49.18800 30.33100
C  10.60200 49.85800 29.85500
C  10.71000 49.30500 28.38100
C  10.51300 51.41000 29.90200
C  9.53400 48.07300 31.32300
C  9.02900 48.36700 32.72400
H  9.32400 47.24800 33.70000
N  11.25000 48.69000 25.39200
C  12.17600 49.11800 26.26700
C  13.38900 49.24300 25.49200
C  13.14700 48.94400 24.09300
C  11.74500 48.63800 24.14200
C  14.71300 49.38500 26.10100
C  14.13400 48.91300 22.89700
O  13.66700 48.67000 21.76100
C  15.48800 49.26800 23.02100
N  8.63700 47.82800 23.75900
C  9.58100 48.04900 22.81500
C  9.02900 47.70700 21.41400
C  7.53000 47.19400 21.72000
C  7.40600 47.49100 23.22700
C  9.11400 48.86500 20.41900
C  7.25800 45.70500 21.51800
C  8.13600 44.74400 22.34900
N  7.08900 47.93600 26.10600
C  6.02700 47.61500 25.32000
C  4.83300 47.46000 26.17400
C  5.29100 47.74400 27.48200
C  6.69900 48.01800 27.40900
C  3.54700 46.98900 25.69200
C  4.89600 47.88200 28.85800
O  3.80400 47.72700 29.40000
C  6.23000 48.10400 29.66400
C  6.49800 46.89000 30.42200
O  6.90000 45.86800 29.88900
O  6.04900 47.07900 31.67400
C  6.46900 45.97400 32.59200
H  12.74200 49.93000 28.12500
H  11.43400 48.40100 22.06900
H  5.30300 47.24400 23.32400
H  8.63100 49.87900 30.92200
H  11.41700 49.53800 30.50400
H  9.48300 51.72300 29.73000
H  11.14100 51.94500 29.18900
H  10.79100 51.73200 30.90600
H  10.59700 47.89600 31.49200
H  8.98400 47.18100 31.02200
H  7.95900 48.54300 32.62300
H  9.44800 49.26400 33.18000
H  14.62900 49.40400 27.18800
H  15.17000 50.31200 25.75600
H  15.27100 48.49300 25.81500
H  16.05600 48.37700 23.29200
H  15.62000 50.11600 23.69200
H  15.75900 49.65100 22.03700
H  9.75100 47.01300 20.98400
H  6.76200 47.76000 21.19300
H  8.24500 49.01500 19.77700
H  9.99300 48.76000 19.78200
H  9.31400 49.78500 20.96700
H  7.40900 45.53700 20.45200
H  6.22200 45.56100 21.82200
H  7.35200 44.27600 22.94200
H  8.95900 45.30900 22.78700
H  8.48700 43.90700 21.74500
H  3.68900 45.99200 25.27600
H  3.29700 47.63300 24.84800
H  2.82100 47.08000 26.50000
H  6.18200 49.00400 30.27800
H  7.40900 45.46600 32.38100
H  5.65200 45.27200 32.76100
H  6.72200 46.47200 33.52800
Mg 0.43400 42.49200 25.96400
C  2.28400 42.68700 29.05200
C  -2.23300 41.34800 27.80000
C  -0.99200 41.84500 23.12500
C  3.36200 43.40700 24.36000
N  0.08600 42.17500 28.26300
C  0.97000 42.32700 29.31000
C  0.16100 42.37900 30.57500
C  -1.31800 41.87700 30.19500
C  -1.15400 41.84400 28.63000
C  -1.73900 40.42800 30.70500
C  0.28300 43.64900 31.38000
C  0.58300 43.56800 32.87600
H  0.36100 42.29400 33.62000
N  -1.34500 41.76100 25.52800
C  -2.31600 41.24900 26.37500
C  -3.48400 40.77800 25.66600
C  -3.09200 40.84000 24.25700
C  -1.75200 41.49800 24.26100
C  -4.73400 40.28400 26.31900
C  -4.02500 40.48200 23.09900
O  -3.54600 40.42000 21.94100
C  -5.39700 39.91300 23.26200
N  1.14700 42.59700 24.02600
C  0.31900 42.38000 23.01400
C  1.00500 42.65600 21.64200
C  2.23900 43.46400 22.08500
C  2.27800 43.13800 23.55500
C  1.35200 41.44800 20.76600
C  2.17000 44.98600 21.95300
C  3.19000 45.60500 20.97200
N  2.43300 42.89400 26.47600
C  3.48900 43.19700 25.71100
C  4.71600 43.36900 26.42000
C  4.27000 43.13000 27.76700
C  2.88400 42.86500 27.75900
C  6.06100 43.71300 25.92600
C  4.71100 43.05600 29.09600
O  5.87600 42.98500 29.54900
C  3.40400 42.82600 30.01700
C  3.56400 41.59800 30.86900
O  3.70800 40.46200 30.46900
O  3.85700 42.08400 32.14800
C  4.38200 40.98300 33.04500
H  -3.10100 41.02800 28.38100
H  -1.42800 41.69400 22.13600
H  4.22200 43.77800 23.79800
H  0.67600 41.58600 31.11800
H  -2.17100 42.54500 30.31600
H  -1.19100 40.17000 31.61100
H  -1.42000 39.77800 29.89000
H  -2.81200 40.32100 30.86700
H  -0.67100 44.15300 31.22600
H  1.08500 44.34800 31.14100
H  -0.02400 44.30800 33.39800
H  1.60100 43.94300 32.99000
H  -4.59300 40.15400 27.39200
H  -5.16300 39.38600 25.87500
H  -5.47300 41.07700 26.20100
H  -6.07400 40.60800 23.75800
H  -5.15100 38.99500 23.79600
H  -5.80200 39.70800 22.27100
H  0.37400 43.35600 21.09400
H  3.17800 43.10000 21.66700
H  0.84100 40.57800 21.17800
H  2.43200 41.32100 20.68600
H  0.87200 41.71600 19.82500
H  2.21200 45.55200 22.88300
H  1.13700 45.13000 21.63800
H  2.64900 46.20100 20.23700
H  3.57400 44.80900 20.33300
H  4.10300 46.00700 21.41000
H  6.74100 43.10200 26.51900
H  6.27900 44.78100 25.90800
H  6.16800 43.25600 24.94200
H  3.20600 43.74700 30.56500
H  4.49200 41.24700 34.09600
H  5.35800 40.63900 32.70200
H  3.70400 40.13300 32.96500

