158

Mg -12.80600 16.78500 42.64300
C  -9.64400 15.39700 41.76400
C  -11.65600 19.67300 41.07000
C  -15.89900 17.89600 42.56100
C  -13.84300 13.38600 43.12200
N  -10.91400 17.38600 41.40000
C  -9.73800 16.77400 41.50100
C  -8.63200 17.66800 40.90000
C  -9.14600 19.03800 41.05700
C  -10.63700 18.75500 41.24800
C  -8.52000 19.86300 42.23800
C  -8.12900 17.37900 39.49500
C  -6.59100 16.99200 39.29800
H  -6.43000 15.91900 38.24400
N  -13.63600 18.56900 42.08700
C  -13.01300 19.59300 41.38900
C  -13.94700 20.66400 41.15600
C  -15.23600 20.24200 41.64300
C  -14.98600 18.87900 42.15500
C  -13.47100 21.98500 40.67100
C  -16.57500 21.05400 41.49800
O  -16.63300 22.19000 40.99600
C  -17.87400 20.48400 41.85400
N  -14.62000 15.72500 42.64500
C  -15.80200 16.47600 42.72600
C  -17.00400 15.62000 42.95200
C  -16.36400 14.20500 43.18400
C  -14.86400 14.39500 42.96600
C  -17.92700 16.12600 44.12500
C  -16.95100 13.11100 42.22000
C  -16.25800 12.69900 40.86900
N  -11.86800 14.78400 42.80400
C  -12.47400 13.53300 43.03700
C  -11.49100 12.53500 43.00700
C  -10.34400 13.22000 42.57800
C  -10.63600 14.55600 42.33800
C  -11.60700 11.11200 43.29100
C  -8.92000 13.08400 42.23400
O  -8.15600 12.14800 42.32800
C  -8.47200 14.42000 41.56200
C  -7.27300 14.82800 42.25300
O  -7.24100 15.30800 43.39900
O  -6.13100 14.46400 41.61000
C  -4.98600 14.21200 42.51300
H  -11.36100 20.64000 40.65700
H  -16.92700 18.20600 42.76100
H  -14.18600 12.41400 43.48300
H  -7.84700 17.48300 41.63400
H  -9.07700 19.73100 40.21800
H  -8.11500 20.77800 41.80700
H  -7.72400 19.34400 42.77300
H  -9.21700 20.09400 43.04300
H  -8.13800 18.33000 38.96300
H  -8.77500 16.68600 38.95500
H  -6.20000 16.56600 40.22200
H  -6.16000 17.93400 38.95800
H  -13.28700 22.09400 39.60200
H  -12.58800 22.30200 41.22400
H  -14.13600 22.82700 40.86400
H  -18.60500 21.22900 41.54100
H  -18.10400 20.31900 42.90700
H  -18.01600 19.61100 41.21800
H  -17.56300 15.77500 42.02900
H  -16.59000 13.82400 44.18000
H  -18.16800 15.21300 44.67000
H  -18.82600 16.55400 43.68300
H  -17.50200 16.86900 44.80000
H  -18.01700 13.29900 42.09200
H  -16.88400 12.26400 42.90200
H  -15.60200 11.85700 41.09000
H  -15.49400 13.45400 40.68500
H  -16.96000 12.51500 40.05600
H  -11.72100 10.60500 42.33300
H  -12.46500 10.95600 43.94500
H  -10.71700 10.77000 43.81900
H  -8.31700 14.30300 40.49000
H  -5.06300 13.45300 43.29200
H  -4.62800 15.13800 42.96300
H  -4.13200 13.79900 41.97700
Mg -5.92900 25.40600 25.40700
C  -4.65500 26.36900 28.63000
C  -7.95100 23.15800 27.22200
C  -6.98200 24.20000 22.41700
C  -3.57300 27.23200 23.94500
N  -6.27900 24.78800 27.68700
C  -5.76500 25.46800 28.76500
C  -6.39500 25.01500 30.03200
C  -7.12600 23.66800 29.60200
C  -7.18300 23.88400 28.10400
C  -6.40700 22.39400 30.01500
C  -7.34800 26.09500 30.56800
C  -7.31800 26.38400 32.09700
H  -6.68200 25.27700 33.00400
N  -7.27300 23.91300 24.87700
C  -8.03800 23.14600 25.76800
C  -8.94000 22.32100 24.99700
C  -8.71400 22.60600 23.56900
C  -7.57000 23.56900 23.57000
C  -9.93900 21.35000 25.67600
C  -9.40400 21.98900 22.23100
O  -9.06800 22.26300 21.06000
C  -10.65900 21.01000 22.33500
N  -5.45000 25.75500 23.53900
C  -6.00100 25.14400 22.39500
C  -5.32500 25.62300 21.12200
C  -4.48200 26.78700 21.64500
C  -4.49800 26.58600 23.16000
C  -4.53100 24.52400 20.32000
C  -5.05800 28.20100 21.29000
C  -5.07300 28.53500 19.81100
N  -4.49500 26.63000 26.14300
C  -3.54300 27.26100 25.33700
C  -2.62800 28.00500 26.22900
C  -3.02500 27.66400 27.53100
C  -4.15200 26.83200 27.37900
C  -1.49000 28.90400 25.86100
C  -2.73900 27.85800 29.00000
O  -1.85500 28.49000 29.53400
C  -3.85700 27.05600 29.74400
C  -3.15600 26.22200 30.60800
O  -2.67100 25.16200 30.35000
O  -3.11500 26.86900 31.81000
C  -2.39400 26.24400 32.88900
H  -8.44900 22.27300 27.62400
H  -7.37700 23.79400 21.48300
H  -2.93100 28.00200 23.51100
H  -5.57800 24.91400 30.74700
H  -8.13000 23.74700 30.01800
H  -6.30600 21.66400 29.21200
H  -7.02600 21.99900 30.82000
H  -5.39700 22.52200 30.40600
H  -8.35500 25.76300 30.31600
H  -7.33800 27.05100 30.04500
H  -8.31600 26.60900 32.47500
H  -6.72800 27.29000 32.23700
H  -9.44600 20.37800 25.70900
H  -10.87300 21.25200 25.12200
H  -10.24600 21.63400 26.68200
H  -11.17500 20.90200 21.38200
H  -11.41800 21.39500 23.01700
H  -10.39700 19.99800 22.64600
H  -6.12500 25.90700 20.43700
H  -3.43000 26.66000 21.39000
H  -5.12200 24.04700 19.53800
H  -4.03200 23.75100 20.90500
H  -3.86900 25.17000 19.74400
H  -4.40700 28.88800 21.83000
H  -6.05300 28.37500 21.69900
H  -4.53000 29.46600 19.64600
H  -6.11300 28.76100 19.57900
H  -4.66000 27.71400 19.22500
H  -1.82500 29.93400 25.98100
H  -1.21700 28.63900 24.84000
H  -0.62500 28.56700 26.43300
H  -4.44700 27.78700 30.29800
H  -2.95200 26.21500 33.82500
H  -1.48500 26.82700 33.03400
H  -2.15300 25.23200 32.56600

