158

Mg 25.11500 1.69800 29.68700
C  27.21600 1.55200 32.49500
C  22.43600 1.68600 31.89800
C  23.15900 1.39400 27.04200
C  27.93400 0.95600 27.65000
N  24.83000 1.79200 31.88900
C  25.89400 1.82500 32.83200
C  25.39400 2.07100 34.20500
C  23.81700 1.91600 34.03400
C  23.63000 1.77200 32.50100
C  23.14500 0.81600 34.93800
C  25.83000 3.41700 34.80800
C  26.66000 3.35900 36.08600
H  26.23500 4.34100 37.29100
N  23.08900 1.66300 29.47800
C  22.20000 1.65700 30.47600
C  20.89800 1.69400 29.86800
C  21.01200 1.53100 28.50100
C  22.44700 1.55600 28.30300
C  19.68900 1.72100 30.76400
C  19.97500 1.19400 27.48800
O  20.25600 0.96400 26.32600
C  18.55400 1.05700 27.76000
N  25.53100 1.09600 27.71800
C  24.50700 1.16300 26.76500
C  25.06500 1.09600 25.32600
C  26.58500 0.87600 25.44900
C  26.71400 1.03600 27.00800
C  24.49700 0.09900 24.26100
C  27.45200 2.01400 24.78600
C  27.29300 3.44400 25.30600
N  27.10600 1.36700 29.94100
C  28.07700 1.12500 29.02100
C  29.35300 1.03500 29.67800
C  29.06100 1.27100 31.06300
C  27.65300 1.35100 31.16200
C  30.66000 0.73900 29.04400
C  29.65900 1.22900 32.41700
O  30.83700 1.00300 32.77700
C  28.45900 1.54100 33.43800
C  28.37700 0.52900 34.52700
O  28.10300 -0.63000 34.31600
O  28.81100 1.06200 35.68500
C  28.77100 0.12400 36.80700
H  21.69200 1.73400 32.69600
H  22.51900 1.43800 26.15900
H  28.77000 0.75000 26.97900
H  25.84300 1.31900 34.85500
H  23.32300 2.82900 34.36700
H  22.82700 0.11600 34.16500
H  22.23000 1.21000 35.38000
H  23.75500 0.33500 35.70300
H  24.94000 3.98100 35.08600
H  26.46600 3.97700 34.12300
H  27.65700 3.68600 35.78800
H  26.72700 2.37700 36.55300
H  19.10700 0.80700 30.64400
H  19.03500 2.55200 30.50200
H  19.89700 1.95500 31.80800
H  18.38600 0.22800 28.44900
H  18.08800 0.75800 26.82100
H  18.11700 1.94000 28.22600
H  24.90400 2.11800 24.98400
H  26.88900 -0.12900 25.15900
H  24.44900 0.65400 23.32400
H  23.49500 -0.27200 24.47700
H  25.11700 -0.79600 24.21000
H  27.01100 2.05800 23.79000
H  28.49100 1.69100 24.71700
H  28.29200 3.81200 25.54000
H  26.63100 3.37900 26.16900
H  26.80100 4.03400 24.53300
H  30.80500 -0.30900 28.78200
H  31.33700 1.07200 29.83100
H  30.91000 1.37300 28.19400
H  28.61200 2.54400 33.83600
H  29.72400 -0.39000 36.93400
H  28.04300 -0.68500 36.75800
H  28.60900 0.69300 37.72200
Mg -12.07900 16.98400 41.56900
C  -9.05300 15.17500 41.20500
C  -10.50300 19.67400 40.18800
C  -15.05700 18.47200 41.15500
C  -13.71700 13.78500 41.98200
N  -10.04100 17.36800 40.71700
C  -8.95900 16.50300 40.68200
C  -7.78600 17.04400 39.92800
C  -8.18700 18.57100 39.94400
C  -9.64900 18.58000 40.32100
C  -7.24200 19.45300 40.75400
C  -7.58000 16.41900 38.50100
C  -6.32400 15.66700 38.14400
H  -5.65300 15.96300 36.77900
N  -12.69100 18.92700 41.01700
C  -11.86700 19.93600 40.51500
C  -12.65500 21.08400 40.32900
C  -14.02300 20.77700 40.60100
C  -13.99200 19.36200 40.97700
C  -12.08300 22.32500 39.87300
C  -15.18000 21.66700 40.47200
O  -15.11100 22.80000 40.10600
C  -16.65600 21.24400 40.75800
N  -14.03000 16.21400 41.57500
C  -15.05800 17.08700 41.43800
C  -16.36900 16.30500 41.53500
C  -15.93100 14.81400 41.84100
C  -14.41300 14.91000 41.73100
C  -17.40600 16.87000 42.54600
C  -16.71900 13.69900 41.02800
C  -17.05600 12.39700 41.85300
N  -11.56400 14.87000 41.68900
C  -12.30500 13.70500 41.93200
C  -11.41000 12.58900 42.14500
C  -10.13800 13.09900 41.87600
C  -10.30300 14.51400 41.60300
C  -11.93300 11.22900 42.45400
C  -8.77800 12.70500 41.72000
O  -8.25600 11.66100 41.83300
C  -8.00600 14.11900 41.38300
C  -7.06500 14.42800 42.53200
O  -7.39400 14.92200 43.63500
O  -5.75500 14.15900 42.23600
C  -4.73000 14.29100 43.30300
H  -9.91100 20.54400 39.89300
H  -16.06500 18.89200 41.14300
H  -14.30600 12.88300 42.16400
H  -6.83700 16.86200 40.43200
H  -8.13900 18.95700 38.92600
H  -6.28800 18.98900 41.00600
H  -7.71200 19.60600 41.72500
H  -7.05500 20.41400 40.27400
H  -7.78600 17.20400 37.77400
H  -8.37900 15.70100 38.32000
H  -6.49400 14.59000 38.13900
H  -5.52000 15.80700 38.86700
H  -12.19400 22.38400 38.79100
H  -10.99900 22.39800 39.97200
H  -12.55200 23.15900 40.39400
H  -17.29100 22.12300 40.64700
H  -16.82500 20.87100 41.76800
H  -16.94500 20.36500 40.18100
H  -16.80600 16.35200 40.53700
H  -16.13400 14.70600 42.90700
H  -18.25200 17.38400 42.09000
H  -16.95900 17.64400 43.17000
H  -17.87800 16.14500 43.20800
H  -16.29500 13.50800 40.04200
H  -17.69400 14.16400 40.88300
H  -18.12000 12.45700 42.08100
H  -16.57400 12.38500 42.83100
H  -16.94000 11.51300 41.22600
H  -12.28500 10.67200 41.58600
H  -12.71200 11.37300 43.20300
H  -11.03100 10.80200 42.89100
H  -7.53400 13.97100 40.41200
H  -4.14600 13.37200 43.23700
H  -5.11200 14.26000 44.32300
H  -4.10100 15.14500 43.05300

