158

Mg 17.11700 -1.68400 27.81700
C  15.75200 0.32100 30.30800
C  19.26000 -3.01400 30.38400
C  18.96000 -3.34700 25.41800
C  15.66700 0.35600 25.45000
N  17.40400 -1.44800 30.11700
C  16.66700 -0.55800 30.80800
C  17.12000 -0.63900 32.30500
C  18.31900 -1.52300 32.24000
C  18.29600 -2.09000 30.84100
C  19.67400 -0.88700 32.66600
C  15.90600 -0.98700 33.28100
C  15.80200 -0.20600 34.54400
H  17.00700 0.58600 35.05200
N  18.80800 -3.05800 27.91200
C  19.49500 -3.48800 29.03000
C  20.40300 -4.55100 28.62300
C  20.26500 -4.75700 27.22900
C  19.30900 -3.72900 26.75900
C  21.24900 -5.25300 29.60400
C  20.91600 -5.73100 26.34200
O  20.63100 -5.74600 25.11000
C  21.98200 -6.69300 26.89500
N  17.39200 -1.48000 25.77000
C  18.08600 -2.36600 25.04200
C  17.89900 -2.06500 23.53500
C  16.81700 -0.92300 23.51800
C  16.67400 -0.53500 24.99000
C  19.23400 -1.66200 22.72500
C  15.46700 -1.36600 22.91800
C  14.87700 -0.47000 21.84000
N  15.82700 -0.00900 27.79200
C  15.32900 0.71600 26.78500
C  14.38400 1.68500 27.29000
C  14.53600 1.59300 28.70400
C  15.45500 0.56300 28.97100
C  13.43300 2.62600 26.56200
C  14.14100 2.10400 29.95900
O  13.36200 3.01300 30.26900
C  14.88700 1.33600 31.06800
C  15.75400 2.40200 31.81000
O  16.89300 2.72200 31.40600
O  15.07000 2.96400 32.78800
C  15.59700 4.21400 33.33600
H  19.87100 -3.43900 31.18300
H  19.33300 -3.92300 24.56800
H  14.98200 0.92900 24.82200
H  17.34700 0.38000 32.61700
H  18.06600 -2.38200 32.86300
H  20.31200 -0.64400 31.81600
H  20.20600 -1.64900 33.23600
H  19.55400 0.08000 33.15300
H  15.96400 -2.03000 33.59200
H  15.00100 -0.83200 32.69300
H  15.47800 -0.83700 35.37100
H  14.92000 0.40300 34.34800
H  22.24100 -5.28100 29.15200
H  20.91200 -6.19900 30.02800
H  21.47200 -4.53500 30.39400
H  22.12100 -7.46100 26.13500
H  21.52000 -7.17300 27.75800
H  22.95300 -6.21100 27.01300
H  17.45100 -2.91300 23.01800
H  17.20600 -0.04300 23.00600
H  18.98800 -1.54500 21.66900
H  19.87000 -2.53700 22.86100
H  19.61300 -0.77500 23.23100
H  14.74000 -1.48300 23.72200
H  15.48900 -2.36800 22.49100
H  15.23900 0.55700 21.80100
H  13.79900 -0.40100 21.98900
H  15.17100 -1.05900 20.97100
H  13.04200 1.99000 25.76800
H  14.07900 3.36100 26.08300
H  12.64400 3.02900 27.19600
H  14.19800 0.89200 31.78700
H  16.55000 3.79900 33.66300
H  14.98400 4.58800 34.15500
H  15.74500 4.96600 32.56000
Mg 47.91400 25.83100 28.38600
C  48.89800 27.85000 31.11400
C  47.07500 23.37200 30.66600
C  46.90900 23.83000 25.82800
C  49.00100 28.16900 26.26500
N  47.95400 25.69000 30.59700
C  48.31300 26.63400 31.52600
C  47.88200 26.25500 32.89200
C  47.43600 24.78400 32.73900
C  47.50900 24.62000 31.23900
C  48.13400 23.59500 33.46800
C  46.78600 27.25000 33.57800
C  47.16700 27.66300 35.03900
H  46.05000 28.05300 35.95900
N  47.11700 23.90500 28.26300
C  46.93500 23.06800 29.30700
C  46.58500 21.73100 28.81000
C  46.33500 21.88100 27.40400
C  46.72200 23.29600 27.11600
C  46.72300 20.47000 29.69000
C  45.92300 20.93700 26.32900
O  45.56400 21.24200 25.21900
C  45.94900 19.45600 26.60900
N  47.89900 25.98200 26.37400
C  47.37500 25.07400 25.46900
C  47.64900 25.43400 24.00400
C  48.37000 26.77700 24.22600
C  48.43300 27.01200 25.74700
C  48.56300 24.43700 23.21900
C  47.58300 28.03400 23.55000
C  48.40100 28.85400 22.63400
N  48.81000 27.68600 28.50900
C  49.22400 28.51300 27.58900
C  50.02200 29.56000 28.23000
C  49.79800 29.36500 29.59400
C  49.11300 28.21600 29.73100
C  50.74800 30.67900 27.64900
C  50.07800 29.98100 30.88300
O  50.60900 31.06100 31.08400
C  49.35600 29.03300 31.98300
C  50.24200 28.61300 32.97600
O  50.78800 27.52300 32.93700
O  50.43200 29.57700 33.94100
C  51.34500 29.24400 35.00800
H  46.89800 22.53900 31.35000
H  46.56800 23.27900 24.94900
H  49.42700 28.84500 25.52100
H  48.81300 26.07200 33.42900
H  46.39200 24.66300 33.02800
H  48.88400 24.03100 34.12700
H  48.75500 23.04400 32.76100
H  47.45200 22.93000 33.99700
H  45.78600 26.81700 33.55300
H  46.70900 28.08200 32.87800
H  47.86700 28.49900 35.04400
H  47.67100 26.78700 35.44700
H  47.15400 20.73600 30.65500
H  47.30400 19.67600 29.22100
H  45.75200 20.17900 30.09000
H  45.56300 19.34800 27.62200
H  46.98500 19.12500 26.54400
H  45.39700 18.77200 25.96400
H  46.66700 25.56200 23.54900
H  49.37300 26.74200 23.80000
H  48.95800 23.58600 23.77400
H  49.46900 24.83100 22.75900
H  47.94700 23.99100 22.43800
H  47.11500 28.65700 24.31200
H  46.71400 27.61400 23.04300
H  49.35800 28.37000 22.43900
H  48.57500 29.82900 23.08900
H  47.84000 28.97900 21.70700
H  51.73600 30.22600 27.56000
H  50.75900 31.59700 28.23500
H  50.30400 30.97100 26.69700
H  48.57600 29.61700 32.47300
H  50.92200 28.46300 35.64100
H  51.62900 30.05200 35.68200
H  52.26100 28.88100 34.54100

