158

Mg 47.08800 24.71100 28.63300
C  47.69700 27.08800 31.26000
C  45.87100 22.69500 30.93300
C  46.85500 22.53600 26.04900
C  48.36700 27.18700 26.38200
N  47.29900 24.74000 30.91800
C  47.28700 25.81300 31.73400
C  46.77500 25.50400 33.17100
C  46.36000 24.00800 33.08900
C  46.51100 23.78900 31.56600
C  47.11800 23.02000 33.87400
C  45.76300 26.47600 33.77500
C  46.07000 27.07400 35.22900
H  45.12900 26.75800 36.37100
N  46.50200 22.79600 28.54100
C  45.96300 22.12300 29.61300
C  45.36200 20.86500 29.08000
C  45.82200 20.74300 27.73200
C  46.47800 22.01600 27.34600
C  44.73500 19.78600 29.93600
C  45.72200 19.60700 26.75100
O  46.26400 19.60200 25.66500
C  44.92800 18.40400 27.15800
N  47.78000 24.80200 26.51300
C  47.42600 23.79500 25.70000
C  47.73900 24.17700 24.30000
C  47.75400 25.75300 24.34000
C  47.97800 25.98600 25.81700
C  49.09800 23.68300 23.80000
C  46.48400 26.45600 23.78800
C  45.43000 27.10200 24.78200
N  48.02000 26.64300 28.75200
C  48.44000 27.51500 27.75300
C  48.83000 28.81300 28.29800
C  48.54600 28.62500 29.63700
C  48.11300 27.33300 29.90100
C  49.22400 30.04400 27.60500
C  48.53000 29.35700 30.91800
O  48.97300 30.47800 31.23100
C  48.05700 28.29700 32.05700
C  49.07800 28.04300 33.09800
O  49.97500 27.23500 33.01900
O  48.99000 29.06000 34.07800
C  49.68300 28.89200 35.36500
H  45.30800 22.04200 31.60300
H  46.66000 21.83600 25.23400
H  48.54300 28.12100 25.84400
H  47.65700 25.53700 33.81000
H  45.27700 23.93200 33.19100
H  47.94600 23.46100 34.42900
H  47.49000 22.19100 33.27100
H  46.41700 22.55900 34.56900
H  44.77700 26.01100 33.78100
H  45.41900 27.18700 33.02400
H  46.15100 28.16100 35.23500
H  47.03400 26.73100 35.60300
H  43.78700 19.70400 29.40500
H  44.43900 20.13200 30.92600
H  45.03200 18.75000 29.77200
H  43.98000 18.65500 27.63300
H  45.54400 17.83100 27.85000
H  44.71800 17.71600 26.33900
H  46.86500 23.88500 23.71800
H  48.60600 26.17100 23.80300
H  49.72400 24.56200 23.64800
H  49.05600 23.05100 22.91200
H  49.67200 23.12500 24.53900
H  46.13100 25.63100 23.17000
H  46.92100 27.25600 23.18900
H  45.57000 26.87500 25.83900
H  44.50900 26.60400 24.47800
H  45.31400 28.16200 24.55800
H  50.11900 30.02600 26.98400
H  49.24100 30.93100 28.23900
H  48.42500 30.22300 26.88600
H  47.27700 28.71700 32.69100
H  50.70700 28.54700 35.22000
H  49.22800 28.15300 36.02400
H  49.54200 29.73700 36.03800
Mg -5.31400 24.97500 26.52500
C  -3.86100 26.99600 29.02200
C  -6.52900 22.73600 28.94500
C  -6.90700 23.46700 24.04100
C  -4.20900 27.50000 24.19100
N  -5.28100 24.99500 28.67100
C  -4.61400 25.87900 29.54100
C  -4.90300 25.50600 31.02700
C  -5.65700 24.08800 30.91000
C  -5.86100 23.89300 29.38200
C  -4.81600 22.98300 31.67100
C  -5.82300 26.61400 31.73900
C  -5.49700 26.88600 33.15200
H  -6.53000 26.45400 34.18500
N  -6.41600 23.30600 26.46700
C  -6.84500 22.48500 27.54000
C  -7.64400 21.40500 27.05600
C  -7.69900 21.59000 25.61500
C  -6.92300 22.84800 25.31200
C  -8.28000 20.36500 27.80700
C  -8.46300 20.74000 24.53900
O  -8.53700 21.12300 23.37900
C  -9.14800 19.50200 24.88200
N  -5.53100 25.42100 24.43100
C  -6.25500 24.60200 23.67300
C  -6.41600 25.14900 22.21600
C  -5.76200 26.60700 22.39400
C  -5.19100 26.58400 23.81400
C  -5.63500 24.39300 21.08500
C  -6.81200 27.75200 22.19500
C  -6.55800 28.75700 21.12000
N  -4.09800 26.81900 26.48000
C  -3.70200 27.65500 25.50400
C  -2.83800 28.71400 25.99900
C  -2.91600 28.55000 27.41500
C  -3.74900 27.37100 27.65800
C  -2.13200 29.64500 25.10100
C  -2.55300 29.08300 28.68800
O  -1.90000 30.05200 28.98100
C  -3.08700 28.11500 29.80100
C  -1.99300 27.53300 30.69400
O  -1.21100 26.62000 30.49400
O  -2.09200 28.21900 31.84900
C  -1.21000 27.68600 32.89000
H  -6.79700 22.06400 29.76300
H  -7.45600 23.01300 23.21300
H  -3.93100 28.31400 23.51700
H  -3.94100 25.25800 31.47500
H  -6.60100 24.20800 31.44100
H  -5.10300 22.92600 32.72100
H  -3.74000 22.98700 31.50000
H  -5.07100 22.02500 31.21900
H  -6.88200 26.44900 31.53900
H  -5.55100 27.56900 31.29000
H  -5.32200 27.93800 33.38000
H  -4.56100 26.47500 33.53100
H  -9.36000 20.32000 27.67100
H  -7.98600 20.56900 28.83700
H  -7.89400 19.41900 27.42700
H  -9.94200 19.82000 25.55800
H  -8.36100 18.87200 25.29700
H  -9.64300 19.07900 24.00800
H  -7.47300 25.17600 21.95000
H  -4.96300 26.81100 21.68100
H  -6.13500 23.43900 20.91400
H  -4.62100 24.10600 21.36300
H  -5.68000 25.09600 20.25300
H  -6.95600 28.38100 23.07400
H  -7.78000 27.33300 21.92100
H  -6.91100 28.36700 20.16500
H  -5.51000 29.04100 21.02900
H  -7.23900 29.59000 21.29700
H  -2.55600 30.63900 25.24200
H  -2.07700 29.28000 24.07600
H  -1.11700 29.61400 25.49600
H  -3.71100 28.70300 30.47400
H  -0.13100 27.60300 32.76600
H  -1.58100 26.66500 32.98700
H  -1.44900 28.13600 33.85400

