158

Mg 40.24600 10.33500 29.47800
C  42.22700 11.31300 32.03000
C  37.97800 9.10600 31.93200
C  38.20800 9.40300 26.98600
C  42.62300 11.26500 27.08400
N  40.21500 10.04300 31.77200
C  41.00200 10.86800 32.53800
C  40.58500 10.89300 34.01800
C  39.28600 10.00400 33.91700
C  39.14500 9.71600 32.43400
C  39.36200 8.74400 34.84700
C  40.34900 12.31900 34.56400
C  39.87000 12.29800 36.05600
H  40.52600 13.20900 37.04300
N  38.38000 9.40600 29.45600
C  37.65200 8.87700 30.53100
C  36.46500 8.30900 30.12300
C  36.44400 8.40000 28.69100
C  37.69000 9.06700 28.28600
C  35.42200 7.73800 31.08100
C  35.32100 7.91800 27.75400
O  35.40900 8.16200 26.57600
C  34.13300 7.13600 28.31400
N  40.53100 10.11700 27.27100
C  39.42500 9.79500 26.53900
C  39.71300 10.16000 24.99100
C  41.04300 10.91800 25.03900
C  41.39900 10.83400 26.55600
C  39.83600 8.92300 24.06300
C  40.99700 12.39400 24.51900
C  39.78100 13.30400 24.90300
N  42.08400 10.94200 29.47900
C  42.94600 11.26900 28.47400
C  44.20700 11.73200 29.06300
C  43.93500 11.86000 30.41200
C  42.66000 11.32600 30.69600
C  45.48500 12.14400 28.45000
C  44.47200 12.31500 31.74500
O  45.55100 12.84900 31.96300
C  43.39700 11.87400 32.79200
C  44.01800 10.97900 33.84500
O  43.99700 9.73600 33.91000
O  44.37600 11.76300 34.95200
C  44.83600 11.02800 36.12100
H  37.24400 8.76300 32.66400
H  37.50200 9.30300 26.15900
H  43.35000 11.71300 26.40300
H  41.37400 10.48800 34.65200
H  38.48100 10.70300 34.14400
H  40.40900 8.62000 35.12400
H  38.88900 7.90900 34.33000
H  38.79900 8.98600 35.74900
H  39.59000 12.74000 33.90500
H  41.24900 12.93300 34.51800
H  39.88100 11.25500 36.37300
H  38.80600 12.53500 36.05100
H  34.87100 6.88100 30.69400
H  34.75500 8.54400 31.38700
H  35.84100 7.30000 31.98700
H  33.65000 7.61800 29.16300
H  34.40000 6.10800 28.56000
H  33.34500 7.19100 27.56300
H  39.06600 10.93600 24.58200
H  41.83000 10.40800 24.48400
H  38.80900 8.84500 23.70700
H  40.16100 8.00800 24.55800
H  40.55000 9.08700 23.25700
H  41.03800 12.44700 23.43100
H  41.91700 12.88400 24.83800
H  38.89800 12.84000 25.34200
H  39.52700 13.73600 23.93500
H  40.02300 14.09200 25.61500
H  45.88500 13.00700 28.98200
H  45.43700 12.39500 27.39100
H  46.22400 11.34300 28.48000
H  43.21100 12.81200 33.31400
H  45.71000 10.40000 35.94800
H  44.08500 10.28700 36.39700
H  44.92200 11.67100 36.99700
Mg 26.95000 50.42500 26.17800
C  24.96700 51.38100 28.93000
C  29.20500 49.28000 28.43600
C  28.85100 49.90200 23.62200
C  24.38600 51.79900 24.10800
N  26.89200 50.10600 28.41700
C  26.02600 50.65100 29.33600
C  26.50900 50.43800 30.78200
C  27.98100 49.88400 30.56500
C  28.06700 49.64500 29.08100
C  29.16000 50.65000 31.17700
C  25.49000 49.43000 31.56000
C  24.96800 49.85900 32.92200
H  25.88400 50.27500 34.09500
N  28.76200 49.70500 26.04400
C  29.62800 49.32800 27.05300
C  30.91900 48.88200 26.50500
C  30.72600 48.93800 25.11700
C  29.41400 49.53600 24.85900
C  32.14200 48.39100 27.41800
C  31.61700 48.47800 24.00200
O  31.38400 48.48300 22.82000
C  32.99200 48.04800 24.43800
N  26.78400 51.08200 24.24100
C  27.68500 50.59300 23.33900
C  27.23300 50.90700 21.88800
C  25.74400 51.21200 22.09000
C  25.59500 51.30500 23.60000
C  28.04900 52.00500 21.31500
C  24.63900 50.29100 21.45600
C  23.50700 50.99700 20.62400
N  25.06100 51.39500 26.41500
C  24.14800 51.89500 25.46700
C  23.01900 52.45600 26.14600
C  23.26400 52.31200 27.50700
C  24.56300 51.68400 27.62300
C  21.79200 53.10000 25.55900
C  22.79700 52.63700 28.89800
O  21.77700 53.12600 29.30400
C  23.81800 51.95000 29.83100
C  24.22100 53.01400 30.77400
O  25.14800 53.82000 30.56400
O  23.41600 53.06100 31.85000
C  23.74900 54.02100 32.91600
H  30.03100 48.98800 29.08800
H  29.48000 49.73700 22.74500
H  23.52400 51.97400 23.46000
H  26.61100 51.36900 31.33900
H  28.00200 48.93500 31.10100
H  29.76900 51.01500 30.35000
H  29.75600 50.02000 31.83800
H  28.82300 51.50600 31.76200
H  25.76200 48.37400 31.57100
H  24.62100 49.51100 30.90700
H  24.38800 48.97700 33.19300
H  24.20100 50.61900 32.77500
H  31.76800 48.21700 28.42800
H  32.76400 49.28200 27.33600
H  32.71600 47.53600 27.06100
H  32.93300 47.04100 24.85100
H  33.34800 48.79500 25.14700
H  33.63200 47.88200 23.57000
H  27.53200 49.98900 21.38200
H  25.51200 52.24000 21.81200
H  28.76300 52.39200 22.04200
H  27.35100 52.81900 21.11800
H  28.59100 51.60400 20.45900
H  24.21600 49.53200 22.11300
H  25.22400 49.68900 20.76100
H  23.72800 52.05300 20.47000
H  22.51200 50.88700 21.05700
H  23.68800 50.56400 19.64100
H  20.96800 53.09700 26.27300
H  21.53200 52.54800 24.65600
H  21.96400 54.14000 25.28300
H  23.30200 51.11000 30.29500
H  24.15400 53.52100 33.79600
H  22.86300 54.56400 33.24200
H  24.53300 54.69600 32.57500

