158

Mg 45.15200 4.80200 46.62300
C  43.04400 7.73900 46.43100
C  42.24800 2.96400 46.69800
C  47.19800 2.34500 46.76500
C  47.92400 7.05600 46.63600
N  42.93800 5.36600 46.37300
C  42.26200 6.55800 46.38500
C  40.75100 6.46500 46.36400
C  40.56800 4.93000 46.53900
C  42.00100 4.36300 46.63500
C  39.58400 4.50400 47.63200
C  40.09100 7.07000 45.13000
C  40.94700 7.18900 43.85400
H  40.30900 7.18400 42.43500
N  44.75200 2.95600 46.79100
C  43.45700 2.31500 46.69100
C  43.73300 0.88700 46.64200
C  45.15400 0.69200 46.79000
C  45.77700 2.05100 46.76700
C  42.60200 -0.14300 46.66000
C  45.89200 -0.64100 46.85800
O  45.17500 -1.66300 46.77900
C  47.41200 -0.77100 46.97100
N  47.22500 4.72500 46.50700
C  47.84000 3.51800 46.68800
C  49.38300 3.61800 46.72200
C  49.59500 5.14800 46.69400
C  48.16600 5.65400 46.51400
C  49.98800 2.86900 47.98900
C  50.66900 5.69200 45.67300
C  51.77600 6.64300 46.20400
N  45.45000 6.90700 46.50900
C  46.63800 7.64500 46.61400
C  46.30200 9.09000 46.69800
C  44.96800 9.13700 46.54400
C  44.44700 7.82500 46.43900
C  47.27600 10.21900 46.80500
C  43.80600 9.96400 46.56400
O  43.66800 11.15400 46.61200
C  42.53100 9.07100 46.45200
C  41.60800 9.29200 47.72300
O  41.67600 8.66500 48.79800
O  40.79400 10.40800 47.54700
C  39.84200 10.76900 48.62400
H  41.31400 2.39800 46.69600
H  47.93000 1.53600 46.72800
H  48.75200 7.76300 46.71500
H  40.48500 7.02000 47.26300
H  40.23400 4.50100 45.59400
H  40.07600 3.80200 48.30500
H  38.70000 4.01600 47.22200
H  39.15800 5.35400 48.16700
H  39.68700 8.03300 45.44200
H  39.27000 6.47700 44.72600
H  41.74300 6.44800 43.92300
H  41.35700 8.19900 43.87400
H  42.55600 -0.72100 45.73700
H  41.58600 0.24200 46.75100
H  42.83300 -0.79100 47.50500
H  47.59600 -1.84500 46.95100
H  47.70000 -0.32300 47.92100
H  47.86900 -0.35200 46.07400
H  49.76300 3.22100 45.78100
H  49.88700 5.57300 47.65500
H  49.07100 2.69700 48.55300
H  50.61200 3.58600 48.52100
H  50.49200 1.91900 47.81000
H  50.11800 6.13000 44.84100
H  51.20800 4.83900 45.26100
H  52.72800 6.17400 45.95400
H  51.85200 6.87300 47.26700
H  51.76500 7.55700 45.61100
H  46.75900 11.14100 46.53800
H  48.03100 10.10100 46.02700
H  47.82900 10.15800 47.74200
H  41.96400 9.38800 45.57800
H  40.36500 11.37000 49.36700
H  39.45700 9.91100 49.17500
H  38.92600 11.26800 48.30600
Mg 8.57300 48.11000 26.26700
C  7.01600 48.06600 29.23100
C  11.42000 49.54800 27.82200
C  10.33600 48.06200 23.27700
C  5.68900 47.45600 24.56700
N  9.20700 48.69300 28.32800
C  8.37900 48.31400 29.37000
C  9.07400 48.75400 30.70800
C  10.29300 49.69000 30.15100
C  10.38500 49.32200 28.74200
C  10.03500 51.20800 30.27700
C  9.48900 47.64300 31.67900
C  9.04900 47.94600 33.15800
H  8.85200 46.74900 34.10300
N  10.58900 48.58100 25.61200
C  11.58200 49.11100 26.46700
C  12.80800 49.12800 25.64900
C  12.50800 48.71600 24.37600
C  11.05400 48.43900 24.35800
C  14.15500 49.50300 26.26100
C  13.50400 48.58200 23.21100
O  13.14400 48.21900 22.03100
C  14.96700 48.77700 23.50800
N  8.13300 47.99600 24.21900
C  9.01200 47.82600 23.19700
C  8.28100 47.54900 21.89000
C  6.79200 47.30600 22.29200
C  6.88000 47.60500 23.78300
C  8.42700 48.66000 20.73600
C  6.31000 45.85700 21.92200
C  6.80000 44.66300 22.72400
N  6.64400 47.97500 26.73700
C  5.57700 47.69600 25.96500
C  4.35400 47.75600 26.77800
C  4.93000 47.84800 28.09000
C  6.31600 47.99600 28.01600
C  2.95400 47.49600 26.32000
C  4.58400 47.86000 29.50800
O  3.49500 47.86400 30.08800
C  5.97300 48.01500 30.29300
C  6.06800 46.81200 31.18600
O  6.80800 45.88100 31.00300
O  5.35000 47.08100 32.34700
C  5.22600 45.92000 33.24100
H  12.24100 50.09400 28.29200
H  10.83800 48.06500 22.30700
H  4.82300 47.00200 24.08000
H  8.37000 49.42800 31.19600
H  11.29600 49.47600 30.52200
H  9.70100 51.58300 29.31000
H  10.91900 51.80700 30.49400
H  9.27600 51.57500 30.96800
H  10.57500 47.72200 31.63300
H  9.19700 46.66100 31.30600
H  8.17100 48.58900 33.21100
H  9.88500 48.50000 33.58400
H  14.92300 48.74800 26.42500
H  13.90400 49.73900 27.29600
H  14.56200 50.42700 25.85000
H  15.55300 48.32000 22.71000
H  15.30300 48.30100 24.42900
H  14.93700 49.86500 23.56200
H  8.71900 46.71700 21.34000
H  6.04700 47.98400 21.87400
H  9.15700 49.37000 21.12600
H  7.47200 49.11300 20.47100
H  8.76800 48.12800 19.84800
H  6.70200 45.68300 20.92000
H  5.22600 45.96300 21.97900
H  7.56000 44.16400 22.12200
H  6.05200 43.89500 22.92300
H  7.20700 44.98800 23.68100
H  2.57900 48.28600 25.66900
H  2.36700 47.29000 27.21500
H  2.89300 46.59700 25.70700
H  5.94400 48.92800 30.88700
H  4.18600 45.63300 33.08500
H  5.43000 46.29300 34.24400
H  5.86200 45.06800 32.99800

