158

Mg 0.33300 8.00900 26.75700
C  1.00900 10.15300 29.42700
C  -0.02800 5.41400 29.13000
C  0.00900 5.74500 24.25400
C  1.37300 10.54800 24.56000
N  0.44700 7.88000 29.04700
C  0.54400 8.94900 29.93700
C  0.27300 8.54700 31.37900
C  0.19600 6.94600 31.17500
C  0.11900 6.69100 29.67500
C  1.28500 6.09300 31.88300
C  -0.90600 9.25300 31.99800
C  -0.75500 9.69000 33.46500
H  0.18000 8.84100 34.30700
N  -0.08900 5.89700 26.71800
C  -0.15700 5.03900 27.81900
C  -0.36100 3.68500 27.30200
C  -0.47900 3.82700 25.88500
C  -0.21400 5.19100 25.53600
C  -0.49300 2.41000 28.13000
C  -0.86400 2.70800 24.89800
O  -0.87400 2.92400 23.71800
C  -1.33700 1.31000 25.36900
N  0.77700 8.08900 24.69000
C  0.60800 6.98600 23.87000
C  0.87000 7.40600 22.41200
C  1.11900 8.97100 22.52500
C  1.05800 9.26600 24.07400
C  2.00600 6.69200 21.64700
C  0.12700 9.90400 21.77800
C  0.82900 11.06700 20.92100
N  1.07400 9.95100 26.92600
C  1.51900 10.85100 25.91400
C  1.98500 12.08400 26.57000
C  1.76100 11.82100 27.90200
C  1.25000 10.50700 28.03000
C  2.36000 13.42500 25.98900
C  1.97900 12.43800 29.21400
O  2.54200 13.49900 29.48200
C  1.48500 11.40500 30.27700
C  2.60000 11.08500 31.11300
O  3.72200 10.63500 30.80000
O  2.31700 11.33700 32.41200
C  3.43200 11.31100 33.34400
H  -0.00600 4.71800 29.97100
H  -0.11800 4.99100 23.47500
H  1.52100 11.40500 23.89900
H  1.15000 8.79400 31.97700
H  -0.65400 6.37100 31.54200
H  0.79300 5.17500 32.20500
H  1.72500 6.50800 32.79100
H  2.07000 5.79700 31.18700
H  -1.74900 8.56300 32.02600
H  -1.27600 10.15400 31.50700
H  -1.69400 9.69000 34.01800
H  -0.57300 10.76000 33.36400
H  -0.26100 2.50800 29.19100
H  0.28400 1.77800 27.70200
H  -1.52900 2.07700 28.05800
H  -1.66400 0.60600 24.60300
H  -2.20000 1.50700 26.00400
H  -0.52000 0.78400 25.86300
H  0.00500 7.16600 21.79300
H  2.14300 9.33400 22.43900
H  2.60300 6.12300 22.36000
H  2.73900 7.33600 21.16100
H  1.48000 6.10000 20.89800
H  -0.61300 10.35600 22.43900
H  -0.55600 9.32700 21.15400
H  0.61800 10.81200 19.88200
H  1.87700 11.09000 21.21900
H  0.44800 12.00400 21.32800
H  2.37300 14.17800 26.77700
H  1.59900 13.88400 25.35800
H  3.37900 13.53600 25.61800
H  0.62100 11.82200 30.79500
H  4.37800 11.74400 33.01600
H  3.67300 10.28800 33.63400
H  3.04400 11.74100 34.26700
Mg 36.50100 49.77900 25.69400
C  36.84300 47.66700 28.33800
C  35.48400 52.36100 27.60200
C  36.11700 51.70200 22.79300
C  37.39500 47.07600 23.51500
N  36.10000 49.96400 27.76200
C  36.52000 49.05200 28.67400
C  36.37700 49.67800 30.07800
C  35.71200 51.08900 29.80000
C  35.76000 51.15600 28.27900
C  34.42000 51.28000 30.60800
C  37.74700 49.67700 30.83000
C  37.76700 49.71900 32.32600
H  36.53100 49.85900 33.27200
N  35.91200 51.76400 25.28700
C  35.60800 52.70200 26.24100
C  35.53000 53.95600 25.63800
C  35.74800 53.80200 24.25800
C  35.96300 52.33400 24.03600
C  35.30900 55.17900 26.51300
C  35.78900 54.92200 23.16000
O  36.06100 54.73800 21.96100
C  35.38700 56.22900 23.47400
N  36.70800 49.43300 23.48300
C  36.47600 50.36000 22.48400
C  36.58700 49.76800 21.07100
C  37.08900 48.27300 21.30700
C  37.00500 48.23800 22.81600
C  35.31300 49.81000 20.21900
C  38.54100 47.98400 20.78600
C  38.81700 46.60100 20.27900
N  37.08300 47.76800 25.84700
C  37.44700 46.76900 24.93800
C  37.66800 45.55400 25.55700
C  37.45300 45.79900 26.95700
C  37.08800 47.17400 27.04300
C  37.86300 44.26300 24.81400
C  37.33400 45.24500 28.29300
O  37.45600 44.08000 28.69300
C  37.09000 46.48400 29.30300
C  35.83500 46.09200 29.98400
O  34.70000 46.10100 29.51200
O  36.07500 45.94900 31.31500
C  34.91500 45.80100 32.22100
H  35.14700 53.17600 28.24700
H  36.09600 52.29200 21.87500
H  37.76100 46.29300 22.84800
H  35.77400 48.96600 30.64100
H  36.36100 51.88600 30.16300
H  34.39000 50.69800 31.52900
H  33.57100 51.29100 29.92500
H  34.46600 52.30300 30.98300
H  38.35200 50.49300 30.43500
H  38.36300 48.81800 30.56400
H  38.53900 50.44600 32.57900
H  38.25100 48.78300 32.60600
H  36.02900 55.96700 26.29400
H  35.55000 55.06300 27.57000
H  34.32300 55.59100 26.29600
H  35.95700 56.50900 24.36000
H  34.32500 56.12900 23.69600
H  35.56800 56.90500 22.63800
H  37.39400 50.24000 20.51100
H  36.43200 47.52000 20.87000
H  34.98800 48.93200 19.66200
H  35.31100 50.73100 19.63600
H  34.46200 50.01800 20.86700
H  39.13000 47.97600 21.70300
H  38.90400 48.68300 20.03300
H  38.96000 46.66500 19.20000
H  38.03900 45.86800 20.49300
H  39.71300 46.33200 20.83900
H  38.17300 44.35100 23.77300
H  36.96400 43.65200 24.73100
H  38.50700 43.66000 25.45400
H  37.91000 46.69000 29.99100
H  35.21900 45.56600 33.24100
H  34.29200 44.97800 31.87100
H  34.43200 46.77800 32.23400

