158

Mg 35.73000 47.89200 25.87100
C  36.21600 46.00200 28.77800
C  34.61100 50.47100 27.68900
C  34.84600 49.30800 22.88100
C  36.74900 44.96000 24.09600
N  35.41600 48.14300 27.97300
C  35.83200 47.32600 29.01700
C  35.62000 47.98600 30.34300
C  34.84700 49.30300 29.99300
C  34.92900 49.31400 28.45000
C  33.41000 49.36100 30.63600
C  37.02500 48.24600 31.00700
C  37.03000 48.69100 32.48400
H  35.66900 48.65100 33.17600
N  34.71600 49.60000 25.36300
C  34.48800 50.58400 26.29500
C  34.11100 51.73200 25.55800
C  33.99500 51.43300 24.19200
C  34.43200 50.01400 24.06400
C  33.86000 53.10800 26.21100
C  33.53600 52.26800 23.00200
O  33.52600 51.83900 21.88000
C  33.27200 53.68400 23.20200
N  35.90600 47.27900 23.85000
C  35.49600 48.07800 22.78800
C  35.63500 47.38200 21.49000
C  36.38900 46.06000 21.84600
C  36.40800 46.10200 23.36000
C  34.28100 47.21600 20.67500
C  37.86100 46.13600 21.36000
C  38.58900 44.83300 21.04500
N  36.27700 45.79900 26.25800
C  36.67800 44.76700 25.45800
C  37.14400 43.64700 26.22600
C  36.86300 44.05600 27.51400
C  36.42400 45.43800 27.48500
C  37.80800 42.28600 25.80500
C  36.86000 43.64200 28.91100
O  37.25600 42.63400 29.46900
C  36.45000 44.94300 29.69500
C  35.24600 44.63200 30.44400
O  34.17500 44.39500 29.97300
O  35.52700 44.67100 31.77000
C  34.51300 44.44400 32.76600
H  34.32500 51.35500 28.26300
H  34.62200 49.69800 21.88600
H  37.18400 44.06100 23.65400
H  35.03000 47.21100 30.83300
H  35.38900 50.16500 30.38200
H  33.12700 48.41200 31.09200
H  32.63700 49.60000 29.90600
H  33.44500 50.08900 31.44600
H  37.44400 49.10500 30.48300
H  37.66900 47.37800 30.86300
H  37.53300 49.64800 32.62000
H  37.58900 47.91100 33.00200
H  33.01600 53.53000 25.66500
H  34.71100 53.78000 26.09300
H  33.60700 53.00100 27.26500
H  34.07000 54.12900 23.79600
H  32.25900 53.77000 23.59500
H  33.09900 54.16200 22.23800
H  36.18000 48.08400 20.85900
H  35.91500 45.14200 21.50000
H  33.59800 47.94000 21.11900
H  33.95700 46.17700 20.61900
H  34.30600 47.62200 19.66400
H  38.54900 46.50000 22.12300
H  38.00800 46.75400 20.47400
H  37.93500 44.02100 20.72900
H  39.14000 44.56700 21.94700
H  39.18900 45.24200 20.23200
H  38.14500 42.25500 24.76900
H  37.11400 41.44700 25.85700
H  38.69800 42.20300 26.42700
H  37.23400 45.12000 30.43100
H  33.55700 44.81800 32.39800
H  34.72600 45.06100 33.63800
H  34.52700 43.38000 33.00200
Mg -11.88800 38.57800 42.26000
C  -9.92000 35.84100 41.33000
C  -9.71900 40.57700 40.15900
C  -13.89000 41.16000 42.62600
C  -14.33900 36.43300 43.31500
N  -10.14500 38.23800 40.91100
C  -9.39900 36.98400 40.81900
C  -8.20800 37.15200 39.82700
C  -8.15800 38.71500 39.53900
C  -9.40300 39.22600 40.25500
C  -6.91000 39.57900 39.92300
C  -8.20000 36.17100 38.52200
C  -6.94600 35.27500 38.32200
H  -6.16000 35.22200 37.08100
N  -11.72400 40.68000 41.63200
C  -10.70300 41.28000 40.82800
C  -11.03000 42.70200 40.80100
C  -12.27800 42.93700 41.46200
C  -12.70700 41.57700 42.00200
C  -10.22900 43.67800 40.09600
C  -12.89700 44.36400 41.65000
O  -12.47900 45.39800 41.01600
C  -14.08600 44.57000 42.53200
N  -13.85100 38.79600 42.79500
C  -14.48300 39.94000 42.90900
C  -15.94300 39.80100 43.39900
C  -16.14000 38.30000 43.40200
C  -14.67600 37.79500 43.20300
C  -16.28300 40.59300 44.61200
C  -17.03000 37.85800 42.09500
C  -17.89000 36.69700 42.19200
N  -12.07800 36.52800 42.48900
C  -13.02800 35.76200 43.08700
C  -12.62200 34.43300 43.24500
C  -11.36500 34.35300 42.55700
C  -11.07100 35.68500 42.12400
C  -13.47500 33.34800 43.87000
C  -10.26100 33.49800 42.09500
O  -10.07500 32.28600 42.29600
C  -9.25300 34.40800 41.37300
C  -7.89000 34.27300 42.05200
O  -7.30700 33.21400 42.19500
O  -7.36200 35.45400 42.44200
C  -6.06000 35.55500 43.14600
H  -9.08400 41.24400 39.57200
H  -14.65300 41.93100 42.75500
H  -15.14200 35.82000 43.73000
H  -7.26600 36.92500 40.32600
H  -8.35200 38.91800 38.48600
H  -6.15100 38.89700 40.30600
H  -7.06000 40.36000 40.66900
H  -6.50900 40.03900 39.01900
H  -8.47200 36.79700 37.67200
H  -8.99600 35.44300 38.67800
H  -7.12200 34.28400 38.74000
H  -6.13600 35.67200 38.93500
H  -9.21400 43.31800 39.92600
H  -10.12600 44.49700 40.80700
H  -10.71000 44.02600 39.18200
H  -13.89900 44.20800 43.54300
H  -14.97200 44.06500 42.14900
H  -14.25500 45.63800 42.66900
H  -16.50600 40.28900 42.60300
H  -16.63200 37.97000 44.31700
H  -17.20000 41.17900 44.55000
H  -15.48000 41.32100 44.73400
H  -16.39600 40.06000 45.55600
H  -16.32100 37.63100 41.29900
H  -17.66000 38.68100 41.75800
H  -17.77200 36.04600 41.32600
H  -18.92800 37.01200 42.29800
H  -17.70600 36.16600 43.12700
H  -13.26600 33.50000 44.92900
H  -13.16900 32.31000 43.74000
H  -14.52600 33.56900 43.68200
H  -9.13500 33.93700 40.39800
H  -5.41600 36.28500 42.65600
H  -5.50900 34.63200 43.32900
H  -6.14700 36.10600 44.08200

