158

Mg 16.23400 51.79400 26.66600
C  18.25900 50.50200 29.31800
C  13.96700 52.74100 29.09400
C  14.67700 53.52300 24.33800
C  18.39700 50.41300 24.36600
N  16.27700 51.86300 29.02300
C  17.14300 51.24400 29.83700
C  16.69900 51.25200 31.28500
C  15.17000 51.70900 31.15000
C  15.07000 52.11100 29.64800
C  14.11100 50.68300 31.67300
C  17.59300 52.21500 32.13000
C  17.79800 51.79900 33.58400
H  17.24800 52.60500 34.72600
N  14.51700 52.86300 26.68800
C  13.71500 53.15500 27.76600
C  12.60400 53.91000 27.27100
C  12.89000 54.31200 25.92800
C  14.08900 53.54600 25.55500
C  11.41700 54.26000 28.10400
C  12.19700 55.29100 25.04600
O  12.57900 55.63200 23.92300
C  10.97300 56.05600 25.56300
N  16.42900 51.90200 24.57100
C  15.67500 52.73000 23.80800
C  16.23300 52.82600 22.32900
C  17.33400 51.66900 22.36500
C  17.41200 51.28200 23.86600
C  15.05800 52.82000 21.26200
C  18.78100 52.05200 21.78000
C  19.66900 53.15700 22.45700
N  17.90400 50.55500 26.77700
C  18.66200 50.06900 25.72700
C  19.83800 49.37400 26.29100
C  19.65100 49.42400 27.65600
C  18.54400 50.26300 27.92400
C  20.95500 48.71100 25.48000
C  20.19500 49.01900 28.89600
O  21.16000 48.26500 29.04400
C  19.40100 49.68600 30.06000
C  18.78000 48.49200 30.81600
O  18.32500 47.46100 30.32500
O  18.97000 48.73600 32.21200
C  18.41600 47.67200 32.94800
H  13.27300 52.96900 29.90600
H  14.23500 54.17200 23.58000
H  19.03200 49.98700 23.58600
H  16.74100 50.20900 31.60000
H  14.98600 52.68800 31.59400
H  13.65200 51.07100 32.58300
H  14.60800 49.80200 32.08000
H  13.40900 50.47400 30.86500
H  17.15700 53.21100 32.05200
H  18.53900 52.34100 31.60500
H  18.87900 51.85000 33.71800
H  17.48600 50.77600 33.79500
H  11.70800 55.00300 28.84700
H  11.13900 53.36600 28.66300
H  10.52400 54.51500 27.53500
H  10.04300 55.50300 25.69800
H  10.75500 56.87400 24.87600
H  11.26900 56.60500 26.45600
H  16.75900 53.75600 22.11200
H  16.92000 50.81500 21.82900
H  15.34300 52.14500 20.45500
H  14.90700 53.81500 20.84300
H  14.10700 52.47000 21.66400
H  18.71000 52.28900 20.71800
H  19.39600 51.16100 21.65200
H  19.51000 54.13400 22.00200
H  20.68800 52.78400 22.34500
H  19.46000 53.19700 23.52600
H  21.57200 49.47700 25.01000
H  20.51300 48.02200 24.76100
H  21.59700 48.00200 26.00400
H  19.98100 50.31400 30.73700
H  18.61900 46.71700 32.46300
H  17.36400 47.82800 33.18700
H  19.04800 47.54800 33.82700
Mg -5.78200 25.13700 25.39100
C  -4.02800 26.44400 28.09200
C  -7.20000 22.83400 27.60600
C  -7.13700 23.50700 22.69200
C  -3.97800 27.23400 23.28500
N  -5.58600 24.75900 27.59700
C  -4.88100 25.43300 28.51100
C  -5.28900 25.01200 29.88600
C  -5.92300 23.63200 29.65700
C  -6.28700 23.74200 28.18400
C  -5.18200 22.37100 30.10700
C  -6.17200 26.04100 30.55100
C  -6.19500 26.09100 32.11600
H  -5.51200 25.00600 32.98100
N  -7.09200 23.52700 25.19900
C  -7.59100 22.75800 26.20900
C  -8.51800 21.78500 25.71100
C  -8.54400 21.97700 24.27700
C  -7.54100 23.09100 23.94400
C  -9.04200 20.61100 26.49100
C  -9.35600 21.15800 23.26700
O  -9.42100 21.35400 22.05400
C  -10.30200 20.01400 23.72600
N  -5.44100 25.24000 23.32000
C  -6.20700 24.46300 22.42200
C  -5.90400 24.87200 21.01200
C  -5.05600 26.18400 21.14000
C  -4.76700 26.22600 22.63200
C  -5.22600 23.89800 20.01700
C  -5.84100 27.38900 20.50500
C  -7.02900 28.02600 21.13700
N  -4.34600 26.54900 25.66400
C  -3.64900 27.22500 24.67500
C  -2.79400 28.16400 25.25200
C  -2.83300 27.89800 26.63500
C  -3.84000 26.88400 26.82200
C  -1.96800 29.32700 24.65200
C  -2.34400 28.21400 27.93500
O  -1.53000 29.06600 28.24900
C  -3.13800 27.31900 28.97400
C  -2.16400 26.54000 29.85300
O  -1.38900 25.63600 29.51300
O  -2.41900 26.97300 31.14800
C  -1.59500 26.33300 32.18300
H  -7.51000 22.14300 28.39200
H  -7.49600 22.99200 21.79800
H  -3.33900 27.79700 22.60200
H  -4.41900 24.94000 30.53800
H  -6.82800 23.58900 30.26200
H  -5.08000 21.67000 29.27800
H  -5.77600 21.81800 30.83400
H  -4.25300 22.68100 30.58600
H  -7.19000 25.87200 30.19800
H  -5.82200 27.01800 30.21700
H  -7.21900 26.03100 32.48600
H  -5.84500 27.04400 32.51300
H  -8.71900 20.74500 27.52300
H  -8.73000 19.65500 26.07200
H  -10.13100 20.65500 26.53300
H  -11.13200 20.42300 24.30100
H  -9.62100 19.32300 24.22400
H  -10.68400 19.46800 22.86300
H  -6.83400 25.04000 20.46900
H  -4.21200 26.16400 20.45000
H  -5.51000 22.84600 20.03700
H  -4.15600 23.97600 20.21000
H  -5.63300 24.14400 19.03600
H  -6.00600 27.17300 19.44900
H  -5.04300 28.12800 20.42700
H  -6.80800 28.98300 21.60900
H  -7.45800 27.28400 21.81100
H  -7.85000 28.21600 20.44500
H  -0.94800 28.99100 24.46900
H  -1.97700 30.15200 25.36400
H  -2.44800 29.60700 23.71400
H  -3.78400 27.91900 29.61600
H  -1.72600 26.92900 33.08600
H  -0.55100 26.44100 31.89100
H  -1.72000 25.25400 32.28300

