158

Mg 54.13400 24.45100 45.43500
C  51.58300 26.51100 44.59300
C  52.26800 21.68500 44.20700
C  56.83000 22.48200 45.22900
C  56.10400 27.11000 46.36900
N  52.37400 24.19000 44.33700
C  51.38200 25.15400 44.26700
C  50.18100 24.62600 43.54900
C  50.12800 23.16400 43.87900
C  51.68800 22.98200 44.17300
C  49.22200 22.78800 45.06700
C  50.12500 24.96500 42.03000
C  51.40400 25.29800 41.37600
H  52.31900 24.15400 40.94900
N  54.48800 22.31600 45.01000
C  53.58500 21.36200 44.49900
C  54.29100 20.14000 44.34100
C  55.59100 20.32100 44.59500
C  55.73800 21.75200 44.94900
C  53.51900 18.95600 43.72800
C  56.72200 19.27200 44.48200
O  56.35900 18.14900 44.11700
C  58.14100 19.49800 44.88400
N  56.16500 24.77400 45.53800
C  57.02300 23.78100 45.61100
C  58.44800 24.30800 45.94800
C  58.26300 25.80900 46.33600
C  56.78000 25.93500 46.05300
C  59.23400 23.43700 46.97800
C  59.23000 26.78200 45.50100
C  60.35700 27.43900 46.23900
N  53.96500 26.41900 45.34100
C  54.76800 27.40600 45.99500
C  53.98900 28.61500 46.15200
C  52.76800 28.32100 45.53900
C  52.78800 26.99500 45.18700
C  54.35800 29.86700 46.89000
C  51.37400 28.85000 45.27200
O  50.94100 29.95800 45.43300
C  50.65000 27.71100 44.43900
C  50.55800 28.25600 43.04900
O  51.46900 28.81300 42.45000
O  49.30700 28.03200 42.49500
C  49.26400 28.47800 41.08400
H  51.51300 20.93700 43.95600
H  57.80200 21.98800 45.29800
H  56.72300 27.85800 46.86900
H  49.31700 25.06900 44.04600
H  49.89400 22.60300 42.97400
H  49.90000 22.64700 45.90800
H  48.65300 21.89800 44.80000
H  48.51000 23.55400 45.37600
H  49.40700 25.77300 41.89000
H  49.74900 24.15500 41.40500
H  51.93300 26.07000 41.93400
H  51.20500 25.69100 40.37900
H  53.93800 18.88800 42.72400
H  52.44600 19.12600 43.63900
H  53.57200 18.06900 44.36000
H  58.67200 18.54800 44.85000
H  58.07400 19.81600 45.92500
H  58.60000 20.26200 44.25600
H  59.05400 24.33400 45.04200
H  58.39400 25.93700 47.41100
H  58.53600 22.71900 47.40800
H  59.46100 23.98500 47.89300
H  60.04000 22.82000 46.58100
H  58.68400 27.64600 45.12300
H  59.51400 26.32300 44.55400
H  60.42500 27.12300 47.28000
H  60.18200 28.51500 46.25300
H  61.28600 27.26600 45.69700
H  53.86000 29.75900 47.85300
H  53.98500 30.77700 46.41900
H  55.42900 29.93700 47.07600
H  49.65400 27.51900 44.83600
H  50.11800 27.99400 40.61100
H  49.23000 29.56800 41.06300
H  48.36500 27.97000 40.73700
Mg 29.42800 57.89000 41.48000
C  26.57800 56.30600 40.07100
C  31.43400 55.61300 39.94800
C  31.97800 60.08100 41.79300
C  27.21200 60.42600 42.45800
N  29.06700 56.27200 40.03000
C  27.81700 55.74600 39.66200
C  27.98100 54.53900 38.77100
C  29.42200 54.08800 39.20700
C  30.03600 55.40300 39.75800
C  29.48600 52.92100 40.23900
C  27.92500 55.00500 37.25400
C  27.08700 54.09400 36.35900
H  26.97300 54.28600 34.83800
N  31.48000 57.86000 40.94000
C  32.10000 56.79700 40.41200
C  33.53200 57.12500 40.29200
C  33.66300 58.38700 40.89000
C  32.34100 58.82000 41.29900
C  34.52800 56.05900 39.90800
C  35.03400 59.08000 40.99200
O  35.96500 58.58200 40.47300
C  35.25300 60.44200 41.68100
N  29.59100 60.00000 41.91600
C  30.76400 60.64900 42.18700
C  30.57000 62.07900 42.84600
C  29.03800 61.99200 43.18900
C  28.52200 60.73700 42.43300
C  31.53700 62.22700 43.99100
C  28.26400 63.31100 42.66400
C  27.18000 63.89200 43.66500
N  27.24400 58.25500 41.48800
C  26.54500 59.30700 41.95400
C  25.17500 59.15600 41.71300
C  25.05900 57.89000 41.09700
C  26.39600 57.45500 40.82600
C  24.09400 60.10300 42.02800
C  24.12500 56.90500 40.57100
O  22.95400 56.90300 40.62100
C  25.09000 55.85200 39.83500
C  24.79700 54.52000 40.42400
O  25.44400 53.95700 41.34700
O  23.64000 54.08200 39.94100
C  23.09600 52.88600 40.57000
H  31.98400 54.72900 39.61900
H  32.76400 60.80000 42.03300
H  26.50900 61.12200 42.91900
H  27.25100 53.80200 39.10500
H  29.95800 53.72000 38.33200
H  30.02800 53.25300 41.12500
H  29.95500 52.14000 39.64100
H  28.46100 52.63300 40.47000
H  28.94000 55.10100 36.86700
H  27.52500 56.01900 37.24000
H  26.08500 54.21400 36.77100
H  27.46900 53.08100 36.48200
H  35.55400 56.26000 40.21400
H  34.47500 56.11300 38.82100
H  34.20700 55.09500 40.30300
H  34.81900 61.05700 40.89200
H  36.31300 60.66600 41.80100
H  34.67500 60.37500 42.60300
H  30.82000 62.69000 41.97900
H  28.90300 61.95800 44.27000
H  32.26900 62.98600 43.71400
H  32.06600 61.28100 44.10100
H  31.07000 62.55900 44.91800
H  27.98700 63.18900 41.61700
H  28.98800 64.10700 42.48800
H  27.69200 64.50600 44.40700
H  26.66900 63.09100 44.20000
H  26.42900 64.45500 43.11200
H  24.46700 60.94200 41.44100
H  24.06100 60.47700 43.05100
H  23.11100 59.81500 41.65600
H  24.90000 55.88300 38.76300
H  23.80900 52.22200 41.05800
H  22.42300 52.35400 39.89800
H  22.49900 53.21400 41.42200

