158

Mg 45.48800 4.17700 46.72500
C  43.24800 6.85900 46.84500
C  42.75700 2.04200 46.58200
C  47.65000 1.70600 46.01600
C  48.15000 6.56500 46.60600
N  43.28600 4.49100 46.75700
C  42.59700 5.62900 46.73600
C  41.05400 5.40000 46.72100
C  40.98800 3.83900 46.63500
C  42.45800 3.38300 46.75700
C  40.02700 3.10600 47.56400
C  40.21600 6.17000 45.58500
C  40.82100 6.42100 44.21400
H  39.99600 5.94000 43.02000
N  45.21900 2.12800 46.36800
C  44.00700 1.45000 46.38500
C  44.29200 0.05400 46.12500
C  45.73100 -0.02600 45.92200
C  46.30500 1.28800 46.10100
C  43.18700 -1.03700 46.23300
C  46.51500 -1.27400 45.51000
O  45.92600 -2.35600 45.45900
C  47.92000 -1.26100 45.10900
N  47.63600 4.14600 46.43300
C  48.31600 2.96600 46.24900
C  49.84300 3.21400 46.12900
C  49.95900 4.75700 46.22200
C  48.57800 5.19400 46.59600
C  50.65100 2.42700 47.22400
C  50.63500 5.41100 44.96300
C  49.65200 5.77700 43.82200
N  45.71800 6.30200 46.79500
C  46.81800 7.09900 46.71800
C  46.49100 8.50600 46.84800
C  45.05300 8.44800 46.98100
C  44.66300 7.09400 46.97300
C  47.38600 9.69700 46.76500
C  43.86500 9.25500 47.14200
O  43.72800 10.43800 47.31500
C  42.63300 8.25200 47.04200
C  41.84300 8.17400 48.30900
O  42.22300 7.54000 49.30600
O  40.61700 8.64900 48.03600
C  39.51500 8.55500 49.04100
H  41.83600 1.45700 46.62700
H  48.34800 0.86900 46.07200
H  49.06000 7.16700 46.65800
H  40.67600 5.70200 47.69800
H  40.75700 3.42900 45.65100
H  39.45000 3.87100 48.08400
H  40.42900 2.46700 48.35000
H  39.22800 2.67800 46.95800
H  40.13100 7.12000 46.11300
H  39.23900 5.69400 45.50400
H  41.72400 5.81700 44.12500
H  41.12900 7.44700 44.01300
H  42.90400 -1.48600 47.18500
H  43.42900 -1.96400 45.71300
H  42.26100 -0.73000 45.74700
H  48.18500 -2.07500 44.43400
H  48.43800 -1.27700 46.06700
H  48.12900 -0.35600 44.53900
H  50.05900 2.89700 45.10800
H  50.49900 5.01600 47.13300
H  51.24100 3.17900 47.74600
H  51.40100 1.84300 46.69000
H  49.99400 1.82300 47.85000
H  51.31900 4.63600 44.61800
H  51.07900 6.35500 45.28100
H  48.61400 5.74100 44.15100
H  49.85500 5.03600 43.04900
H  49.90600 6.80900 43.57900
H  46.70000 10.54200 46.83100
H  47.89600 9.64600 45.80200
H  48.16400 9.74000 47.52700
H  42.03700 8.50200 46.16500
H  38.94400 9.47200 49.18800
H  39.85900 8.24000 50.02600
H  38.83700 7.80300 48.63700
Mg 10.12200 46.95200 25.20300
C  7.52800 47.31300 27.51600
C  12.30200 48.32100 27.28900
C  12.32300 46.85700 22.64300
C  7.52000 46.11800 22.71800
N  9.91200 47.68600 27.23000
C  8.81200 47.69100 28.04300
C  9.22000 48.04200 29.47300
C  10.67600 48.60900 29.26700
C  10.97100 48.29500 27.80000
C  10.86700 50.13500 29.53400
C  9.00100 46.95300 30.63600
C  9.61000 47.21400 32.01300
H  8.79200 46.55200 33.16400
N  12.02600 47.42300 25.01600
C  12.79700 47.90700 26.02000
C  14.24800 47.82300 25.55600
C  14.17200 47.26200 24.27600
C  12.77500 47.17300 23.94300
C  15.35900 48.18500 26.53500
C  15.38800 46.76100 23.40400
O  15.25600 46.30700 22.29800
C  16.78000 46.77600 24.01100
N  9.88400 46.45700 22.99700
C  11.04900 46.56900 22.22500
C  10.58400 46.30600 20.75400
C  9.14400 45.64400 20.86400
C  8.80700 46.05700 22.25900
C  10.80400 47.55400 19.85500
C  9.14500 44.06700 20.62400
C  9.01600 43.24300 21.93100
N  7.99500 46.71200 25.07400
C  7.15500 46.33700 24.07900
C  5.84600 46.21000 24.54900
C  5.95700 46.50800 25.91800
C  7.28000 46.94100 26.15500
C  4.60500 45.79800 23.68500
C  5.15000 46.55400 27.11700
O  3.99700 46.27800 27.34500
C  6.18100 47.07800 28.18700
C  6.24100 46.00500 29.19000
O  6.95400 45.00400 29.10500
O  5.34000 46.27400 30.19500
C  5.05600 45.22900 31.11700
H  13.08200 48.60600 27.99800
H  12.97600 46.92400 21.77100
H  6.78600 45.69000 22.03300
H  8.55000 48.88300 29.65100
H  11.35500 48.10200 29.95200
H  11.59500 50.23500 30.33900
H  9.93900 50.58700 29.88400
H  11.26100 50.52200 28.59500
H  9.26900 45.99800 30.18600
H  7.92300 47.01000 30.78700
H  9.81500 48.28000 32.10500
H  10.53300 46.63300 32.01600
H  15.04800 48.51100 27.52800
H  16.00500 48.97600 26.15300
H  15.97800 47.31000 26.73500
H  16.77000 46.13000 24.88900
H  17.06300 47.80800 24.21900
H  17.50600 46.35800 23.31400
H  11.29700 45.56500 20.39300
H  8.41800 46.02300 20.14400
H  9.83100 47.92500 19.53200
H  11.49900 47.39900 19.02900
H  11.29900 48.40000 20.33200
H  10.05200 43.81700 20.07400
H  8.25100 43.86900 20.03300
H  9.14800 43.80800 22.85400
H  9.66100 42.36400 21.93300
H  8.00600 42.83200 21.95200
H  5.04500 44.99300 23.09700
H  4.23000 46.65600 23.12700
H  3.80300 45.38000 24.29300
H  5.86500 47.99300 28.68800
H  4.52500 44.33600 30.78500
H  4.41000 45.76600 31.81100
H  5.88800 44.90200 31.74000

