158

Mg 47.52300 25.40900 28.24800
C  48.23300 27.54900 30.95900
C  46.96300 22.79000 30.55200
C  47.24000 23.32400 25.61600
C  48.90900 27.84600 26.16300
N  47.55800 25.24800 30.44500
C  47.69600 26.29100 31.30900
C  47.38700 25.92900 32.72300
C  47.17500 24.33700 32.61600
C  47.25600 24.02100 31.10700
C  48.02000 23.38000 33.51200
C  46.24200 26.73200 33.30400
C  45.90400 26.54900 34.76100
H  45.83800 27.86100 35.63400
N  47.01700 23.37600 28.04900
C  46.85800 22.45000 29.13000
C  46.41200 21.27700 28.57100
C  46.43700 21.41700 27.09600
C  46.90700 22.75400 26.84200
C  46.00800 20.08200 29.36700
C  46.01500 20.46300 26.01200
O  46.07400 20.70600 24.77100
C  45.44200 19.14600 26.38600
N  48.16800 25.56900 26.19200
C  47.79200 24.61500 25.29100
C  48.01000 25.03300 23.90400
C  48.61600 26.40500 24.04300
C  48.57000 26.68900 25.52400
C  48.73700 23.92400 23.01500
C  47.87400 27.48400 23.24200
C  48.66100 28.77800 22.82500
N  48.33100 27.34700 28.40100
C  48.86600 28.19300 27.50600
C  49.44600 29.41000 28.17400
C  49.15700 29.22400 29.51900
C  48.50900 27.95300 29.59600
C  50.22600 30.50600 27.59500
C  49.24900 29.81400 30.86700
O  49.81600 30.82200 31.22900
C  48.50200 28.83100 31.81600
C  49.48600 28.55500 32.93000
O  50.61200 28.17300 32.83700
O  48.80200 28.76800 34.01300
C  49.53800 28.53500 35.27500
H  46.77900 22.06100 31.34500
H  47.10400 22.72800 24.71100
H  49.32200 28.58500 25.47200
H  48.30100 26.20800 33.24700
H  46.14100 24.23600 32.94700
H  47.42200 22.54800 33.88400
H  48.62000 23.93700 34.23200
H  48.73800 22.77600 32.95700
H  45.32700 26.44700 32.78600
H  46.42400 27.80000 33.17600
H  46.46000 25.76900 35.28300
H  44.92200 26.07800 34.78200
H  46.72000 19.28500 29.15600
H  44.96900 19.78900 29.21400
H  46.06900 20.22300 30.44600
H  44.50700 19.18900 26.94400
H  46.18000 18.51700 26.88400
H  45.26700 18.70900 25.40300
H  46.96500 25.03800 23.59400
H  49.66700 26.40800 23.75400
H  48.96300 23.20100 23.79800
H  49.69800 24.23200 22.60300
H  48.02300 23.59400 22.26100
H  46.96700 27.78600 23.76600
H  47.40500 27.06700 22.35100
H  49.73600 28.66100 22.96600
H  48.24700 29.60600 23.39900
H  48.59700 29.01400 21.76200
H  51.26000 30.56000 27.93600
H  49.62000 31.35500 27.91200
H  50.40000 30.49900 26.51900
H  47.56500 29.29300 32.12900
H  49.12700 29.18700 36.04600
H  50.56800 28.88700 35.33000
H  49.35100 27.50100 35.56400
Mg -1.74500 34.23100 26.95700
C  -3.68300 32.77500 29.43000
C  -0.63700 36.53500 29.11500
C  -0.16300 35.74200 24.34000
C  -3.22100 32.07400 24.65000
N  -2.20700 34.65400 28.99900
C  -2.89600 33.81600 29.87500
C  -2.70400 34.40600 31.33500
C  -1.83000 35.67500 31.08300
C  -1.54900 35.63200 29.63900
C  -2.27600 37.00900 31.66600
C  -2.06400 33.33200 32.25800
C  -3.00800 32.73400 33.39100
H  -2.27400 32.48800 34.70200
N  -0.46100 35.85700 26.72300
C  -0.09800 36.65800 27.82100
C  0.77800 37.71800 27.26100
C  0.85900 37.50900 25.85500
C  0.05500 36.32600 25.54500
C  1.33300 38.81100 28.15600
C  1.48500 38.44200 24.85400
O  1.46200 38.24800 23.65600
C  2.35500 39.53700 25.29000
N  -1.73400 34.05700 24.72800
C  -0.96400 34.75600 23.91100
C  -1.02600 34.15400 22.46700
C  -1.96500 32.90200 22.61900
C  -2.26700 32.94200 24.10900
C  -1.49000 35.10700 21.23000
C  -1.41000 31.54300 22.14600
C  -0.79300 30.60000 23.14700
N  -3.29400 32.91200 26.92500
C  -3.76200 32.08200 25.93000
C  -4.80600 31.24200 26.43300
C  -4.74900 31.44400 27.87100
C  -3.83700 32.44700 28.06700
C  -5.67900 30.29000 25.67400
C  -5.42100 31.09300 29.11600
O  -6.39300 30.37400 29.28800
C  -4.60200 31.83600 30.25500
C  -5.56300 32.54800 31.19300
O  -6.26400 33.45400 30.85100
O  -5.80600 31.86000 32.35300
C  -6.85900 32.42600 33.23400
H  -0.26500 37.21600 29.88300
H  0.41900 36.09000 23.48400
H  -3.61700 31.32700 23.95900
H  -3.68500 34.68500 31.72000
H  -0.83500 35.55400 31.51200
H  -2.56800 37.81900 30.99800
H  -1.48700 37.38700 32.31700
H  -3.17400 37.01000 32.28400
H  -1.21100 33.79000 32.75900
H  -1.59600 32.50800 31.72100
H  -3.49900 31.79400 33.13800
H  -3.77500 33.50300 33.47900
H  2.42100 38.73500 28.14500
H  1.11300 38.57000 29.19600
H  0.88000 39.79700 28.05800
H  2.66300 40.04400 24.37600
H  3.15300 39.08100 25.87600
H  1.68200 40.18800 25.84900
H  0.02400 33.89400 22.33600
H  -2.89300 33.05200 22.06800
H  -1.79800 36.05400 21.67400
H  -2.24400 34.66700 20.57800
H  -0.59600 35.29100 20.63400
H  -0.74400 31.68000 21.29400
H  -2.34800 31.14000 21.76500
H  -0.06600 29.97800 22.62500
H  -1.60900 30.01500 23.57000
H  -0.31700 31.24300 23.88700
H  -5.35200 30.39200 24.63900
H  -6.72500 30.35500 25.97400
H  -5.30700 29.28200 25.86200
H  -4.06400 31.07500 30.82200
H  -7.85000 32.40000 32.78200
H  -6.79400 33.48700 33.47300
H  -6.78100 31.81200 34.13100

