158

Mg 42.46000 41.90600 26.85000
C  41.32600 44.09300 29.33700
C  43.15400 39.66300 29.25300
C  43.74400 39.92300 24.48600
C  42.09900 44.43000 24.47200
N  42.20000 41.83200 29.04400
C  41.63800 42.82900 29.81300
C  41.57400 42.38000 31.24500
C  42.22300 40.92400 31.22800
C  42.56400 40.81500 29.77900
C  43.37200 40.65200 32.28500
C  40.15100 42.39400 31.84900
C  39.80200 43.15800 33.07600
H  39.33700 42.27400 34.24800
N  43.33700 40.06600 26.85800
C  43.44200 39.20700 27.95000
C  44.10400 37.99400 27.63600
C  44.34900 38.14000 26.25700
C  43.85800 39.43900 25.79800
C  44.52700 36.92200 28.60800
C  44.95200 37.10600 25.27300
O  45.22400 37.24600 24.05700
C  45.30200 35.84700 25.79900
N  42.71100 42.07000 24.72400
C  43.21600 41.10300 23.96200
C  43.20400 41.54700 22.44100
C  42.58200 42.98100 22.51300
C  42.44600 43.15900 23.99300
C  44.56600 41.35800 21.66900
C  41.23100 43.06100 21.74700
C  41.22800 43.60700 20.25800
N  41.81400 43.84300 26.82700
C  41.79400 44.73100 25.79400
C  41.37600 45.98400 26.37900
C  41.12100 45.76500 27.70000
C  41.39500 44.45300 27.99700
C  41.23500 47.24700 25.70400
C  40.66400 46.36800 29.03800
O  40.30300 47.50500 29.34100
C  40.78800 45.31200 30.11900
C  41.82500 45.88600 31.05200
O  43.00600 46.11700 30.67300
O  41.21300 46.33400 32.18700
C  42.17100 46.83600 33.17700
H  43.19100 38.86400 29.99700
H  43.95600 39.21900 23.67700
H  42.08400 45.30900 23.82500
H  42.27500 42.97200 31.83400
H  41.45900 40.14900 31.28300
H  43.51700 41.43900 33.02500
H  44.28800 40.70700 31.69700
H  43.41000 39.67700 32.77000
H  39.76100 41.40000 32.06800
H  39.66400 42.99000 31.07700
H  39.02500 43.87400 32.80700
H  40.72600 43.57200 33.48000
H  43.97800 35.98800 28.48800
H  44.47800 37.33000 29.61700
H  45.57700 36.68300 28.43900
H  45.41100 35.09400 25.01900
H  44.56900 35.33200 26.42000
H  46.23200 35.98300 26.35100
H  42.48300 40.86500 21.98900
H  43.33700 43.67000 22.13400
H  45.14300 42.27500 21.78300
H  44.35400 41.35700 20.60000
H  45.24400 40.56800 21.99100
H  40.54500 43.64700 22.36000
H  40.76600 42.07600 21.74300
H  42.08100 44.25000 20.04100
H  40.28600 44.14500 20.15300
H  41.25700 42.72700 19.61600
H  41.77300 47.34200 24.76100
H  41.35400 48.10500 26.36600
H  40.16900 47.22500 25.47500
H  39.78700 45.28800 30.54900
H  42.89100 47.58500 32.84800
H  42.68400 45.95200 33.55600
H  41.82100 47.38000 34.05400
Mg 0.56000 42.21200 26.33900
C  1.79400 42.24800 29.79600
C  -2.38000 41.10600 27.64500
C  -0.33400 41.26300 23.18700
C  3.87600 42.81600 25.25100
N  -0.14500 41.66100 28.45600
C  0.42000 41.95400 29.65500
C  -0.50500 41.73600 30.79000
C  -1.81600 41.33900 30.15500
C  -1.41100 41.34200 28.64000
C  -2.30600 39.96200 30.66700
C  -0.63700 42.94600 31.70600
C  -0.25900 42.84400 33.23100
H  -0.59700 41.49200 33.93900
N  -1.26700 41.43800 25.43600
C  -2.31600 41.11800 26.22200
C  -3.37600 40.82200 25.26100
C  -2.75700 40.73600 23.88800
C  -1.36100 41.09500 24.14800
C  -4.86700 40.80400 25.64300
C  -3.45100 40.43700 22.51600
O  -2.86700 40.49200 21.43300
C  -4.89200 39.87100 22.49600
N  1.59900 42.17800 24.53500
C  0.95600 41.79900 23.33100
C  1.90900 41.88400 22.17700
C  3.10500 42.68800 22.81100
C  2.81700 42.65600 24.30700
C  2.38500 40.53700 21.56300
C  3.17300 44.15600 22.28000
C  4.12800 44.24600 21.12700
N  2.51400 42.44200 27.24800
C  3.77200 42.69400 26.66300
C  4.70900 42.80100 27.79400
C  3.98400 42.68500 28.98300
C  2.69000 42.43800 28.63100
C  6.18100 43.11000 27.56100
C  4.21600 42.56700 30.39000
O  5.22800 42.55000 31.02800
C  2.69200 42.37600 31.02100
C  2.75000 41.15400 31.92100
O  2.58900 39.98800 31.56600
O  3.11800 41.51200 33.20400
C  3.05500 40.52100 34.30000
H  -3.34800 40.88200 28.09800
H  -0.56500 40.90800 22.18000
H  4.87400 42.90500 24.81900
H  -0.05700 40.87200 31.28100
H  -2.64000 42.01600 30.37600
H  -3.30000 40.11700 31.08700
H  -1.73300 39.44500 31.43700
H  -2.36100 39.30200 29.80100
H  -1.68700 43.21100 31.83300
H  0.00400 43.74700 31.33700
H  -0.71600 43.69200 33.74100
H  0.80100 43.08300 33.31900
H  -5.34100 41.57600 25.03700
H  -5.04400 41.12500 26.66900
H  -5.40600 39.89200 25.38600
H  -5.06200 39.22900 21.63200
H  -5.69300 40.57900 22.70800
H  -4.83600 39.19700 23.35100
H  1.55200 42.48400 21.34000
H  4.05100 42.18200 22.62400
H  2.24100 40.53200 20.48300
H  1.65400 39.80300 21.90200
H  3.36400 40.22100 21.92500
H  3.55100 44.83500 23.04500
H  2.13200 44.35500 22.02500
H  4.80800 45.02000 21.48400
H  3.69700 44.60600 20.19200
H  4.74900 43.37400 20.92500
H  6.42700 42.14600 27.11800
H  6.64900 43.36100 28.51300
H  6.46300 43.82300 26.78600
H  2.40500 43.28400 31.55200
H  4.06500 40.46100 34.70600
H  2.62600 39.59300 33.92300
H  2.40200 40.93800 35.06700

