158

Mg 26.02300 0.92800 29.15300
C  27.94600 0.97200 32.04000
C  23.17800 1.49400 31.01300
C  24.22300 0.97900 26.26100
C  28.89700 0.15800 27.26100
N  25.63500 1.19100 31.23800
C  26.54200 1.23900 32.21300
C  25.84500 1.28200 33.61700
C  24.33300 1.24300 33.32600
C  24.40400 1.36500 31.75000
C  23.42300 0.01100 33.85200
C  26.37800 2.48500 34.41100
C  26.75000 2.30900 35.83700
H  26.48100 3.47600 36.87600
N  23.99400 1.05000 28.72400
C  22.96000 1.30100 29.61000
C  21.71000 1.32900 28.86600
C  22.05500 1.31900 27.51400
C  23.49400 1.04500 27.45300
C  20.32600 1.39800 29.55600
C  21.04200 1.47700 26.31500
O  21.35800 1.42000 25.15100
C  19.59000 1.76400 26.63500
N  26.51000 0.67500 27.02200
C  25.63100 0.86700 26.02700
C  26.34800 0.68500 24.69800
C  27.84400 0.54500 25.03500
C  27.77600 0.45200 26.50300
C  25.73100 -0.51300 23.75800
C  28.75700 1.68200 24.51900
C  30.04600 1.28500 23.79400
N  28.04200 0.65600 29.51000
C  29.07600 0.25600 28.67300
C  30.22100 -0.10700 29.47800
C  29.85900 0.19500 30.79900
C  28.53100 0.66700 30.77800
C  31.54900 -0.62300 29.05400
C  30.24900 0.19200 32.16900
O  31.32900 -0.14600 32.64400
C  29.01200 0.70100 33.03700
C  28.80100 -0.34800 34.05700
O  28.11000 -1.33800 33.90300
O  29.51000 -0.03200 35.17100
C  29.40700 -0.99200 36.27200
H  22.36700 1.66300 31.72400
H  23.69000 1.18800 25.33200
H  29.79800 -0.10800 26.70400
H  26.10600 0.34200 34.10400
H  23.95200 2.23700 33.56200
H  23.97600 -0.67400 34.49400
H  23.10700 -0.64800 33.04300
H  22.47700 0.31700 34.30000
H  25.67000 3.30800 34.31200
H  27.29200 2.71700 33.86500
H  27.80900 2.10000 35.98700
H  26.27800 1.37300 36.13700
H  19.89900 2.39000 29.40800
H  20.38500 1.18500 30.62300
H  19.61700 0.68000 29.14200
H  19.58100 2.59900 27.33500
H  19.10300 0.90200 27.09000
H  19.13100 1.98400 25.67100
H  26.03100 1.62100 24.23900
H  28.19800 -0.40000 24.62200
H  26.55700 -1.04400 23.28500
H  25.03300 -0.23200 22.97000
H  25.15500 -1.10700 24.46800
H  28.97700 2.33300 25.36500
H  28.22600 2.32100 23.81300
H  30.86300 1.76100 24.33700
H  30.06000 1.55200 22.73700
H  30.23000 0.21800 23.92700
H  31.73700 -0.31200 28.02700
H  31.49100 -1.70700 29.15400
H  32.28300 -0.30500 29.79400
H  29.41100 1.59300 33.52000
H  30.24600 -0.69800 36.90400
H  29.40600 -2.03700 35.96400
H  28.52200 -0.71100 36.84300
Mg 50.15400 45.32100 40.57000
C  46.74200 45.34400 39.43200
C  50.34500 42.08800 40.07200
C  53.38600 45.58000 41.24700
C  49.82300 48.95800 40.51600
N  48.67500 43.94800 39.77300
C  47.33500 44.09800 39.45900
C  46.81200 42.74300 38.99800
C  47.80800 41.70200 39.69800
C  49.03200 42.61100 39.82600
C  47.35700 41.17700 41.08600
C  46.75500 42.68200 37.43300
C  45.40600 42.29100 36.80700
H  45.09800 42.86000 35.42000
N  51.63600 43.97800 40.79500
C  51.48800 42.66200 40.62800
C  52.76100 41.94900 40.82600
C  53.63400 42.91800 41.37400
C  52.94000 44.27100 41.17200
C  52.99100 40.45700 40.65000
C  55.01100 42.67000 41.96700
O  55.52200 41.56300 41.99400
C  55.76900 43.86800 42.67600
N  51.39000 47.00300 40.90400
C  52.75100 46.83400 41.26100
C  53.37800 48.31100 41.45400
C  52.27100 49.31400 41.03700
C  51.09300 48.39400 40.72900
C  53.96900 48.46700 42.86200
C  52.56400 50.23300 39.80200
C  52.47800 51.75200 40.11500
N  48.61900 46.88500 40.20500
C  48.65700 48.28800 40.19300
C  47.33100 48.77900 39.74400
C  46.45700 47.72500 39.62900
C  47.37300 46.56100 39.79900
C  46.98000 50.18400 39.74000
C  45.08500 47.23600 39.43900
O  44.01900 47.83900 39.47200
C  45.24600 45.65400 39.33800
C  44.45500 44.99900 40.40300
O  44.84900 44.68200 41.54600
O  43.12600 45.05400 40.01600
C  42.14700 44.95400 41.11700
H  50.44000 41.01200 39.91100
H  54.46100 45.70300 41.39100
H  49.72400 50.03900 40.40400
H  45.84200 42.47100 39.41300
H  48.05700 40.86300 39.04900
H  46.26800 41.20400 41.12800
H  47.77300 41.79000 41.88500
H  47.67100 40.13500 41.14700
H  47.49700 42.07500 36.91500
H  46.95300 43.71000 37.13100
H  44.61100 42.41100 37.54300
H  45.50900 41.21600 36.66000
H  53.96400 40.04500 40.91400
H  52.72400 40.18300 39.62900
H  52.30800 39.93600 41.32100
H  55.14000 44.38300 43.40200
H  56.11700 44.48900 41.85000
H  56.65400 43.43400 43.14000
H  54.21400 48.42100 40.76300
H  52.02000 49.93100 41.90000
H  54.08300 47.48200 43.31400
H  53.30200 49.08300 43.46600
H  54.88600 49.04500 42.75000
H  51.90700 49.95800 38.97600
H  53.61700 50.06700 39.57300
H  52.03900 52.19200 39.22000
H  53.46700 52.10100 40.41000
H  51.84200 52.09500 40.93200
H  46.94100 50.58400 40.75300
H  46.02500 50.30600 39.22700
H  47.72700 50.69100 39.13000
H  44.82800 45.37800 38.37000
H  41.10600 45.06500 40.81200
H  42.37400 45.74500 41.83100
H  42.23700 43.99900 41.63400

