158

Mg 47.12300 17.22300 28.31500
C  45.10900 17.13700 31.22100
C  49.48400 18.95600 30.21700
C  48.70500 17.71000 25.49300
C  44.53700 15.66000 26.57700
N  47.29400 17.89000 30.49100
C  46.37400 17.73500 31.45300
C  46.94600 18.06700 32.83800
C  48.24800 18.90300 32.45500
C  48.38500 18.58800 30.93800
C  48.26000 20.49900 32.76800
C  47.11300 16.86100 33.78100
C  46.88300 17.07600 35.29800
H  46.45400 18.49000 35.76000
N  48.94200 17.97200 27.96300
C  49.75800 18.66000 28.84700
C  50.95900 19.08400 28.09100
C  50.77400 18.75100 26.68700
C  49.43600 18.14400 26.62900
C  52.13600 19.70700 28.84800
C  51.69600 19.01900 25.51500
O  51.38800 18.70000 24.37400
C  53.03100 19.62700 25.78600
N  46.67300 16.74900 26.40400
C  47.45500 17.07600 25.34100
C  47.03300 16.46700 24.02100
C  45.97700 15.47600 24.52200
C  45.63000 16.08100 25.92600
C  46.60000 17.60700 23.04100
C  46.34000 13.97100 24.47500
C  45.58900 13.13700 23.43600
N  45.21500 16.60000 28.73400
C  44.28900 15.94500 27.89900
C  43.15800 15.61100 28.61900
C  43.41900 16.01200 29.94700
C  44.70900 16.69300 29.94600
C  41.94000 14.87100 28.01700
C  42.93100 15.97500 31.31900
O  41.91000 15.44200 31.77000
C  44.03800 16.70500 32.12000
C  43.46900 17.68600 33.11300
O  43.24400 18.90100 32.94000
O  43.01600 16.92000 34.14100
C  42.27300 17.66000 35.11600
H  50.21000 19.53700 30.79000
H  49.39400 17.82400 24.65400
H  43.79500 15.17100 25.94100
H  46.18300 18.67400 33.32400
H  49.15100 18.49900 32.91100
H  48.24500 21.07900 31.84400
H  49.07600 20.78400 33.43100
H  47.39100 20.69800 33.39500
H  48.12600 16.49600 33.61300
H  46.46500 16.02000 33.53600
H  47.84800 16.96800 35.79200
H  46.35000 16.27600 35.81300
H  52.03100 20.79200 28.81400
H  53.01300 19.27300 28.36700
H  52.22400 19.43200 29.89900
H  52.78500 20.44900 26.45800
H  53.49900 20.00900 24.87800
H  53.64600 18.86500 26.26400
H  47.94400 16.08100 23.56500
H  45.04700 15.61100 23.97100
H  47.40400 17.67700 22.30900
H  46.47600 18.56800 23.54100
H  45.65000 17.23600 22.65700
H  46.12800 13.66100 25.49900
H  47.42300 13.92200 24.36400
H  46.30700 12.38200 23.11800
H  45.35200 13.70200 22.53400
H  44.75500 12.56700 23.84600
H  41.99500 13.82500 28.31600
H  41.89500 14.91600 26.92800
H  41.00900 15.23100 28.45600
H  44.51900 15.97600 32.77200
H  41.23600 17.80500 34.81300
H  42.81300 18.57500 35.36100
H  42.29800 17.08000 36.03900
Mg -1.05400 33.96900 26.91500
C  -2.99500 32.48700 29.52900
C  0.39900 36.01300 29.22500
C  0.40900 35.76300 24.29300
C  -2.94400 32.24000 24.59000
N  -1.33900 34.33600 29.16700
C  -2.09100 33.57200 30.01000
C  -2.00700 34.03900 31.44200
C  -1.03000 35.25100 31.34600
C  -0.62200 35.25200 29.82400
C  -1.65700 36.65400 31.80600
C  -1.52500 32.91700 32.42900
C  -2.49000 32.51300 33.64800
H  -1.84400 32.25100 35.02500
N  0.34700 35.49100 26.80000
C  0.84400 36.14600 27.90600
C  1.88200 37.13400 27.42200
C  1.75900 37.13600 26.02800
C  0.84900 36.08700 25.60200
C  2.80200 37.86200 28.30400
C  2.43700 38.14400 24.99800
O  2.20900 38.16100 23.82300
C  3.52900 39.01000 25.52500
N  -1.23400 34.04800 24.85400
C  -0.57700 34.84800 23.96100
C  -0.97300 34.57200 22.43500
C  -1.73100 33.20700 22.56500
C  -1.99400 33.17100 24.08600
C  -1.61400 35.81000 21.76200
C  -0.95400 32.02700 22.02400
C  0.27400 31.61600 22.87000
N  -2.59300 32.59500 26.99300
C  -3.23600 31.97700 25.96000
C  -4.13900 30.96400 26.44100
C  -4.13500 31.22100 27.88000
C  -3.11400 32.12600 28.11400
C  -5.10900 30.14800 25.68700
C  -4.78000 30.78900 29.09500
O  -5.68100 29.97900 29.22700
C  -4.02600 31.58700 30.30000
C  -5.03900 32.41900 30.94000
O  -5.66700 33.34200 30.42100
O  -5.35100 31.95200 32.09500
C  -6.38100 32.65200 32.93800
H  0.90500 36.58500 30.00500
H  0.82300 36.37800 23.49100
H  -3.45300 31.68900 23.79700
H  -2.97700 34.37100 31.81100
H  -0.21700 35.02000 32.03400
H  -2.73800 36.55200 31.90800
H  -1.33900 37.46700 31.15400
H  -1.28700 36.93600 32.79200
H  -0.59300 33.14000 32.94800
H  -1.36900 32.04900 31.78800
H  -2.95500 31.56600 33.37300
H  -3.31500 33.22600 33.66500
H  2.56700 38.92500 28.35500
H  3.82500 37.65500 27.98800
H  2.76400 37.41900 29.29900
H  3.15300 39.70500 26.27600
H  4.06300 39.43900 24.67700
H  4.22000 38.35300 26.05500
H  -0.02400 34.42100 21.91900
H  -2.65900 33.30900 22.00200
H  -0.78200 36.09200 21.11800
H  -1.77200 36.65600 22.43100
H  -2.53200 35.51400 21.25400
H  -0.63200 32.10900 20.98600
H  -1.64100 31.18100 22.03300
H  0.29700 32.40100 23.62600
H  1.17000 31.69600 22.25500
H  0.13400 30.67800 23.40700
H  -5.17700 30.39400 24.62800
H  -6.09700 30.30500 26.12100
H  -4.87900 29.12700 25.99400
H  -3.63200 30.81000 30.95500
H  -7.22200 33.13700 32.44400
H  -5.81400 33.38100 33.51600
H  -6.67000 31.77200 33.51300

