158

Mg -1.40800 17.70600 27.24000
C  -2.17200 15.36200 29.71400
C  -1.79700 20.20500 29.51400
C  -1.18500 19.95300 24.69100
C  -1.51300 15.09700 24.81000
N  -2.01000 17.73400 29.36900
C  -2.03900 16.65700 30.18800
C  -1.95300 17.04600 31.65500
C  -2.00200 18.63700 31.55300
C  -1.90100 18.90900 30.04300
C  -3.01700 19.46100 32.35500
C  -0.68200 16.41700 32.47000
C  -0.24900 17.11200 33.73100
H  -0.23400 16.32300 35.13900
N  -1.50800 19.80600 27.14900
C  -1.70200 20.62100 28.20400
C  -1.59400 21.98900 27.73500
C  -1.47000 21.97600 26.31100
C  -1.39200 20.53500 25.95400
C  -1.77600 23.14500 28.74600
C  -1.30400 23.09500 25.29500
O  -1.03900 22.90900 24.12000
C  -1.30500 24.47600 25.80800
N  -1.37500 17.51700 25.08800
C  -1.28900 18.61300 24.29600
C  -1.17300 18.25100 22.72100
C  -1.16700 16.71600 22.79900
C  -1.35200 16.40000 24.29300
C  -2.25100 18.90900 21.72300
C  0.12900 16.10200 22.26800
C  1.32400 16.47100 23.11500
N  -1.72800 15.61600 27.22400
C  -1.76300 14.76000 26.13000
C  -2.09700 13.41100 26.65500
C  -2.22700 13.60400 28.05600
C  -2.04700 14.94400 28.35800
C  -2.35700 12.09300 25.87900
C  -2.46000 12.92300 29.25800
O  -2.71200 11.76100 29.48900
C  -2.52200 14.02300 30.40400
C  -1.52700 13.54700 31.38600
O  -0.31700 13.53000 31.25000
O  -2.12300 12.88900 32.41500
C  -1.24900 12.18400 33.35200
H  -1.56800 20.94000 30.28900
H  -1.14200 20.55900 23.78400
H  -1.47800 14.31000 24.05300
H  -2.82100 16.70500 32.21800
H  -1.01100 18.96500 31.86700
H  -3.80000 19.75400 31.65600
H  -2.57200 20.41000 32.65400
H  -3.46300 18.94000 33.20300
H  0.25500 16.21300 31.95100
H  -0.98900 15.43600 32.83300
H  -0.95400 17.90700 33.97600
H  0.61300 17.73900 33.50500
H  -1.53700 22.88600 29.77700
H  -2.80900 23.49000 28.68400
H  -1.17300 23.99900 28.43800
H  -1.27800 25.23700 25.02700
H  -0.44400 24.57000 26.46900
H  -2.17000 24.71100 26.42800
H  -0.17300 18.60900 22.47700
H  -2.00300 16.25700 22.27200
H  -2.99400 18.23200 21.30300
H  -1.64400 19.19800 20.86500
H  -2.68100 19.78100 22.21600
H  0.27100 16.52900 21.27500
H  0.04800 15.01600 22.21900
H  1.57500 15.61900 23.74700
H  1.17500 17.40800 23.65100
H  2.16600 16.73900 22.47800
H  -1.51300 11.44200 26.10800
H  -2.51000 12.27300 24.81500
H  -3.28900 11.62600 26.19600
H  -3.55800 13.89800 30.72200
H  -0.40900 11.73200 32.82400
H  -1.80500 11.40900 33.88000
H  -0.73200 12.89300 34.00000
Mg 30.85000 59.21300 40.03100
C  27.81200 57.57700 38.74900
C  32.61100 56.70900 38.67700
C  33.50600 61.04800 40.63100
C  28.72300 62.04500 40.59400
N  30.21800 57.40900 38.73400
C  29.00900 56.88100 38.45600
C  29.18600 55.45500 37.98600
C  30.68700 55.08800 38.20900
C  31.22200 56.47600 38.65300
C  31.03000 53.94100 39.22500
C  28.62600 55.24600 36.56000
C  29.33700 56.06200 35.42800
H  28.41800 56.61100 34.29500
N  32.85300 58.83600 39.81200
C  33.38900 57.70500 39.28500
C  34.85900 57.81600 39.35000
C  35.13100 59.05200 40.04900
C  33.81500 59.73200 40.18600
C  35.77300 56.76400 38.76500
C  36.49900 59.47300 40.41000
O  37.43100 58.76900 40.09500
C  36.74100 60.82000 41.08700
N  31.03400 61.29900 40.50800
C  32.28800 61.74300 40.78600
C  32.18200 63.31100 40.95700
C  30.66000 63.56300 41.19400
C  30.10200 62.26800 40.71400
C  33.06300 64.01000 42.02700
C  30.16400 64.73400 40.31900
C  29.14000 65.69400 41.07600
N  28.69900 59.77800 39.79000
C  28.07800 60.94900 40.06200
C  26.68000 60.78900 39.80800
C  26.58200 59.44600 39.34500
C  27.82300 58.88100 39.30100
C  25.51500 61.72000 40.06100
C  25.61600 58.47500 38.77600
O  24.37200 58.62700 38.65900
C  26.33200 57.15400 38.39800
C  25.90400 55.93400 39.10200
O  25.47400 55.86900 40.24500
O  25.89000 54.82400 38.28600
C  25.35400 53.61200 38.96000
H  33.27400 55.97000 38.22200
H  34.36300 61.68400 40.85900
H  28.08200 62.89500 40.83500
H  28.58900 54.81200 38.63200
H  31.18500 54.83400 37.27300
H  30.21200 53.49300 39.78900
H  31.65700 54.38900 39.99500
H  31.59700 53.25400 38.59700
H  27.54800 55.39300 36.49900
H  28.83300 54.18800 36.40100
H  30.12100 55.45400 34.97700
H  29.78600 56.93200 35.90700
H  35.40600 55.78200 38.46600
H  36.45700 56.49800 39.57100
H  36.28200 57.23100 37.92200
H  37.76200 60.72300 41.45600
H  36.06100 60.93500 41.93100
H  36.59400 61.65200 40.39800
H  32.47900 63.71300 39.98800
H  30.59000 63.76200 42.26400
H  32.50500 64.70400 42.65500
H  33.82800 64.58300 41.50300
H  33.51300 63.25300 42.66900
H  29.60600 64.37200 39.45600
H  31.04000 65.20100 39.87000
H  29.57600 66.68500 41.20400
H  29.02400 65.27300 42.07400
H  28.21800 65.74000 40.49700
H  25.74400 62.72700 39.71300
H  25.17700 61.72500 41.09800
H  24.68700 61.33900 39.46400
H  26.31200 57.07800 37.31100
H  25.35400 52.95300 38.09100
H  24.33600 53.83000 39.28200
H  26.01800 53.27400 39.75500

