158

Mg -11.03000 39.79000 41.49000
C  -10.39900 36.54800 40.55900
C  -7.97400 40.85400 40.33000
C  -12.19900 42.90500 41.28200
C  -14.40300 38.64000 42.38100
N  -9.38800 38.78900 40.50800
C  -9.38400 37.45600 40.19000
C  -8.03400 37.08200 39.49800
C  -7.31700 38.49000 39.40300
C  -8.19100 39.43800 40.18300
C  -5.77200 38.54100 39.87700
C  -8.27200 36.27700 38.13200
C  -7.44000 36.61500 36.89100
H  -6.78400 35.57100 36.08600
N  -10.15500 41.65900 41.04800
C  -8.90300 41.87400 40.61600
C  -8.71600 43.28600 40.34500
C  -9.90800 43.92800 40.70600
C  -10.85200 42.84300 40.96800
C  -7.39000 43.98300 40.03600
C  -10.11500 45.51800 40.76800
O  -9.25500 46.29900 40.36900
C  -11.32500 46.19300 41.50500
N  -12.95900 40.57600 41.74400
C  -13.15200 41.94700 41.57300
C  -14.56400 42.41600 41.91800
C  -15.15400 41.06100 42.45500
C  -14.13700 40.01300 42.16600
C  -14.68900 43.55100 42.94900
C  -16.53300 40.57700 41.81200
C  -17.64200 40.18200 42.88500
N  -12.16700 37.97100 41.65600
C  -13.44200 37.67500 42.08000
C  -13.58100 36.21300 42.07700
C  -12.44600 35.73600 41.46800
C  -11.62700 36.85100 41.23300
C  -14.86500 35.45000 42.37900
C  -11.71500 34.60200 41.02400
O  -11.99600 33.43600 41.19800
C  -10.45800 35.06800 40.28900
C  -9.27400 34.29800 40.81700
O  -8.61700 34.49800 41.85600
O  -9.00100 33.27900 39.89700
C  -8.00800 32.31000 40.34300
H  -7.01100 41.15400 39.91100
H  -12.70700 43.85800 41.11700
H  -15.28700 38.22500 42.86900
H  -7.50400 36.36500 40.12500
H  -7.34300 38.78400 38.35400
H  -5.49200 37.51900 40.13300
H  -5.72400 39.08600 40.82000
H  -5.15300 39.02800 39.12400
H  -9.29700 36.47700 37.82200
H  -8.15700 35.23200 38.41900
H  -6.60700 37.23400 37.22500
H  -8.14400 37.17100 36.27200
H  -7.14600 43.94800 38.97500
H  -6.56700 43.53700 40.59400
H  -7.33200 45.02700 40.34400
H  -11.57900 45.78600 42.48300
H  -12.20000 46.10400 40.86100
H  -11.03900 47.24100 41.41500
H  -15.02900 42.77900 41.00100
H  -15.26500 41.10500 43.53800
H  -15.24900 44.39600 42.54800
H  -13.72700 43.93800 43.28600
H  -15.21400 43.16200 43.82100
H  -16.37500 39.69800 41.18800
H  -17.01800 41.30900 41.16500
H  -18.53800 40.71100 42.55900
H  -17.29900 40.50300 43.86900
H  -17.89800 39.12600 42.79000
H  -15.69700 36.05000 42.01100
H  -14.93000 35.29900 43.45700
H  -15.00600 34.50300 41.85900
H  -10.68900 34.98200 39.22800
H  -7.67100 31.64500 39.54700
H  -8.48400 31.88300 41.22600
H  -7.16400 32.95800 40.57600
Mg -0.80900 44.32100 24.81100
C  1.14500 43.87100 27.56700
C  -3.33200 42.68000 26.42100
C  -2.60200 44.47300 21.96900
C  1.92700 45.53200 23.10500
N  -1.06200 43.52600 26.82400
C  -0.16900 43.51600 27.83400
C  -0.69600 43.04600 29.19800
C  -2.07400 42.46500 28.74500
C  -2.20000 42.92400 27.21600
C  -2.18200 40.95300 28.86800
C  -0.80000 44.23300 30.29900
C  -1.10500 43.84400 31.81000
H  -0.84700 42.37400 32.40500
N  -2.75600 43.70000 24.27200
C  -3.67100 43.05500 25.08400
C  -4.98600 42.91000 24.44600
C  -4.78200 43.48500 23.10700
C  -3.34200 43.93800 23.06900
C  -6.21600 42.55900 25.12400
C  -5.74300 43.48200 21.94400
O  -5.48000 44.04300 20.88200
C  -7.04600 42.86600 22.07900
N  -0.39800 44.89800 22.79700
C  -1.28600 44.86800 21.82400
C  -0.61400 45.26400 20.44100
C  0.67000 45.94500 20.88400
C  0.71400 45.50900 22.39500
C  -0.45100 44.15700 19.35100
C  0.72300 47.44100 20.57300
C  0.32800 48.47300 21.64300
N  1.18800 44.56800 25.17100
C  2.19500 45.04900 24.38100
C  3.43100 45.08700 25.10900
C  3.04600 44.61400 26.39200
C  1.70900 44.27600 26.34800
C  4.71500 45.76900 24.65600
C  3.56800 44.37600 27.76700
O  4.70300 44.38000 28.22400
C  2.25500 43.98000 28.58700
C  2.41900 42.61100 29.13400
O  2.31600 41.55200 28.58900
O  2.67200 42.82600 30.48400
C  2.92200 41.53800 31.12600
H  -4.15100 42.26600 27.01200
H  -3.10900 44.78200 21.05300
H  2.75000 45.99800 22.56000
H  -0.06000 42.23600 29.55500
H  -2.86800 42.96300 29.30000
H  -2.05700 40.41400 27.92900
H  -3.05400 40.68100 29.46300
H  -1.37400 40.52900 29.46400
H  -1.64300 44.79600 29.89900
H  0.11000 44.83200 30.27900
H  -2.11000 44.08600 32.15600
H  -0.31400 44.28800 32.41400
H  -6.88500 41.92700 24.54000
H  -6.67300 43.52600 25.33800
H  -6.01700 42.10300 26.09300
H  -7.67200 43.50200 22.70500
H  -6.87000 41.84300 22.41300
H  -7.43800 42.66200 21.08300
H  -1.22400 46.02300 19.95000
H  1.46500 45.48600 20.29600
H  -0.78100 43.19300 19.73900
H  0.57600 44.04100 19.00500
H  -1.16800 44.49800 18.60400
H  0.05300 47.78800 19.78500
H  1.69200 47.65100 20.12100
H  1.27300 48.87200 22.01200
H  -0.15600 47.93900 22.46100
H  -0.29700 49.33200 21.39700
H  5.52700 45.04300 24.64300
H  5.00200 46.58500 25.32000
H  4.51100 46.08400 23.63200
H  2.13200 44.65900 29.43100
H  3.96600 41.23800 31.03600
H  2.26000 40.69800 30.91700
H  2.76100 41.72900 32.18700

