158

Mg 1.43900 -1.92400 43.33900
C  4.87000 -1.35000 42.67000
C  0.61400 0.94000 41.71500
C  -1.80500 -3.11900 43.08200
C  2.38900 -5.32500 44.23600
N  2.61000 -0.61000 42.12500
C  3.93600 -0.52000 42.12300
C  4.33100 0.63900 41.14400
C  3.07900 1.52500 41.29400
C  1.97800 0.52200 41.64900
C  3.21800 2.77700 42.23700
C  4.64500 0.08800 39.73300
C  6.02400 0.55100 39.25000
H  6.14000 1.19600 37.88800
N  -0.32500 -1.11300 42.73200
C  -0.47700 0.11200 42.10000
C  -1.89600 0.33400 41.85500
C  -2.57500 -0.80100 42.42500
C  -1.55200 -1.79500 42.73600
C  -2.47200 1.69500 41.39600
C  -4.08500 -0.85200 42.58500
O  -4.81400 0.08200 42.35900
C  -4.77600 -2.05400 43.26200
N  0.46900 -4.06700 43.45900
C  -0.91000 -4.18700 43.39500
C  -1.29800 -5.64400 43.62600
C  0.08000 -6.37800 43.75300
C  1.06900 -5.21600 43.81000
C  -2.29900 -5.92400 44.74500
C  0.29700 -7.39300 42.60300
C  0.69200 -8.78400 43.06700
N  3.23600 -3.10600 43.54700
C  3.39700 -4.38200 44.03700
C  4.85200 -4.58400 44.16400
C  5.48500 -3.41500 43.69400
C  4.44900 -2.55600 43.33100
C  5.43700 -5.86100 44.70100
C  6.71300 -2.70100 43.48600
O  7.87600 -3.00500 43.74000
C  6.37300 -1.43700 42.58500
C  7.06000 -0.28300 43.05200
O  7.99600 0.26900 42.58600
O  6.51600 0.17200 44.28300
C  7.13700 1.26700 44.94400
H  0.53000 1.99400 41.44500
H  -2.82300 -3.51300 43.04300
H  2.75500 -6.31100 44.52900
H  5.23900 1.13600 41.48600
H  2.93100 1.96400 40.30800
H  2.48000 2.68700 43.03400
H  3.12300 3.77500 41.80900
H  4.15300 2.64700 42.78200
H  3.90400 0.54600 39.07800
H  4.47300 -0.98500 39.64600
H  6.71200 -0.29300 39.21600
H  6.52600 1.17700 39.98800
H  -3.28900 1.60900 40.67900
H  -1.64400 2.25400 40.96000
H  -2.85800 2.26800 42.23800
H  -5.78900 -1.70400 43.46000
H  -4.38800 -2.25900 44.26000
H  -4.78200 -2.94800 42.63700
H  -1.91000 -5.95700 42.78000
H  0.22200 -6.92000 44.68700
H  -3.16800 -6.52100 44.46800
H  -2.80300 -5.04800 45.15400
H  -1.86200 -6.45800 45.58900
H  1.12600 -7.04100 41.99100
H  -0.55100 -7.41000 41.91900
H  -0.17700 -9.43300 42.96000
H  1.03400 -8.78100 44.10200
H  1.48500 -9.30300 42.52900
H  4.80300 -6.11400 45.55000
H  6.33600 -5.73500 45.30400
H  5.55600 -6.66500 43.97600
H  6.81100 -1.50300 41.58900
H  8.05400 0.89000 45.39600
H  6.37200 1.65600 45.61600
H  7.44600 2.02800 44.22700
Mg -10.61300 16.71000 41.09500
C  -7.14900 16.33500 41.35700
C  -10.12300 20.04800 40.49600
C  -13.77500 16.93100 40.11900
C  -10.86400 13.15200 40.89900
N  -8.81800 18.04700 40.91000
C  -7.49700 17.64100 41.01100
C  -6.58200 18.87600 40.83000
C  -7.57800 20.07900 40.92500
C  -8.94400 19.36000 40.76100
C  -7.51200 20.94400 42.17600
C  -5.75700 18.79300 39.51700
C  -4.28600 18.34500 39.57700
H  -3.84100 17.01400 38.78800
N  -11.83800 18.36200 40.55400
C  -11.46200 19.63700 40.35700
C  -12.65000 20.40400 40.07300
C  -13.80400 19.57200 40.17400
C  -13.24400 18.21900 40.31100
C  -12.66100 21.80100 39.89300
C  -15.31900 20.00700 40.05900
O  -15.65900 21.18100 39.85400
C  -16.38100 18.93800 40.34300
N  -12.05800 15.18800 40.39200
C  -13.31100 15.57200 40.13200
C  -14.26300 14.38600 39.92500
C  -13.40100 13.21400 40.35500
C  -11.99600 13.86400 40.52100
C  -15.65800 14.42800 40.69600
C  -13.47900 11.94600 39.44700
C  -13.56100 10.48100 40.07000
N  -9.33500 14.99700 41.29400
C  -9.55400 13.67000 41.17100
C  -8.29800 12.95000 41.46400
C  -7.37800 14.03000 41.54400
C  -8.01700 15.22100 41.33000
C  -8.14100 11.44900 41.54900
C  -5.96800 14.22600 41.74600
O  -5.01400 13.41200 41.92600
C  -5.77600 15.70500 41.63000
C  -5.03600 16.11400 42.88100
O  -3.81900 16.12900 42.89500
O  -5.92200 16.55700 43.83100
C  -5.29200 17.24400 44.92800
H  -10.00600 21.13400 40.51800
H  -14.84000 17.01700 39.89500
H  -10.86600 12.06000 40.89000
H  -5.91300 19.02800 41.67600
H  -7.43000 20.68200 40.02900
H  -6.69200 21.66000 42.21000
H  -7.46000 20.40700 43.12400
H  -8.45800 21.48600 42.16200
H  -5.72600 19.77700 39.04900
H  -6.22000 18.09900 38.81600
H  -3.99700 18.22000 40.62100
H  -3.62000 19.08200 39.12900
H  -13.21600 21.99000 38.97400
H  -11.65200 22.21200 39.89100
H  -13.10600 22.36300 40.71400
H  -17.35800 19.34300 40.60500
H  -16.05800 18.24300 41.11800
H  -16.45800 18.38000 39.40900
H  -14.41100 14.44300 38.84700
H  -13.71200 12.87700 41.34400
H  -15.70400 13.65600 41.46400
H  -16.46800 14.25900 39.98600
H  -15.84000 15.43300 41.07600
H  -12.48400 11.86900 39.00900
H  -14.13000 12.05300 38.57800
H  -13.53700 10.62700 41.15000
H  -12.72500 9.89500 39.69000
H  -14.53600 10.03300 39.87600
H  -7.15200 11.27600 41.12500
H  -8.94000 11.08600 40.90200
H  -8.24700 11.18000 42.60000
H  -5.11300 15.97500 40.80800
H  -4.94100 16.44900 45.58600
H  -5.96700 17.95900 45.39900
H  -4.43500 17.82100 44.58200

