158

Mg 25.80300 1.53900 29.38100
C  27.98700 1.17500 32.12400
C  23.17100 2.05700 31.45500
C  23.95500 1.80400 26.67500
C  28.60300 0.46900 27.39500
N  25.63500 1.59200 31.58800
C  26.63700 1.45200 32.50800
C  26.11700 1.81700 33.90000
C  24.51400 1.94300 33.63300
C  24.40400 1.86100 32.11300
C  23.55200 0.90600 34.36200
C  26.90100 2.99000 34.55600
C  27.52000 2.88800 35.98300
H  26.88500 3.72200 37.03500
N  23.85600 1.79500 29.13300
C  22.92400 1.96200 30.07100
C  21.57500 2.09300 29.45300
C  21.78400 2.11100 28.02500
C  23.21100 1.88500 27.86500
C  20.32000 2.32000 30.33400
C  20.69700 2.30700 26.99000
O  20.91100 2.02900 25.84000
C  19.28400 2.81100 27.33700
N  26.16800 1.04600 27.32300
C  25.28500 1.46700 26.40300
C  25.89100 1.59400 24.98100
C  27.29000 0.88200 25.26600
C  27.38900 0.78200 26.74900
C  25.12200 0.95300 23.80900
C  28.51200 1.67900 24.59900
C  29.77000 0.86500 24.09900
N  27.87200 0.94500 29.63900
C  28.83700 0.50000 28.79200
C  30.03600 0.20100 29.47300
C  29.75900 0.54900 30.84700
C  28.43300 0.91000 30.83800
C  31.31000 -0.26200 28.82500
C  30.28500 0.67000 32.17600
O  31.46600 0.45400 32.49300
C  29.19200 1.14100 33.11100
C  29.02100 -0.03800 34.09200
O  28.19700 -0.92600 33.85300
O  29.85700 0.02800 35.22300
C  29.45600 -0.88000 36.23400
H  22.37500 2.33300 32.14900
H  23.46400 2.07400 25.73700
H  29.38000 0.19400 26.67900
H  26.35500 0.93900 34.50100
H  23.99900 2.87100 33.88200
H  22.78500 1.53700 34.81300
H  24.13600 0.33400 35.08300
H  23.09200 0.25300 33.62100
H  26.11400 3.73100 34.70100
H  27.50800 3.53400 33.83300
H  28.57700 3.12300 35.86400
H  27.42100 1.83000 36.22700
H  19.44800 1.89000 29.84000
H  20.08800 3.38500 30.36900
H  20.42300 1.85700 31.31500
H  18.67900 1.94000 27.59000
H  18.85800 3.41200 26.53300
H  19.29300 3.36000 28.27800
H  26.09400 2.62900 24.70700
H  27.30900 -0.16200 24.95500
H  25.81700 0.30500 23.27400
H  24.76900 1.72800 23.12800
H  24.29900 0.31500 24.13000
H  28.70500 2.43400 25.36200
H  28.13100 2.19800 23.72000
H  29.50800 -0.19200 24.05300
H  30.74900 1.06100 24.53500
H  29.85700 1.04600 23.02800
H  32.18300 -0.39500 29.46300
H  31.67000 0.22700 27.91900
H  31.02900 -1.25700 28.48100
H  29.25900 2.11300 33.59900
H  30.31400 -1.04600 36.88600
H  29.23400 -1.89500 35.90600
H  28.67000 -0.47500 36.87100
Mg -5.97700 25.19400 26.01900
C  -4.63000 26.51100 29.16400
C  -7.65500 22.83800 27.97100
C  -6.48700 23.60000 23.38400
C  -3.81300 27.48700 24.50100
N  -6.10600 24.73600 28.30300
C  -5.47600 25.38400 29.34700
C  -5.92500 24.83100 30.79300
C  -6.64400 23.44300 30.29300
C  -6.88000 23.65400 28.76000
C  -5.86500 22.18000 30.64600
C  -6.74500 25.96000 31.47600
C  -6.65100 26.15500 32.99400
H  -6.07800 24.98400 33.77600
N  -7.15300 23.56300 25.64300
C  -7.80700 22.70800 26.54400
C  -8.51800 21.76600 25.85000
C  -8.23800 21.90300 24.43500
C  -7.26500 23.02800 24.43200
C  -9.44000 20.78000 26.57700
C  -8.75000 21.14100 23.27900
O  -8.30300 21.43300 22.14000
C  -9.86900 20.16300 23.42200
N  -5.33200 25.57700 24.24500
C  -5.63300 24.71100 23.25000
C  -4.91700 25.03600 21.89100
C  -4.22500 26.40200 22.33800
C  -4.51000 26.55700 23.81100
C  -3.92900 23.92700 21.47000
C  -4.74600 27.54000 21.41700
C  -3.73400 28.56000 20.93400
N  -4.66500 26.81900 26.67900
C  -3.95300 27.68700 25.88600
C  -3.24700 28.64500 26.71200
C  -3.42400 28.22300 27.99500
C  -4.30200 27.08000 27.92200
C  -2.42300 29.75900 26.09200
C  -3.09200 28.48200 29.35900
O  -2.44000 29.33400 29.89400
C  -3.93300 27.41300 30.17100
C  -2.99300 26.65500 31.07400
O  -2.19300 25.82400 30.70800
O  -3.16700 26.94100 32.37200
C  -2.34200 26.39500 33.38300
H  -8.14800 22.14200 28.65300
H  -6.56100 23.03500 22.45300
H  -3.27500 28.23300 23.91300
H  -4.99900 24.58100 31.31000
H  -7.58200 23.35000 30.84000
H  -4.88800 22.38500 31.08300
H  -5.74000 21.60400 29.72800
H  -6.47000 21.55800 31.30500
H  -7.80600 25.78100 31.30300
H  -6.45100 26.95600 31.14600
H  -7.67200 26.30200 33.34500
H  -5.98400 26.98600 33.22100
H  -10.50400 20.86600 26.35600
H  -9.38900 20.73900 27.66500
H  -9.03900 19.79800 26.32700
H  -9.59800 19.36900 24.11700
H  -9.99900 19.68300 22.45200
H  -10.77200 20.66300 23.77000
H  -5.72000 25.17500 21.16700
H  -3.15600 26.33900 22.13200
H  -4.09500 23.74500 20.40800
H  -4.10100 22.99500 22.00900
H  -2.91600 24.30300 21.61700
H  -5.41400 28.17100 22.00400
H  -5.22100 27.24400 20.48200
H  -4.15800 29.56300 20.98600
H  -3.41300 28.23300 19.94500
H  -2.95300 28.53700 21.69300
H  -2.99200 30.33200 25.36000
H  -1.56400 29.31900 25.58500
H  -2.09200 30.39000 26.91800
H  -4.59200 28.02400 30.78900
H  -1.96900 25.41700 33.07900
H  -2.78700 26.11100 34.33700
H  -1.50000 27.04900 33.60900

