158

Mg 47.75300 15.79400 28.68300
C  45.60900 15.44200 31.53100
C  49.79000 17.47700 30.58400
C  49.63100 16.18300 25.98700
C  45.23100 14.41000 26.81100
N  47.61600 16.42900 30.81300
C  46.81200 16.08600 31.80200
C  47.28900 16.69800 33.11100
C  48.60400 17.41400 32.69800
C  48.64000 17.07000 31.27700
C  48.73500 18.82400 33.06800
C  47.42500 15.60000 34.27400
C  47.10500 16.09200 35.63300
H  46.82000 17.62800 35.87000
N  49.48400 16.64300 28.34300
C  50.21000 17.33400 29.25600
C  51.47700 17.81500 28.63400
C  51.45700 17.41400 27.24400
C  50.13500 16.74400 27.14000
C  52.44500 18.70900 29.42100
C  52.54800 17.53000 26.12600
O  52.44700 17.00700 25.03400
C  53.88100 18.23600 26.50800
N  47.36800 15.48300 26.60500
C  48.35200 15.60000 25.69200
C  47.96800 14.96700 24.29300
C  46.54100 14.39300 24.61100
C  46.31500 14.80200 26.06900
C  47.96100 16.05200 23.11800
C  46.13400 12.93200 24.21400
C  46.42500 11.87700 25.34800
N  45.73800 15.05700 29.05300
C  44.85900 14.46500 28.16100
C  43.70100 13.97300 28.80700
C  43.94900 14.39300 30.17600
C  45.22500 14.99900 30.22400
C  42.46400 13.23600 28.26200
C  43.41800 14.38400 31.65300
O  42.39400 13.95400 32.10800
C  44.52400 15.05100 32.52200
C  43.91400 16.17300 33.24100
O  44.06200 17.35600 32.97400
O  43.30200 15.65200 34.40100
C  42.74300 16.64800 35.30200
H  50.61300 17.83800 31.20500
H  50.23900 16.29400 25.08700
H  44.47900 13.83300 26.26700
H  46.48500 17.38700 33.37000
H  49.50600 16.91700 33.05300
H  48.94500 19.48300 32.22600
H  49.49300 18.79900 33.85200
H  47.81300 19.17700 33.53000
H  48.46200 15.27200 34.20900
H  46.69900 14.83500 34.00000
H  47.81500 15.83500 36.41900
H  46.18300 15.65000 36.01200
H  53.08200 19.33600 28.79800
H  53.15600 18.03300 29.89700
H  51.92500 19.33000 30.15100
H  54.51200 18.06400 25.63600
H  54.36500 17.76400 27.36200
H  53.77900 19.30200 26.71000
H  48.67600 14.17800 24.03600
H  45.81000 15.00700 24.08500
H  47.06100 15.86200 22.53200
H  48.75500 15.94700 22.37900
H  47.86000 17.05700 23.52800
H  46.69900 12.65700 23.32300
H  45.07000 12.95300 23.97800
H  47.01000 12.26600 26.18200
H  47.06200 11.13700 24.86400
H  45.49300 11.44900 25.71600
H  42.75700 12.69900 27.35900
H  41.64300 13.91100 28.02100
H  42.10800 12.50700 28.98900
H  44.76000 14.32100 33.29700
H  41.67600 16.73500 35.09600
H  43.34700 17.55100 35.20900
H  42.83400 16.37600 36.35300
Mg 41.48500 40.57300 26.54400
C  40.75700 42.95700 29.07400
C  42.46200 38.35200 28.90900
C  42.19400 38.44800 24.08000
C  40.60500 43.08600 24.26600
N  41.57300 40.65500 28.80100
C  41.15000 41.65500 29.62800
C  41.23900 41.11500 31.09100
C  42.00000 39.75600 30.97400
C  41.91600 39.52700 29.43500
C  43.50700 39.93700 31.35700
C  39.76100 40.99900 31.64900
C  39.44100 41.90700 32.80100
H  38.95500 41.26200 34.08300
N  42.29300 38.69900 26.45600
C  42.59500 37.94000 27.58300
C  43.15100 36.68000 27.15500
C  43.12400 36.70700 25.73700
C  42.57800 37.97700 25.37500
C  43.44500 35.54000 27.99200
C  43.50000 35.51900 24.78200
O  43.33600 35.60000 23.60800
C  43.93700 34.15400 25.21200
N  41.52700 40.81100 24.40100
C  41.70500 39.70600 23.65100
C  41.47600 39.94800 22.15700
C  40.78600 41.34100 22.22900
C  40.94100 41.84100 23.73100
C  42.76100 39.98000 21.34600
C  39.23600 41.29000 21.86100
C  38.26800 40.44800 22.76100
N  41.01300 42.56100 26.60700
C  40.71800 43.50400 25.58900
C  40.33200 44.75200 26.04000
C  40.31300 44.59800 27.38100
C  40.73800 43.24100 27.65700
C  39.99600 45.98700 25.30200
C  40.03700 45.22900 28.66800
O  39.60700 46.33400 28.97300
C  40.32100 44.14900 29.79300
C  41.33600 44.67700 30.83900
O  42.55500 44.70600 30.76300
O  40.61300 45.35300 31.82700
C  41.37200 45.89900 32.95500
H  42.76800 37.61100 29.65000
H  42.23600 37.70200 23.28300
H  40.28600 43.84100 23.54500
H  41.78600 41.91700 31.58700
H  41.47700 39.06000 31.63000
H  43.59900 39.81600 32.43700
H  43.77400 40.98000 31.19000
H  44.10800 39.22400 30.79300
H  39.49600 39.97600 31.91500
H  38.99500 41.35300 30.95800
H  38.61600 42.52500 32.44500
H  40.25500 42.62400 32.90300
H  43.12400 35.72500 29.01700
H  44.50200 35.27200 27.97700
H  42.81000 34.70900 27.68500
H  44.70600 34.33300 25.96400
H  44.28600 33.46800 24.44100
H  43.02200 33.67100 25.55700
H  40.77700 39.34300 21.57900
H  41.30300 42.09000 21.62900
H  43.25900 40.94900 21.35300
H  42.61100 39.58700 20.34000
H  43.51500 39.34200 21.80600
H  39.35500 40.75300 20.92000
H  38.95000 42.33800 21.77100
H  37.67600 39.77600 22.14100
H  37.64800 41.16000 23.30600
H  38.76500 39.80900 23.49100
H  40.73500 46.77200 25.46200
H  39.10500 46.41300 25.76300
H  39.77800 45.76700 24.25700
H  39.43300 43.75900 30.29100
H  41.18600 45.24700 33.80800
H  40.94400 46.85200 33.26900
H  42.42300 46.10800 32.75800

