158

Mg 41.42900 9.24300 29.57300
C  43.08300 10.37800 32.53700
C  39.00700 8.00600 31.54400
C  40.22200 8.06300 26.88000
C  44.38000 10.42900 27.78700
N  41.08900 9.19500 31.84900
C  41.80300 9.78500 32.85800
C  41.14300 9.53600 34.25300
C  40.03000 8.54200 33.84000
C  40.01500 8.61600 32.35500
C  40.09600 7.05100 34.33900
C  40.76300 10.86400 34.90900
C  40.36700 10.72800 36.41800
H  41.14800 11.58000 37.46900
N  39.77700 8.18600 29.24300
C  38.80600 7.85500 30.14300
C  37.69900 7.26200 29.34800
C  38.09500 7.26900 27.91900
C  39.40100 7.81500 27.96500
C  36.42500 6.87300 29.99400
C  37.18400 6.99600 26.71300
O  37.63100 6.98600 25.54100
C  35.71200 6.66600 26.94600
N  42.21200 9.29500 27.62400
C  41.46400 8.69100 26.69700
C  42.18600 8.69700 25.30200
C  43.53900 9.47700 25.58900
C  43.38100 9.73900 27.12100
C  42.38600 7.27400 24.57600
C  43.50400 10.75700 24.80000
C  42.63400 11.99100 25.31300
N  43.30800 10.35700 29.98200
C  44.40800 10.68600 29.15000
C  45.34300 11.36500 29.98600
C  44.81600 11.24100 31.31700
C  43.61000 10.56800 31.26700
C  46.63300 11.90900 29.63500
C  45.07200 11.74800 32.61000
O  45.91500 12.48600 33.01500
C  44.00000 11.04300 33.53100
C  44.58600 10.03300 34.44800
O  45.14300 8.96800 34.15200
O  44.37100 10.40300 35.73400
C  44.29300 9.39400 36.84600
H  38.22800 7.54600 32.15400
H  39.86700 7.80300 25.88000
H  45.22100 10.83800 27.22400
H  41.98300 9.10500 34.79800
H  39.08200 9.02500 34.07600
H  39.17300 6.82300 34.87100
H  40.92900 6.75900 34.98000
H  40.14100 6.33100 33.52200
H  39.84000 11.22500 34.45400
H  41.48000 11.63200 34.61900
H  40.28600 9.69900 36.76700
H  39.35500 11.12800 36.36300
H  35.59500 7.42700 29.55600
H  36.48200 7.20400 31.03100
H  36.19600 5.80700 29.99600
H  35.53000 5.99900 27.78800
H  35.35400 6.17500 26.04100
H  35.08900 7.51300 27.23200
H  41.44800 9.25900 24.72900
H  44.42200 8.88200 25.35700
H  43.43200 6.97900 24.65800
H  41.97300 7.38300 23.57300
H  41.84500 6.55700 25.19300
H  43.09600 10.55000 23.81100
H  44.50000 11.16500 24.63000
H  42.24600 11.89700 26.32700
H  41.81300 12.24700 24.64300
H  43.31300 12.84400 25.29200
H  46.56500 12.38800 28.65800
H  47.38200 11.12200 29.54700
H  46.78100 12.64400 30.42600
H  43.45500 11.82900 34.05400
H  43.45800 9.55000 37.52900
H  45.16000 9.47400 37.50100
H  44.33800 8.39500 36.41100
Mg 48.53700 35.16700 26.50900
C  46.87100 33.68400 29.08400
C  48.78600 37.87800 28.34300
C  50.07600 36.55500 23.78900
C  47.93800 32.21600 24.60500
N  47.93800 35.65800 28.54500
C  47.41900 34.87000 29.43700
C  47.46100 35.46000 30.85600
C  47.79700 36.98700 30.53400
C  48.19100 36.81900 29.04100
C  46.72800 38.06500 30.83700
C  48.50200 34.75300 31.80600
C  48.24300 34.66200 33.35000
H  47.23500 35.64700 33.94600
N  49.33500 36.96200 26.13200
C  49.35900 38.00700 27.05400
C  50.02900 39.12500 26.52100
C  50.35400 38.78400 25.15300
C  49.94800 37.38800 24.96900
C  50.22500 40.28700 27.45300
C  51.10700 39.68200 24.14400
O  51.42100 39.25000 23.03300
C  51.46500 41.18100 24.45300
N  48.80800 34.51000 24.39300
C  49.59200 35.25900 23.55900
C  50.00300 34.36700 22.32800
C  49.22900 33.06700 22.51600
C  48.64600 33.21100 23.93100
C  49.93900 34.89600 20.95700
C  50.08000 31.71100 22.34300
C  49.96900 31.12700 20.94500
N  47.52900 33.32400 26.70700
C  47.39600 32.28800 25.84800
C  46.50800 31.28800 26.45200
C  46.25000 31.80900 27.71500
C  46.97000 33.08300 27.84100
C  46.15500 29.96100 25.79500
C  45.59500 31.57400 28.96600
O  44.89900 30.62000 29.26900
C  45.86300 32.86200 29.90600
C  46.26800 32.37500 31.25700
O  47.26600 31.68300 31.38600
O  45.38300 32.64300 32.25100
C  45.52100 31.98500 33.51700
H  48.83200 38.75100 28.99600
H  50.71700 36.90200 22.97600
H  47.76600 31.33000 23.99100
H  46.44000 35.40300 31.23200
H  48.70200 37.24900 31.08200
H  45.90100 37.55500 31.33200
H  46.38100 38.66300 29.99500
H  47.11500 38.72200 31.61600
H  49.50700 35.13000 31.61300
H  48.59400 33.72600 31.45400
H  49.25000 34.71700 33.76200
H  47.88500 33.65600 33.56800
H  49.27000 40.66500 27.82000
H  50.91300 41.05000 27.08900
H  50.70100 39.98500 28.38600
H  52.16300 41.19200 25.29100
H  50.50400 41.62900 24.70500
H  51.86100 41.58500 23.52200
H  51.05900 34.20600 22.54700
H  48.38400 33.09600 21.82800
H  49.22000 35.71400 20.90800
H  49.65000 34.12600 20.24200
H  50.92600 35.31200 20.75300
H  49.90600 31.01800 23.16600
H  51.14600 31.79300 22.55800
H  49.44600 31.70900 20.18600
H  49.47200 30.18800 21.19100
H  50.97900 30.88000 20.61900
H  47.05800 29.42600 25.50000
H  45.39100 29.94400 25.01800
H  45.72900 29.44300 26.65400
H  44.90700 33.38200 29.96000
H  44.51000 31.72700 33.83300
H  45.94500 32.74200 34.17700
H  46.10100 31.06300 33.55000

