158

Mg 43.09900 3.70700 47.76100
C  41.50900 6.73700 47.04700
C  40.18000 2.08400 47.03200
C  44.81900 0.79000 47.72200
C  46.24100 5.40100 47.47700
N  41.03000 4.37800 47.16000
C  40.59000 5.74300 47.07100
C  39.08900 5.67400 46.53800
C  38.71600 4.25000 46.79500
C  40.02800 3.49000 47.02500
C  37.66100 4.18400 47.99500
C  39.01400 6.17100 45.04100
C  37.53200 6.45900 44.62700
H  37.24700 6.11200 43.15000
N  42.58300 1.72700 47.51000
C  41.30300 1.26200 47.23300
C  41.39800 -0.18300 47.07700
C  42.70200 -0.55100 47.45100
C  43.45400 0.72200 47.52800
C  40.11500 -0.93700 46.78100
C  43.15100 -1.98000 47.66200
O  42.35100 -2.89800 47.40900
C  44.53600 -2.41400 48.05200
N  45.26400 3.25100 47.35700
C  45.63700 1.94400 47.65400
C  47.16800 1.77200 47.71400
C  47.63000 3.25100 47.82300
C  46.34200 4.01500 47.52200
C  47.59300 0.93300 48.94500
C  48.70200 3.58700 46.70000
C  49.68500 4.64400 47.08800
N  43.76500 5.69000 47.44100
C  45.06400 6.15000 47.34200
C  44.90600 7.59700 47.33100
C  43.55500 7.89600 47.20600
C  42.90500 6.69400 47.23100
C  46.06300 8.53500 47.43000
C  42.64000 8.97500 47.12200
O  42.87200 10.17700 47.04200
C  41.22800 8.24800 46.94100
C  40.32000 8.77600 47.97200
O  40.13800 8.35900 49.06400
O  39.63200 9.89700 47.39800
C  38.66400 10.47900 48.24300
H  39.21700 1.60700 46.83900
H  45.40100 -0.13100 47.78700
H  47.10800 6.02600 47.70000
H  38.47900 6.34400 47.14500
H  38.32500 3.74200 45.91400
H  36.62200 4.12100 47.67200
H  37.72800 5.07700 48.61700
H  37.85900 3.34300 48.66100
H  39.44800 5.47200 44.32700
H  39.55800 7.11500 45.00400
H  37.42700 7.53600 44.76000
H  36.87000 5.91400 45.30000
H  40.07500 -1.07900 45.70100
H  39.19400 -0.44100 47.09000
H  40.16800 -1.90100 47.28600
H  45.09600 -2.31700 47.12300
H  44.44600 -3.47100 48.30200
H  45.00300 -1.88400 48.88200
H  47.57200 1.29800 46.81900
H  47.85700 3.51100 48.85700
H  48.19300 1.61700 49.54400
H  48.23900 0.09800 48.67400
H  46.67200 0.63900 49.45000
H  48.26800 3.81900 45.72700
H  49.12700 2.59200 46.57000
H  50.71800 4.31700 46.97500
H  49.30300 4.97300 48.05500
H  49.71400 5.46500 46.37200
H  45.74200 9.55700 47.63100
H  46.58400 8.63400 46.47800
H  46.70000 8.18200 48.24100
H  40.94000 8.48300 45.91600
H  37.74500 9.89300 48.21200
H  38.31300 11.34200 47.67700
H  38.92800 10.88200 49.22100
Mg -4.83900 25.22600 25.30800
C  -3.28900 26.73200 28.01000
C  -6.44000 23.07000 27.44400
C  -5.99300 23.64400 22.59600
C  -2.93200 27.34700 23.19600
N  -4.84700 24.86700 27.41800
C  -4.16700 25.68600 28.37200
C  -4.57800 25.34300 29.75900
C  -5.40900 24.02500 29.57600
C  -5.58300 23.97300 28.07900
C  -4.78000 22.76700 30.18300
C  -5.23300 26.52600 30.51700
C  -4.89100 26.75900 32.01200
H  -4.80700 25.36800 32.75800
N  -6.08300 23.61400 25.05600
C  -6.67500 22.89800 26.03800
C  -7.55300 21.93100 25.46600
C  -7.41300 21.97400 24.03400
C  -6.50700 23.15700 23.83300
C  -8.42700 21.04400 26.29000
C  -8.08500 21.19600 22.89600
O  -7.90000 21.43500 21.70200
C  -8.95800 20.05800 23.22900
N  -4.54500 25.53200 23.13600
C  -5.11000 24.68200 22.26500
C  -4.53300 24.91900 20.83500
C  -3.79000 26.33200 20.95700
C  -3.71800 26.42400 22.50900
C  -3.65600 23.74700 20.32800
C  -4.63100 27.50100 20.33400
C  -4.15500 28.03400 18.98700
N  -3.53700 26.88900 25.51400
C  -2.77200 27.51100 24.58300
C  -1.90000 28.45100 25.24400
C  -2.04400 28.19000 26.62500
C  -3.02500 27.19100 26.71600
C  -1.02200 29.46300 24.52700
C  -1.54800 28.53100 27.93300
O  -0.67100 29.30800 28.36000
C  -2.36300 27.61600 28.86700
C  -1.49400 26.87900 29.94100
O  -1.05400 25.75800 29.81800
O  -1.51000 27.61700 31.08800
C  -0.88700 26.95600 32.23300
H  -7.02900 22.38200 28.05300
H  -6.18600 23.11900 21.65800
H  -2.41400 28.13700 22.65000
H  -3.68100 25.16100 30.35000
H  -6.41700 24.08900 29.98600
H  -5.53200 22.13400 30.65400
H  -4.12800 23.02000 31.01900
H  -4.32100 22.15700 29.40400
H  -6.31700 26.41400 30.54300
H  -5.11100 27.46300 29.97400
H  -5.61400 27.34900 32.57600
H  -3.94200 27.28700 32.10100
H  -8.12300 19.99700 26.30300
H  -9.34600 21.10400 25.70700
H  -8.59700 21.38600 27.31100
H  -8.40600 19.39200 23.89200
H  -9.28300 19.60400 22.29300
H  -9.90600 20.33200 23.69300
H  -5.41700 24.94100 20.19700
H  -2.80300 26.31800 20.49400
H  -4.27600 22.85400 20.40600
H  -2.75100 23.67600 20.93100
H  -3.39400 23.82700 19.27300
H  -4.60700 28.39500 20.95700
H  -5.64300 27.10500 20.24000
H  -4.02600 29.11600 19.03000
H  -5.03400 27.87400 18.36300
H  -3.28500 27.50600 18.59600
H  -1.41600 30.47600 24.61500
H  -0.96300 29.34000 23.44500
H  -0.08100 29.46300 25.07700
H  -3.12400 28.17200 29.41500
H  -0.79800 25.87300 32.14700
H  -1.41000 27.08800 33.18000
H  0.07900 27.45400 32.31200

