158

Mg 45.02100 3.82100 47.89200
C  42.63800 6.50000 47.20600
C  42.34900 1.69600 47.80200
C  47.22100 1.39500 48.14300
C  47.49700 6.17100 47.50400
N  42.78200 4.01000 47.26100
C  42.04400 5.20800 47.15700
C  40.56400 4.94800 47.00700
C  40.42000 3.45500 47.42700
C  41.93200 3.04000 47.53300
C  39.53800 3.15700 48.73000
C  39.96700 5.29900 45.64200
C  38.59700 6.01800 45.55200
H  37.92200 6.05200 44.13300
N  44.81800 1.79700 47.80700
C  43.60600 1.08200 47.82200
C  43.93200 -0.34500 47.93700
C  45.31600 -0.44300 48.10500
C  45.85400 0.94600 48.03100
C  42.89700 -1.45000 48.10500
C  45.97200 -1.70400 48.26200
O  45.32200 -2.75500 48.14800
C  47.50300 -1.85900 48.58600
N  47.08200 3.74600 47.70300
C  47.82700 2.62500 47.97900
C  49.32600 2.89600 48.15700
C  49.34200 4.46300 47.80100
C  47.90800 4.85800 47.61600
C  49.92000 2.46000 49.56900
C  50.08500 4.80900 46.59600
C  51.21200 5.88200 46.84900
N  45.09300 5.90100 47.48700
C  46.17000 6.70500 47.41800
C  45.77400 8.07000 47.24600
C  44.42200 8.06300 47.13000
C  44.02200 6.67900 47.26600
C  46.74900 9.21000 47.16200
C  43.24000 8.89400 46.97700
O  43.13300 10.13900 46.83900
C  42.01300 7.86700 47.07000
C  41.19000 8.31700 48.26500
O  41.35200 7.95100 49.38800
O  40.19900 9.14000 47.77300
C  39.27400 9.77100 48.79000
H  41.53100 1.01700 48.05400
H  47.94900 0.59300 48.27700
H  48.32300 6.88600 47.49300
H  40.00900 5.53400 47.73900
H  39.90500 2.93100 46.62100
H  39.03200 4.09100 48.97600
H  40.08100 2.83000 49.61700
H  38.89500 2.34600 48.38600
H  39.86900 4.44100 44.97800
H  40.58100 5.99300 45.06800
H  38.50400 7.00000 46.01500
H  37.92100 5.44300 46.18600
H  42.90300 -2.17100 47.28800
H  41.92400 -0.98000 48.24800
H  43.00700 -1.99100 49.04500
H  48.00000 -1.47500 47.69500
H  47.79200 -2.90900 48.62800
H  47.79800 -1.31100 49.48100
H  49.95400 2.28000 47.51300
H  49.75700 5.04200 48.62600
H  49.05700 2.41400 50.23300
H  50.55300 3.25400 49.96600
H  50.43000 1.50700 49.42600
H  49.50800 5.27500 45.79700
H  50.61500 3.93300 46.22300
H  52.20600 5.53500 46.56700
H  51.28600 6.22400 47.88100
H  50.86600 6.70700 46.22500
H  46.86300 9.40000 46.09500
H  47.68500 8.86700 47.60300
H  46.45800 10.14600 47.63800
H  41.42200 7.98200 46.16100
H  39.43400 9.48200 49.82900
H  38.28100 9.54600 48.40200
H  39.51700 10.83300 48.83500
Mg 54.91200 23.60300 44.85100
C  53.05900 26.44800 44.39900
C  52.33900 21.68400 43.75500
C  57.13000 21.00500 44.55000
C  57.70500 25.67900 45.96100
N  52.92100 24.03400 44.23400
C  52.37100 25.27500 44.02900
C  50.90800 25.12000 43.54000
C  50.67100 23.60700 43.77000
C  52.01300 23.04600 43.91600
C  49.86000 23.37000 45.10000
C  50.59800 25.55600 42.07000
C  49.12500 25.73600 41.61000
H  48.61000 24.76400 40.54900
N  54.80800 21.59400 44.13300
C  53.61100 21.02000 43.82200
C  53.85300 19.67100 43.53400
C  55.26500 19.39700 43.73200
C  55.84300 20.68200 44.10800
C  52.65800 18.86700 42.98000
C  55.97600 18.06100 43.40400
O  55.35000 17.14500 42.89200
C  57.38300 17.70900 43.67100
N  57.15800 23.41400 45.01600
C  57.74100 22.21800 44.94700
C  59.18800 22.31600 45.50900
C  59.41900 23.83500 45.89500
C  58.01400 24.33300 45.61100
C  59.48900 21.31500 46.64000
C  60.44100 24.59100 44.95000
C  61.86700 24.53100 45.50900
N  55.29300 25.61400 45.26900
C  56.42700 26.27600 45.70900
C  56.14000 27.69600 45.87200
C  54.83000 27.83500 45.37500
C  54.41000 26.52100 44.96900
C  57.08700 28.78100 46.31300
C  53.73900 28.73900 45.04300
O  53.53400 29.93100 45.20500
C  52.61000 27.87600 44.30800
C  52.24700 28.46900 42.97200
O  52.87500 28.42200 41.91600
O  51.03300 29.05600 43.03900
C  50.35000 29.38800 41.78100
H  51.40300 21.14100 43.60800
H  57.86500 20.20000 44.48900
H  58.53500 26.33800 46.22300
H  50.26900 25.73000 44.17800
H  50.08000 23.27200 42.91800
H  49.05000 24.07200 45.29700
H  50.48300 23.21800 45.98100
H  49.36700 22.44400 44.80200
H  50.99400 24.72500 41.48600
H  51.27400 26.32500 41.69400
H  49.01400 26.71500 41.14200
H  48.46300 25.63600 42.47000
H  53.03800 18.07400 42.33500
H  51.91700 19.34800 42.34200
H  52.08800 18.50800 43.83700
H  57.99600 18.45700 43.16800
H  57.57100 16.75500 43.17800
H  57.52500 17.68200 44.75100
H  60.03300 22.16900 44.83500
H  59.73000 23.93200 46.93500
H  59.65600 21.68800 47.65000
H  60.46200 20.86600 46.44200
H  58.68300 20.58300 46.70300
H  60.11100 25.62700 44.88800
H  60.34900 24.29200 43.90600
H  62.45300 24.49400 44.59100
H  62.08100 23.62000 46.06700
H  61.96900 25.40400 46.15200
H  56.78600 29.22000 47.26400
H  57.12000 29.57200 45.56500
H  58.09700 28.42000 46.50900
H  51.72600 27.93000 44.94300
H  50.53200 28.69700 40.95700
H  50.70600 30.38900 41.53700
H  49.26500 29.39400 41.89000

