158

Mg 54.09400 24.68100 44.14900
C  51.26500 26.59100 43.25900
C  52.54000 21.96000 42.68000
C  57.10100 22.98400 44.15300
C  55.66700 27.57600 45.09700
N  52.22400 24.34200 42.99800
C  51.13300 25.25100 42.86600
C  49.89000 24.52300 42.40900
C  50.20400 23.03400 42.58200
C  51.75600 23.08500 42.74900
C  49.48900 22.25000 43.78800
C  49.44000 24.95700 40.95000
C  47.96900 25.09200 40.49300
H  47.64000 24.94100 38.98500
N  54.73300 22.68000 43.56400
C  53.88200 21.74500 43.14200
C  54.59100 20.48200 43.04700
C  55.94800 20.71700 43.47200
C  55.96400 22.14700 43.77900
C  53.97300 19.20500 42.51300
C  57.06100 19.69400 43.49700
O  56.77300 18.49000 43.31500
C  58.36700 20.04700 43.95800
N  56.21600 25.16400 44.39600
C  57.22900 24.33500 44.52200
C  58.50300 25.00900 45.10500
C  58.03800 26.51800 45.21900
C  56.51100 26.45100 44.89400
C  59.03600 24.34800 46.45500
C  58.65900 27.45700 44.14300
C  59.82300 28.34800 44.76100
N  53.63500 26.68400 44.24300
C  54.36900 27.72300 44.62000
C  53.52000 28.95300 44.69400
C  52.31400 28.52100 44.19200
C  52.43500 27.16400 43.88200
C  53.97000 30.33600 45.20500
C  50.96300 28.95000 43.90900
O  50.37100 30.02800 44.07600
C  50.20800 27.82700 43.13900
C  50.06400 28.49300 41.81400
O  50.99500 28.98900 41.17800
O  48.72900 28.35500 41.39200
C  48.58400 28.67000 40.00100
H  51.93100 21.07100 42.49800
H  58.06200 22.52100 44.38900
H  56.22800 28.46900 45.38200
H  49.21900 24.81300 43.21800
H  50.06400 22.49900 41.64200
H  48.78200 22.89100 44.31600
H  50.21900 21.81300 44.46900
H  48.95300 21.42400 43.32100
H  49.77900 24.22500 40.21500
H  50.00300 25.84400 40.66000
H  47.62500 26.09400 40.75000
H  47.43600 24.37300 41.11500
H  54.11700 18.47600 43.31100
H  54.52000 18.76900 41.67600
H  52.91800 19.25200 42.24300
H  58.84500 20.74100 43.26700
H  58.97100 19.14100 43.91300
H  58.17700 20.40600 44.96900
H  59.24500 25.09300 44.31100
H  58.12800 26.93000 46.22400
H  60.07300 24.04000 46.31700
H  58.40000 23.50000 46.70700
H  58.96200 24.98600 47.33500
H  57.93900 28.23200 43.88200
H  59.01400 26.89100 43.28200
H  60.82700 27.96400 44.57800
H  59.74600 28.33300 45.84800
H  59.76300 29.42300 44.59200
H  53.12600 30.91800 45.57400
H  54.47400 30.80600 44.36100
H  54.69600 30.26200 46.01500
H  49.20300 27.66500 43.52800
H  48.54200 29.75900 40.00700
H  47.65800 28.26800 39.58900
H  49.47600 28.38300 39.44400
Mg 47.10600 16.92800 27.60100
C  45.20700 16.84200 30.47300
C  49.40000 18.90800 29.23200
C  48.66700 17.45400 24.72800
C  44.33500 15.60700 25.81700
N  47.22700 17.79900 29.70100
C  46.45200 17.43400 30.72400
C  47.06700 17.95400 32.03200
C  48.40800 18.71800 31.61300
C  48.34800 18.46200 30.07100
C  48.43800 20.13100 32.12600
C  47.31800 16.87600 33.04900
C  47.66700 17.36900 34.45800
H  46.88600 18.58400 34.96400
N  48.84700 17.88000 27.04900
C  49.67300 18.60700 27.88000
C  50.88000 18.97800 27.17100
C  50.73000 18.55200 25.80500
C  49.40100 17.86100 25.79100
C  51.98600 19.76400 27.78100
C  51.61500 18.78300 24.58200
O  51.32000 18.41700 23.47300
C  52.90100 19.63400 24.71600
N  46.60500 16.50800 25.55900
C  47.42900 16.81600 24.56100
C  46.75700 16.50400 23.19700
C  45.65100 15.54600 23.56900
C  45.52200 15.86000 25.06300
C  46.42400 17.76500 22.39300
C  46.02800 14.11800 23.36000
C  45.34000 13.51000 22.11900
N  45.14300 16.42600 27.98600
C  44.16100 15.84300 27.15600
C  42.97900 15.57800 27.98000
C  43.37200 15.90800 29.31500
C  44.70200 16.45300 29.23500
C  41.60900 15.10500 27.56600
C  42.90300 15.98100 30.70800
O  41.83800 15.65000 31.20700
C  44.14500 16.47900 31.54900
C  43.66600 17.63000 32.37600
O  44.02900 18.78700 32.17400
O  42.84000 17.23200 33.38100
C  42.18700 18.20600 34.28000
H  50.07100 19.60900 29.73300
H  49.18400 17.62100 23.78100
H  43.45700 15.23500 25.28300
H  46.42600 18.76000 32.38900
H  49.28900 18.20300 31.99500
H  49.40700 20.26300 32.60800
H  47.67300 20.38300 32.86000
H  48.29900 20.82100 31.29400
H  48.12300 16.27300 32.63000
H  46.43700 16.23900 33.11700
H  48.74600 17.51400 34.51600
H  47.58000 16.48100 35.08400
H  52.94100 19.33900 27.47200
H  51.96300 19.68200 28.86800
H  51.81300 20.82400 27.59700
H  53.70000 19.12400 25.25400
H  52.62600 20.60500 25.12800
H  53.28000 19.70800 23.69700
H  47.42500 16.00300 22.49700
H  44.66700 15.72000 23.13400
H  46.79400 18.68000 22.85600
H  45.34800 17.79100 22.22000
H  47.03500 17.69500 21.49300
H  45.72900 13.51100 24.21500
H  47.10600 13.95800 23.36000
H  45.27000 14.04000 21.16900
H  44.37400 13.09300 22.40400
H  45.98400 12.69000 21.80300
H  41.50900 14.07700 27.91400
H  41.49100 15.21200 26.48800
H  40.82300 15.74100 27.97300
H  44.38400 15.63700 32.19800
H  41.11900 18.06100 34.12000
H  42.49600 19.23500 34.09300
H  42.31300 18.02400 35.34700

