158

Mg -0.77800 7.81900 27.04500
C  0.74500 9.85100 29.54200
C  -0.92300 5.28800 29.33600
C  -1.70800 5.71000 24.56900
C  0.12600 10.16400 24.67000
N  0.19500 7.47000 29.20100
C  0.43800 8.58600 30.04400
C  0.26600 8.16100 31.55000
C  -0.03700 6.59700 31.42500
C  -0.34200 6.43500 29.90400
C  1.26400 5.69900 31.85500
C  -1.01300 8.91000 32.10000
C  -1.14700 8.89900 33.60900
H  -0.00400 8.50400 34.53900
N  -1.32000 5.79800 26.95800
C  -1.38200 4.95600 28.05700
C  -1.95400 3.66600 27.67100
C  -2.19000 3.79700 26.22600
C  -1.72300 5.11400 25.84800
C  -2.27500 2.61000 28.67000
C  -2.69000 2.72000 25.27000
O  -2.75700 2.89000 24.05700
C  -3.11200 1.45600 25.97300
N  -0.76200 7.94100 24.90300
C  -1.29000 6.96700 24.12800
C  -1.47500 7.44600 22.61500
C  -0.90000 8.88400 22.68500
C  -0.50500 9.00200 24.18900
C  -0.76700 6.50800 21.62200
C  -1.87300 9.88500 22.03500
C  -1.27200 11.01100 21.22900
N  0.11200 9.65500 27.09100
C  0.50200 10.46600 26.02100
C  1.21700 11.63500 26.52800
C  1.16300 11.44900 27.90600
C  0.60900 10.22700 28.18200
C  1.57000 12.95000 25.80300
C  1.47900 12.06300 29.09400
O  2.02900 13.13000 29.23100
C  1.21800 11.07100 30.28300
C  2.43100 10.93800 31.09400
O  3.52900 10.34300 30.86600
O  2.28400 11.82400 32.14400
C  3.17500 11.62900 33.29400
H  -1.11800 4.58800 30.15100
H  -2.07200 5.04200 23.78600
H  0.33200 10.98800 23.98300
H  1.14200 8.31400 32.17900
H  -0.96100 6.26000 31.89500
H  1.07700 5.00400 32.67300
H  2.12700 6.32100 32.09400
H  1.54500 5.15600 30.95300
H  -1.91100 8.36600 31.80800
H  -1.18000 9.91800 31.72000
H  -2.05800 8.39100 33.92500
H  -1.31100 9.89300 34.02600
H  -1.79700 1.64600 28.49400
H  -3.33100 2.38500 28.52100
H  -2.16200 2.80600 29.73600
H  -2.31700 0.86000 26.42000
H  -3.52600 0.78500 25.22000
H  -3.86100 1.85600 26.65600
H  -2.54900 7.35100 22.45400
H  0.09200 8.97400 22.24200
H  0.04500 7.00000 21.08600
H  -1.54800 6.30400 20.88900
H  -0.31900 5.65900 22.13800
H  -2.57300 10.17800 22.81800
H  -2.52800 9.34100 21.35400
H  -1.89600 11.84800 21.54000
H  -1.42500 10.77200 20.17700
H  -0.22200 11.21800 21.43500
H  0.71600 13.51200 25.42300
H  2.18600 12.79400 24.91700
H  2.07000 13.64000 26.48200
H  0.35100 11.58400 30.70000
H  2.69800 11.46800 34.26100
H  3.68400 12.59200 33.32900
H  3.85500 10.80900 33.06200
Mg 8.19500 3.50600 27.81900
C  9.82300 1.98400 30.53300
C  5.98000 5.03200 30.20000
C  6.36400 4.71900 25.38900
C  9.68500 1.33100 25.77900
N  7.86000 3.39400 30.12000
C  8.72800 2.78500 30.96500
C  8.46000 3.28400 32.39200
C  7.29800 4.27500 32.31200
C  6.98100 4.18100 30.76700
C  6.07900 4.16100 33.26300
C  9.70600 3.84400 33.23600
C  9.41700 4.55600 34.56200
H  10.27900 4.33700 35.75600
N  6.45500 4.75200 27.80100
C  5.76200 5.27700 28.81200
C  4.68000 6.12500 28.33200
C  4.73200 6.05500 26.87600
C  5.84200 5.21400 26.58200
C  3.87500 7.00700 29.20900
C  3.86800 6.72100 25.82200
O  4.01900 6.65200 24.62800
C  2.65300 7.54400 26.16000
N  7.95400 3.00100 25.84000
C  7.19300 3.65900 25.02800
C  7.47900 3.36700 23.54200
C  8.71100 2.40000 23.64800
C  8.83600 2.19600 25.16100
C  6.19900 3.04700 22.61700
C  10.06600 2.90500 23.11900
C  10.98200 3.91900 24.01300
N  9.60100 1.96500 28.06400
C  10.13500 1.20200 27.10400
C  11.16700 0.34400 27.66100
C  11.12800 0.75900 29.04700
C  10.09000 1.65300 29.21600
C  12.17700 -0.48400 26.85700
C  11.64500 0.43700 30.30700
O  12.56600 -0.31200 30.60600
C  10.78100 1.11500 31.33500
C  10.03600 0.16500 32.20300
O  9.22000 -0.67200 31.83000
O  10.36400 0.32100 33.51900
C  9.68500 -0.64200 34.38300
H  5.40700 5.63700 30.90600
H  5.94800 5.11200 24.45900
H  10.33800 0.68100 25.19200
H  8.13100 2.31200 32.76000
H  7.67000 5.28400 32.49100
H  5.18600 3.94600 32.67700
H  5.85600 5.00900 33.91100
H  6.13800 3.33100 33.96700
H  10.42400 4.37000 32.60700
H  10.25300 2.95100 33.54100
H  8.35300 4.38000 34.71500
H  9.52100 5.62300 34.36500
H  3.83900 7.93200 28.63300
H  4.34900 7.31600 30.14000
H  2.91200 6.55300 29.44500
H  2.07300 7.00000 26.90500
H  1.96200 7.72500 25.33700
H  3.12900 8.48800 26.42700
H  7.89700 4.27800 23.11300
H  8.36100 1.46400 23.21400
H  5.28700 3.26900 23.17200
H  6.30800 1.99600 22.34800
H  6.25600 3.73000 21.77000
H  9.86900 3.40100 22.16800
H  10.64000 1.99200 22.95600
H  10.30100 4.52300 24.61100
H  11.53400 4.58100 23.34500
H  11.62900 3.33200 24.66500
H  12.79200 -1.02400 27.57600
H  12.66800 0.24800 26.21500
H  11.65900 -1.20500 26.22600
H  11.48200 1.61800 32.00000
H  10.48500 -1.35500 34.58300
H  8.87000 -1.18800 33.90700
H  9.32000 -0.23300 35.32500

