158

Mg 8.68800 3.09800 27.43600
C  9.94100 1.65500 30.43300
C  6.99500 5.43200 29.28400
C  7.47800 4.41300 24.63200
C  10.43400 0.58600 25.66000
N  8.42000 3.41000 29.64900
C  9.00900 2.68700 30.66200
C  8.56500 3.26000 32.02200
C  7.63800 4.54300 31.65700
C  7.68600 4.48200 30.10100
C  6.18500 4.40700 32.23400
C  9.77900 3.62400 32.92200
C  9.42900 4.51700 34.07200
H  10.20000 4.31400 35.39200
N  7.39400 4.73900 27.01500
C  6.87100 5.62000 27.90400
C  5.98700 6.59700 27.21500
C  6.25300 6.32700 25.82300
C  7.07300 5.10200 25.78800
C  5.18900 7.68900 27.96400
C  5.83400 7.15400 24.64900
O  6.07400 6.81300 23.50500
C  5.22000 8.57600 24.91100
N  8.73800 2.43300 25.42700
C  8.21800 3.20600 24.48300
C  8.65500 2.73400 23.08700
C  9.79700 1.76300 23.48200
C  9.61100 1.52400 24.94800
C  7.50700 2.10000 22.24900
C  11.24500 2.13700 23.11100
C  12.19800 1.01000 22.55900
N  9.89100 1.36400 27.91400
C  10.52200 0.46500 27.06200
C  11.35100 -0.41000 27.87300
C  11.17400 -0.02100 29.23500
C  10.21300 0.99900 29.19000
C  12.15200 -1.58100 27.39600
C  11.61400 -0.17700 30.65400
O  12.44900 -0.84900 31.21600
C  10.76900 0.87300 31.43300
C  10.01100 0.22100 32.56300
O  8.98700 -0.39800 32.40000
O  10.71100 0.34300 33.70300
C  10.15400 -0.23700 34.93700
H  6.61100 6.28700 29.84400
H  7.13100 4.87600 23.70600
H  11.06800 -0.03600 25.02400
H  7.94300 2.48800 32.47500
H  8.08900 5.50000 31.91800
H  5.87200 3.55400 32.83600
H  5.43900 4.37100 31.44100
H  6.04600 5.24200 32.92100
H  10.55000 4.15500 32.36300
H  10.36200 2.78900 33.30900
H  8.37000 4.44300 34.31800
H  9.66100 5.48600 33.63000
H  5.75100 8.61000 28.11700
H  4.99500 7.32600 28.97400
H  4.31400 7.99600 27.39100
H  5.10100 9.22700 24.04500
H  5.88000 9.06000 25.63100
H  4.24200 8.41600 25.36400
H  8.98300 3.62000 22.54200
H  9.61100 0.76200 23.09300
H  6.53700 2.30300 22.70400
H  7.68000 1.04100 22.05700
H  7.46500 2.62500 21.29400
H  11.77000 2.49300 23.99700
H  11.16000 3.03300 22.49600
H  11.63200 0.08400 22.46100
H  13.00400 0.85100 23.27600
H  12.55800 1.39900 21.60700
H  12.77400 -1.20500 26.58400
H  11.57400 -2.44000 27.05600
H  12.70400 -1.77000 28.31700
H  11.52100 1.59200 31.75900
H  10.94400 -0.20500 35.68900
H  9.94100 -1.29700 34.80200
H  9.29100 0.27600 35.36100
Mg 26.89000 50.68200 26.60800
C  24.92900 51.77900 29.23300
C  29.21500 49.56500 28.87000
C  29.08000 50.17600 24.09200
C  24.54600 51.93800 24.24200
N  26.98700 50.64200 28.83300
C  26.06800 51.11800 29.69700
C  26.44300 50.83600 31.17500
C  27.88200 50.23600 31.06600
C  28.01300 50.09700 29.49400
C  29.01400 51.26100 31.64500
C  25.43400 49.86500 31.89000
C  24.51200 50.55900 32.88200
H  24.52000 49.95200 34.25600
N  28.85700 50.03900 26.53500
C  29.58300 49.57300 27.54300
C  30.86300 49.10200 27.14000
C  30.96500 49.37200 25.74000
C  29.61100 49.89900 25.31800
C  31.92700 48.60200 28.11300
C  32.09200 49.14800 24.80800
O  31.98400 49.35800 23.59900
C  33.32600 48.58300 25.26000
N  26.79300 51.06000 24.43000
C  27.82400 50.57700 23.68000
C  27.43100 50.61000 22.12600
C  25.91300 51.15100 22.20100
C  25.69100 51.33900 23.74700
C  28.23300 51.45400 21.18100
C  24.77100 50.29600 21.60500
C  24.08200 50.91800 20.39600
N  25.10800 51.63900 26.65300
C  24.22800 52.05400 25.65700
C  23.07100 52.64700 26.28800
C  23.32500 52.62000 27.66000
C  24.52200 51.93900 27.85900
C  21.91300 53.24800 25.51900
C  22.80700 53.01400 29.00000
O  21.82500 53.53900 29.29600
C  23.90700 52.53500 29.98200
C  24.45600 53.72200 30.65000
O  25.19200 54.54700 30.16500
O  23.87800 53.81500 31.89100
C  23.92400 55.19700 32.55200
H  29.92200 49.31300 29.66300
H  29.86100 50.15200 23.32900
H  23.85200 52.12300 23.41900
H  26.40400 51.82300 31.63700
H  28.02000 49.26700 31.54600
H  28.63800 52.02300 32.32800
H  29.59500 51.68500 30.82600
H  29.68900 50.75300 32.33300
H  26.05100 49.07300 32.31400
H  24.75200 49.53300 31.10700
H  23.49800 50.45700 32.49600
H  24.75600 51.61500 33.00200
H  31.92500 49.07500 29.09500
H  32.93600 48.84000 27.77700
H  31.86900 47.51300 28.10600
H  33.95400 49.25600 25.84300
H  33.83500 48.18900 24.38100
H  33.04200 47.71900 25.86200
H  27.40800 49.59600 21.72700
H  25.72300 52.14300 21.79000
H  29.28200 51.40700 21.47400
H  27.97800 52.51200 21.12000
H  28.10100 50.92900 20.23500
H  24.02300 50.18600 22.39100
H  25.22800 49.33000 21.39000
H  22.99500 50.95700 20.47000
H  24.40100 50.27600 19.57500
H  24.35600 51.96100 20.23800
H  21.47000 52.61000 24.75400
H  22.13000 54.09700 24.87100
H  21.14000 53.44300 26.26200
H  23.54100 51.87800 30.77100
H  23.84500 55.86800 31.69700
H  24.84700 55.37400 33.10500
H  23.03700 55.20500 33.18600

