158

Mg 29.43800 58.52400 41.14800
C  26.25200 57.02100 40.42100
C  30.93300 55.83800 39.74500
C  32.25800 60.28300 41.08900
C  27.60600 61.53200 41.88500
N  28.72000 56.73600 40.06500
C  27.36700 56.24900 39.97000
C  27.34300 55.03000 39.11000
C  28.76200 54.49300 39.25500
C  29.54400 55.74100 39.69800
C  28.92100 53.35400 40.27900
C  26.88400 55.45700 37.63300
C  25.85500 54.47300 36.95900
H  26.09200 54.00500 35.49300
N  31.34200 58.04500 40.69900
C  31.79500 56.86400 40.12600
C  33.22400 56.93400 40.07200
C  33.71700 58.16800 40.58200
C  32.43600 58.87900 40.81600
C  34.00800 55.72000 39.56200
C  35.18700 58.72400 40.72700
O  36.17800 58.00900 40.56300
C  35.42500 60.21700 41.16400
N  29.86300 60.61400 41.45500
C  31.14700 61.04900 41.42700
C  31.20300 62.47000 41.81400
C  29.73600 62.91100 42.18500
C  28.98400 61.65100 41.73700
C  32.37100 63.00300 42.65400
C  29.17700 64.29800 41.65000
C  28.50600 65.28800 42.68900
N  27.40000 59.12900 41.22300
C  26.83800 60.36500 41.51100
C  25.39300 60.25100 41.51500
C  25.14600 58.94700 41.04700
C  26.39700 58.32700 40.85300
C  24.36700 61.38800 41.84100
C  24.09100 58.00800 40.73700
O  22.88300 58.14800 40.71100
C  24.78500 56.72400 40.31500
C  24.49800 55.66900 41.27700
O  24.94600 55.70600 42.39500
O  23.89900 54.61000 40.66200
C  23.58100 53.49000 41.53300
H  31.35000 54.89600 39.38000
H  33.20400 60.82900 41.10900
H  26.91000 62.35300 42.06900
H  26.65100 54.32700 39.57400
H  29.02500 54.03400 38.30200
H  28.00700 53.11100 40.82100
H  29.58400 53.54900 41.12200
H  29.25700 52.44600 39.77900
H  27.77800 55.44500 37.01000
H  26.42900 56.44700 37.59400
H  24.82200 54.82100 36.93400
H  25.92200 53.53300 37.50800
H  34.28200 55.95700 38.53400
H  33.43400 54.79400 39.56300
H  34.86800 55.57800 40.21600
H  35.22700 60.85600 40.30300
H  36.49000 60.30800 41.38100
H  35.04600 60.46100 42.15600
H  31.36000 62.99200 40.87100
H  29.68800 62.96600 43.27200
H  32.88700 62.12300 43.03800
H  32.20600 63.56000 43.57600
H  33.01500 63.59000 42.00000
H  28.41900 64.11200 40.88800
H  29.92400 64.85900 41.08900
H  27.54300 65.72000 42.41700
H  29.19700 66.08700 42.95600
H  28.20400 64.83000 43.63100
H  24.80900 61.98900 42.63600
H  23.35900 61.15300 42.18300
H  24.05600 62.01500 41.00500
H  24.37300 56.36100 39.37400
H  22.60700 53.58100 42.01400
H  24.47700 53.23700 42.10000
H  23.39500 52.64200 40.87400
Mg 16.17400 51.34300 25.43300
C  17.93600 50.53600 28.27800
C  13.42500 52.10700 27.17000
C  14.58200 51.83900 22.50400
C  18.92800 49.92400 23.67400
N  15.76000 51.17900 27.45500
C  16.68100 51.07500 28.48400
C  16.03800 51.60300 29.84100
C  14.49200 51.66000 29.56400
C  14.51000 51.68800 27.94600
C  13.74600 50.49600 30.10200
C  16.73300 52.89100 30.35700
C  16.53100 53.31000 31.80300
H  15.89000 52.40100 32.82000
N  14.17300 51.85000 24.88300
C  13.15200 52.22400 25.76400
C  11.94200 52.61900 25.03400
C  12.20500 52.28800 23.62300
C  13.71400 52.00100 23.61200
C  10.62300 52.80300 25.75800
C  11.20200 52.09700 22.43800
O  11.58200 51.71700 21.33400
C  9.73900 52.22800 22.66300
N  16.64100 51.02600 23.36700
C  15.87800 51.33300 22.37200
C  16.51600 51.16100 20.99700
C  17.91600 50.61800 21.39400
C  17.84000 50.55000 22.93600
C  15.58100 50.30900 20.05300
C  19.05000 51.58100 20.90700
C  20.22800 50.91200 20.12600
N  18.07600 50.50700 25.83400
C  19.10100 50.01600 25.05700
C  20.29700 49.68800 25.76100
C  19.85400 49.87300 27.13100
C  18.55400 50.38200 27.06600
C  21.57200 49.11500 25.13100
C  20.26100 49.81800 28.50000
O  21.36100 49.61900 28.95200
C  18.98600 50.22300 29.30300
C  18.52900 49.22100 30.30100
O  17.93800 48.19100 30.00600
O  18.84900 49.70500 31.56200
C  18.41400 48.98300 32.74000
H  12.64200 52.50900 27.81700
H  14.03100 52.06500 21.58900
H  19.65800 49.43900 23.02100
H  16.23500 50.82300 30.57700
H  14.03600 52.58500 29.91700
H  14.15200 49.89000 30.91200
H  13.31900 49.93400 29.27100
H  12.95000 50.98500 30.66400
H  16.27400 53.66800 29.74600
H  17.79100 52.83800 30.10100
H  15.95100 54.22800 31.70600
H  17.53300 53.49000 32.19200
H  10.69400 53.24700 26.75200
H  10.13800 51.83100 25.84700
H  10.03500 53.57000 25.25400
H  9.54300 53.24400 23.00700
H  9.49100 51.49600 23.43200
H  9.23500 52.08100 21.70800
H  16.52600 52.17800 20.60300
H  18.07300 49.61900 20.98700
H  16.16300 49.53600 19.55100
H  15.19500 50.93400 19.24700
H  14.72600 49.80200 20.50000
H  19.46100 52.00000 21.82500
H  18.66800 52.40700 20.30700
H  20.08900 49.83700 20.01300
H  21.21600 51.12200 20.53800
H  20.27200 51.27700 19.10000
H  21.67900 49.45900 24.10300
H  21.57300 48.02500 25.15800
H  22.40800 49.53600 25.69100
H  19.24000 51.19700 29.72200
H  19.02400 49.32200 33.57700
H  18.71000 47.93800 32.64000
H  17.37200 49.14200 33.01700

