158

Mg 36.10200 48.73200 24.72800
C  36.48800 46.87000 27.54500
C  34.57200 51.19400 26.51300
C  35.39400 50.30500 21.84300
C  37.32700 45.84400 22.76500
N  35.59500 48.95700 26.77800
C  36.00500 48.14800 27.84000
C  35.71500 48.77900 29.20700
C  34.89400 50.08300 28.81600
C  35.02000 50.08200 27.29300
C  33.39300 50.08200 29.25300
C  37.03500 49.14400 29.97700
C  36.88600 49.90200 31.31400
H  35.49000 49.85100 32.11800
N  35.18400 50.53500 24.24900
C  34.61100 51.42800 25.09100
C  34.21300 52.63000 24.36300
C  34.31800 52.30600 22.97900
C  34.94800 50.97600 22.97200
C  33.67600 53.79100 25.16400
C  33.94600 53.18200 21.83100
O  34.13800 52.87400 20.66900
C  33.28300 54.47500 22.11400
N  36.46700 48.18500 22.59400
C  36.10800 49.04400 21.63700
C  36.27500 48.41700 20.23700
C  36.86200 46.97300 20.58200
C  36.88200 46.95500 22.07200
C  35.04100 48.42100 19.28500
C  38.15700 46.74400 19.80200
C  39.39100 47.41100 20.42200
N  36.88200 46.88300 25.02600
C  37.27900 45.81300 24.20500
C  37.69500 44.65000 25.00400
C  37.38400 45.06400 26.32400
C  36.90200 46.39700 26.29100
C  38.13100 43.25300 24.54000
C  37.44200 44.62300 27.67500
O  37.81100 43.57200 28.17800
C  36.90400 45.83700 28.57300
C  35.62700 45.48200 29.34700
O  34.47000 45.45200 28.88300
O  35.91700 45.19500 30.68200
C  34.77400 44.58300 31.38300
H  34.18300 51.95500 27.19200
H  35.03300 50.67600 20.88100
H  37.82800 45.07600 22.17200
H  35.11100 48.04200 29.73700
H  35.40400 50.95300 29.23000
H  33.11300 49.32800 29.98900
H  32.63000 50.03300 28.47600
H  33.25700 51.02300 29.78700
H  37.64700 49.71000 29.27400
H  37.56100 48.23400 30.26500
H  37.05000 50.94400 31.04100
H  37.73800 49.70100 31.96400
H  33.59200 54.71300 24.59000
H  34.41200 54.08400 25.91300
H  32.74100 53.70600 25.71900
H  33.03300 55.00000 21.19200
H  34.09300 54.98500 22.63700
H  32.39500 54.39800 22.74100
H  37.14100 48.94100 19.83300
H  36.11000 46.29200 20.18200
H  34.22900 48.11400 19.94500
H  35.12200 47.72500 18.45100
H  34.91300 49.45100 18.95100
H  38.00000 47.18200 18.81600
H  38.35100 45.70600 19.53400
H  39.39200 47.40600 21.51200
H  39.53000 48.42100 20.03700
H  40.27900 46.81100 20.22300
H  39.13600 42.92800 24.80900
H  38.16700 43.39100 23.45900
H  37.39800 42.54700 24.92900
H  37.65200 46.25100 29.24900
H  34.14700 45.36200 31.81700
H  35.28000 43.97000 32.12900
H  34.09500 43.92400 30.84100
Mg -12.88400 38.42000 42.84900
C  -10.98600 35.90200 41.27300
C  -11.09900 40.76000 41.15200
C  -15.18800 40.78100 43.66200
C  -15.15200 35.83900 44.02500
N  -11.22900 38.26400 41.37800
C  -10.53300 37.14300 40.89900
C  -9.22700 37.54900 40.09300
C  -9.37500 39.11600 40.06200
C  -10.65700 39.42100 40.89000
C  -8.05600 39.92100 40.47800
C  -9.06600 36.80000 38.71100
C  -7.98100 35.76300 38.64300
H  -6.77900 36.01000 37.68300
N  -13.02300 40.48100 42.61700
C  -12.23600 41.26900 41.78600
C  -12.70100 42.66600 41.89400
C  -13.86400 42.76500 42.68400
C  -14.04300 41.26900 43.02800
C  -11.88200 43.83900 41.38800
C  -14.66600 43.99900 43.05500
O  -14.29900 45.03600 42.56400
C  -15.81600 43.94500 43.99300
N  -14.91500 38.33400 43.69600
C  -15.59500 39.44900 43.96300
C  -16.90600 39.14600 44.75400
C  -16.85500 37.61000 45.00200
C  -15.59000 37.21700 44.17100
C  -17.15300 40.05800 46.01800
C  -18.25300 36.99700 44.42100
C  -18.81600 35.87100 45.19900
N  -13.02800 36.37700 42.77400
C  -13.96500 35.51500 43.34400
C  -13.50700 34.13300 43.18200
C  -12.40800 34.25400 42.31100
C  -12.13600 35.62100 42.06700
C  -14.10800 32.93300 43.65100
C  -11.35900 33.48000 41.57100
O  -11.27000 32.30500 41.41500
C  -10.37900 34.50900 40.83900
C  -9.03100 34.27000 41.29700
O  -8.39100 33.35100 40.84200
O  -8.65300 35.16700 42.28100
C  -7.40700 34.80300 43.09200
H  -10.50800 41.58300 40.74500
H  -15.99400 41.46600 43.93300
H  -15.86300 35.04100 44.24900
H  -8.39700 37.24100 40.72900
H  -9.63800 39.42900 39.05200
H  -7.41700 39.12200 40.85600
H  -8.23700 40.69500 41.22400
H  -7.69200 40.24400 39.50300
H  -8.75600 37.57500 38.01000
H  -10.02600 36.34500 38.46700
H  -8.32900 34.75700 38.40800
H  -7.54600 35.56900 39.62400
H  -10.88000 43.42800 41.25900
H  -11.91400 44.76500 41.96300
H  -12.20100 44.17100 40.40100
H  -16.59900 43.69300 43.27900
H  -15.90700 44.96000 44.38000
H  -15.69600 43.30400 44.86700
H  -17.66500 39.40600 44.01700
H  -16.71800 37.41500 46.06600
H  -16.26100 40.48000 46.48100
H  -17.61000 39.36600 46.72400
H  -17.80300 40.90200 45.78600
H  -18.21000 36.79000 43.35200
H  -19.06300 37.71600 44.54800
H  -18.32800 35.67800 46.15400
H  -18.73300 34.95000 44.62300
H  -19.87600 35.97600 45.42800
H  -13.70600 32.01500 43.22100
H  -15.14000 32.99300 43.30800
H  -14.16600 32.80600 44.73200
H  -10.41200 34.28500 39.77300
H  -7.31300 35.33900 44.03700
H  -6.49600 35.06900 42.55700
H  -7.17200 33.78700 43.40800

