158

Mg 2.98300 -1.16300 44.52500
C  6.45700 -0.70500 44.24600
C  2.61100 1.43400 42.15600
C  -0.17200 -2.16000 43.84200
C  3.50600 -4.12300 46.24200
N  4.35900 0.18400 43.33100
C  5.77200 0.14700 43.39300
C  6.35400 1.22000 42.33700
C  5.11500 2.15300 42.02600
C  3.97500 1.22300 42.54400
C  5.18700 3.49300 42.69500
C  7.02300 0.46300 41.16400
C  8.53700 0.67300 40.93800
H  8.98300 1.22200 39.54800
N  1.46100 -0.40500 43.34900
C  1.47700 0.69600 42.54400
C  0.09600 0.97500 42.06500
C  -0.75400 -0.08900 42.54500
C  0.21200 -0.98200 43.28800
C  -0.22700 2.20900 41.28100
C  -2.31800 -0.19200 42.34400
O  -2.94300 0.68700 41.69700
C  -3.19500 -1.23300 42.96900
N  1.85600 -3.11100 44.69700
C  0.59100 -3.09700 44.55300
C  -0.05900 -4.21800 45.36800
C  1.15100 -4.96000 46.07300
C  2.28700 -4.03200 45.63700
C  -1.17400 -3.67000 46.26800
C  1.41700 -6.41700 45.61600
C  1.50900 -7.50500 46.67400
N  4.62200 -2.16700 45.19900
C  4.67800 -3.35200 45.92800
C  6.04700 -3.71000 46.27900
C  6.81300 -2.59100 45.69900
C  5.84100 -1.78700 44.97500
C  6.44900 -4.90200 47.16900
C  8.08400 -1.96600 45.50100
O  9.17500 -2.25900 45.83500
C  7.87500 -0.68500 44.66800
C  8.16500 0.58400 45.33500
O  7.47700 1.26000 46.11500
O  9.35900 1.06800 44.81600
C  9.41400 2.53900 44.94600
H  2.51300 2.21300 41.39600
H  -1.22200 -2.45800 43.82100
H  3.66900 -5.04500 46.80400
H  7.05000 1.85100 42.88900
H  4.94300 2.27000 40.95600
H  6.23400 3.79600 42.70300
H  4.63100 3.46800 43.63300
H  4.69200 4.27900 42.12400
H  6.54100 0.82800 40.25700
H  6.86900 -0.61300 41.07900
H  9.08900 -0.26500 40.99900
H  8.88200 1.34800 41.72100
H  0.39800 2.31900 40.39500
H  0.06600 3.06900 41.88300
H  -1.28200 2.42500 41.10900
H  -4.24600 -1.00800 42.79100
H  -2.85400 -1.19300 44.00400
H  -2.95800 -2.22400 42.58300
H  -0.52000 -4.90000 44.65300
H  1.11700 -4.95400 47.16200
H  -1.31600 -2.59200 46.18900
H  -1.08200 -4.02600 47.29400
H  -2.07900 -4.08100 45.82100
H  2.41300 -6.45300 45.17500
H  0.72100 -6.92300 44.94700
H  2.43900 -8.06500 46.57700
H  0.65100 -8.11800 46.39500
H  1.32200 -7.21200 47.70700
H  5.83300 -5.13800 48.03600
H  7.44600 -4.63400 47.51900
H  6.53300 -5.82900 46.60100
H  8.52500 -0.84700 43.80700
H  8.48000 2.98600 44.60400
H  10.16400 2.87100 44.22900
H  9.78800 2.88800 45.90800
Mg 30.26300 58.24000 40.98000
C  27.50000 56.24000 39.93500
C  32.25900 55.63600 39.97700
C  32.98100 60.34300 41.05300
C  28.06500 60.96400 41.14600
N  29.90000 56.13800 40.09900
C  28.72400 55.51200 39.72500
C  28.89600 54.07000 39.23100
C  30.43300 53.86500 39.57800
C  30.92400 55.25300 39.83500
C  30.64300 52.97600 40.78200
C  28.57800 54.01800 37.62000
C  27.56100 52.96600 36.99500
H  26.65800 53.56200 35.96100
N  32.32200 58.03000 40.75700
C  32.87300 56.88800 40.24300
C  34.21600 57.14700 39.99200
C  34.57000 58.36200 40.58300
C  33.25900 58.97900 40.82300
C  35.18700 56.29300 39.25600
C  35.93200 58.90600 40.82900
O  36.90300 58.22000 40.52700
C  36.17300 60.31800 41.46100
N  30.48100 60.37300 41.08000
C  31.70700 61.01800 41.14900
C  31.49700 62.50100 41.37800
C  29.98200 62.65100 41.61000
C  29.46700 61.26400 41.26200
C  32.42700 63.04600 42.49300
C  29.32400 63.79700 40.86600
C  28.14600 64.50500 41.65500
N  28.14600 58.63100 40.69300
C  27.40900 59.74000 40.93500
C  26.00000 59.41000 40.71000
C  25.98100 58.06700 40.31100
C  27.29900 57.61100 40.34400
C  24.77700 60.38600 40.89500
C  25.19500 56.96700 39.79000
O  24.11600 56.96500 39.31000
C  26.19800 55.74000 39.50300
C  25.83400 54.56000 40.37300
O  26.14000 54.45200 41.54200
O  25.07400 53.67000 39.65500
C  24.44700 52.54500 40.34200
H  33.01800 54.92100 39.65200
H  33.90400 60.90700 40.90000
H  27.32900 61.76100 41.27100
H  28.18100 53.49400 39.81800
H  31.03400 53.51500 38.73800
H  29.92100 53.22600 41.55900
H  31.64700 53.19300 41.14700
H  30.50300 51.90800 40.61400
H  29.55700 53.91400 37.15200
H  28.10900 54.94500 37.29200
H  26.98400 52.36800 37.70000
H  28.12300 52.20300 36.45600
H  35.55600 56.92000 38.44400
H  34.73000 55.42700 38.77700
H  35.96600 55.94300 39.93300
H  36.03800 61.12800 40.74500
H  37.18400 60.27700 41.86600
H  35.65900 60.59100 42.38300
H  31.65700 62.96900 40.40700
H  29.77600 62.77100 42.67400
H  33.22800 62.36400 42.77600
H  31.84000 63.24100 43.39100
H  32.85300 63.99500 42.16600
H  29.01500 63.39700 39.90000
H  29.99400 64.62900 40.65100
H  28.24300 65.59000 41.60700
H  28.13800 64.23700 42.71100
H  27.19200 64.14800 41.26700
H  23.83800 59.93700 40.57100
H  24.86500 61.27900 40.27600
H  24.73200 60.70100 41.93800
H  26.23100 55.49000 38.44200
H  25.34400 52.02800 40.68100
H  23.86900 51.88300 39.69800
H  23.91400 52.84900 41.24300

