158

Mg 43.55500 4.33100 47.15000
C  41.87000 7.26400 46.46900
C  40.60600 2.60500 46.23100
C  45.36300 1.51800 46.58800
C  46.53900 6.22100 47.10400
N  41.57700 4.89900 46.15300
C  41.10800 6.18200 46.06900
C  39.60800 6.15500 45.79800
C  39.21200 4.74400 46.31400
C  40.48700 4.01200 46.26300
C  38.56300 4.60900 47.78800
C  39.24300 6.36800 44.30300
C  38.61900 7.75600 43.93900
H  39.35700 8.48400 42.82100
N  43.07800 2.26600 46.69600
C  41.77800 1.81800 46.44800
C  41.81500 0.34100 46.26900
C  43.19000 -0.01800 46.28500
C  43.97500 1.29500 46.51000
C  40.62000 -0.46800 45.94500
C  43.71600 -1.38600 46.17800
O  42.94000 -2.33000 46.11800
C  45.17800 -1.82400 46.25200
N  45.70600 3.89500 46.92000
C  46.19000 2.60400 46.80800
C  47.71600 2.63500 46.89900
C  48.05900 4.13400 47.08400
C  46.68700 4.80100 46.98900
C  48.17900 1.66300 47.99200
C  49.14100 4.68700 46.12500
C  50.39300 5.36600 46.75900
N  44.08500 6.29200 47.02900
C  45.32200 6.95100 47.05600
C  45.12200 8.41000 47.20000
C  43.80200 8.55900 46.94500
C  43.23500 7.24000 46.77900
C  46.11400 9.45000 47.35600
C  42.72900 9.54700 46.77800
O  42.72200 10.76600 47.02700
C  41.43500 8.68900 46.52500
C  40.58200 8.96200 47.71700
O  40.73400 8.45400 48.80800
O  39.68200 9.93600 47.48400
C  38.88300 10.40900 48.65400
H  39.65100 2.07500 46.22400
H  45.99600 0.65700 46.36700
H  47.45600 6.73400 47.40400
H  39.04500 6.93400 46.31200
H  38.61400 4.16300 45.61300
H  38.30800 5.56500 48.24600
H  39.20200 4.02900 48.45400
H  37.64500 4.03800 47.64600
H  38.52300 5.60800 44.00200
H  40.13800 6.18500 43.70800
H  38.82600 8.39700 44.79600
H  37.53700 7.72000 43.81600
H  40.51900 -0.88400 44.94300
H  39.70300 0.10800 46.06800
H  40.56400 -1.25900 46.69300
H  45.62700 -1.31000 45.40200
H  45.27900 -2.90100 46.11900
H  45.57400 -1.50300 47.21500
H  48.11300 2.19800 45.98300
H  48.39800 4.28400 48.11000
H  48.70300 2.19800 48.78400
H  48.79600 0.84300 47.62400
H  47.29300 1.26700 48.48900
H  48.74900 5.42200 45.42300
H  49.48000 3.86000 45.50100
H  51.14600 4.75600 46.26000
H  50.44200 5.37700 47.84800
H  50.45500 6.40700 46.44000
H  45.77300 10.47500 47.20800
H  46.93000 9.10800 46.71900
H  46.45500 9.43000 48.39100
H  40.82800 8.88500 45.64100
H  39.52900 11.03800 49.26700
H  38.49500 9.55800 49.21400
H  37.99200 10.92600 48.29700
Mg 35.80300 50.04800 25.14600
C  36.12100 47.98000 27.96400
C  34.19800 52.47800 27.07900
C  35.30200 51.81700 22.34300
C  37.08200 47.41500 23.14400
N  35.27900 50.22700 27.32200
C  35.59200 49.24100 28.25300
C  35.21500 49.83800 29.59000
C  34.35800 51.20800 29.31100
C  34.53200 51.29600 27.78100
C  32.92600 51.15000 29.87600
C  36.64400 50.22500 30.23200
C  36.76200 50.25300 31.83900
H  35.41900 50.13400 32.69000
N  34.85300 51.89700 24.77200
C  34.44000 52.82000 25.69700
C  34.11700 54.03100 25.00100
C  34.49700 53.91200 23.69500
C  34.87500 52.45200 23.54500
C  33.41300 55.17000 25.70800
C  34.50400 54.93000 22.59900
O  34.70100 54.65200 21.39800
C  34.07800 56.34800 22.78300
N  35.91100 49.61000 22.93300
C  35.85400 50.56900 22.07300
C  36.05600 50.11200 20.64300
C  36.78400 48.74400 20.88900
C  36.58700 48.54900 22.40700
C  34.74900 49.97600 19.75300
C  38.34700 48.74900 20.40600
C  39.44900 49.12100 21.49300
N  36.49900 48.08700 25.40700
C  37.04300 47.15200 24.55000
C  37.64100 46.06600 25.34100
C  37.21400 46.31900 26.68200
C  36.51100 47.53600 26.65000
C  38.44300 44.93800 24.78900
C  37.23700 45.77400 28.02900
O  37.61500 44.67700 28.35600
C  36.49800 46.88900 28.95700
C  35.32900 46.41000 29.76100
O  34.15200 46.64300 29.45000
O  35.75300 45.74800 30.85200
C  34.95400 45.76300 32.11900
H  33.69400 53.19500 27.73000
H  35.29500 52.45400 21.45600
H  37.58400 46.65900 22.53600
H  34.65000 49.11000 30.17300
H  34.75000 52.05900 29.86700
H  32.78200 50.13900 30.25700
H  32.27800 51.28000 29.01000
H  32.68700 51.85900 30.66900
H  36.89500 51.17400 29.75800
H  37.45200 49.58000 29.88800
H  37.18200 51.23600 32.05200
H  37.42800 49.49600 32.25300
H  32.41900 55.36700 25.30600
H  33.97100 56.05200 25.39300
H  33.42600 55.08300 26.79400
H  34.12300 56.93500 21.86600
H  34.88100 56.75300 23.39900
H  33.08200 56.45100 23.21200
H  36.73100 50.77600 20.10200
H  36.12700 48.04900 20.36700
H  34.81500 49.29300 18.90600
H  34.55500 50.99200 19.41100
H  33.88700 49.83800 20.40600
H  38.41500 49.59000 19.71600
H  38.46100 47.75800 19.96600
H  40.01100 48.19400 21.60200
H  39.00400 49.53500 22.39800
H  40.02300 49.91100 21.00800
H  37.78700 44.07400 24.68100
H  39.29600 44.73000 25.43500
H  38.83000 45.28700 23.83100
H  37.35800 47.14300 29.57800
H  33.92700 46.11800 32.03800
H  35.48700 46.40200 32.82300
H  35.07900 44.80100 32.61600

