158

Mg -1.68100 17.35600 26.86300
C  -2.34500 15.38100 29.63200
C  -2.36600 20.05800 28.76500
C  -1.46100 19.31700 24.08600
C  -1.65000 14.48000 24.89800
N  -2.14300 17.72300 29.00400
C  -2.27700 16.74700 30.02300
C  -2.56100 17.42700 31.42700
C  -2.79900 18.89000 31.04800
C  -2.41100 18.86900 29.48800
C  -4.29800 19.49300 31.29600
C  -1.41000 17.25900 32.46600
C  -1.84600 16.78600 33.88300
H  -0.87000 16.80300 35.06300
N  -1.75400 19.42700 26.50300
C  -2.04100 20.34300 27.43700
C  -2.01500 21.62300 26.87300
C  -1.64600 21.50900 25.47000
C  -1.52900 20.06300 25.29300
C  -2.11000 22.88400 27.74100
C  -1.35400 22.58700 24.43500
O  -1.05200 22.24700 23.27000
C  -1.74900 23.98600 24.65400
N  -1.45600 16.96900 24.83000
C  -1.37900 17.96900 23.86600
C  -1.12100 17.32300 22.53700
C  -0.98700 15.81000 22.86700
C  -1.47300 15.71700 24.27300
C  -2.21600 17.55000 21.48500
C  0.48100 15.25500 22.63700
C  1.61800 15.66100 23.61900
N  -1.93500 15.33900 27.15000
C  -1.87400 14.30200 26.26400
C  -2.11300 13.07200 26.90500
C  -2.21000 13.41700 28.22700
C  -2.18600 14.82400 28.33500
C  -2.22400 11.68500 26.35300
C  -2.49600 12.90700 29.59500
O  -2.72000 11.76800 29.96600
C  -2.66100 14.15600 30.49500
C  -1.65300 13.78600 31.64000
O  -0.48200 13.99400 31.53900
O  -2.32100 13.25300 32.74200
C  -1.51300 12.95900 33.95800
H  -2.62000 20.94100 29.35500
H  -1.60800 19.93700 23.19900
H  -1.74200 13.60600 24.25000
H  -3.47000 17.04500 31.89200
H  -2.17600 19.55200 31.64900
H  -5.01500 18.77700 31.69700
H  -4.72700 19.96800 30.41400
H  -4.12100 20.27500 32.03500
H  -0.87700 18.20200 32.58500
H  -0.65400 16.65900 31.96000
H  -2.17400 15.75400 33.75700
H  -2.68000 17.42300 34.17600
H  -3.12700 23.27500 27.76400
H  -1.49800 23.71300 27.38600
H  -1.73200 22.82400 28.76100
H  -1.79800 24.63900 23.78300
H  -1.07000 24.41100 25.39300
H  -2.72400 24.00700 25.14100
H  -0.13600 17.66600 22.22000
H  -1.73700 15.23800 22.32000
H  -1.79700 17.47600 20.48100
H  -2.52900 18.59200 21.55500
H  -3.03800 16.87400 21.71700
H  0.75100 15.42100 21.59400
H  0.36800 14.17600 22.73800
H  1.27000 16.37600 24.36400
H  2.26100 16.30700 23.02100
H  2.19500 14.78700 23.92100
H  -1.76200 11.65200 25.36600
H  -3.31200 11.64100 26.30600
H  -1.83500 10.86600 26.95900
H  -3.63200 14.22400 30.98500
H  -1.30700 13.87100 34.51900
H  -0.49000 12.62800 33.78000
H  -1.91000 12.14900 34.57000
Mg 5.22100 54.91100 41.60100
C  3.99300 51.58200 41.19500
C  8.31100 53.91000 40.37700
C  6.22200 58.18700 41.69900
C  1.95400 55.74000 42.69300
N  6.09900 52.97400 40.91300
C  5.36400 51.83300 40.70000
C  6.17100 50.88900 39.85800
C  7.65800 51.38000 40.10700
C  7.37400 52.83700 40.41600
C  8.48100 50.56100 41.14600
C  5.77100 51.02200 38.37700
C  5.54400 49.75800 37.47000
H  6.08900 49.76300 36.06100
N  6.85200 55.91000 40.94200
C  8.06400 55.27000 40.68600
C  9.12300 56.23100 40.55600
C  8.61600 57.54100 40.94400
C  7.17000 57.26400 41.23400
C  10.54800 55.89000 40.16800
C  9.45600 58.76000 41.16700
O  10.63800 58.65900 40.90000
C  8.83500 60.05900 41.68400
N  4.21700 56.68500 41.86700
C  4.87500 57.88300 42.01800
C  3.99200 58.98200 42.63800
C  2.58800 58.15300 42.83100
C  2.94600 56.75700 42.45300
C  4.51600 59.85600 43.86700
C  1.36300 58.74100 42.10800
C  0.11300 59.16400 42.98000
N  3.37700 53.88600 41.97700
C  2.16200 54.34000 42.45100
C  1.22500 53.24500 42.68800
C  1.92600 52.14300 42.29300
C  3.18900 52.58500 41.78800
C  -0.16900 53.34300 43.26900
C  1.86800 50.70800 42.09200
O  0.98600 49.89800 42.33200
C  3.26100 50.25200 41.43200
C  2.96700 49.26000 40.26700
O  2.43900 49.58700 39.21600
O  3.35300 48.01700 40.63900
C  2.77200 46.89100 39.84800
H  9.27400 53.51100 40.05200
H  6.54800 59.22100 41.83100
H  0.94400 55.90900 43.07400
H  6.15300 49.89700 40.30900
H  8.24500 51.31900 39.19100
H  9.41100 50.18000 40.72500
H  7.93100 49.68900 41.50100
H  8.77800 51.11600 42.03500
H  6.41400 51.79100 37.95100
H  4.83400 51.57900 38.40200
H  4.48800 49.61200 37.24400
H  6.12000 48.98300 37.97600
H  11.18200 55.73900 41.04100
H  10.89700 56.75100 39.59600
H  10.60500 55.03000 39.50100
H  9.70300 60.71400 41.77000
H  8.48700 59.94800 42.71100
H  8.12400 60.53100 41.00700
H  3.81800 59.73100 41.86600
H  2.37900 58.06900 43.89800
H  3.77000 59.85200 44.66200
H  4.71300 60.87300 43.52900
H  5.49400 59.48700 44.17500
H  1.05900 58.04700 41.32400
H  1.72300 59.69600 41.72700
H  0.13500 58.59300 43.90800
H  -0.83200 59.14400 42.43700
H  0.10500 60.20700 43.29800
H  -0.16300 52.81700 44.22400
H  -0.92400 52.90600 42.61500
H  -0.33200 54.37400 43.58200
H  3.84100 49.64900 42.13000
H  1.83600 46.55400 40.29500
H  3.44000 46.03000 39.86200
H  2.47300 47.27500 38.87300

