158

Mg -1.42300 17.50200 27.17900
C  -1.86000 15.29600 29.83200
C  -1.73900 20.14300 29.52200
C  -1.22200 19.58500 24.67600
C  -1.65900 14.76100 24.94300
N  -1.82000 17.68300 29.50000
C  -1.83300 16.61700 30.35300
C  -1.99300 17.10900 31.81400
C  -1.93000 18.66900 31.63900
C  -1.89500 18.83900 30.11900
C  -3.17900 19.31700 32.28800
C  -0.94600 16.58700 32.85300
C  -0.54700 17.44800 34.05800
H  -0.57000 16.79900 35.44400
N  -1.40700 19.47800 27.13300
C  -1.54500 20.44200 28.13500
C  -1.39800 21.74900 27.63100
C  -1.15400 21.56200 26.22200
C  -1.20400 20.18300 25.91800
C  -1.76500 23.00000 28.34100
C  -0.86900 22.63200 25.07700
O  -0.42300 22.45200 23.92000
C  -0.88000 24.03000 25.48500
N  -1.48100 17.26100 25.16300
C  -1.32800 18.28100 24.34300
C  -1.35900 17.81100 22.84700
C  -1.45100 16.26900 22.95000
C  -1.46600 16.02300 24.44500
C  -2.51500 18.35400 21.96300
C  -0.34000 15.52800 22.20300
C  1.01900 15.45300 22.91000
N  -1.62000 15.45400 27.29700
C  -1.77900 14.46200 26.33400
C  -1.90400 13.13900 26.95800
C  -1.90800 13.47800 28.31200
C  -1.73300 14.87800 28.46600
C  -2.32100 11.82600 26.28000
C  -2.02000 12.88200 29.59100
O  -2.15800 11.70900 29.96000
C  -2.04500 14.00700 30.61600
C  -0.94100 13.74600 31.56000
O  0.23200 13.94900 31.25800
O  -1.43400 13.27400 32.69800
C  -0.35800 12.95400 33.67600
H  -1.51100 20.90200 30.27400
H  -1.06900 20.29500 23.86100
H  -1.69600 13.93100 24.23500
H  -2.97200 16.74600 32.13000
H  -1.02000 19.18700 31.94300
H  -4.04300 19.38700 31.62700
H  -2.90000 20.35800 32.45600
H  -3.63200 18.82100 33.14600
H  -0.07100 16.09900 32.42200
H  -1.52200 15.71600 33.16500
H  -1.17100 18.33800 33.98100
H  0.51400 17.68800 33.98400
H  -1.09000 23.85600 28.31900
H  -2.12400 22.79200 29.34900
H  -2.65800 23.26400 27.77500
H  -0.66700 24.63400 24.60300
H  0.09500 24.18200 25.94900
H  -1.77100 24.37800 26.00700
H  -0.35600 18.01300 22.47200
H  -2.40700 15.97200 22.51900
H  -2.89700 19.22700 22.49200
H  -3.37800 17.72000 21.75700
H  -2.01400 18.69900 21.05800
H  -0.37000 15.96400 21.20500
H  -0.80300 14.54300 22.13600
H  1.10600 14.44500 23.31700
H  0.95900 16.21900 23.68300
H  1.80000 15.58500 22.16200
H  -2.82800 11.14600 26.96400
H  -1.43000 11.29900 25.93900
H  -3.05400 12.17200 25.55100
H  -2.99800 13.92900 31.13900
H  -0.69500 12.59200 34.64700
H  0.28700 13.81100 33.87100
H  0.25900 12.19200 33.20000
Mg 24.58100 -5.34600 45.51300
C  26.60100 -2.97500 43.80300
C  21.90200 -4.32300 43.28000
C  22.98500 -8.29500 46.04000
C  27.38700 -6.31900 47.31400
N  24.26600 -3.75100 43.82200
C  25.30800 -2.96700 43.23600
C  24.72900 -2.01800 42.15700
C  23.18300 -2.35900 42.24900
C  23.05300 -3.53000 43.26500
C  22.24900 -1.15600 42.64800
C  25.38000 -2.35300 40.74500
C  25.70700 -1.12400 39.95000
H  25.08400 -0.90400 38.60900
N  22.72900 -6.17600 44.78400
C  21.72400 -5.53600 43.93500
C  20.58200 -6.40400 43.85800
C  20.87300 -7.56400 44.65200
C  22.25000 -7.39700 45.16400
C  19.37900 -6.11900 43.17900
C  19.91900 -8.73400 44.91600
O  18.82300 -8.77500 44.33800
C  20.18800 -9.93400 45.78500
N  25.10900 -7.07900 46.47500
C  24.22800 -8.13700 46.61800
C  24.78100 -9.11500 47.61100
C  26.19800 -8.51000 47.96000
C  26.26500 -7.18100 47.25800
C  23.83800 -9.16600 48.91700
C  27.40900 -9.48900 47.56300
C  28.25200 -10.18400 48.66900
N  26.59100 -4.67200 45.72000
C  27.65400 -5.13200 46.54500
C  28.83800 -4.39000 46.30600
C  28.44900 -3.50500 45.26100
C  27.14800 -3.78000 44.86800
C  30.03900 -4.58800 47.04600
C  28.99000 -2.46000 44.33800
O  30.12500 -2.05000 44.21700
C  27.74900 -2.03000 43.39100
C  27.58800 -0.53600 43.58300
O  27.53800 0.11400 44.64300
O  27.69200 0.03500 42.29100
C  27.38900 1.43900 42.27200
H  21.08300 -4.03800 42.61600
H  22.48100 -9.22100 46.32500
H  28.24000 -6.71200 47.87000
H  24.75600 -0.93800 42.30600
H  22.76500 -2.79700 41.34200
H  21.36000 -1.27000 42.02700
H  22.77400 -0.21900 42.46500
H  21.92800 -1.20100 43.68800
H  24.73000 -2.87300 40.04100
H  26.27400 -2.96900 40.83200
H  26.78100 -0.96800 39.84700
H  25.51800 -0.18500 40.47000
H  19.30200 -6.84300 42.36800
H  19.52300 -5.09700 42.82900
H  18.48700 -6.16900 43.80400
H  21.08300 -10.48100 45.48700
H  19.25700 -10.49400 45.87100
H  20.42400 -9.58600 46.79100
H  24.87200 -10.14000 47.25000
H  26.30500 -8.20900 49.00300
H  23.61000 -10.19800 49.18100
H  22.88500 -8.66300 48.75400
H  24.39600 -8.82600 49.78900
H  28.09100 -9.01800 46.85600
H  26.87600 -10.31300 47.08900
H  29.25000 -9.75200 48.61200
H  28.39400 -11.26500 48.66400
H  27.75200 -9.89400 49.59300
H  30.82500 -3.91200 46.70800
H  30.42500 -5.60600 47.00700
H  29.81800 -4.41200 48.09900
H  28.02800 -2.19400 42.35000
H  28.26600 2.07300 42.40000
H  26.49000 1.72500 42.81900
H  26.98400 1.76300 41.31300

