158

Mg 53.36700 23.48300 44.78500
C  50.61100 25.40400 43.84900
C  51.71600 20.59300 43.86300
C  56.33000 22.00900 44.93400
C  54.88500 26.52000 45.79000
N  51.40500 23.06500 43.86800
C  50.42200 23.99500 43.59900
C  49.21300 23.32200 42.98700
C  49.43000 21.82100 43.47500
C  50.92200 21.78600 43.77600
C  48.37500 21.47700 44.53500
C  49.27200 23.49400 41.47400
C  47.88000 23.43500 40.73900
H  47.70700 23.44300 39.23200
N  53.98100 21.56300 44.36100
C  53.16500 20.52400 44.03800
C  53.97500 19.35500 44.10500
C  55.36100 19.71000 44.32500
C  55.32000 21.18600 44.51700
C  53.51100 17.90000 43.76300
C  56.53500 18.75500 44.38600
O  56.50000 17.63300 43.89400
C  57.86100 19.19900 45.06700
N  55.34300 24.13000 45.39900
C  56.43500 23.38000 45.32600
C  57.72700 24.06100 45.73100
C  57.15100 25.41700 46.26700
C  55.73100 25.35100 45.78500
C  58.56000 23.34600 46.81100
C  58.04200 26.56100 45.70500
C  59.52300 26.79500 46.21300
N  52.92500 25.55400 44.76600
C  53.60500 26.61700 45.25000
C  52.83100 27.83200 45.28500
C  51.64300 27.44900 44.68900
C  51.78100 26.08100 44.31100
C  53.31100 29.19000 45.74100
C  50.30700 27.84900 44.34400
O  49.63000 28.85600 44.55800
C  49.66800 26.60100 43.70300
C  49.41000 27.08300 42.32900
O  50.26300 27.62100 41.61100
O  48.13000 26.80400 41.97300
C  47.71700 27.28900 40.68200
H  51.14400 19.67600 43.70800
H  57.32200 21.57200 44.80400
H  55.28100 27.46500 46.16800
H  48.30700 23.80000 43.35900
H  49.19700 21.14600 42.65100
H  47.75000 20.69000 44.11500
H  47.70500 22.26000 44.89100
H  48.84300 21.13200 45.45700
H  49.79400 22.61000 41.10600
H  49.77500 24.42400 41.21000
H  47.34900 24.30000 41.13800
H  47.47600 22.52200 41.17700
H  53.62700 17.68500 42.70100
H  52.44800 17.73100 43.93200
H  54.06400 17.12600 44.29600
H  58.42800 19.79100 44.35000
H  58.42400 18.27700 45.21600
H  57.62100 19.65200 46.02900
H  58.34400 24.12600 44.83500
H  57.17000 25.52700 47.35200
H  58.67500 23.98200 47.68900
H  59.59100 23.14600 46.51800
H  57.94100 22.51700 47.15100
H  57.70000 27.58400 45.86800
H  58.21900 26.40400 44.64100
H  59.60700 26.29800 47.18000
H  59.85100 27.82800 46.33200
H  60.24400 26.31400 45.55300
H  52.51900 29.91400 45.55000
H  54.07600 29.49700 45.02700
H  53.63300 29.05700 46.77400
H  48.73000 26.37700 44.21000
H  47.84500 26.52000 39.92100
H  48.21600 28.21300 40.39000
H  46.64100 27.46200 40.70500
Mg 26.34200 51.69100 26.31700
C  23.94100 52.68400 28.79700
C  28.32000 50.43100 28.92000
C  28.60500 50.66200 24.04100
C  24.18200 52.82900 23.88600
N  26.15600 51.69500 28.62200
C  25.09400 52.13100 29.39200
C  25.29900 51.80200 30.87300
C  26.78600 51.21000 30.88900
C  27.13500 51.08000 29.39900
C  27.87100 52.03000 31.72500
C  24.29800 50.83200 31.55600
C  24.03800 51.04000 33.04400
H  24.22100 49.84300 33.93900
N  28.32000 50.77500 26.41700
C  28.91500 50.34700 27.61800
C  30.17700 49.73800 27.30500
C  30.28900 49.72900 25.83900
C  29.01700 50.44600 25.37200
C  31.08900 49.18100 28.31300
C  31.51000 49.27400 25.03400
O  31.63700 49.55900 23.85800
C  32.58200 48.43900 25.68400
N  26.47800 51.97000 24.14300
C  27.57900 51.41900 23.44500
C  27.26900 51.41900 21.99600
C  25.71900 51.83200 21.94500
C  25.38800 52.30800 23.32000
C  28.23500 52.26100 21.13000
C  24.75700 50.69600 21.35400
C  23.95300 50.92100 20.06400
N  24.51900 52.75600 26.30200
C  23.80300 53.15400 25.21500
C  22.66100 53.81400 25.65100
C  22.61900 53.66300 27.02300
C  23.78900 52.93100 27.38100
C  21.56900 54.20900 24.76900
C  21.86500 53.83000 28.29900
O  20.79500 54.38500 28.44900
C  22.68600 53.13000 29.47200
C  22.98700 54.15600 30.46200
O  23.46900 55.29800 30.30900
O  22.61200 53.67400 31.67600
C  22.54300 54.52700 32.85200
H  29.05700 50.11500 29.66200
H  29.27900 50.13200 23.36400
H  23.41300 52.98600 23.12600
H  25.25200 52.74900 31.41100
H  26.76400 50.16900 31.21000
H  28.75300 52.25000 31.12400
H  28.03300 51.45300 32.63500
H  27.37900 52.94700 32.04900
H  24.66100 49.80500 31.58200
H  23.32700 50.74800 31.06800
H  23.05400 51.50700 33.09500
H  24.65000 51.89900 33.32000
H  30.65700 49.30200 29.30700
H  32.00300 49.77300 28.34100
H  31.21300 48.12500 28.07400
H  33.33000 48.14600 24.94700
H  32.20800 47.55000 26.19200
H  32.91200 49.20600 26.38500
H  27.30400 50.38400 21.65600
H  25.66600 52.69800 21.28500
H  29.23500 51.91700 21.39600
H  28.15700 53.24900 21.58500
H  27.95700 52.33000 20.07800
H  24.20500 50.20500 22.15600
H  25.36900 49.84800 21.04800
H  24.06000 50.28400 19.18600
H  24.24900 51.87200 19.62100
H  22.94700 51.15200 20.41600
H  21.86400 55.18000 24.37200
H  20.60500 54.29700 25.27100
H  21.53000 53.41600 24.02200
H  22.05500 52.36900 29.93200
H  21.50600 54.79100 33.06200
H  23.05900 55.47800 32.72200
H  23.06500 54.10700 33.71200

