158

Mg -1.72300 17.74700 26.55900
C  -2.32000 15.53100 29.23400
C  -2.38600 20.37800 28.70300
C  -1.91500 19.71800 23.78200
C  -1.80800 14.93400 24.42800
N  -2.47900 17.93900 28.74700
C  -2.34200 16.89600 29.66100
C  -2.51500 17.40500 31.11800
C  -2.73500 18.96600 30.90800
C  -2.49000 19.15700 29.38000
C  -3.95000 19.62600 31.61000
C  -1.30800 16.98200 32.10600
C  -1.01400 17.76100 33.36000
H  -0.48700 17.06100 34.54500
N  -2.00200 19.77900 26.31200
C  -2.15200 20.68500 27.36900
C  -2.05800 22.04900 26.75700
C  -1.87000 21.87200 25.37900
C  -1.97300 20.38700 25.08500
C  -1.87400 23.37700 27.56100
C  -1.50100 22.88900 24.26000
O  -1.39000 22.56900 23.06000
C  -1.21800 24.28700 24.51200
N  -1.73900 17.37800 24.38700
C  -1.83300 18.39100 23.42800
C  -1.98000 17.80400 22.01400
C  -1.80800 16.22400 22.27300
C  -1.87200 16.20600 23.76900
C  -3.23400 18.30000 21.21000
C  -0.56600 15.54700 21.61500
C  0.74300 16.23800 21.80100
N  -1.98100 15.66000 26.80100
C  -1.93100 14.66200 25.85300
C  -2.11700 13.37700 26.49300
C  -2.22400 13.69700 27.86200
C  -2.16300 15.08300 27.96100
C  -2.28600 12.13000 25.79500
C  -2.37700 13.08700 29.05600
O  -2.39900 11.93300 29.40600
C  -2.45200 14.28600 30.04500
C  -1.23400 14.08300 30.85800
O  -0.12400 14.39300 30.47600
O  -1.58300 13.36300 31.93400
C  -0.38100 12.84300 32.75500
H  -2.59600 21.23900 29.34200
H  -2.03000 20.49200 23.02000
H  -1.85700 14.14000 23.68000
H  -3.37000 16.81000 31.43700
H  -1.77400 19.41100 31.16400
H  -4.54300 20.31100 31.00500
H  -3.66400 20.28400 32.43000
H  -4.66300 18.91200 32.02300
H  -0.42800 16.94900 31.46300
H  -1.48100 15.96200 32.45000
H  -1.79000 18.47600 33.62900
H  -0.12500 18.32800 33.08500
H  -0.84500 23.72900 27.63700
H  -2.45400 23.33100 28.48300
H  -2.36500 24.20900 27.05700
H  -2.15400 24.61600 24.96400
H  -1.01000 24.97100 23.69000
H  -0.44400 24.40100 25.27200
H  -1.08400 18.16200 21.50600
H  -2.69500 15.72700 21.87900
H  -3.95600 17.48700 21.12000
H  -3.00100 18.51300 20.16700
H  -3.54900 19.23100 21.68100
H  -0.74800 15.38300 20.55300
H  -0.51800 14.52000 21.97600
H  1.30400 16.50800 20.90600
H  1.26800 15.48500 22.38800
H  0.68000 17.02100 22.55600
H  -3.25600 12.09300 25.30000
H  -2.26600 11.27900 26.47600
H  -1.37400 12.00800 25.21000
H  -3.31500 14.13600 30.69400
H  -0.29200 11.76600 32.90000
H  -0.61500 13.22500 33.74800
H  0.57000 13.30500 32.48800
Mg 1.85700 -2.75500 44.64600
C  5.05100 -1.52000 43.80300
C  0.44500 -0.71700 42.27700
C  -1.07300 -4.41100 45.09600
C  3.46100 -5.42500 46.44000
N  2.71900 -1.37800 43.14400
C  4.00600 -0.88000 43.08300
C  4.07100 0.35600 42.13100
C  2.55500 0.49100 41.63100
C  1.78500 -0.59200 42.49500
C  1.98400 1.89900 41.80100
C  5.09300 0.28500 40.96200
C  5.90300 1.56600 40.69700
H  5.44300 2.27500 39.47000
N  -0.13400 -2.43200 43.87800
C  -0.47900 -1.52900 42.94200
C  -1.93800 -1.54800 42.77700
C  -2.40900 -2.59900 43.67000
C  -1.18500 -3.25100 44.25400
C  -2.73100 -0.61400 41.86200
C  -3.86800 -2.93000 44.02600
O  -4.74000 -2.34400 43.41700
C  -4.18500 -3.95100 45.01400
N  1.29600 -4.60600 45.69300
C  0.01900 -4.94800 45.75400
C  -0.22400 -6.22200 46.59700
C  1.27900 -6.50300 47.09000
C  2.08900 -5.45200 46.36800
C  -1.41500 -6.28600 47.69100
C  1.78500 -7.96700 47.16200
C  2.14400 -8.48000 48.61400
N  3.83000 -3.36700 45.09300
C  4.33000 -4.42600 45.89100
C  5.69600 -4.21900 46.00300
C  6.01000 -3.05600 45.28200
C  4.85900 -2.62800 44.64400
C  6.65200 -5.05700 46.77900
C  7.15000 -2.25500 44.85600
O  8.35900 -2.33300 45.08500
C  6.48900 -1.08200 44.03400
C  6.61100 0.15500 44.81300
O  5.93700 0.52900 45.75500
O  7.79000 0.79800 44.53300
C  7.93800 2.11200 45.25000
H  0.04500 0.02100 41.57800
H  -2.00600 -4.88700 45.40400
H  3.90000 -6.16600 47.11100
H  4.25500 1.16700 42.83500
H  2.48100 0.21700 40.57800
H  1.04400 1.98400 42.34500
H  1.83200 2.37400 40.83200
H  2.66900 2.56800 42.32200
H  4.64100 -0.07100 40.03600
H  5.84300 -0.44300 41.27300
H  6.95300 1.30400 40.56900
H  5.87500 2.25800 41.53900
H  -2.06200 -0.15300 41.13500
H  -3.24700 0.07600 42.52900
H  -3.60600 -1.09000 41.41900
H  -3.85500 -4.90400 44.59800
H  -5.24200 -3.97600 45.27700
H  -3.67400 -3.62800 45.92000
H  -0.49600 -6.96100 45.84300
H  1.20500 -6.19700 48.13400
H  -2.12600 -7.05200 47.38300
H  -1.77600 -5.27100 47.52300
H  -1.15600 -6.34800 48.74800
H  2.66700 -8.05000 46.52600
H  0.97900 -8.62800 46.84400
H  3.09600 -8.99900 48.50200
H  1.44400 -9.21100 49.01900
H  2.39500 -7.60500 49.21400
H  6.46100 -5.10300 47.85200
H  7.64700 -4.61900 46.70200
H  6.76600 -6.08700 46.44100
H  7.00600 -1.02600 43.07600
H  9.02600 2.13200 45.30900
H  7.52300 2.14900 46.25700
H  7.66800 3.01800 44.70800

