158

Mg 43.83200 3.84400 48.18400
C  41.59500 6.43500 47.38100
C  41.24300 1.56300 47.77100
C  46.06900 1.28400 48.62500
C  46.43400 6.13300 47.98100
N  41.63600 4.03300 47.61000
C  40.94500 5.20800 47.33600
C  39.54300 4.84800 46.99900
C  39.39000 3.31200 47.33400
C  40.81100 2.92200 47.50100
C  38.53700 3.02400 48.53200
C  39.21200 5.37700 45.53700
C  38.05200 6.40300 45.58400
H  37.26700 6.38500 44.21600
N  43.70000 1.76900 48.25300
C  42.52000 1.04300 48.12500
C  42.77700 -0.41400 48.25700
C  44.21400 -0.50800 48.42100
C  44.76700 0.88800 48.44100
C  41.69300 -1.49500 48.30100
C  44.87600 -1.80200 48.61400
O  44.14800 -2.79500 48.73800
C  46.44800 -1.92300 48.36100
N  46.02000 3.73800 48.19100
C  46.69400 2.58400 48.49200
C  48.23700 2.86900 48.47600
C  48.30800 4.41000 48.20600
C  46.79200 4.79600 47.99400
C  48.95900 2.41500 49.85700
C  49.13900 4.82500 46.97400
C  50.72100 4.65100 47.18200
N  44.06200 5.86600 47.85800
C  45.17800 6.70000 47.94600
C  44.79000 8.10200 47.76600
C  43.39900 8.00300 47.47000
C  42.98900 6.63200 47.59700
C  45.68500 9.26300 47.49500
C  42.25600 8.79100 47.10700
O  42.17500 10.01700 46.89600
C  41.04100 7.83400 47.06100
C  40.03200 8.45700 48.02800
O  39.85400 8.17100 49.20000
O  39.27100 9.37000 47.40200
C  38.40700 10.19300 48.21300
H  40.42000 0.84600 47.76000
H  46.83500 0.52300 48.78800
H  47.28100 6.81600 48.06900
H  38.90800 5.39200 47.69800
H  38.92200 2.82000 46.48100
H  39.24100 2.97100 49.36300
H  37.87200 2.16100 48.52000
H  37.86700 3.86700 48.70200
H  38.96400 4.54200 44.88200
H  39.99200 5.94600 45.03100
H  38.28000 7.45900 45.73200
H  37.37000 6.09200 46.37500
H  41.72100 -2.04000 47.35800
H  40.65500 -1.17300 48.38000
H  41.86700 -2.05700 49.21900
H  46.74000 -1.41000 47.44500
H  46.60800 -2.97400 48.12300
H  47.17400 -1.55700 49.08700
H  48.70300 2.37200 47.62500
H  48.86400 4.85100 49.03300
H  49.80700 3.05700 50.09800
H  49.35700 1.42000 49.66000
H  48.22500 2.41200 50.66200
H  49.03000 5.90200 46.84700
H  48.86000 4.25500 46.08800
H  51.18500 4.25500 46.27800
H  50.90100 4.09300 48.10100
H  51.27000 5.57100 47.38300
H  46.65600 8.91100 47.14800
H  45.92200 9.72000 48.45600
H  45.23600 9.95500 46.78200
H  40.56300 7.84600 46.08200
H  37.91900 9.71200 49.06100
H  37.57300 10.62200 47.65700
H  38.98400 11.01000 48.64600
Mg 48.22500 15.09500 28.42300
C  45.79100 15.07800 30.97600
C  50.12700 17.21600 30.30500
C  50.21300 15.44400 25.72600
C  45.88200 13.53100 26.29900
N  47.94800 16.13000 30.38600
C  46.99400 15.80800 31.35100
C  47.30500 16.45800 32.72500
C  48.54800 17.38800 32.32100
C  48.94200 16.89200 30.91400
C  48.17100 18.87400 32.44500
C  47.70800 15.26300 33.66000
C  47.19300 15.33300 35.08500
H  47.21300 16.65700 35.84600
N  49.92800 16.11800 28.10700
C  50.63500 16.81100 29.01400
C  51.92300 17.17900 28.40300
C  52.05200 16.58700 27.12200
C  50.69200 16.04100 26.94600
C  52.92600 18.06100 29.17500
C  53.23200 16.47200 26.16600
O  53.21800 15.73200 25.16400
C  54.54800 17.04600 26.55300
N  47.92700 14.86300 26.25100
C  48.97400 14.94800 25.39600
C  48.70600 14.26600 24.04800
C  47.39900 13.61700 24.32200
C  47.05600 14.00600 25.72900
C  48.79100 15.21600 22.82400
C  47.28700 12.12200 23.86400
C  47.78300 11.11800 24.90500
N  46.30500 14.29100 28.59700
C  45.52300 13.67200 27.68600
C  44.29200 13.22500 28.32100
C  44.40300 13.72700 29.66500
C  45.61300 14.39500 29.77300
C  43.37400 12.23300 27.75300
C  43.72700 13.71700 30.94700
O  42.66800 13.16000 31.26800
C  44.59300 14.60800 31.87900
C  43.79800 15.64200 32.48700
O  43.22000 16.60200 31.98100
O  43.63100 15.38000 33.79700
C  42.69000 16.21400 34.60300
H  50.83100 17.79000 30.91000
H  50.70400 15.39100 24.75200
H  45.22500 13.04500 25.57500
H  46.64600 17.19200 33.19000
H  49.38400 17.28700 33.01300
H  48.67100 19.44900 31.66500
H  48.64900 19.20300 33.36800
H  47.11700 19.14300 32.38200
H  48.77400 15.03800 33.64500
H  47.30500 14.37000 33.18200
H  47.92200 14.74100 35.63900
H  46.23900 14.80600 35.06300
H  53.61800 17.35800 29.63800
H  52.37800 18.65800 29.90400
H  53.44100 18.71800 28.47400
H  54.94300 16.74200 27.52200
H  54.43400 18.13000 26.56800
H  55.28700 16.75000 25.80900
H  49.45300 13.52400 23.76700
H  46.68500 14.13900 23.68500
H  49.80700 15.19100 22.43000
H  48.53600 16.26200 22.99700
H  48.19400 14.85300 21.98700
H  47.82100 11.95200 22.92900
H  46.22700 11.93500 23.69100
H  46.85200 10.79200 25.37000
H  48.54400 11.40400 25.63100
H  48.22400 10.32800 24.29800
H  42.42000 12.46400 28.22900
H  43.77500 11.27500 28.08400
H  43.29100 12.35700 26.67400
H  45.05500 13.95700 32.62100
H  43.34300 17.06500 34.79400
H  42.34700 15.84900 35.57200
H  41.80500 16.52900 34.05000

