158

Mg 17.76700 -1.59600 27.99600
C  16.69600 0.25100 30.66300
C  19.86300 -3.32000 30.17600
C  19.33800 -2.93500 25.32800
C  15.80500 0.52200 26.01100
N  18.16500 -1.53400 30.17400
C  17.62200 -0.71500 31.04800
C  18.11100 -0.94000 32.47800
C  19.37700 -1.85700 32.23600
C  19.10300 -2.28600 30.78200
C  20.68000 -1.11500 32.40800
C  17.01200 -1.56700 33.35700
C  17.03400 -1.21900 34.89700
H  18.20200 -0.45100 35.49000
N  19.25700 -2.98700 27.71600
C  19.89800 -3.62500 28.77800
C  20.63400 -4.73600 28.28800
C  20.59400 -4.62000 26.87800
C  19.74300 -3.49900 26.52600
C  21.24500 -5.68800 29.23000
C  21.26600 -5.62200 25.90700
O  21.23600 -5.38900 24.70400
C  22.02500 -6.90700 26.30900
N  17.66500 -1.11900 25.92100
C  18.39700 -1.97100 25.05700
C  18.07600 -1.45100 23.65500
C  16.76900 -0.54000 23.86500
C  16.67300 -0.38200 25.35600
C  19.36200 -0.82600 22.98600
C  15.46700 -0.93300 23.12600
C  14.59000 0.19400 22.44100
N  16.37000 -0.08300 28.21900
C  15.67000 0.68500 27.35700
C  14.88800 1.68400 28.05000
C  15.20800 1.50000 29.36600
C  16.17300 0.50700 29.36500
C  13.88600 2.58700 27.43600
C  14.94200 1.92800 30.64700
O  14.14600 2.77600 30.99000
C  15.91400 1.23600 31.60100
C  16.72800 2.25000 32.33800
O  17.58900 2.91800 31.78800
O  16.33400 2.28000 33.63200
C  16.98700 3.32500 34.43300
H  20.57900 -3.78900 30.85500
H  19.81800 -3.36400 24.44600
H  15.14500 1.02000 25.29700
H  18.34100 0.04200 32.89100
H  19.38100 -2.66700 32.96600
H  21.23700 -1.67200 33.16100
H  20.48400 -0.12900 32.82900
H  21.25500 -1.13400 31.48200
H  16.97300 -2.64800 33.22300
H  16.05800 -1.36100 32.87200
H  16.99900 -2.13400 35.48800
H  16.13100 -0.63900 35.09200
H  20.73700 -5.66100 30.19400
H  22.33200 -5.61300 29.26900
H  21.12900 -6.67700 28.78700
H  21.27900 -7.63400 26.63200
H  22.75900 -6.64200 27.07000
H  22.54700 -7.39600 25.48700
H  17.82400 -2.32300 23.05200
H  16.99800 0.48900 23.58800
H  20.06200 -0.69400 23.81100
H  19.05700 0.14500 22.59400
H  19.80300 -1.40600 22.17600
H  14.75100 -1.37000 23.82200
H  15.76200 -1.73500 22.45000
H  13.57600 0.07700 22.82300
H  14.53400 0.02500 21.36500
H  15.03400 1.18200 22.56300
H  13.49400 3.26000 28.19900
H  13.01600 2.09900 26.99800
H  14.41500 3.04300 26.59900
H  15.23300 0.74800 32.29800
H  16.78000 3.26000 35.50100
H  16.62400 4.31500 34.15600
H  18.07600 3.33100 34.47100
Mg 0.44200 44.39900 24.09400
C  2.30800 44.02400 27.01100
C  -2.53200 43.97400 25.77200
C  -1.22400 43.82900 21.11700
C  3.55100 44.61400 22.40700
N  -0.01300 44.09000 26.09700
C  0.90400 43.97200 27.17400
C  0.10000 44.05900 28.53200
C  -1.34900 43.93200 28.06400
C  -1.34300 43.97900 26.55000
C  -2.03900 42.67400 28.63300
C  0.46800 45.25000 29.41100
C  0.67700 45.14600 30.94900
H  0.81700 43.75200 31.53600
N  -1.62900 44.09500 23.54000
C  -2.76300 44.01100 24.37100
C  -3.96100 44.20900 23.59000
C  -3.55000 44.10000 22.21700
C  -2.06200 43.92400 22.25000
C  -5.21300 44.57800 24.29800
C  -4.46800 44.19300 21.01700
O  -3.95900 44.11500 19.87700
C  -6.03600 44.27100 21.22000
N  1.02600 44.07800 22.16400
C  0.12800 43.89300 21.12800
C  0.89300 43.84600 19.85900
C  2.30100 44.38800 20.18900
C  2.27600 44.41700 21.70800
C  0.94200 42.32000 19.31000
C  2.73600 45.73000 19.56400
C  3.93900 45.77300 18.57200
N  2.47800 44.37900 24.50600
C  3.61800 44.41300 23.75000
C  4.79100 44.36700 24.49500
C  4.29400 44.25800 25.79800
C  2.91800 44.21600 25.75800
C  6.19000 44.40100 24.03700
C  4.75100 44.27200 27.14700
O  5.90700 44.43100 27.50800
C  3.50100 44.11600 28.07500
C  3.68700 42.89500 28.88600
O  3.07100 41.82100 28.82700
O  4.72700 43.17800 29.74600
C  5.13300 42.03200 30.58100
H  -3.46400 44.00800 26.34000
H  -1.72500 43.70500 20.15400
H  4.41100 44.83300 21.77000
H  0.37700 43.16700 29.09400
H  -1.99900 44.75600 28.35900
H  -1.56900 42.11200 29.44000
H  -2.24300 42.00700 27.79600
H  -2.98300 43.08400 28.99200
H  -0.28100 46.03700 29.32500
H  1.25100 45.80100 28.88900
H  -0.12300 45.63300 31.50700
H  1.60500 45.68000 31.15400
H  -5.88700 44.95100 23.52800
H  -5.02700 45.31000 25.08400
H  -5.61100 43.63100 24.66500
H  -6.48000 43.59700 21.95300
H  -6.39500 43.93000 20.24900
H  -6.26900 45.32700 21.36300
H  0.45500 44.62100 19.23000
H  3.03700 43.61500 19.96800
H  1.95700 41.92200 19.30200
H  0.56200 42.50400 18.30500
H  0.22600 41.67500 19.81900
H  3.01300 46.51200 20.27100
H  1.83900 46.10900 19.07400
H  4.16900 44.75300 18.26400
H  4.69700 46.42800 19.00200
H  3.60900 46.36900 17.72200
H  6.82400 44.68700 24.87700
H  6.22900 45.07300 23.18000
H  6.34800 43.38000 23.69000
H  3.53700 44.94100 28.78600
H  6.04400 42.26000 31.13300
H  5.28000 41.11900 30.00400
H  4.31700 41.82300 31.27300

