158

Mg -1.48600 16.90300 26.02200
C  -1.74900 14.68000 28.73900
C  -1.89600 19.55000 28.25600
C  -1.71800 19.06100 23.35700
C  -1.66200 14.20900 23.80700
N  -1.77700 17.07900 28.28000
C  -1.74000 16.02200 29.15900
C  -1.63600 16.55500 30.54800
C  -1.97500 18.06600 30.43900
C  -1.93900 18.28200 28.90100
C  -3.37100 18.47000 30.94700
C  -0.22100 16.35400 31.20800
C  -0.07000 15.93500 32.71900
H  -1.11800 16.20200 33.83500
N  -1.62900 19.01100 25.83900
C  -1.85900 19.92600 26.87600
C  -1.91000 21.28100 26.32600
C  -1.70800 21.17100 24.85800
C  -1.68800 19.65500 24.63700
C  -2.07800 22.55400 27.13700
C  -1.51100 22.19600 23.79900
O  -1.33400 21.91500 22.66500
C  -1.48900 23.68000 24.10900
N  -1.78400 16.69300 23.87800
C  -1.72600 17.76700 22.99500
C  -1.88900 17.22000 21.53600
C  -1.58700 15.66500 21.74800
C  -1.70100 15.47100 23.22100
C  -3.31900 17.49200 20.93700
C  -0.18300 15.07000 21.23700
C  1.12100 15.45100 22.01600
N  -1.55200 14.88400 26.21000
C  -1.64800 13.91000 25.19200
C  -1.66400 12.63800 25.88000
C  -1.58300 12.84600 27.19600
C  -1.66000 14.22700 27.39700
C  -1.81800 11.30000 25.18500
C  -1.55300 12.22800 28.52300
O  -1.57200 11.05400 28.82800
C  -1.95200 13.39100 29.49100
C  -1.23300 13.17100 30.79000
O  -0.04500 13.15000 30.92700
O  -2.15800 12.84800 31.74200
C  -1.69300 12.34000 33.02200
H  -1.76300 20.48300 28.80800
H  -1.96300 19.75800 22.55200
H  -1.89100 13.44000 23.06600
H  -2.35800 16.01500 31.16100
H  -1.24500 18.66500 30.98400
H  -3.82200 19.34600 30.48100
H  -3.17500 18.71800 31.99000
H  -4.07400 17.63900 31.00100
H  0.38900 17.24500 31.05900
H  0.36000 15.60300 30.67400
H  0.80500 16.44200 33.12600
H  -0.03300 14.84600 32.75600
H  -2.42900 22.30800 28.13900
H  -2.87400 23.11400 26.64800
H  -1.10600 23.04200 27.07400
H  -0.61500 23.79000 24.75000
H  -2.39600 24.06200 24.57900
H  -1.28500 24.38400 23.30200
H  -1.12600 17.61700 20.86700
H  -2.35700 15.05800 21.27200
H  -4.06000 17.80500 21.67300
H  -3.63800 16.56700 20.45700
H  -3.19800 18.28200 20.19700
H  -0.13000 15.57700 20.27300
H  -0.27900 13.98800 21.14600
H  1.46700 14.50900 22.44100
H  0.79500 16.16500 22.77200
H  1.94500 15.76200 21.37300
H  -2.73500 11.24200 24.59900
H  -1.86900 10.60000 26.02000
H  -0.93400 11.05300 24.59600
H  -3.01300 13.34200 29.73900
H  -1.41800 11.29100 32.91100
H  -2.41700 12.31300 33.83600
H  -0.85200 12.92900 33.38900
Mg 52.89700 23.58400 44.97100
C  50.11400 25.60600 44.26700
C  51.13800 20.98400 43.59300
C  55.64800 21.71500 45.04100
C  54.64100 26.51100 45.83400
N  50.97800 23.45700 43.78900
C  50.01400 24.37300 43.57500
C  48.90500 23.81000 42.62200
C  49.08900 22.24200 42.87200
C  50.50100 22.18700 43.43300
C  48.15300 21.60200 43.96900
C  49.02300 24.25700 41.20100
C  47.78600 24.61600 40.41000
H  47.30100 23.56200 39.45900
N  53.34300 21.52200 44.59500
C  52.50200 20.62700 44.02400
C  53.05200 19.32300 43.94500
C  54.35200 19.43300 44.46000
C  54.50600 20.91700 44.83000
C  52.29500 18.17300 43.29300
C  55.40100 18.37600 44.64200
O  55.17100 17.17600 44.42200
C  56.80100 18.55200 45.25900
N  54.86600 24.12000 45.22500
C  55.80400 23.11000 45.28600
C  57.18200 23.76200 45.56600
C  56.87000 25.25500 45.83000
C  55.36300 25.35400 45.55000
C  58.04400 23.09900 46.75900
C  57.67600 26.21800 44.99100
C  58.38200 27.41000 45.69800
N  52.51000 25.69000 45.14000
C  53.35800 26.75200 45.56300
C  52.44500 27.89000 45.82000
C  51.15700 27.46600 45.34400
C  51.25600 26.15100 44.89100
C  52.80500 29.16900 46.48600
C  49.77500 27.84900 45.14200
O  49.22600 28.86400 45.49900
C  49.01200 26.64700 44.42300
C  48.45500 27.18300 43.15700
O  49.09700 27.57000 42.20200
O  47.10100 27.31300 43.32200
C  46.44800 28.04800 42.21600
H  50.49100 20.15700 43.29200
H  56.53300 21.07600 45.00300
H  55.33900 27.26400 46.20500
H  47.92100 24.06900 43.01400
H  49.00600 21.68000 41.94200
H  47.49100 22.36800 44.37400
H  48.72200 21.12200 44.76400
H  47.54000 20.81000 43.53900
H  49.47900 23.46000 40.61400
H  49.69900 25.11000 41.26400
H  47.94400 25.54900 39.86800
H  47.00700 24.83400 41.14000
H  52.30400 18.30200 42.21100
H  51.27800 18.14200 43.68300
H  52.77400 17.24200 43.59500
H  57.10700 17.56000 45.59100
H  56.86100 19.19900 46.13400
H  57.51100 18.80700 44.47200
H  57.66300 23.62700 44.59700
H  57.00800 25.40600 46.90000
H  58.79900 22.40100 46.39600
H  57.30800 22.53200 47.32800
H  58.44200 23.73400 47.55100
H  57.04800 26.57100 44.17400
H  58.51400 25.72900 44.49400
H  58.00900 28.35600 45.30700
H  59.47200 27.39700 45.68100
H  58.01600 27.43600 46.72500
H  52.67300 29.91300 45.70000
H  53.86000 29.04400 46.72800
H  52.18500 29.47500 47.32900
H  48.14900 26.29300 44.98600
H  46.95800 28.97700 41.96100
H  45.44800 28.41000 42.45600
H  46.41100 27.30700 41.41800

