158

Mg 8.59000 3.06900 27.59600
C  9.84100 1.57800 30.52600
C  6.64400 5.01700 29.66100
C  7.18400 4.34300 24.92200
C  10.15400 0.58000 25.79200
N  8.13900 3.04200 29.87400
C  8.90900 2.42700 30.86400
C  8.58600 2.90000 32.29900
C  7.33000 3.94600 31.98400
C  7.41000 4.03500 30.40300
C  5.92500 3.66300 32.57200
C  9.85700 3.55700 32.92200
C  9.62000 4.31600 34.24000
H  10.49100 4.07700 35.45300
N  7.21100 4.54100 27.35300
C  6.52100 5.25800 28.30600
C  5.70200 6.27200 27.68500
C  5.91100 6.15000 26.28100
C  6.79900 4.96800 26.10900
C  4.83400 7.20800 28.38200
C  5.27500 6.91900 25.21100
O  5.46400 6.68400 24.03800
C  4.21400 7.85200 25.44800
N  8.67800 2.55000 25.70900
C  8.02400 3.23000 24.71800
C  8.28300 2.54600 23.24400
C  9.27700 1.41500 23.62600
C  9.40100 1.54700 25.15300
C  6.99100 1.97900 22.58700
C  10.55200 1.49900 22.78300
C  10.94500 0.13500 22.18200
N  9.80200 1.38700 27.98800
C  10.36900 0.47100 27.14600
C  11.21300 -0.49100 27.84500
C  11.02500 -0.09600 29.21500
C  10.19500 1.06800 29.21100
C  12.10000 -1.64600 27.28000
C  11.30800 -0.47400 30.56600
O  12.07300 -1.34900 30.96900
C  10.54900 0.54700 31.44000
C  9.73500 -0.18100 32.37900
O  8.87000 -1.03600 32.07700
O  10.14200 0.20000 33.64400
C  9.44500 -0.60100 34.73400
H  6.06100 5.66800 30.31600
H  6.76300 4.72300 23.98900
H  10.74600 -0.01200 25.09100
H  8.25800 2.08600 32.94700
H  7.56100 4.92200 32.41100
H  5.74800 4.43800 33.31800
H  5.96400 2.73900 33.14900
H  5.15700 3.70100 31.80000
H  10.26900 4.31100 32.25200
H  10.61500 2.81000 33.15600
H  8.57700 4.34500 34.55600
H  9.79900 5.35600 33.96700
H  4.79000 7.03500 29.45800
H  3.78700 7.06700 28.11300
H  5.11500 8.18700 27.99400
H  4.58300 8.70500 26.01700
H  3.42300 7.32200 25.97800
H  3.66000 8.18500 24.57100
H  8.71500 3.29300 22.57800
H  8.72700 0.49700 23.41600
H  6.24800 1.88100 23.37800
H  7.06200 0.98300 22.14900
H  6.55100 2.65300 21.85300
H  11.39300 1.64700 23.46000
H  10.45100 2.29300 22.04300
H  11.69800 -0.32400 22.82200
H  11.43100 0.43300 21.25300
H  10.06600 -0.49200 22.03300
H  11.81900 -1.86000 26.24900
H  11.99100 -2.60000 27.79600
H  13.14000 -1.33300 27.36800
H  11.33600 0.98900 32.05200
H  9.99600 -1.53900 34.79800
H  8.40100 -0.82400 34.51400
H  9.38500 -0.08400 35.69200
Mg 25.49500 0.16100 28.76400
C  27.45000 -0.23900 31.80800
C  22.80400 0.61200 30.71900
C  23.72300 0.51200 25.91200
C  28.44300 -0.26400 26.96600
N  25.21400 0.19700 31.04800
C  26.13600 0.13100 32.07900
C  25.47600 0.38500 33.48000
C  23.99800 0.75100 33.10200
C  24.01700 0.51500 31.52500
C  22.86000 0.14200 33.92300
C  26.18100 1.48000 34.29600
C  26.91900 1.11100 35.54800
H  26.60900 1.85600 36.86200
N  23.53900 0.40300 28.39700
C  22.55400 0.53900 29.32700
C  21.24800 0.77800 28.66300
C  21.48600 0.79300 27.23500
C  22.95900 0.51000 27.08500
C  19.93700 1.11000 29.37800
C  20.55700 1.00500 26.07300
O  20.95200 0.80300 24.94800
C  19.22600 1.52800 26.25000
N  25.99800 -0.08600 26.68400
C  25.10700 0.26800 25.74500
C  25.68700 0.24500 24.33400
C  27.24700 0.13900 24.63600
C  27.28800 0.01700 26.23100
C  25.26900 -1.07300 23.67900
C  28.03000 1.43200 24.13500
C  29.21200 1.22100 23.11500
N  27.47000 -0.29600 29.20100
C  28.58000 -0.46600 28.33800
C  29.79300 -0.66900 29.09600
C  29.31200 -0.51300 30.41200
C  27.95700 -0.30700 30.48200
C  31.25500 -0.84800 28.71600
C  29.88300 -0.54900 31.73900
O  31.02700 -0.77500 32.17700
C  28.67900 -0.28400 32.71300
C  28.61200 -1.34100 33.77900
O  27.87900 -2.35600 33.74300
O  29.35800 -1.02300 34.88400
C  29.17200 -1.84300 36.02800
H  21.90600 0.89700 31.27000
H  23.21400 0.66000 24.95700
H  29.40600 -0.27400 26.45100
H  25.56500 -0.52500 34.07400
H  23.83200 1.81900 33.25000
H  22.23500 -0.45100 33.25500
H  22.20200 0.92700 34.29500
H  23.24800 -0.40700 34.78100
H  25.49100 2.19400 34.74600
H  26.82900 1.91400 33.53400
H  27.97000 1.33900 35.37100
H  26.91000 0.03200 35.70600
H  19.81100 2.17200 29.16800
H  20.00500 0.94300 30.45300
H  19.02900 0.64900 28.99000
H  18.81400 1.45700 25.24300
H  19.24200 2.60100 26.44300
H  18.58200 0.96600 26.92700
H  25.34500 1.06200 23.69700
H  27.74800 -0.75200 24.25600
H  26.01600 -1.86500 23.64400
H  25.02400 -0.84200 22.64200
H  24.36400 -1.58400 24.00800
H  28.50800 1.89400 24.99900
H  27.28900 2.12700 23.74100
H  28.83500 1.38500 22.10500
H  29.55900 0.18800 23.07300
H  30.09600 1.84000 23.26700
H  31.44700 -0.13100 27.91800
H  31.39000 -1.88800 28.42000
H  31.84000 -0.59800 29.60000
H  28.86000 0.57200 33.36300
H  30.02000 -1.53600 36.63900
H  29.17000 -2.89200 35.73100
H  28.26300 -1.48200 36.50800

