158

Mg 26.91700 50.70100 27.16200
C  24.68800 51.78300 29.74800
C  28.96600 49.48200 29.77800
C  28.93000 49.52100 24.81100
C  24.90700 52.05600 24.75700
N  26.88800 50.77500 29.58700
C  25.78800 51.13400 30.30900
C  25.96300 50.65400 31.85000
C  27.38200 49.96400 31.76500
C  27.79300 50.09000 30.27600
C  28.54400 50.69400 32.56100
C  24.80000 49.69000 32.37900
C  24.27200 50.11200 33.78400
H  25.22900 50.43800 34.96100
N  28.63800 49.73700 27.24600
C  29.35000 49.36400 28.38800
C  30.64600 48.83400 27.95100
C  30.65600 48.83500 26.58200
C  29.36700 49.37500 26.16700
C  31.68400 48.49600 28.95400
C  31.84000 48.34700 25.61900
O  31.70900 48.48400 24.39900
C  32.97800 47.62100 26.15500
N  26.96200 50.85800 25.05200
C  27.82500 50.16300 24.29400
C  27.54300 50.34800 22.81000
C  26.20100 51.03600 22.78800
C  25.97000 51.36100 24.25400
C  28.66300 51.09900 22.11800
C  25.03400 50.21400 22.22600
C  24.79300 48.79300 22.77900
N  25.19300 51.73000 27.23600
C  24.48300 52.16000 26.14900
C  23.25100 52.79700 26.63100
C  23.27400 52.57900 28.02500
C  24.51500 52.04000 28.34600
C  22.08700 53.34700 25.78400
C  22.51700 52.84300 29.27700
O  21.42500 53.36100 29.54100
C  23.41900 52.26400 30.40300
C  23.64400 53.38100 31.31100
O  24.27900 54.37500 30.94000
O  23.03700 53.14400 32.54400
C  23.08600 54.17900 33.58600
H  29.67300 49.12700 30.53000
H  29.57400 48.96700 24.12300
H  24.25700 52.56400 24.04100
H  26.12400 51.55700 32.43900
H  27.34400 48.91000 32.03800
H  28.76200 50.15500 33.48300
H  28.24200 51.71900 32.78000
H  29.49600 50.80800 32.04300
H  25.08600 48.64700 32.51400
H  23.86700 49.59900 31.82200
H  23.63500 49.28400 34.09700
H  23.51000 50.88300 33.67400
H  31.51500 48.54100 30.03000
H  32.51000 49.17600 28.74400
H  32.03400 47.46500 28.92400
H  33.58600 48.22300 26.83000
H  33.50900 47.47400 25.21400
H  32.75100 46.71500 26.71600
H  27.51000 49.33200 22.41500
H  26.25400 51.97400 22.23700
H  28.85500 50.49800 21.22900
H  29.53300 51.16700 22.77100
H  28.37000 52.05500 21.68500
H  25.03400 50.15100 21.13800
H  24.05500 50.56900 22.54900
H  25.04200 48.69300 23.83600
H  25.49200 48.17600 22.21400
H  23.80900 48.37200 22.57000
H  21.80500 52.43400 25.25900
H  22.40300 54.18200 25.15900
H  21.25900 53.64700 26.42500
H  22.87700 51.44300 30.87300
H  24.13200 54.25700 33.88200
H  22.43800 53.91700 34.42200
H  22.67900 55.14300 33.27900
Mg -10.42000 40.04800 39.14000
C  -9.17800 36.85700 38.67700
C  -7.29800 41.34300 38.54800
C  -11.80100 43.08600 39.16800
C  -13.74100 38.61300 39.18100
N  -8.48200 39.16100 38.69100
C  -8.16200 37.86400 38.60000
C  -6.62500 37.68600 38.51500
C  -6.12200 39.12600 38.85100
C  -7.36600 39.95000 38.70000
C  -5.40600 39.17800 40.19200
C  -6.10100 37.04700 37.18400
C  -6.74400 37.51600 35.87300
H  -7.19900 36.50400 34.87200
N  -9.67600 41.93100 38.87300
C  -8.34300 42.27800 38.74700
C  -8.29800 43.75900 38.63000
C  -9.62600 44.27100 38.78000
C  -10.41300 43.09900 38.91600
C  -7.02300 44.54200 38.43600
C  -9.98600 45.80400 38.73500
O  -9.06800 46.60600 38.56900
C  -11.38700 46.38500 38.95000
N  -12.48800 40.76200 39.04800
C  -12.72100 42.03700 39.30900
C  -14.19500 42.36200 39.63600
C  -14.84900 41.00300 39.25300
C  -13.66500 40.04400 39.15200
C  -14.37000 42.74900 41.12600
C  -15.64500 40.96300 37.91900
C  -17.12500 40.56400 38.03000
N  -11.30500 38.10700 39.14400
C  -12.62200 37.72500 39.19100
C  -12.75100 36.24500 39.27700
C  -11.40300 35.84900 39.04200
C  -10.62000 36.99400 38.90700
C  -14.01300 35.39900 39.54600
C  -10.48900 34.70700 38.95700
O  -10.80000 33.55900 38.98100
C  -9.04900 35.37400 38.69900
C  -8.33300 34.83500 39.88800
O  -8.76700 34.90400 41.05300
O  -7.23100 34.12500 39.48600
C  -6.31700 33.64900 40.50900
H  -6.30200 41.73800 38.33600
H  -12.23700 44.08400 39.23700
H  -14.68300 38.06700 39.26100
H  -6.52600 37.04800 39.39300
H  -5.54400 39.38100 37.96200
H  -5.92400 39.88800 40.83700
H  -4.39700 39.46400 39.89600
H  -5.32200 38.24700 40.75200
H  -6.07100 35.96000 37.26900
H  -5.07600 37.40600 37.27800
H  -5.94900 38.07500 35.38000
H  -7.60600 38.16700 36.02100
H  -6.93700 45.12200 37.51800
H  -6.07400 44.00700 38.48700
H  -6.92300 45.29800 39.21500
H  -12.13200 46.09200 38.21000
H  -11.44800 47.45700 39.13900
H  -11.58000 45.88000 39.89700
H  -14.60000 43.13800 38.98600
H  -15.46600 40.69400 40.09700
H  -15.11900 42.14200 41.63500
H  -14.70300 43.78600 41.16100
H  -13.46200 42.78800 41.72700
H  -15.16700 40.15000 37.37200
H  -15.59200 41.93300 37.42500
H  -17.68700 41.40800 38.43000
H  -17.25900 39.74000 38.73000
H  -17.49700 40.22400 37.06300
H  -13.77300 34.36200 39.31300
H  -14.89700 35.79100 39.04200
H  -14.31900 35.41600 40.59200
H  -8.65500 34.78400 37.87100
H  -5.72500 34.51600 40.80200
H  -5.79000 32.92800 39.88400
H  -6.77800 33.11000 41.33700

