158

Mg 31.07000 59.21000 40.27900
C  28.46900 57.19500 39.24900
C  33.21300 56.63200 39.46600
C  33.74000 61.52800 40.12400
C  28.96500 61.90000 40.69900
N  30.83600 57.12800 39.44400
C  29.70100 56.50900 39.12600
C  29.95200 55.05700 38.67300
C  31.38800 54.81500 39.11700
C  31.88800 56.26000 39.41300
C  31.67400 53.79300 40.25600
C  29.57000 54.80100 37.23200
C  28.42600 53.74100 36.95800
H  27.79500 53.73700 35.56300
N  33.16700 59.09500 39.90300
C  33.79700 57.91300 39.59200
C  35.26700 58.16600 39.49400
C  35.42600 59.59500 39.39400
C  34.10700 60.18600 39.84300
C  36.25400 57.14200 39.24600
C  36.67700 60.36500 38.97500
O  37.71800 59.75800 38.68300
C  36.61400 61.86100 38.78300
N  31.39800 61.38800 40.48400
C  32.48300 62.10200 40.47000
C  32.35400 63.49400 41.02100
C  30.78200 63.67300 41.14600
C  30.31500 62.22900 40.74800
C  33.15200 63.90900 42.23400
C  30.18400 64.88300 40.32100
C  29.49000 65.85500 41.23400
N  29.07500 59.52700 40.07400
C  28.28400 60.63200 40.41600
C  26.95000 60.24100 40.23900
C  26.96200 58.92300 39.81000
C  28.30300 58.49000 39.67100
C  25.74400 61.08900 40.41400
C  26.11100 57.79800 39.47200
O  24.92100 57.65400 39.38900
C  27.07100 56.63800 39.08400
C  26.66300 55.43100 39.97300
O  27.30800 54.96700 40.93400
O  25.46600 54.98000 39.61600
C  24.91600 53.89600 40.38600
H  33.90700 55.81200 39.27200
H  34.50500 62.30500 40.18600
H  28.17600 62.64600 40.81300
H  29.27900 54.57700 39.38300
H  31.91900 54.54200 38.20500
H  31.86900 52.75700 39.98000
H  30.84600 53.89900 40.95600
H  32.61900 54.05000 40.73500
H  30.46200 54.45200 36.71100
H  29.29300 55.72400 36.72300
H  27.56600 53.77000 37.62700
H  28.98500 52.84200 37.21600
H  36.54200 57.11100 38.19500
H  36.02600 56.15900 39.65800
H  37.13000 57.49700 39.78800
H  36.70000 62.24500 39.79900
H  35.72900 62.15200 38.21600
H  37.40800 62.15400 38.09500
H  32.71400 64.17200 40.24800
H  30.48600 63.70700 42.19400
H  33.37900 62.93900 42.67700
H  32.56400 64.64400 42.78400
H  34.04500 64.40900 41.85700
H  29.47300 64.50800 39.58400
H  30.98300 65.37100 39.76300
H  28.51600 66.23600 40.92700
H  30.10900 66.71000 41.50600
H  29.10800 65.26500 42.06700
H  25.42700 61.12200 39.37200
H  25.97400 62.12000 40.68500
H  25.08500 60.59100 41.12500
H  26.72800 56.32100 38.09900
H  23.84500 53.71100 40.30800
H  25.07800 54.05400 41.45300
H  25.25100 52.88600 40.15400
Mg 36.42900 50.04400 25.42900
C  36.80000 48.08400 28.32200
C  35.23200 52.59000 27.44100
C  35.99200 51.80500 22.68100
C  37.44700 47.31900 23.57600
N  36.15100 50.31500 27.57500
C  36.37700 49.39200 28.58600
C  36.14500 50.04200 29.95200
C  35.50100 51.32500 29.58800
C  35.64900 51.45600 28.11500
C  34.03000 51.56000 30.07500
C  37.50100 50.09400 30.80600
C  37.46900 49.92300 32.33000
H  36.04600 49.89900 32.94800
N  35.68100 51.94100 25.07900
C  35.31200 52.87600 26.03600
C  34.87000 54.10600 25.28700
C  35.09800 53.90200 23.95100
C  35.64100 52.49600 23.85800
C  34.28200 55.29100 25.99300
C  34.87000 54.86800 22.75200
O  35.18400 54.65300 21.58900
C  34.41000 56.29400 23.05400
N  36.57700 49.59600 23.43700
C  36.41400 50.49800 22.47700
C  36.74700 49.97700 21.02600
C  37.06700 48.50700 21.31000
C  37.13700 48.48500 22.89000
C  35.67200 50.20500 19.96900
C  38.39400 48.01700 20.65400
C  39.68500 48.55600 21.41400
N  37.01700 48.09700 25.84400
C  37.38500 47.11700 24.98700
C  37.70900 45.89500 25.71300
C  37.49900 46.18600 27.09500
C  37.03000 47.59900 27.03100
C  38.13200 44.57500 25.12300
C  37.44200 45.67200 28.47500
O  37.73300 44.53800 28.86700
C  37.09300 46.91300 29.34600
C  35.83900 46.60800 30.05500
O  34.74000 47.00200 29.67300
O  36.04600 45.95400 31.23100
C  34.85200 45.74500 32.04600
H  34.84500 53.35800 28.11400
H  35.84700 52.28800 21.71200
H  37.63500 46.43100 22.96800
H  35.46800 49.40800 30.52400
H  35.99100 52.17100 30.07100
H  33.55800 50.79400 30.69000
H  33.41500 51.60900 29.17600
H  34.06900 52.52900 30.57300
H  37.93800 51.08400 30.67800
H  38.15200 49.35800 30.33300
H  38.00200 50.80800 32.67800
H  38.05500 49.04500 32.59900
H  34.98600 56.10900 25.83600
H  34.27700 55.01200 27.04600
H  33.31200 55.61600 25.61600
H  35.14900 56.93400 23.53600
H  33.48100 56.26400 23.62400
H  34.15900 56.86000 22.15700
H  37.64600 50.54700 20.79200
H  36.20600 47.85700 21.15300
H  35.51200 49.36200 19.29700
H  35.93700 51.06300 19.35100
H  34.72900 50.37600 20.48900
H  38.30000 48.34700 19.62000
H  38.41600 46.92700 20.65100
H  39.41500 49.25500 22.20500
H  40.28900 48.93300 20.58900
H  40.17300 47.70100 21.88300
H  39.00300 44.85700 24.53200
H  37.32000 44.08500 24.58700
H  38.41400 43.90400 25.93500
H  37.95000 46.98800 30.01700
H  34.40700 46.64900 32.46100
H  35.19600 45.05700 32.81800
H  34.10500 45.11500 31.56200

