158

Mg 1.70900 -1.29700 43.39800
C  5.10600 -0.25400 43.32200
C  0.96800 1.57900 41.72200
C  -1.42900 -2.42500 42.97700
C  2.82400 -4.47800 44.18400
N  2.88300 0.27400 42.53100
C  4.18700 0.59800 42.61700
C  4.62800 1.94300 42.00300
C  3.18600 2.56300 42.03000
C  2.27200 1.38000 42.07900
C  2.94200 3.73900 43.04500
C  5.15800 1.63600 40.52300
C  6.12700 2.72100 39.80000
H  5.52800 3.62000 38.65700
N  -0.02800 -0.48900 42.59100
C  -0.12400 0.71200 41.91700
C  -1.49000 0.91100 41.49200
C  -2.25400 -0.17900 41.98800
C  -1.25000 -1.08900 42.58100
C  -2.04800 2.20500 40.90300
C  -3.77100 -0.22800 42.13100
O  -4.50900 0.66100 41.70500
C  -4.49100 -1.34700 42.75800
N  0.84100 -3.18700 43.53500
C  -0.49700 -3.40200 43.31400
C  -0.80200 -4.92400 43.40400
C  0.48400 -5.45100 44.09700
C  1.46900 -4.29700 43.90500
C  -2.03300 -5.32600 44.16100
C  1.01300 -6.82900 43.66200
C  1.79300 -7.71800 44.71200
N  3.52700 -2.22400 43.71200
C  3.82100 -3.55400 43.98200
C  5.28800 -3.74300 44.04300
C  5.81400 -2.49400 43.88400
C  4.74200 -1.59400 43.61900
C  6.07100 -4.95500 44.47900
C  6.98800 -1.80300 43.90000
O  8.16200 -2.13500 44.11200
C  6.59500 -0.25000 43.42400
C  6.99000 0.57600 44.56300
O  6.77000 0.39400 45.71500
O  7.87100 1.50800 44.08500
C  8.66400 2.24700 45.10700
H  0.77400 2.56800 41.30000
H  -2.39500 -2.88000 42.74900
H  3.15600 -5.50800 44.32500
H  5.31900 2.61200 42.51400
H  3.11400 3.03200 41.04800
H  3.77200 4.43800 42.94700
H  2.86700 3.53900 44.11300
H  2.05600 4.32000 42.78600
H  4.34800 1.23500 39.91300
H  5.75500 0.73700 40.67100
H  7.04500 2.20700 39.51500
H  6.27900 3.44500 40.60100
H  -1.28700 2.97600 40.78200
H  -2.72000 2.59600 41.66700
H  -2.52500 1.91100 39.96800
H  -5.54500 -1.10000 42.88500
H  -4.02200 -1.43100 43.73800
H  -4.27900 -2.28400 42.24400
H  -0.73600 -5.31900 42.39000
H  0.32800 -5.47600 45.17500
H  -1.85300 -5.81200 45.12000
H  -2.55500 -6.19400 43.75600
H  -2.75300 -4.51300 44.24400
H  1.52200 -6.76500 42.70100
H  0.11600 -7.40400 43.43200
H  1.14000 -8.45700 45.17600
H  2.30000 -7.20800 45.53200
H  2.49700 -8.27200 44.09100
H  5.37400 -5.50200 45.11300
H  6.90900 -4.52200 45.02600
H  6.44800 -5.46600 43.59300
H  7.26700 -0.02300 42.59700
H  8.68700 3.32500 44.94700
H  9.64700 1.77900 45.05500
H  8.41900 2.12300 46.16200
Mg 49.45800 46.00400 42.34900
C  46.02300 46.54000 41.49800
C  49.13400 42.91100 41.01400
C  52.60300 45.74600 42.69700
C  49.63200 49.43900 43.20700
N  47.83100 44.89100 41.22400
C  46.48000 45.28000 41.03400
C  45.66800 44.12900 40.45100
C  46.71800 42.94400 40.40800
C  47.96700 43.58000 40.97800
C  46.31700 41.73400 41.21400
C  45.13100 44.55600 39.05600
C  43.60700 44.26900 38.68600
H  43.47800 43.36000 37.41900
N  50.74600 44.43500 42.02500
C  50.40700 43.24100 41.42800
C  51.65900 42.37200 41.48100
C  52.70100 43.15700 42.05400
C  52.03600 44.50000 42.28400
C  51.65900 40.91700 41.12500
C  54.12300 42.82900 42.09900
O  54.52600 41.79200 41.60100
C  55.19500 43.77100 42.66300
N  50.91700 47.52500 42.77900
C  52.18600 47.05500 42.87400
C  53.16100 48.24800 43.19200
C  52.14300 49.42400 43.61500
C  50.85200 48.80800 43.11600
C  54.09400 47.86100 44.39300
C  52.41200 50.85800 42.97500
C  52.57800 51.99800 44.06100
N  48.12000 47.75900 42.32000
C  48.33300 49.04000 42.72000
C  47.05100 49.76100 42.70300
C  46.10500 48.84000 42.25200
C  46.78200 47.59600 42.03500
C  47.02000 51.22700 43.27700
C  44.66500 48.61700 41.94500
O  43.66500 49.34100 42.04300
C  44.60600 47.19700 41.23300
C  43.43600 46.48000 41.82000
O  42.39900 46.27700 41.25000
O  43.75000 45.99400 43.04700
C  42.59400 45.43800 43.74600
H  49.11300 41.86600 40.69900
H  53.64000 45.54300 42.97300
H  49.66500 50.49400 43.48500
H  44.82800 43.75300 41.03600
H  46.91400 42.56400 39.40600
H  45.29400 41.71600 41.58800
H  47.02600 41.67500 42.04000
H  46.36400 40.88900 40.52700
H  45.58200 43.97600 38.25000
H  45.47400 45.56100 38.80800
H  43.04000 45.18100 38.50100
H  43.23300 43.72900 39.55600
H  52.31600 40.80200 40.26300
H  50.65000 40.57700 40.89000
H  52.07500 40.29100 41.91500
H  54.88200 44.23600 43.59800
H  55.62200 44.35900 41.85100
H  56.11500 43.20700 42.81200
H  53.80100 48.40800 42.32400
H  52.12200 49.51100 44.70100
H  53.80600 46.89900 44.81500
H  54.09900 48.63300 45.16300
H  55.08500 47.95100 43.94900
H  51.51200 51.11300 42.41500
H  53.23800 50.76100 42.27100
H  53.56700 52.43100 43.91200
H  52.48100 51.65300 45.09000
H  51.77100 52.72800 43.99200
H  47.72500 51.77800 42.65500
H  47.34400 51.24900 44.31800
H  46.03000 51.67300 43.17700
H  44.46000 47.38600 40.17000
H  42.87400 45.47100 44.79900
H  42.50100 44.41100 43.39200
H  41.70000 46.04200 43.59100

