158

Mg 42.46900 41.70100 27.17600
C  41.51900 44.18400 29.49000
C  43.56200 39.73800 29.66500
C  43.66500 39.60600 24.89000
C  41.91600 44.17400 24.63300
N  42.52400 41.93400 29.32000
C  42.00600 42.96500 30.04800
C  41.90800 42.55000 31.50700
C  42.95900 41.37400 31.54100
C  42.99600 40.93700 30.07300
C  44.33200 41.70100 32.07300
C  40.50900 42.10800 32.00200
C  40.00600 42.92200 33.22200
H  39.51900 42.09100 34.43900
N  43.22900 39.83200 27.27200
C  43.64200 39.13400 28.36900
C  43.97500 37.73600 28.05900
C  43.86500 37.72100 26.61300
C  43.59600 39.10200 26.15800
C  44.59200 36.74300 29.01000
C  44.13000 36.56700 25.63300
O  43.86300 36.68000 24.47200
C  44.67700 35.18600 26.08900
N  42.86700 41.90800 25.04100
C  43.30900 40.85700 24.35900
C  43.50200 41.30300 22.87200
C  42.79600 42.67600 22.80000
C  42.48200 42.92900 24.23800
C  45.00000 41.31900 22.33100
C  41.59200 42.79300 21.81300
C  40.30500 42.11200 22.18600
N  41.80100 43.75100 26.97500
C  41.60100 44.55600 25.92900
C  41.05700 45.86000 26.39400
C  40.99100 45.69200 27.81100
C  41.51200 44.49200 28.14100
C  40.60500 47.02400 25.53800
C  40.56300 46.31900 29.08100
O  40.03100 47.38700 29.33300
C  40.86200 45.29300 30.23600
C  41.93700 46.00900 31.13500
O  43.10100 46.28200 30.86500
O  41.36400 46.12100 32.35400
C  42.13500 46.45800 33.54200
H  43.89600 39.12500 30.50400
H  43.90500 38.95600 24.04600
H  41.68400 44.83600 23.79600
H  42.25200 43.31600 32.20300
H  42.61500 40.47600 32.05400
H  44.48300 42.77700 31.98400
H  45.08800 41.11500 31.55000
H  44.34800 41.35200 33.10500
H  40.46100 41.08800 32.38400
H  39.84100 42.21500 31.14700
H  39.12100 43.44400 32.85800
H  40.79600 43.50200 33.69800
H  44.55000 37.04000 30.05800
H  45.64700 36.52800 28.84000
H  44.21400 35.72600 28.90200
H  44.89200 34.62900 25.17700
H  43.75400 34.67300 26.35800
H  45.46700 35.22800 26.83900
H  42.95900 40.58000 22.26300
H  43.56100 43.36400 22.44000
H  45.47100 42.28700 22.50800
H  44.88200 40.99400 21.29800
H  45.35500 40.45600 22.89500
H  41.98400 42.39300 20.87800
H  41.37200 43.85600 21.71300
H  39.47000 42.80900 22.24600
H  40.37400 41.54400 23.11400
H  40.01500 41.43100 21.38600
H  40.69400 47.96500 26.08100
H  39.54800 46.95500 25.28200
H  41.14100 47.18000 24.60200
H  40.03000 44.97200 30.86200
H  41.61700 47.39700 33.73700
H  43.22300 46.41900 33.48000
H  41.83500 45.85600 34.40000
Mg 35.83100 49.16900 25.98500
C  36.30200 47.27900 28.98600
C  34.54800 51.66300 27.88900
C  35.36700 50.83300 23.11100
C  36.63200 46.25200 24.10200
N  35.52400 49.36200 28.20300
C  35.80300 48.52700 29.26300
C  35.57100 49.14000 30.65400
C  34.86600 50.49500 30.24100
C  34.91700 50.51400 28.65200
C  33.39700 50.71700 30.85900
C  36.90200 49.40100 31.43100
C  36.72400 49.49300 32.95800
H  35.32900 49.30000 33.61800
N  35.01300 50.99100 25.51300
C  34.54000 51.90300 26.42300
C  34.18100 53.14300 25.76200
C  34.35000 52.86600 24.36100
C  34.92600 51.50900 24.28000
C  33.71100 54.35900 26.45300
C  34.24100 53.79500 23.21700
O  34.48500 53.48400 22.02200
C  33.73800 55.17700 23.43700
N  35.76900 48.53000 23.85300
C  35.72800 49.50700 22.87000
C  35.89500 48.86000 21.44200
C  36.54800 47.47300 21.74400
C  36.43100 47.39600 23.34300
C  34.49100 48.84000 20.69600
C  37.95500 47.31100 21.13600
C  39.20100 47.63000 22.05400
N  36.48700 47.23100 26.41200
C  36.68200 46.14600 25.57200
C  37.14600 45.01400 26.41400
C  36.96800 45.37400 27.74600
C  36.51500 46.73200 27.66900
C  37.89300 43.81200 25.87000
C  37.13300 44.91200 29.08600
O  37.61500 43.83600 29.46000
C  36.61400 46.14100 29.97000
C  35.51600 45.67400 30.82400
O  34.32500 45.77700 30.59200
O  36.10000 45.18300 32.00100
C  35.19800 44.61800 33.01200
H  34.21100 52.51500 28.48400
H  35.11400 51.39700 22.21100
H  37.19000 45.51900 23.51600
H  34.96800 48.51400 31.31300
H  35.39900 51.41800 30.46900
H  33.23900 50.00400 31.66900
H  32.59400 50.31100 30.24400
H  33.14100 51.75300 31.08100
H  37.26900 50.36700 31.08400
H  37.62500 48.60300 31.26200
H  37.31400 50.35900 33.25800
H  37.14600 48.64900 33.50400
H  33.51300 54.21800 27.51600
H  32.73700 54.71300 26.11500
H  34.41200 55.19200 26.41200
H  32.87700 55.27800 24.09800
H  33.48000 55.66900 22.49900
H  34.59200 55.69300 23.87400
H  36.56800 49.50300 20.87400
H  36.07000 46.62700 21.25000
H  34.15100 47.81500 20.54700
H  34.59900 49.28700 19.70800
H  33.75100 49.29500 21.35400
H  37.96600 47.86200 20.19500
H  38.03400 46.25100 20.89300
H  38.97800 48.13100 22.99500
H  40.04700 48.11500 21.56800
H  39.62000 46.64500 22.25800
H  38.69100 43.64500 26.59300
H  38.26300 43.95200 24.85400
H  37.26900 42.92300 25.77900
H  37.47600 46.38600 30.59000
H  35.69900 43.72900 33.39400
H  34.23400 44.41200 32.54700
H  35.17400 45.45500 33.70900

