158

Mg 1.53800 -1.60500 44.35500
C  4.77600 -0.72400 43.40100
C  0.36000 1.27800 42.60000
C  -1.69600 -2.79600 44.37000
C  2.73300 -4.68300 45.52200
N  2.47200 0.12000 43.18600
C  3.80700 0.20900 42.93100
C  4.05600 1.51400 42.11300
C  2.70800 2.31700 42.18200
C  1.79700 1.16800 42.69000
C  2.65400 3.49600 43.19600
C  4.38600 1.15500 40.63300
C  5.53200 2.04000 40.10200
H  5.24400 2.64000 38.72700
N  -0.51400 -0.79300 43.70200
C  -0.71400 0.34800 42.98700
C  -2.09100 0.38500 42.61800
C  -2.78700 -0.73600 43.10400
C  -1.65400 -1.52100 43.76100
C  -2.62600 1.53400 41.77900
C  -4.28800 -1.10800 43.10900
O  -5.02200 -0.40400 42.42700
C  -4.87000 -2.13300 44.00100
N  0.59600 -3.45900 44.91100
C  -0.69700 -3.74000 44.83800
C  -0.92700 -5.15500 45.47600
C  0.45200 -5.82300 45.62600
C  1.35700 -4.56800 45.26400
C  -1.89300 -5.13600 46.75600
C  0.68100 -7.03700 44.73000
C  1.60600 -8.11600 45.36200
N  3.39100 -2.50300 44.64600
C  3.75400 -3.76500 45.12500
C  5.18400 -3.93100 44.99500
C  5.58600 -2.78500 44.32200
C  4.48300 -1.99100 44.11900
C  5.88800 -5.11600 45.40000
C  6.80500 -2.13200 43.80500
O  7.96900 -2.46200 43.74500
C  6.28000 -0.67200 43.27900
C  6.87700 0.47100 43.98700
O  6.75500 0.73900 45.17200
O  7.57900 1.23800 43.04500
C  8.40700 2.30200 43.65500
H  -0.03200 2.23600 42.25200
H  -2.65900 -3.30300 44.45900
H  2.96800 -5.69900 45.84600
H  4.82900 2.00900 42.70200
H  2.38500 2.69600 41.21200
H  2.37200 4.35800 42.59200
H  3.70800 3.57500 43.46300
H  2.04700 3.42500 44.09800
H  3.48400 1.19200 40.02300
H  4.65300 0.10900 40.47900
H  6.47700 1.49700 40.11400
H  5.72100 2.91900 40.71800
H  -2.89900 1.20700 40.77600
H  -2.01000 2.43300 41.80900
H  -3.54100 1.95300 42.19900
H  -5.90100 -1.85100 44.21800
H  -4.46800 -2.00000 45.00500
H  -4.90400 -3.16300 43.64600
H  -1.43100 -5.59000 44.61400
H  0.51000 -6.10000 46.67800
H  -2.86400 -5.57700 46.53000
H  -2.00800 -4.14400 47.19200
H  -1.39700 -5.65400 47.57700
H  1.25000 -6.81200 43.82700
H  -0.30200 -7.48000 44.57100
H  1.97300 -8.72400 44.53500
H  1.02500 -8.92600 45.80400
H  2.43800 -7.69200 45.92500
H  5.85800 -5.91400 44.65800
H  5.43300 -5.50400 46.31200
H  6.90100 -4.76700 45.60200
H  6.57300 -0.61100 42.23100
H  9.26800 2.55300 43.03600
H  8.75200 1.90600 44.61000
H  7.83400 3.20000 43.88600
Mg 36.57200 49.18400 25.10600
C  36.65200 47.25800 28.08900
C  35.17600 51.87700 27.01900
C  35.84300 50.87000 22.35400
C  37.67500 46.46700 23.32300
N  36.01000 49.48600 27.30300
C  36.22200 48.54200 28.32800
C  35.96700 49.19600 29.67300
C  35.31100 50.57400 29.33000
C  35.48100 50.67100 27.78900
C  33.80700 50.79400 29.83000
C  37.34300 49.44800 30.44000
C  37.32800 49.10800 31.91100
H  36.00500 49.32700 32.68200
N  35.67100 51.11000 24.68600
C  35.19300 52.01200 25.62200
C  34.73500 53.13900 24.91200
C  34.99500 52.92800 23.56700
C  35.47600 51.54500 23.51800
C  34.17400 54.38000 25.53000
C  34.88200 53.85900 22.32900
O  35.02000 53.44100 21.18300
C  34.55700 55.22800 22.50200
N  36.71500 48.76900 23.05100
C  36.37200 49.63300 22.09600
C  36.92800 49.11200 20.73000
C  37.59000 47.79700 21.06300
C  37.37000 47.68100 22.54300
C  35.79400 49.11500 19.61500
C  39.05400 47.59800 20.60000
C  40.13300 48.45900 21.31600
N  36.93700 47.29800 25.57400
C  37.47000 46.31100 24.70500
C  37.92700 45.14100 25.55500
C  37.37800 45.39600 26.81100
C  36.90200 46.77900 26.79100
C  38.44400 43.83200 25.07500
C  37.27700 44.86500 28.14200
O  37.53600 43.72900 28.51200
C  36.84800 46.06500 29.00600
C  35.52900 45.78600 29.76500
O  34.44800 45.83400 29.23200
O  35.82200 45.36300 31.06600
C  34.64900 45.12100 31.88500
H  34.73200 52.70400 27.57600
H  35.69400 51.26500 21.34700
H  38.21200 45.71300 22.74500
H  35.26400 48.64500 30.29700
H  35.86600 51.36500 29.83400
H  33.26000 49.89400 30.11000
H  33.29900 51.09500 28.91400
H  33.63800 51.64000 30.49600
H  37.71800 50.47100 30.46800
H  38.05500 48.72400 30.04400
H  37.93200 49.73300 32.57000
H  37.57500 48.06000 32.07600
H  33.69100 54.19000 26.48800
H  33.34500 54.63300 24.87000
H  34.86600 55.22100 25.58600
H  33.50600 55.25900 22.79200
H  34.57100 55.68200 21.51200
H  35.26300 55.75300 23.14600
H  37.76900 49.78500 20.56700
H  36.98900 47.04200 20.55600
H  35.80800 50.01200 18.99600
H  34.85100 49.16000 20.15900
H  35.86200 48.24000 18.96800
H  39.06600 48.00100 19.58800
H  39.43300 46.57800 20.65000
H  40.85400 48.94000 20.65400
H  40.78800 47.83400 21.92300
H  39.67500 49.23700 21.92700
H  39.48600 43.98100 24.79400
H  37.88200 43.58900 24.17300
H  38.39200 43.11100 25.89100
H  37.56300 46.30200 29.79400
H  33.93000 45.93900 31.84500
H  34.95500 45.07700 32.93000
H  34.13100 44.21800 31.56200

