158

Mg 50.33300 46.15400 42.10300
C  47.20500 47.30400 40.94400
C  49.40700 42.91800 41.02300
C  53.53100 45.22800 42.35700
C  51.24200 49.48300 42.90300
N  48.47400 45.31400 41.13600
C  47.31100 45.90000 40.80500
C  46.36800 44.95700 40.15200
C  46.95800 43.61400 40.54800
C  48.42500 43.93400 40.90200
C  46.13300 42.78100 41.63900
C  46.38500 45.24200 38.58400
C  45.01500 45.29000 37.83600
H  44.71900 44.27500 36.67100
N  51.32000 44.30000 41.77800
C  50.76000 43.10100 41.40000
C  51.81800 42.05900 41.39900
C  53.01800 42.70100 41.76500
C  52.67300 44.12100 42.02600
C  51.56900 40.67500 40.93200
C  54.37500 42.08800 41.89900
O  54.56000 41.01400 41.40900
C  55.57300 42.70700 42.60400
N  52.17900 47.22900 42.43600
C  53.32200 46.61500 42.57700
C  54.43600 47.58300 42.95300
C  53.67200 48.89900 43.37300
C  52.23500 48.51800 42.83600
C  55.46000 46.99800 43.94400
C  54.23400 50.26700 42.86300
C  54.22500 51.44100 43.95700
N  49.40100 48.04700 42.06200
C  49.90500 49.30100 42.43300
C  48.86200 50.25100 42.21900
C  47.81000 49.57400 41.56200
C  48.15800 48.19800 41.53700
C  48.98800 51.71700 42.42000
C  46.50200 49.73300 40.88100
O  45.73200 50.68000 40.63300
C  46.11600 48.31800 40.45900
C  44.77700 48.01000 41.12500
O  44.54300 47.96400 42.28900
O  43.80800 48.00900 40.19400
C  42.45600 48.28200 40.59900
H  49.22600 41.89500 40.68700
H  54.54400 44.83300 42.25400
H  51.66400 50.40300 43.31300
H  45.33100 45.12500 40.44100
H  46.97200 43.08500 39.59500
H  45.59800 41.94800 41.18500
H  45.33400 43.32200 42.14700
H  46.74000 42.38900 42.45500
H  47.02100 44.59400 37.98100
H  46.92200 46.14900 38.30500
H  44.78700 46.28200 37.44500
H  44.31100 45.07700 38.64000
H  52.08700 40.52700 39.98500
H  50.51700 40.45000 40.75300
H  51.98900 39.95600 41.63500
H  55.18500 43.19800 43.49600
H  56.08600 43.36400 41.90200
H  56.23700 41.98100 43.07100
H  54.89800 47.81400 41.99300
H  53.64100 48.87100 44.46200
H  55.81600 47.81700 44.56800
H  56.32100 46.62500 43.38900
H  54.96300 46.22700 44.53300
H  53.69100 50.48700 41.94300
H  55.28600 50.04700 42.68000
H  53.45900 52.11500 43.57500
H  55.24700 51.78400 44.12200
H  53.93300 51.17400 44.97300
H  47.99000 52.14800 42.33600
H  49.67600 52.08100 41.65700
H  49.39700 51.82100 43.42500
H  46.10300 48.33600 39.37000
H  41.73600 47.55100 40.23300
H  42.11400 49.29800 40.40200
H  42.38000 48.30800 41.68600
Mg 9.53500 48.08100 25.93500
C  7.75200 48.33100 28.93300
C  12.37500 49.17800 27.58900
C  11.31000 47.80100 23.08800
C  6.62300 47.51800 24.17900
N  9.98800 48.69300 27.86500
C  9.15400 48.58500 28.99200
C  9.88300 48.87800 30.29500
C  11.20100 49.63600 29.78600
C  11.19100 49.14100 28.30600
C  11.27100 51.19700 30.00600
C  10.12800 47.65100 31.21500
C  9.66000 47.83600 32.65400
H  10.11500 46.70500 33.60300
N  11.64200 48.38000 25.43600
C  12.62200 48.83500 26.27200
C  13.88500 48.76300 25.61800
C  13.64900 48.21800 24.35000
C  12.16100 48.07100 24.22500
C  15.16500 49.04800 26.31700
C  14.59500 47.86800 23.24300
O  14.22900 47.50800 22.15000
C  16.08300 47.99500 23.42000
N  9.07000 47.73500 23.96100
C  9.93100 47.74400 22.90900
C  9.29800 47.26700 21.62200
C  7.84700 47.65600 21.90000
C  7.81300 47.59000 23.42500
C  9.91000 47.79700 20.28100
C  6.83400 46.71600 21.08600
C  5.80500 47.37000 20.19700
N  7.51500 48.05300 26.38900
C  6.49700 47.71800 25.57000
C  5.26600 47.68900 26.37800
C  5.65900 47.83700 27.73900
C  7.06900 48.08200 27.67900
C  3.83300 47.56000 26.01900
C  5.21600 47.89700 29.11800
O  4.10500 47.82100 29.63800
C  6.56900 48.11100 29.90700
C  6.73800 46.83200 30.67000
O  7.31300 45.83600 30.25500
O  6.21900 46.87600 31.90700
C  6.43700 45.72300 32.88500
H  13.22100 49.54300 28.17500
H  11.88700 47.54400 22.19700
H  5.67000 47.15400 23.79100
H  9.22400 49.53100 30.86600
H  11.98300 49.13300 30.35400
H  12.13800 51.50300 30.59200
H  10.34500 51.58500 30.42900
H  11.48700 51.86300 29.17100
H  11.17300 47.34300 31.18100
H  9.46000 46.87900 30.83300
H  8.57800 47.90000 32.76500
H  10.09600 48.77600 32.99300
H  15.15700 48.97000 27.40400
H  15.57800 49.99800 25.97700
H  15.96000 48.33900 26.08400
H  16.31800 47.18000 24.10500
H  16.54000 48.89700 23.82700
H  16.53100 47.84000 22.43900
H  9.33700 46.17900 21.67200
H  7.62900 48.67100 21.56900
H  10.74200 48.44800 20.55000
H  9.29300 48.45200 19.66400
H  10.35500 46.99300 19.69500
H  6.28000 46.06200 21.75900
H  7.30000 46.00600 20.40300
H  6.04500 47.14000 19.15900
H  5.88100 48.43700 20.40500
H  4.83500 46.96000 20.47700
H  3.67000 46.61600 25.49800
H  3.49700 48.42800 25.45200
H  3.16600 47.60500 26.88000
H  6.42000 49.01000 30.50600
H  5.49700 45.23800 33.14700
H  6.80400 46.14100 33.82300
H  7.20400 45.04200 32.51600

