158

Mg 17.51900 -0.42800 28.31100
C  16.70600 1.35700 31.16200
C  19.55400 -2.55700 30.27500
C  18.88200 -1.81700 25.38900
C  15.78800 1.87600 26.32600
N  18.19600 -0.43500 30.37200
C  17.66500 0.30200 31.37400
C  18.04900 -0.25600 32.79900
C  19.27800 -1.13500 32.48000
C  19.05600 -1.38600 30.92300
C  20.68300 -0.65500 32.71600
C  16.81100 -0.88100 33.51000
C  16.76900 -0.93200 35.07000
H  17.83200 -0.25600 35.85100
N  18.80100 -2.04500 27.90700
C  19.43900 -2.83700 28.86700
C  20.03100 -4.01700 28.19800
C  19.94300 -3.73600 26.81700
C  19.14600 -2.48300 26.63200
C  20.49000 -5.17000 29.06200
C  20.27500 -4.62100 25.75700
O  20.02800 -4.44800 24.57800
C  21.10700 -5.79500 26.02900
N  17.32800 0.04000 26.18800
C  18.01600 -0.68200 25.16700
C  17.59300 -0.15900 23.76900
C  16.54500 0.97600 24.06100
C  16.47000 0.88400 25.63600
C  18.89000 0.31000 22.88200
C  15.20900 0.91400 23.28700
C  14.79400 2.12700 22.45400
N  16.41700 1.26600 28.62400
C  15.72900 2.05100 27.74400
C  15.01800 3.03900 28.52600
C  15.36500 2.74300 29.83600
C  16.25500 1.68500 29.81500
C  14.20400 4.18300 28.09600
C  15.15100 3.22200 31.23300
O  14.46900 4.11500 31.69300
C  16.05400 2.33300 32.10200
C  16.94900 3.13600 33.03800
O  18.09000 3.51400 32.82600
O  16.23000 3.44500 34.13300
C  16.87600 4.32400 35.10400
H  20.16700 -3.31300 30.77100
H  19.20700 -2.24500 24.43800
H  15.19500 2.63000 25.80500
H  18.40000 0.59000 33.39000
H  19.10200 -2.07800 32.99700
H  21.23900 -0.73300 31.78200
H  21.19400 -1.25500 33.46900
H  20.58100 0.39700 32.98100
H  16.72000 -1.90700 33.15300
H  15.88900 -0.44700 33.12200
H  16.70600 -1.94600 35.46600
H  15.88300 -0.30900 35.19300
H  20.17600 -6.12600 28.64300
H  20.05000 -5.01300 30.04700
H  21.56700 -5.05600 29.18700
H  21.84200 -5.42500 26.74400
H  21.58200 -6.26700 25.16900
H  20.34600 -6.47600 26.41000
H  17.16100 -1.04200 23.30000
H  16.96900 1.97000 23.91500
H  19.21400 -0.42200 22.14200
H  19.72600 0.67700 23.47700
H  18.60200 1.17500 22.28500
H  14.43300 0.65500 24.00800
H  15.28600 0.04200 22.63700
H  14.87600 1.83000 21.40800
H  15.38100 3.02500 22.64200
H  13.76200 2.34800 22.72600
H  13.68300 3.98700 27.15800
H  14.79100 5.10100 28.07500
H  13.38700 4.31500 28.80600
H  15.34300 1.82700 32.75400
H  16.45700 4.02700 36.06500
H  16.74000 5.40000 34.98800
H  17.95900 4.23300 35.18400
Mg 8.78800 48.23400 25.94700
C  6.81900 48.21000 28.73200
C  11.48400 48.75200 27.90000
C  10.53500 47.57800 23.18700
C  5.84600 48.24200 23.91200
N  9.03500 48.59600 28.12100
C  8.11000 48.48700 29.05500
C  8.75200 48.77200 30.46400
C  10.14400 49.44000 30.11600
C  10.26900 48.91200 28.65200
C  10.23600 50.97200 30.07800
C  8.91000 47.44300 31.31800
C  8.50200 47.60800 32.85400
H  8.73700 46.33500 33.72900
N  10.77300 48.29800 25.59800
C  11.74600 48.42800 26.55900
C  13.07400 48.21200 25.83800
C  12.80700 47.80800 24.51100
C  11.30800 47.87700 24.37700
C  14.47700 48.22500 26.56900
C  13.76000 47.46800 23.35800
O  13.39000 47.29600 22.20000
C  15.24200 47.53200 23.56200
N  8.19800 48.21600 23.72900
C  9.13900 47.73400 22.86700
C  8.52200 47.49200 21.45300
C  7.06100 47.81800 21.66200
C  7.00500 48.21400 23.12400
C  9.24900 48.05900 20.26400
C  6.01600 46.82600 21.17100
C  5.25800 47.13800 19.82500
N  6.79500 48.18000 26.20600
C  5.68300 48.22600 25.32100
C  4.46900 48.11600 26.09300
C  4.89500 48.00400 27.47000
C  6.27800 48.03200 27.43200
C  3.10700 48.16700 25.53300
C  4.36500 47.95800 28.85400
O  3.18800 47.81600 29.28000
C  5.66300 48.09800 29.75300
C  5.66000 46.84600 30.47000
O  6.06200 45.80500 30.01500
O  5.06800 46.89700 31.69700
C  5.08600 45.68000 32.54800
H  12.35200 48.99600 28.51600
H  11.16100 47.20900 22.37200
H  4.92200 48.35600 23.34100
H  8.12900 49.48000 31.00900
H  10.93300 49.15400 30.81200
H  10.76500 51.40700 30.92600
H  9.22800 51.38000 30.00700
H  10.57200 51.32900 29.10500
H  9.92200 47.05100 31.21400
H  8.27900 46.62200 30.97900
H  7.48100 47.97300 32.96900
H  9.18000 48.38700 33.20100
H  14.35800 48.18100 27.65200
H  15.03000 49.10400 26.23900
H  14.98600 47.29500 26.31600
H  15.97000 47.47400 22.75300
H  15.53000 46.74200 24.25600
H  15.34900 48.47700 24.09500
H  8.68300 46.46000 21.14200
H  6.93000 48.68100 21.00800
H  9.49000 47.32500 19.49500
H  10.16700 48.46500 20.69000
H  8.67300 48.83900 19.76700
H  5.19000 46.61700 21.85000
H  6.62900 46.00500 20.79800
H  4.18500 47.04000 19.99200
H  5.66600 46.50000 19.04100
H  5.48600 48.16200 19.52900
H  2.86200 49.05500 24.95200
H  2.37100 48.19300 26.33700
H  2.95900 47.31100 24.87500
H  5.64400 48.93100 30.45600
H  5.77600 44.92200 32.17800
H  4.08500 45.27100 32.68500
H  5.53100 45.99300 33.49200

