158

Mg 23.25300 -5.32400 45.50000
C  25.34300 -2.99800 44.01400
C  20.71000 -4.28300 43.69300
C  21.65700 -8.25700 46.14300
C  26.31100 -6.79600 47.06200
N  23.15300 -3.97000 43.97400
C  24.06100 -3.04900 43.60700
C  23.47900 -2.06200 42.62900
C  21.96500 -2.12300 42.96500
C  21.90600 -3.59800 43.53600
C  21.47200 -1.02600 43.97900
C  23.80100 -2.32000 41.09600
C  24.80300 -1.26900 40.48800
H  25.88700 -1.79100 39.49200
N  21.41200 -6.07500 45.05700
C  20.45000 -5.45700 44.32000
C  19.28700 -6.32900 44.16600
C  19.51900 -7.50300 44.95000
C  20.92600 -7.32500 45.42200
C  17.99300 -5.79500 43.36700
C  18.51900 -8.67600 45.27900
O  17.36200 -8.57600 44.78100
C  18.79100 -9.89600 46.12300
N  23.91800 -7.19100 46.52200
C  22.96200 -8.16600 46.69900
C  23.57800 -9.35600 47.53200
C  24.97800 -8.71700 48.00900
C  25.09000 -7.55200 47.21100
C  22.62000 -9.87300 48.62500
C  26.17400 -9.72700 47.87500
C  27.21200 -9.66300 48.96200
N  25.43800 -4.95800 45.63400
C  26.48900 -5.58900 46.23800
C  27.71500 -4.78300 46.10900
C  27.31000 -3.77800 45.18200
C  25.94900 -3.93500 44.97400
C  29.09400 -5.08200 46.69300
C  27.77400 -2.64600 44.33300
O  28.93100 -2.26900 44.11900
C  26.53400 -2.22800 43.56800
C  26.37200 -0.79600 43.92300
O  26.67000 0.13900 43.15200
O  25.77300 -0.66400 45.19200
C  25.70900 0.73700 45.58900
H  19.86300 -3.70100 43.32300
H  21.10700 -9.12000 46.52500
H  27.24800 -7.19800 47.45500
H  23.92200 -1.12500 42.96800
H  21.47200 -1.99700 42.00100
H  22.15900 -0.23800 44.28700
H  21.39100 -1.63500 44.87900
H  20.53700 -0.57000 43.65400
H  22.93100 -2.25400 40.44300
H  24.30200 -3.27300 40.92800
H  25.25200 -0.75700 41.34000
H  24.32000 -0.46600 39.93200
H  17.99200 -5.93900 42.28700
H  17.89300 -4.71900 43.51500
H  17.10200 -6.22400 43.82500
H  19.70600 -10.39400 45.80100
H  17.96500 -10.55100 45.84800
H  18.83100 -9.75200 47.20300
H  23.85600 -10.12100 46.80700
H  24.99200 -8.28000 49.00700
H  21.64500 -9.38600 48.66400
H  23.17700 -9.85000 49.56200
H  22.36400 -10.90400 48.38100
H  26.76800 -9.42600 47.01200
H  25.82700 -10.75900 47.81600
H  26.87500 -9.10600 49.83500
H  28.21700 -9.39200 48.64100
H  27.34400 -10.69400 49.29100
H  29.19700 -6.14300 46.91900
H  29.35200 -4.51300 47.58600
H  29.79100 -4.87100 45.88200
H  26.85600 -2.36100 42.53600
H  24.94600 0.89700 46.35100
H  25.41400 1.37600 44.75700
H  26.72200 0.87800 45.96500
Mg 26.99500 49.78100 26.31100
C  25.02400 51.05900 29.05900
C  29.34100 48.74100 28.50600
C  29.00900 49.43800 23.69700
C  24.55900 51.23400 24.26000
N  27.22200 50.17100 28.52500
C  26.29600 50.51900 29.44400
C  26.87400 50.24100 30.89200
C  28.22000 49.54800 30.61500
C  28.24500 49.47200 29.09500
C  29.52400 50.24400 31.16200
C  25.77000 49.42500 31.73000
C  26.31400 48.64100 32.93800
H  25.68300 48.81500 34.26000
N  28.98900 49.16500 26.15200
C  29.76800 48.67700 27.15500
C  30.96700 48.07800 26.63100
C  30.93500 48.44900 25.22200
C  29.58500 49.05600 24.97500
C  31.94600 47.30300 27.49500
C  31.95800 48.18500 24.17800
O  31.88100 48.64900 23.06900
C  33.02200 47.23100 24.58900
N  26.83000 50.37300 24.32800
C  27.78500 50.02100 23.42400
C  27.23700 50.30200 22.00000
C  25.75400 50.52100 22.13100
C  25.64400 50.62500 23.67800
C  27.85700 51.37600 21.01500
C  24.83800 49.48800 21.32900
C  24.27400 48.41100 22.21600
N  25.18300 50.87800 26.55300
C  24.31600 51.48700 25.63200
C  23.21500 52.14000 26.25600
C  23.52600 52.02700 27.66400
C  24.63500 51.22200 27.79700
C  22.00200 52.79200 25.61800
C  23.02400 52.33500 28.93000
O  21.98500 52.94600 29.26000
C  23.96000 51.71100 29.92600
C  24.58100 52.82500 30.78200
O  25.56700 53.56300 30.50900
O  23.79500 53.00900 31.87500
C  24.19400 54.14300 32.64900
H  30.03800 48.21700 29.16400
H  29.58900 49.18400 22.80700
H  23.98800 51.59700 23.40300
H  27.11600 51.09200 31.52900
H  28.22200 48.49500 30.89500
H  30.12100 49.61400 31.82200
H  29.16500 51.07400 31.77100
H  30.24300 50.50500 30.38500
H  25.26300 48.77200 31.02000
H  25.13100 50.19200 32.16600
H  27.39500 48.73500 33.04400
H  26.10200 47.58200 32.78900
H  31.64400 47.23700 28.54100
H  32.87100 47.87700 27.55400
H  32.18100 46.29800 27.14500
H  33.67500 47.15300 23.72000
H  32.53200 46.27100 24.74700
H  33.61200 47.58800 25.43400
H  27.29800 49.29500 21.58700
H  25.40900 51.46900 21.71800
H  28.78500 51.74900 21.44800
H  27.20100 52.20700 20.75600
H  28.13300 50.87800 20.08600
H  25.32800 48.93000 20.53100
H  23.97100 49.95700 20.86300
H  24.57900 48.57600 23.25000
H  24.74200 47.46100 21.95700
H  23.19200 48.28400 22.18600
H  21.96000 53.73500 26.16400
H  21.11100 52.18200 25.76700
H  22.14200 53.01000 24.56000
H  23.41800 50.97800 30.52500
H  25.03100 53.95900 33.32200
H  23.27900 54.32600 33.21300
H  24.36200 55.08300 32.12400

