158

Mg 17.23200 -2.12200 27.41500
C  15.98200 -0.01400 30.07700
C  19.21700 -3.54800 29.82500
C  18.66900 -3.98600 24.96200
C  15.60400 -0.10900 25.19400
N  17.58300 -1.76800 29.69100
C  16.90600 -0.91500 30.54500
C  17.32500 -1.14400 32.00100
C  18.52900 -2.12000 31.82000
C  18.54000 -2.44100 30.33900
C  19.91600 -1.54500 32.17900
C  16.15300 -1.79300 32.83800
C  16.23600 -1.63000 34.39200
H  17.44000 -0.82300 35.02100
N  18.62200 -3.69700 27.42700
C  19.39300 -4.09100 28.52300
C  20.16500 -5.28800 28.13900
C  19.92800 -5.51100 26.72900
C  19.05000 -4.42000 26.31500
C  21.01100 -6.09300 29.14100
C  20.52800 -6.58000 25.72000
O  20.10800 -6.58100 24.55500
C  21.50800 -7.63200 26.13700
N  17.12000 -2.08500 25.34200
C  17.92000 -2.86600 24.51900
C  17.61400 -2.58900 23.04900
C  16.53400 -1.44600 23.13500
C  16.34400 -1.21800 24.66300
C  18.92500 -2.28700 22.32600
C  15.27600 -1.85400 22.30900
C  13.93000 -2.13000 23.10500
N  16.01000 -0.47400 27.53000
C  15.34200 0.20300 26.51900
C  14.55300 1.23900 27.04600
C  14.72900 1.17800 28.44200
C  15.58000 0.07900 28.70200
C  13.88900 2.34300 26.25400
C  14.43200 1.79500 29.73500
O  13.71400 2.82500 29.92400
C  15.17700 0.93600 30.82400
C  15.98100 1.82200 31.68400
O  17.10600 2.21100 31.50600
O  15.23300 2.17800 32.76900
C  15.84600 3.17700 33.67700
H  19.96600 -3.83300 30.56700
H  19.16700 -4.55900 24.17800
H  15.08000 0.54100 24.49000
H  17.64000 -0.17600 32.39100
H  18.36100 -3.04100 32.37900
H  19.74600 -0.52400 32.52300
H  20.51600 -1.42900 31.27600
H  20.39900 -2.06100 33.00900
H  16.09100 -2.82900 32.50400
H  15.23200 -1.28800 32.54900
H  16.29600 -2.66400 34.73100
H  15.25100 -1.26400 34.68300
H  20.61600 -6.15700 30.15500
H  22.03500 -5.72500 29.06900
H  21.19200 -7.10600 28.78100
H  21.07500 -8.38500 26.79600
H  22.36000 -7.10300 26.56400
H  21.91100 -8.09500 25.23600
H  17.27500 -3.47500 22.51300
H  17.03800 -0.54300 22.79000
H  19.76100 -2.40200 23.01600
H  18.92600 -1.25300 21.98200
H  19.12000 -2.93800 21.47400
H  15.41100 -2.74600 21.69700
H  15.12100 -1.01100 21.63600
H  14.20300 -2.38900 24.12800
H  13.59200 -3.05100 22.63100
H  13.14600 -1.37300 23.07100
H  13.34100 3.04500 26.88400
H  13.27100 1.88300 25.48300
H  14.67000 2.97500 25.83300
H  14.44100 0.37500 31.40100
H  15.80800 4.15200 33.19100
H  16.88400 2.91200 33.87900
H  15.30500 3.26600 34.61900
Mg 7.07700 53.81000 40.95400
C  6.63800 50.24300 40.52400
C  10.13400 53.50000 39.73300
C  7.04400 57.05200 40.33500
C  3.45000 53.80900 41.57700
N  8.21400 52.06800 40.16600
C  7.91400 50.75800 40.16400
C  9.14700 49.87600 39.76900
C  10.29900 50.88800 40.00200
C  9.48300 52.27800 39.94600
C  11.15700 50.78200 41.25500
C  9.06000 49.28500 38.34900
C  8.81100 50.25100 37.23200
H  7.41700 50.31600 36.52100
N  8.41600 55.15800 40.20200
C  9.67100 54.81700 39.80500
C  10.36900 56.02800 39.40800
C  9.51100 57.15600 39.55500
C  8.28700 56.51000 40.10600
C  11.78600 56.01400 38.95100
C  9.81900 58.65600 39.26900
O  10.90300 59.02200 38.79800
C  8.80000 59.78600 39.54000
N  5.42800 55.16700 40.81900
C  5.77000 56.45900 40.71800
C  4.52500 57.31000 40.85200
C  3.36700 56.25100 41.11400
C  4.10400 54.92000 41.09500
C  4.64600 58.41700 41.89300
C  2.17400 56.35500 40.12600
C  0.87300 56.58000 40.94400
N  5.36500 52.35300 41.21200
C  4.01400 52.48900 41.52900
C  3.42300 51.21500 41.67200
C  4.36900 50.34900 41.32000
C  5.53600 51.00900 40.98100
C  2.00500 50.98500 42.12500
C  4.71400 48.94000 41.22000
O  4.04500 47.98900 41.58800
C  6.14300 48.74300 40.65600
C  5.94900 48.06900 39.34000
O  5.43000 48.55000 38.36400
O  6.50600 46.79300 39.40900
C  6.27600 45.88400 38.25500
H  11.13600 53.40500 39.30800
H  7.03400 58.13000 40.15500
H  2.41900 53.97700 41.89600
H  9.20400 49.03700 40.46300
H  10.94500 50.93800 39.12500
H  10.88600 49.89900 41.83300
H  10.97400 51.62700 41.91900
H  12.19900 50.68100 40.95000
H  8.24900 48.55700 38.30600
H  9.91300 48.64900 38.11000
H  9.54700 49.97200 36.47700
H  9.03900 51.28500 37.49000
H  12.24200 57.00400 38.98400
H  11.98900 55.43100 38.05300
H  12.30700 55.46900 39.73800
H  7.85200 59.68200 39.01100
H  9.26400 60.71100 39.19700
H  8.51300 59.85100 40.59000
H  4.35900 57.76400 39.87500
H  3.02400 56.31000 42.14700
H  3.94500 58.27000 42.71500
H  4.72000 59.36700 41.36500
H  5.64300 58.33700 42.32500
H  2.00000 55.44300 39.55400
H  2.32700 57.22300 39.48500
H  0.87000 56.16700 41.95300
H  0.05900 56.00400 40.50500
H  0.63800 57.64400 40.93200
H  1.52500 50.53100 41.25800
H  1.47200 51.90900 42.35300
H  2.00500 50.34200 43.00500
H  6.82400 48.12900 41.24600
H  7.20700 46.03500 37.70900
H  5.39000 45.98500 37.62700
H  6.38800 44.87100 38.64200

