158

Mg 1.28300 -2.83000 44.01800
C  4.55800 -2.30000 43.27200
C  0.35500 -0.13800 42.04100
C  -1.93300 -3.62700 44.41800
C  2.28100 -5.76600 45.71500
N  2.33100 -1.46200 42.75900
C  3.67100 -1.38900 42.72200
C  4.13500 -0.29700 41.75700
C  2.76500 0.54400 41.52500
C  1.74600 -0.42300 42.09400
C  2.77100 1.88900 42.30100
C  4.75500 -0.82400 40.44000
C  5.91500 0.04900 39.97400
H  5.80400 0.59100 38.52500
N  -0.59100 -2.01300 43.19800
C  -0.76400 -0.86900 42.46900
C  -2.16300 -0.60400 42.23400
C  -2.89400 -1.62200 42.96400
C  -1.83000 -2.52300 43.51500
C  -2.64800 0.60400 41.58300
C  -4.44400 -1.65500 43.17100
O  -5.20600 -0.79700 42.72000
C  -5.20300 -2.72000 43.96600
N  0.33200 -4.51300 44.95900
C  -1.02000 -4.53800 44.98000
C  -1.52000 -5.85200 45.66900
C  -0.13300 -6.51100 46.18800
C  0.92700 -5.60300 45.64200
C  -2.82700 -5.75900 46.63200
C  0.10300 -7.92200 45.62800
C  0.84500 -8.92500 46.56400
N  3.08200 -3.79200 44.55800
C  3.33300 -4.97400 45.28300
C  4.74500 -5.23800 45.31800
C  5.26300 -4.14700 44.60200
C  4.22000 -3.34300 44.11700
C  5.38300 -6.40700 46.03000
C  6.49000 -3.54100 44.25300
O  7.65300 -3.79900 44.64100
C  6.12100 -2.36200 43.24900
C  6.75200 -1.02600 43.66400
O  7.40500 -0.31500 42.85100
O  6.49500 -0.64500 44.98900
C  6.84000 0.70900 45.31800
H  0.00800 0.67800 41.40400
H  -2.98700 -3.90600 44.47500
H  2.53100 -6.68800 46.24500
H  4.86900 0.37600 42.20000
H  2.52600 0.81300 40.49600
H  3.72800 2.03700 42.80100
H  1.94700 1.84700 43.01200
H  2.67500 2.71700 41.59800
H  3.96500 -0.77400 39.69100
H  5.15600 -1.82300 40.61200
H  6.82400 -0.55000 40.03000
H  6.10900 0.90900 40.61500
H  -3.72100 0.77700 41.49600
H  -2.10000 0.65200 40.64200
H  -2.25400 1.48800 42.08400
H  -4.80900 -3.04300 44.92900
H  -5.16300 -3.61500 43.34500
H  -6.26600 -2.50400 44.07800
H  -2.02200 -6.36900 44.85100
H  -0.05500 -6.38100 47.26700
H  -2.49000 -6.23700 47.55200
H  -3.71600 -6.19400 46.17600
H  -2.92500 -4.70000 46.87200
H  0.72300 -7.78200 44.74200
H  -0.89900 -8.29800 45.41800
H  0.18600 -9.65600 47.03200
H  1.09200 -8.34500 47.45400
H  1.72900 -9.38800 46.12500
H  6.24900 -6.04200 46.58300
H  5.61500 -7.25700 45.38800
H  4.74700 -6.67900 46.87200
H  6.47100 -2.63700 42.25400
H  6.03100 0.86600 46.03200
H  6.65100 1.41800 44.51300
H  7.80700 0.72700 45.82100
Mg 34.57500 2.97400 29.70400
C  32.52100 4.09100 32.27800
C  37.28200 3.37200 31.79800
C  36.49200 2.62500 26.95500
C  31.70700 3.31000 27.49900
N  34.90400 3.76600 31.78300
C  33.89900 4.05400 32.69000
C  34.40600 4.04100 34.13000
C  35.95400 4.00400 33.86800
C  36.07500 3.60300 32.40200
C  36.70600 5.31100 34.26000
C  33.88400 2.77800 34.91800
C  33.53200 3.04500 36.46600
H  34.16800 4.30600 37.14300
N  36.58900 2.76300 29.47700
C  37.51000 3.01800 30.45100
C  38.86400 2.90500 29.90800
C  38.67100 2.72800 28.48400
C  37.17100 2.66300 28.23500
C  40.15700 3.15800 30.76200
C  39.63200 2.62600 27.30100
O  39.35700 2.41300 26.10800
C  41.13300 2.73400 27.63200
N  34.08900 2.87400 27.49900
C  35.12500 2.88100 26.58400
C  34.59800 2.94800 25.17700
C  33.03800 2.83900 25.36100
C  32.89100 2.99900 26.83100
C  35.12700 4.24100 24.45500
C  32.39700 1.52000 24.89500
C  32.36200 0.26500 25.78200
N  32.57300 3.44000 29.76600
C  31.47700 3.47000 28.87500
C  30.31500 3.99000 29.52600
C  30.62500 4.07700 30.90900
C  32.00600 3.85100 30.94500
C  28.95200 4.12700 28.98000
C  30.08200 4.38600 32.19500
O  28.96400 4.73900 32.47600
C  31.35500 4.40300 33.15400
C  31.46100 5.77300 33.76000
O  32.09000 6.70000 33.31700
O  30.76000 5.83000 34.86700
C  30.86900 7.10100 35.66300
H  38.15200 3.47000 32.45100
H  37.06300 2.64000 26.02500
H  30.81000 3.57400 26.93500
H  34.17700 5.03200 34.52200
H  36.40600 3.24800 34.51000
H  37.51600 4.89800 34.86200
H  36.15500 5.95900 34.94200
H  37.00200 5.85600 33.36300
H  34.61600 1.97900 34.79700
H  33.00400 2.47100 34.35200
H  33.88500 2.16700 37.00600
H  32.45800 3.03400 36.65100
H  40.17200 4.24100 30.88300
H  41.07100 2.69300 30.39400
H  39.87800 2.64900 31.68500
H  41.22800 3.68400 28.15700
H  41.60000 2.68500 26.64800
H  41.57400 1.99000 28.29500
H  34.85500 2.11300 24.52500
H  32.58500 3.76400 25.00500
H  34.65900 5.15900 24.81000
H  35.10700 4.17100 23.36700
H  36.17900 4.33600 24.72200
H  32.76300 1.18800 23.92300
H  31.33700 1.70800 24.72600
H  33.21300 0.22600 26.46200
H  32.33700 -0.64400 25.18100
H  31.47600 0.27200 26.41700
H  28.20700 3.93400 29.75300
H  28.84600 3.38600 28.18800
H  28.70700 5.09900 28.55300
H  31.11600 3.59500 33.84500
H  31.86100 7.26800 36.08200
H  30.26700 7.02400 36.56900
H  30.46800 7.94200 35.09600

