158

Mg 41.29000 8.98300 29.58700
C  43.20900 9.86100 32.46900
C  39.01600 7.54000 31.70000
C  39.52900 7.85900 26.83900
C  43.86300 9.98000 27.64500
N  41.26300 8.61400 31.84300
C  42.16500 9.06400 32.80600
C  41.61800 8.75500 34.21700
C  40.30200 7.85900 33.90700
C  40.16800 8.07200 32.36700
C  40.35400 6.37400 34.28100
C  41.29900 10.03400 35.12600
C  40.74900 9.66100 36.47500
H  41.58500 10.10600 37.76000
N  39.50300 7.85300 29.30100
C  38.73100 7.34300 30.32700
C  37.62800 6.55800 29.71600
C  37.64300 6.78600 28.30800
C  38.91400 7.50100 28.06000
C  36.49300 5.93000 30.52200
C  36.59200 6.46100 27.19600
O  36.73600 6.72900 26.00900
C  35.25100 5.89600 27.57300
N  41.76300 8.71700 27.55800
C  40.78900 8.37400 26.60800
C  41.35600 8.67800 25.18400
C  42.73800 9.39600 25.46400
C  42.74200 9.47500 26.97100
C  41.46900 7.41800 24.17800
C  42.89600 10.69300 24.65900
C  41.75700 11.62300 24.70600
N  43.14400 9.75300 29.89400
C  44.08700 10.09600 29.03300
C  45.21600 10.68900 29.76700
C  44.80300 10.68300 31.05000
C  43.54100 10.10600 31.12000
C  46.45800 11.18000 29.06200
C  45.28600 11.07000 32.36400
O  46.31100 11.66900 32.71600
C  44.22600 10.54500 33.38500
C  44.79800 9.56500 34.37000
O  44.84600 8.31400 34.37000
O  45.34500 10.29700 35.38100
C  45.97900 9.66800 36.47000
H  38.21700 7.23900 32.38200
H  38.93300 7.69800 25.93800
H  44.70500 10.36800 27.06800
H  42.33900 8.09600 34.70100
H  39.45200 8.22800 34.48100
H  41.29700 6.06700 34.73300
H  40.15300 5.71900 33.43300
H  39.55200 6.13800 34.98100
H  40.56000 10.62600 34.58600
H  42.14000 10.69700 35.33100
H  40.55300 8.59000 36.41800
H  39.78300 10.14600 36.61800
H  36.60800 5.93700 31.60600
H  36.18300 4.91100 30.28800
H  35.56000 6.45400 30.31600
H  35.51600 4.95000 28.04600
H  34.48400 5.80100 26.80400
H  34.78600 6.53700 28.32100
H  40.71900 9.25900 24.51800
H  43.58700 8.75600 25.22100
H  40.93500 6.58900 24.64200
H  42.50200 7.15000 23.95900
H  40.83100 7.69200 23.33800
H  43.00700 10.43500 23.60600
H  43.84900 11.19500 24.82900
H  41.30600 11.73300 23.72000
H  42.09900 12.64000 24.89800
H  40.99900 11.40500 25.45800
H  46.27500 12.13400 28.56800
H  46.80000 10.40700 28.37400
H  47.20200 11.33300 29.84500
H  43.77600 11.46800 33.75200
H  46.65100 8.82600 36.30500
H  45.13700 9.33600 37.07700
H  46.55400 10.33600 37.11100
Mg 26.29700 49.98600 27.16900
C  24.47900 51.27700 29.80600
C  28.72000 49.15500 29.67300
C  28.37500 49.10800 24.74400
C  24.08100 51.35600 24.84300
N  26.54500 50.28900 29.57700
C  25.62800 50.78100 30.42700
C  25.97000 50.47700 31.83200
C  27.40500 49.99500 31.76900
C  27.59200 49.72800 30.24100
C  28.52700 51.01300 32.11300
C  24.92400 49.47100 32.45100
C  24.58300 49.83900 33.89000
H  25.54100 50.39000 34.92200
N  28.27400 49.22600 27.25300
C  29.11800 49.01300 28.29400
C  30.36700 48.46400 27.80200
C  30.32600 48.44200 26.36600
C  28.97000 48.98500 26.07100
C  31.58200 48.20600 28.70500
C  31.33600 47.96600 25.35400
O  31.14500 47.97200 24.16200
C  32.60600 47.57400 25.81800
N  26.22800 50.23000 25.13300
C  27.15000 49.65400 24.34100
C  26.72100 49.74700 22.87200
C  25.20400 50.17000 23.02300
C  25.15400 50.67600 24.43000
C  27.63200 50.84900 22.22400
C  24.11700 49.03000 22.79600
C  22.81500 49.46400 22.04500
N  24.54900 51.03600 27.28100
C  23.72900 51.48700 26.23200
C  22.62600 52.17400 26.79800
C  22.77000 52.07000 28.19400
C  24.05600 51.46300 28.46700
C  21.49900 52.76000 25.97500
C  22.18400 52.32500 29.52200
O  21.17000 52.78800 29.76000
C  23.19400 51.74900 30.56100
C  23.49300 52.75100 31.52700
O  24.22500 53.74500 31.40700
O  22.75900 52.49600 32.63700
C  22.80600 53.45300 33.73200
H  29.47700 48.79200 30.37100
H  29.03500 48.85500 23.91200
H  23.19900 51.47400 24.21100
H  25.99700 51.46800 32.28400
H  27.46900 49.13400 32.43400
H  28.90400 50.80900 33.11500
H  28.10500 52.01800 32.12000
H  29.30200 51.04300 31.34700
H  25.35600 48.47200 32.38600
H  24.01300 49.48600 31.85300
H  24.13000 48.98300 34.38900
H  23.65400 50.39800 33.78200
H  31.45700 48.66500 29.68600
H  32.43700 48.76500 28.32400
H  31.72800 47.14300 28.89300
H  33.11200 46.97500 25.06100
H  32.67600 46.91100 26.68000
H  33.21000 48.47500 25.92500
H  26.74700 48.75500 22.42000
H  24.98600 50.96200 22.30600
H  28.63800 50.92900 22.63600
H  27.14400 51.81300 22.36900
H  27.81300 50.66500 21.16500
H  23.77800 48.54700 23.71200
H  24.62200 48.25600 22.21900
H  22.86300 49.52600 20.95800
H  22.35300 50.42500 22.26800
H  22.15200 48.61800 22.23000
H  21.99800 53.48500 25.33300
H  20.83800 53.34500 26.61400
H  20.99900 52.02700 25.34200
H  22.67200 50.91700 31.03300
H  23.63400 53.36400 34.43600
H  21.87900 53.23700 34.26400
H  22.81600 54.42700 33.24300

