158

Mg 24.76000 1.04700 28.75300
C  26.68400 0.60000 31.73400
C  21.99900 1.14700 30.63200
C  22.90700 1.13800 25.91200
C  27.64100 0.19200 26.93100
N  24.42000 0.78600 30.90800
C  25.32100 0.84500 31.95200
C  24.61600 1.05300 33.28900
C  23.07700 1.01200 32.88800
C  23.15200 0.91600 31.34200
C  22.17200 -0.02600 33.67100
C  25.07300 2.38100 34.06200
C  25.87900 2.07800 35.37700
H  25.67400 2.95300 36.60900
N  22.71800 1.23700 28.33500
C  21.73300 1.26900 29.24000
C  20.43300 1.36900 28.63000
C  20.66700 1.22100 27.24300
C  22.16700 1.21600 27.09700
C  19.10900 1.37800 29.48300
C  19.66200 1.07600 26.13500
O  20.03300 0.81400 25.01600
C  18.24100 1.16700 26.42000
N  25.17700 0.67000 26.73400
C  24.25800 0.90300 25.74400
C  24.98000 1.18700 24.42100
C  26.52900 0.97200 24.74700
C  26.48800 0.47300 26.16300
C  24.55300 0.22800 23.27000
C  27.52100 2.24800 24.48000
C  27.11300 3.51900 25.22200
N  26.75300 0.45900 29.14300
C  27.85200 0.19600 28.33500
C  29.04400 0.07200 29.04500
C  28.62700 0.21500 30.39700
C  27.30000 0.43400 30.44100
C  30.43600 -0.17900 28.47400
C  29.08700 0.34200 31.78400
O  30.18400 0.29300 32.21800
C  27.83200 0.65100 32.71600
C  27.92600 -0.37000 33.82400
O  27.69100 -1.52400 33.72500
O  28.46900 0.20600 34.96600
C  28.60100 -0.64800 36.11200
H  21.12100 1.24900 31.27300
H  22.38300 1.14100 24.95400
H  28.62400 0.08100 26.47000
H  24.89900 0.17900 33.87600
H  22.65900 2.00400 33.05800
H  21.42400 0.60300 34.15400
H  22.76000 -0.54400 34.42800
H  21.79300 -0.75800 32.95600
H  24.25800 3.00000 34.43500
H  25.69000 2.97400 33.38700
H  26.92500 2.27800 35.14300
H  25.78400 1.01600 35.60400
H  19.15500 1.48400 30.56700
H  18.48100 0.53500 29.19500
H  18.42900 2.14900 29.12100
H  18.04100 2.14300 26.86300
H  18.10500 0.35100 27.13000
H  17.45900 0.99400 25.68000
H  24.71200 2.20200 24.13100
H  26.92200 0.22500 24.05800
H  24.04100 -0.62400 23.71700
H  25.48400 -0.18500 22.88200
H  24.11000 0.78500 22.44400
H  27.46400 2.47800 23.41600
H  28.54200 1.99400 24.76400
H  27.93800 4.21500 25.06400
H  26.85000 3.36800 26.26900
H  26.27200 3.95900 24.68500
H  31.12900 0.12000 29.26000
H  30.62800 0.44700 27.60300
H  30.70200 -1.20900 28.23600
H  27.84000 1.62500 33.20500
H  29.57000 -0.62300 36.60900
H  28.48300 -1.69600 35.83900
H  27.80200 -0.38600 36.80500
Mg 35.48400 49.26500 26.73900
C  35.61100 47.11700 29.58100
C  34.29200 51.73400 28.75100
C  35.00800 50.94300 24.02200
C  36.25400 46.32700 24.85200
N  35.10200 49.30100 28.86700
C  35.10400 48.38600 29.84500
C  34.94300 48.91600 31.24500
C  34.23200 50.23500 30.86500
C  34.61900 50.49000 29.40500
C  32.71700 50.29800 31.06600
C  36.28200 49.17800 32.08500
C  36.32800 48.59500 33.52900
H  35.05700 48.71700 34.37100
N  34.76700 51.12300 26.39000
C  34.35900 51.99600 27.33800
C  34.19000 53.27300 26.70600
C  34.34900 53.06300 25.29300
C  34.65100 51.65600 25.16700
C  33.91700 54.51500 27.54900
C  34.35600 53.98900 24.14200
O  34.64200 53.71900 22.96700
C  33.79400 55.40200 24.38600
N  35.61600 48.70500 24.76200
C  35.46200 49.62200 23.76000
C  35.79400 49.10300 22.39300
C  36.21800 47.65500 22.67500
C  35.99900 47.54500 24.19600
C  34.73700 49.25600 21.28800
C  37.66600 47.16800 22.22900
C  38.91900 47.73500 22.78100
N  35.86900 47.14300 27.03900
C  36.22300 46.11300 26.21400
C  36.51200 44.92400 26.92000
C  36.28200 45.26600 28.25000
C  35.90000 46.64000 28.29700
C  37.15600 43.62200 26.31400
C  36.47100 44.72300 29.61800
O  36.96200 43.61100 29.97800
C  35.87600 45.89000 30.51700
C  34.58900 45.47700 31.19500
O  33.46600 45.35000 30.62000
O  34.88100 45.11600 32.45100
C  33.86900 44.38100 33.23800
H  33.83000 52.50900 29.36600
H  34.76000 51.51100 23.12300
H  36.51900 45.44200 24.27000
H  34.27100 48.27100 31.81100
H  34.53700 51.06900 31.49600
H  32.52400 51.16300 31.69900
H  32.28000 49.40900 31.52100
H  32.15100 50.53700 30.16600
H  36.51100 50.23300 32.23300
H  36.99700 48.66500 31.44100
H  37.07200 49.08800 34.15500
H  36.73500 47.58400 33.53200
H  33.66500 54.32100 28.59200
H  33.02400 54.93900 27.09200
H  34.64200 55.32800 27.49800
H  32.82000 55.46500 24.87200
H  33.70100 55.87600 23.41000
H  34.54400 55.92300 24.98100
H  36.65500 49.72800 22.15900
H  35.54600 47.01300 22.10600
H  34.55500 48.29000 20.81800
H  35.14100 49.93000 20.53300
H  33.74300 49.50200 21.66300
H  37.69100 47.30900 21.14800
H  37.67200 46.09400 22.41300
H  38.71600 47.84200 23.84600
H  39.24400 48.68400 22.35400
H  39.70800 46.98600 22.70600
H  38.19000 43.56000 26.65300
H  37.08000 43.57700 25.22700
H  36.65600 42.73400 26.70200
H  36.59100 46.08300 31.31700
H  33.90000 43.30800 33.04800
H  32.84300 44.69700 33.05000
H  34.04500 44.50300 34.30700

