158

Mg -0.85900 7.93200 27.06900
C  0.13900 9.96700 29.83800
C  -1.10200 5.29300 29.17300
C  -1.44500 6.05300 24.33000
C  -0.47600 10.78800 25.09500
N  -0.37600 7.67700 29.31500
C  -0.20300 8.65500 30.28000
C  -0.48500 8.06100 31.66700
C  -0.74400 6.53100 31.41100
C  -0.79000 6.51300 29.87300
C  0.17600 5.45100 32.02700
C  -1.71800 8.77400 32.25500
C  -1.88600 8.80900 33.81200
H  -1.03200 7.93900 34.72600
N  -1.13000 5.90800 26.84300
C  -1.17900 4.93500 27.79200
C  -1.51800 3.66100 27.19800
C  -1.74900 3.89900 25.80100
C  -1.45200 5.33700 25.57700
C  -1.44400 2.40800 28.09600
C  -2.15500 2.96300 24.69600
O  -2.17300 3.18600 23.53700
C  -2.54000 1.50300 25.16800
N  -0.92800 8.34800 24.99100
C  -1.20200 7.45200 24.02700
C  -1.29000 8.07200 22.68000
C  -1.37400 9.59000 23.00000
C  -0.90300 9.61600 24.46400
C  -0.13200 7.67600 21.67700
C  -2.81700 10.25300 22.88400
C  -3.43600 10.47500 21.52500
N  -0.33900 9.96300 27.36400
C  -0.15100 10.98800 26.44200
C  0.33200 12.14400 27.07100
C  0.51000 11.81800 28.38900
C  0.12800 10.48600 28.47300
C  0.77400 13.33400 26.32600
C  0.98100 12.24400 29.63100
O  1.61400 13.25700 29.92300
C  0.57600 11.13200 30.65300
C  1.66300 10.71400 31.51300
O  2.58300 9.93900 31.29100
O  1.48300 11.49900 32.71700
C  2.63400 11.59100 33.61700
H  -1.38800 4.51900 29.88900
H  -1.81300 5.59400 23.41000
H  -0.32200 11.65000 24.44300
H  0.33900 8.31400 32.33400
H  -1.74500 6.32200 31.78600
H  -0.33300 4.62900 32.53200
H  0.81300 5.97400 32.74000
H  0.92700 5.05800 31.34100
H  -2.62400 8.24900 31.95400
H  -1.85000 9.79100 31.88700
H  -2.91900 8.53500 34.03100
H  -1.77500 9.85400 34.10000
H  -2.46200 2.12200 28.36300
H  -0.89800 2.63800 29.01000
H  -0.98800 1.61900 27.49800
H  -3.13400 1.70800 26.05800
H  -1.57800 1.05600 25.41900
H  -3.03700 0.94500 24.37400
H  -2.28100 7.81900 22.30200
H  -0.56600 10.17800 22.56300
H  -0.01500 8.42700 20.89600
H  -0.44300 6.71800 21.25900
H  0.79100 7.62600 22.25500
H  -2.52200 11.25600 23.19500
H  -3.50700 9.82200 23.60800
H  -3.22300 11.47500 21.14700
H  -4.51000 10.31400 21.43200
H  -3.01500 9.84400 20.74200
H  1.04100 12.99500 25.32500
H  1.63600 13.75100 26.84700
H  -0.04800 14.00500 26.07700
H  -0.26200 11.53600 31.22100
H  2.65100 12.58300 34.06900
H  3.53700 11.36200 33.05100
H  2.47500 10.91800 34.46000
Mg 9.80100 47.96100 26.32400
C  7.86500 47.75900 29.37700
C  12.48100 48.90700 28.08000
C  11.42400 48.44500 23.42800
C  6.83300 47.16100 24.57800
N  10.11200 48.25500 28.56300
C  9.23300 48.16000 29.63100
C  9.96000 48.46200 30.95500
C  11.36200 49.08200 30.49100
C  11.37800 48.68000 28.96100
C  11.47800 50.62500 30.51700
C  10.10400 47.20800 31.91800
C  9.88200 47.38600 33.41100
H  10.17200 46.19400 34.38600
N  11.68300 48.42800 25.82400
C  12.69600 48.77100 26.71400
C  13.93100 48.97700 26.01000
C  13.66200 48.75700 24.61800
C  12.18200 48.54400 24.52100
C  15.21600 49.43600 26.68900
C  14.67500 48.70400 23.43300
O  14.35800 48.57700 22.29000
C  16.06600 48.65900 23.80500
N  9.14800 47.80000 24.25600
C  10.04900 48.07500 23.20900
C  9.36200 47.88300 21.84400
C  7.91900 47.27400 22.27600
C  7.94000 47.38100 23.77400
C  9.15600 49.19600 21.09400
C  7.63900 45.92000 21.66300
C  7.95900 44.86000 22.69100
N  7.89500 47.53100 26.82600
C  6.76100 47.18700 25.96300
C  5.60700 47.06900 26.75300
C  5.97900 47.26900 28.07900
C  7.34800 47.52600 28.06800
C  4.26200 46.57900 26.21800
C  5.42300 47.31200 29.40600
O  4.24500 47.08700 29.85600
C  6.71000 47.42200 30.32500
C  6.80600 46.08000 30.90300
O  7.19300 45.05800 30.29600
O  6.55200 46.05800 32.26000
C  6.95700 44.80500 32.97000
H  13.34600 49.05900 28.73000
H  11.98000 48.71700 22.52800
H  5.94300 46.87300 24.01500
H  9.33300 49.13700 31.53700
H  12.21700 48.68200 31.03500
H  11.44900 51.06900 29.52200
H  12.40300 51.00100 30.95500
H  10.67100 51.12500 31.05300
H  10.97200 46.56700 31.76600
H  9.37700 46.48500 31.54800
H  8.86000 47.69900 33.62400
H  10.43800 48.27600 33.70700
H  14.99700 49.74500 27.71100
H  15.61000 50.28000 26.12400
H  15.98300 48.66400 26.75300
H  16.18200 49.68700 24.14800
H  16.66200 48.48600 22.90800
H  16.10800 47.89900 24.58500
H  9.92500 47.11400 21.31600
H  7.13900 47.94600 21.91800
H  9.48100 50.04800 21.69100
H  8.11000 49.36800 20.83800
H  9.82200 49.12000 20.23500
H  8.19300 45.81100 20.73100
H  6.57600 46.02600 21.44900
H  7.07300 44.66200 23.29600
H  8.80000 45.10200 23.34000
H  8.04700 43.89000 22.20200
H  4.50800 45.69300 25.63200
H  3.73800 47.31700 25.61200
H  3.65800 46.29600 27.08000
H  6.63200 48.26300 31.01400
H  7.94300 44.51500 32.60500
H  6.25600 43.97600 32.87700
H  6.97200 45.05600 34.03100

