158

Mg 41.09600 9.00900 29.35900
C  42.88500 10.09600 32.20600
C  38.78100 7.57900 31.36900
C  39.54800 7.94800 26.56000
C  43.72100 10.21100 27.39100
N  40.88400 8.84400 31.63100
C  41.68600 9.41400 32.59900
C  41.12600 9.19300 34.02200
C  39.91800 8.25700 33.69500
C  39.86700 8.15000 32.15800
C  40.15000 6.88200 34.34600
C  40.70600 10.54400 34.73700
C  40.33700 10.37700 36.19500
H  41.02700 11.26300 37.25100
N  39.38300 7.89500 28.99200
C  38.52000 7.46200 29.98400
C  37.41600 6.82100 29.31900
C  37.58300 6.90400 27.85200
C  38.88300 7.65400 27.72200
C  36.32400 6.15100 30.09300
C  36.72700 6.44900 26.69600
O  36.93800 6.59000 25.52600
C  35.49300 5.84000 27.01800
N  41.67200 8.96100 27.35300
C  40.82400 8.53000 26.36800
C  41.38400 8.70700 24.90000
C  42.62800 9.64700 25.19600
C  42.70000 9.55200 26.76200
C  41.58100 7.44400 24.04900
C  42.55600 11.06100 24.60000
C  41.61400 11.98400 25.40400
N  42.96600 9.85400 29.74200
C  43.89300 10.41200 28.79200
C  44.85600 11.14000 29.45200
C  44.54900 11.00100 30.83700
C  43.38900 10.23700 30.88900
C  46.10900 11.83000 28.90200
C  45.05700 11.32100 32.12700
O  46.07400 11.91300 32.48900
C  43.89000 10.86400 33.12700
C  44.45300 9.94900 34.18100
O  45.33100 9.17700 34.04500
O  43.76700 10.16300 35.39200
C  44.03200 9.10800 36.42300
H  38.07600 7.19200 32.10800
H  39.05200 7.73500 25.61100
H  44.42300 10.75900 26.75900
H  41.77100 8.54600 34.61700
H  38.96400 8.63400 34.06300
H  40.33100 6.19200 33.52200
H  39.29600 6.55300 34.93800
H  40.95000 6.76700 35.07900
H  39.78000 10.81800 34.23100
H  41.43800 11.34000 34.60500
H  40.56600 9.33500 36.41700
H  39.27500 10.61900 36.23800
H  36.47000 5.09300 29.87700
H  35.32100 6.44800 29.78700
H  36.37100 6.38300 31.15700
H  34.87100 6.59600 27.49800
H  35.70600 4.99100 27.66600
H  35.01200 5.52800 26.09100
H  40.53400 9.22400 24.45400
H  43.59000 9.17800 24.98900
H  42.60500 7.46000 23.67600
H  40.93400 7.46900 23.17200
H  41.27500 6.54600 24.58600
H  42.10200 10.85900 23.63000
H  43.55500 11.44600 24.39500
H  41.63200 11.81600 26.48100
H  40.58100 11.85300 25.08200
H  41.78200 13.01600 25.09300
H  45.87400 12.22900 27.91500
H  46.96800 11.17400 29.04200
H  46.25900 12.66500 29.58500
H  43.28700 11.70800 33.46000
H  45.09800 9.20200 36.62800
H  43.88500 8.06700 36.13700
H  43.54800 9.40800 37.35300
Mg 47.74000 24.50900 28.08600
C  48.41600 26.80900 30.55600
C  46.62100 22.28600 30.45900
C  47.25800 22.35700 25.64800
C  49.12400 26.84000 25.69700
N  47.64000 24.62800 30.33000
C  47.84600 25.68100 31.12400
C  47.54100 25.36600 32.55000
C  47.02600 23.86400 32.50600
C  47.14300 23.52100 31.01100
C  47.92700 22.81000 33.30300
C  46.55700 26.32200 33.27300
C  45.82900 25.69600 34.49000
H  45.54100 26.60400 35.66400
N  46.99200 22.56800 28.06300
C  46.50900 21.85400 29.15100
C  46.04000 20.57500 28.63000
C  46.12200 20.57800 27.15700
C  46.80600 21.84200 26.88500
C  45.53100 19.47500 29.50200
C  45.52300 19.63000 26.13600
O  45.41100 19.85800 24.98800
C  44.79400 18.44000 26.67500
N  48.09200 24.60600 25.98700
C  47.85200 23.57300 25.18100
C  48.17200 23.87900 23.68600
C  48.54000 25.45700 23.66700
C  48.68800 25.62800 25.17100
C  49.26200 22.94600 23.06300
C  47.58800 26.43000 23.02800
C  47.78000 26.67300 21.51100
N  48.43300 26.51200 28.02500
C  48.98900 27.29300 27.02200
C  49.41900 28.52100 27.55700
C  49.24200 28.38100 28.98300
C  48.61100 27.13500 29.13100
C  50.21600 29.54800 26.85700
C  49.55800 28.99100 30.21100
O  50.11700 30.02900 30.55300
C  48.88300 28.07400 31.31400
C  49.77000 27.78200 32.55100
O  50.73300 27.04800 32.47200
O  49.37900 28.42300 33.69000
C  50.30800 28.28000 34.82800
H  46.31200 21.52700 31.18000
H  46.96600 21.64400 24.87400
H  49.49300 27.46900 24.88400
H  48.47700 25.29200 33.10400
H  46.00500 23.76500 32.87400
H  47.36700 22.27600 34.07100
H  48.81700 23.29400 33.70400
H  48.34200 22.13000 32.55900
H  45.82400 26.61800 32.52300
H  47.18500 27.14100 33.62400
H  46.45100 24.84400 34.76400
H  44.88000 25.44800 34.01400
H  44.54400 19.10100 29.23300
H  45.52600 19.86500 30.52000
H  46.30000 18.71300 29.37300
H  45.42800 17.99300 27.44100
H  44.79400 17.78600 25.80200
H  43.79000 18.74100 26.97100
H  47.26700 23.77000 23.09000
H  49.56900 25.56800 23.32400
H  49.85000 22.40000 23.80000
H  49.91400 23.48200 22.37300
H  48.91900 22.12700 22.43100
H  47.62700 27.36500 23.58700
H  46.55500 26.10200 23.14400
H  46.77900 26.61300 21.08400
H  48.49100 25.95600 21.09900
H  48.20900 27.67100 21.41900
H  50.04000 29.82800 25.81900
H  51.25100 29.22700 26.97400
H  50.23500 30.41700 27.51500
H  48.00800 28.56200 31.74300
H  50.04200 27.48500 35.52500
H  50.27300 29.17700 35.44600
H  51.33600 28.21600 34.47100

