158

Mg -1.39800 17.26600 26.21900
C  -1.94300 15.11200 28.91800
C  -1.86000 20.01800 28.20600
C  -1.61600 19.20100 23.52700
C  -1.79200 14.33600 24.08100
N  -1.80800 17.47700 28.28300
C  -1.90700 16.46800 29.30400
C  -2.03900 17.10200 30.66300
C  -2.00700 18.58900 30.35500
C  -1.89600 18.74900 28.87200
C  -3.18300 19.33400 31.06100
C  -0.98600 16.53700 31.74100
C  -0.63500 17.43900 32.89100
H  -0.32100 16.77800 34.23900
N  -1.56600 19.31300 25.94200
C  -1.76700 20.27000 26.88100
C  -1.80400 21.54100 26.25600
C  -1.67700 21.36900 24.83300
C  -1.61600 19.89600 24.70000
C  -1.92600 22.85200 27.03200
C  -1.76700 22.41500 23.71300
O  -1.72600 22.11100 22.53300
C  -1.92900 23.90600 24.03300
N  -1.47400 16.80100 24.11500
C  -1.55600 17.84300 23.24600
C  -1.79200 17.27300 21.80400
C  -1.60200 15.73000 21.89400
C  -1.57100 15.58600 23.44300
C  -3.12200 17.78600 21.13900
C  -0.35000 15.15800 21.29500
C  1.07400 15.90300 21.62000
N  -1.76300 15.16200 26.36600
C  -1.82000 14.10800 25.47800
C  -1.87600 12.87300 26.16000
C  -1.97300 13.22700 27.49800
C  -1.90400 14.59800 27.59300
C  -1.92200 11.52200 25.47300
C  -2.08100 12.73000 28.83900
O  -2.17000 11.51600 29.16400
C  -2.16400 13.92100 29.81100
C  -1.08300 13.65900 30.82700
O  0.05800 14.01700 30.68800
O  -1.62700 12.91900 31.87700
C  -0.72200 12.50400 32.94700
H  -1.85700 20.86700 28.89400
H  -1.49900 19.67600 22.55100
H  -1.96800 13.48000 23.42700
H  -2.96100 16.69900 31.08200
H  -1.02500 18.92700 30.68600
H  -3.37500 18.80600 31.99500
H  -4.10200 19.44200 30.48400
H  -2.88400 20.31200 31.43700
H  -0.09200 16.10400 31.29200
H  -1.45900 15.72800 32.29900
H  -1.39900 18.20000 33.05100
H  0.24700 17.98100 32.54900
H  -0.92500 23.25700 27.18400
H  -2.35700 22.75300 28.02800
H  -2.51100 23.60100 26.49900
H  -2.97300 24.10700 24.27200
H  -1.94100 24.40900 23.06600
H  -1.26800 24.27800 24.81600
H  -0.97600 17.71300 21.23100
H  -2.42500 15.11700 21.52600
H  -3.65800 18.47500 21.79100
H  -3.90400 17.02900 21.08100
H  -2.95400 18.15900 20.12900
H  -0.50900 15.13400 20.21700
H  -0.32700 14.10000 21.55500
H  1.28200 16.54000 20.76000
H  1.81900 15.11100 21.69900
H  1.07700 16.54600 22.50000
H  -1.35100 10.85800 26.12200
H  -1.58900 11.43900 24.43900
H  -2.95700 11.18000 25.50600
H  -3.19100 13.88800 30.17300
H  -1.30800 12.48700 33.86600
H  0.15600 13.14600 33.02800
H  -0.43200 11.46900 32.76900
Mg 46.88000 16.49400 28.23100
C  44.96700 15.74800 31.04800
C  49.23000 17.87700 30.21100
C  48.57400 17.25000 25.46400
C  44.35500 14.96000 26.16600
N  47.11400 16.74500 30.35300
C  46.18000 16.38800 31.37600
C  46.69900 16.69100 32.79600
C  48.07600 17.40100 32.44300
C  48.19800 17.29600 30.90300
C  48.18200 18.84300 33.03200
C  46.94900 15.31300 33.49600
C  46.50700 15.27200 34.97500
H  46.39500 16.54900 35.73400
N  48.68800 17.41600 27.92300
C  49.47000 17.94200 28.87500
C  50.57000 18.71200 28.22900
C  50.33500 18.55600 26.81400
C  49.17000 17.71200 26.65400
C  51.72800 19.39100 28.94100
C  51.17300 19.15800 25.67100
O  50.88900 18.97600 24.49700
C  52.37000 20.02500 25.96300
N  46.50000 16.12300 26.02200
C  47.40300 16.60200 25.19600
C  46.84400 16.41200 23.75600
C  45.70000 15.33500 24.00600
C  45.49600 15.44100 25.51600
C  46.30400 17.76600 23.14300
C  46.16200 13.83500 23.67500
C  45.13600 12.98900 22.81600
N  45.01400 15.57500 28.45000
C  44.16000 15.02800 27.57500
C  42.98700 14.45200 28.38300
C  43.24200 14.81600 29.72700
C  44.50700 15.50800 29.69900
C  41.80800 13.66700 27.93800
C  42.80400 14.67500 31.08000
O  41.80000 14.09500 31.53800
C  43.85300 15.33700 31.98400
C  43.32800 16.56000 32.59500
O  43.34800 17.69800 32.19900
O  42.85800 16.24100 33.79200
C  42.55300 17.37400 34.69900
H  50.01400 18.37800 30.78300
H  49.07300 17.72900 24.61800
H  43.60700 14.43000 25.57100
H  45.96800 17.34000 33.27700
H  48.87700 16.76600 32.82000
H  48.06000 19.55300 32.21400
H  49.08400 19.10500 33.58500
H  47.33300 18.93700 33.70900
H  47.98500 14.98400 33.57100
H  46.51700 14.48600 32.93200
H  47.19300 14.63400 35.53300
H  45.45600 14.98200 34.96700
H  52.61600 18.89300 28.55000
H  51.68800 19.24200 30.02000
H  51.71500 20.46900 28.78000
H  52.80400 20.43100 25.05000
H  53.13100 19.33500 26.32600
H  52.17800 20.78300 26.72300
H  47.58200 15.87300 23.16200
H  44.78900 15.56100 23.45200
H  47.06400 18.16300 22.46900
H  46.07500 18.53400 23.88100
H  45.47000 17.62200 22.45700
H  46.08000 13.34400 24.64500
H  47.13700 13.79400 23.19100
H  44.46800 13.59900 22.20700
H  44.43900 12.44000 23.44900
H  45.66500 12.25800 22.20500
H  41.80400 13.78000 26.85400
H  40.91800 14.11900 28.37500
H  42.14700 12.67300 28.23200
H  44.10600 14.62700 32.77200
H  43.26900 18.19300 34.62700
H  42.71900 17.09700 35.74000
H  41.55600 17.80400 34.60200

