158

Mg 40.57700 8.95500 28.80600
C  42.13200 10.07700 31.83000
C  38.23700 7.36600 30.91000
C  39.26000 7.43700 26.11900
C  43.27900 9.91900 26.93500
N  40.21900 8.91500 31.05900
C  40.94400 9.41500 32.13600
C  40.37500 9.06500 33.47700
C  39.21600 8.04500 33.05300
C  39.25100 8.07200 31.58800
C  39.35600 6.64100 33.62900
C  39.90800 10.35600 34.22200
C  40.19700 10.24100 35.72500
H  41.11600 11.28800 36.45300
N  38.90300 7.71400 28.54000
C  38.15500 7.08400 29.51900
C  37.18400 6.25300 28.93300
C  37.40700 6.32300 27.56700
C  38.55500 7.24500 27.32300
C  36.14900 5.33700 29.73600
C  36.59500 5.64600 26.50900
O  36.91000 5.67000 25.32600
C  35.36500 4.94400 26.81300
N  41.27900 8.68600 26.86700
C  40.44900 8.10600 25.94600
C  41.02600 8.21200 24.48600
C  42.30600 9.08700 24.76900
C  42.27400 9.31300 26.26000
C  41.19000 6.90700 23.76400
C  42.58500 10.34900 23.87900
C  41.86700 11.64900 24.42200
N  42.29700 9.80200 29.23900
C  43.34000 10.20400 28.38100
C  44.40800 10.91800 29.13500
C  43.93500 10.86100 30.47800
C  42.69900 10.19700 30.46600
C  45.69400 11.39000 28.55100
C  44.34000 11.14400 31.79100
O  45.39400 11.60900 32.20400
C  43.09900 10.68500 32.74500
C  43.66900 9.61700 33.64200
O  44.09100 8.47600 33.24800
O  43.83900 10.19600 34.87000
C  44.52100 9.40200 35.93200
H  37.51800 6.95200 31.61900
H  38.90100 7.00200 25.18300
H  44.16700 10.29700 26.42500
H  41.11800 8.56700 34.10100
H  38.22000 8.48000 33.13400
H  40.15100 6.56600 34.37200
H  39.61900 5.96700 32.81400
H  38.38600 6.25000 33.93400
H  38.82800 10.50000 34.16800
H  40.43300 11.22600 33.82700
H  40.55600 9.26500 36.05100
H  39.23600 10.28100 36.23800
H  36.55700 5.13000 30.72500
H  36.09100 4.35300 29.27100
H  35.18400 5.84100 29.78900
H  35.54700 3.88800 27.01200
H  34.74600 4.92500 25.91600
H  34.73900 5.28900 27.63500
H  40.34500 8.79900 23.87000
H  43.12500 8.40000 24.55600
H  40.99100 5.98800 24.31600
H  42.23500 6.93800 23.45500
H  40.53300 7.00900 22.90100
H  42.29400 10.19000 22.84100
H  43.66000 10.42300 23.71800
H  42.55900 12.37400 24.85200
H  41.17500 11.38800 25.22300
H  41.41600 12.22800 23.61700
H  45.51400 12.01300 27.67500
H  46.36300 10.57300 28.27900
H  46.04000 12.06000 29.33900
H  42.82900 11.51600 33.39600
H  44.45500 9.95500 36.86900
H  45.56700 9.19100 35.71100
H  43.99200 8.46900 36.12400
Mg 47.58900 33.85300 27.02700
C  46.17300 32.62600 29.88400
C  48.19400 36.94000 28.69500
C  48.86000 35.24900 24.06400
C  46.61500 31.09100 25.27300
N  47.29600 34.67900 29.07200
C  46.71400 33.93100 30.13200
C  47.02600 34.64500 31.47400
C  47.28600 36.05500 30.99000
C  47.71700 35.87300 29.53700
C  46.17100 37.12200 31.21500
C  48.16300 33.89100 32.14700
C  48.17800 33.92900 33.71600
H  47.23700 34.93300 34.35700
N  48.35700 35.75600 26.45800
C  48.49000 36.88800 27.28500
C  49.01000 37.98700 26.52800
C  49.20400 37.55000 25.23000
C  48.82200 36.13100 25.18000
C  49.44800 39.30900 27.17200
C  49.91700 38.24000 24.12400
O  50.26800 37.76500 23.05800
C  50.21100 39.69600 24.31400
N  47.74900 33.26300 24.97600
C  48.41500 33.93900 23.99400
C  48.37600 33.14600 22.65500
C  47.78700 31.72200 23.08500
C  47.26900 32.04200 24.51700
C  47.67600 33.87500 21.50900
C  48.80600 30.52000 23.02900
C  50.10000 30.63900 23.89400
N  46.59200 32.10100 27.45200
C  46.28900 31.02400 26.69700
C  45.58300 30.06700 27.47100
C  45.39700 30.68600 28.69800
C  46.10300 31.88300 28.69100
C  44.99800 28.78400 27.04300
C  44.83300 30.58400 30.02200
O  44.14000 29.67700 30.48700
C  45.20900 31.86900 30.76500
C  45.69900 31.57900 32.09400
O  46.58600 30.81800 32.43100
O  44.86800 32.15500 32.98300
C  44.90000 31.69100 34.38900
H  48.28300 37.83000 29.32200
H  49.39100 35.56100 23.16200
H  46.33200 30.27600 24.60400
H  46.16800 34.59800 32.14500
H  48.23500 36.44400 31.35900
H  45.27200 36.59000 31.52500
H  45.84100 37.58500 30.28500
H  46.44100 37.81500 32.01200
H  49.10000 34.32800 31.80100
H  48.18500 32.83400 31.87900
H  49.18600 34.15900 34.06200
H  48.05300 32.92700 34.12600
H  48.68000 40.08100 27.13600
H  50.42800 39.62800 26.81800
H  49.62700 39.15400 28.23600
H  49.38500 40.21200 24.80200
H  50.43000 40.09300 23.32300
H  51.16800 39.67400 24.83400
H  49.37800 32.96500 22.26900
H  46.90800 31.52000 22.47300
H  47.52000 34.95300 21.55400
H  46.67000 33.48800 21.34700
H  48.29800 33.67100 20.63800
H  49.08300 30.45300 21.97700
H  48.31900 29.56100 23.20300
H  50.33000 29.76000 24.49600
H  50.17500 31.59600 24.41000
H  50.92300 30.74300 23.18800
H  43.96700 28.73800 27.39500
H  45.54300 27.88900 27.34400
H  44.95900 28.60200 25.96900
H  44.32000 32.49500 30.84300
H  44.27300 32.31300 35.02800
H  45.94900 31.69500 34.68400
H  44.57800 30.65300 34.47100

