158

Mg 17.15500 -0.72200 28.37300
C  16.17100 1.03300 31.06500
C  19.38900 -2.41700 30.26700
C  18.39000 -2.11100 25.56500
C  15.26400 1.49500 26.33000
N  17.61600 -0.69600 30.45400
C  16.92200 -0.05900 31.39300
C  17.22000 -0.53400 32.86000
C  18.38100 -1.55800 32.58200
C  18.47200 -1.59600 31.02400
C  19.65400 -1.41800 33.49300
C  15.99500 -0.97000 33.65600
C  15.59000 -0.25200 34.98500
H  16.81600 -0.03900 35.92100
N  18.62300 -2.14700 28.00200
C  19.50500 -2.71700 28.90500
C  20.38700 -3.61300 28.20900
C  20.08900 -3.54000 26.84600
C  18.93500 -2.58600 26.73400
C  21.27800 -4.55700 28.98900
C  20.76600 -4.25000 25.69300
O  20.44100 -4.14300 24.52100
C  21.91300 -5.17300 25.87600
N  16.96700 -0.29600 26.16100
C  17.49500 -1.10900 25.21300
C  17.19900 -0.56300 23.78800
C  16.00800 0.38900 24.06500
C  16.05200 0.57400 25.61300
C  18.44300 0.00800 23.01600
C  14.62200 -0.01700 23.37200
C  13.57600 -0.67700 24.26200
N  15.89300 0.87200 28.63500
C  15.09800 1.60000 27.71400
C  14.37400 2.58800 28.45000
C  14.72200 2.35000 29.77900
C  15.72100 1.31700 29.85600
C  13.27600 3.57600 28.04100
C  14.48500 2.87400 31.10500
O  13.72900 3.68800 31.56500
C  15.46900 1.98500 32.05800
C  16.43300 2.84100 32.74700
O  17.44300 3.27600 32.25600
O  15.95900 3.14400 34.07100
C  16.68200 4.09800 34.87800
H  20.06100 -3.00200 30.89800
H  18.85900 -2.51800 24.66600
H  14.58500 2.06900 25.69600
H  17.63100 0.33500 33.37400
H  18.07100 -2.53800 32.94400
H  19.48700 -0.48400 34.03000
H  20.65200 -1.29600 33.07300
H  19.78500 -2.19700 34.24400
H  16.05100 -2.01800 33.95000
H  15.13800 -0.84300 32.99400
H  14.97100 -0.94500 35.55400
H  14.97800 0.64300 34.88000
H  21.33600 -5.55500 28.55400
H  20.92700 -4.61800 30.01900
H  22.33900 -4.30600 29.00500
H  22.53100 -4.71400 26.64800
H  22.46500 -5.32800 24.94900
H  21.55500 -6.14900 26.20300
H  16.81500 -1.34000 23.12800
H  16.20300 1.37000 23.63300
H  18.18400 0.99600 22.63400
H  18.62700 -0.73600 22.24100
H  19.35400 0.09000 23.60900
H  14.77500 -0.73300 22.56500
H  14.34400 0.96300 22.98500
H  14.10800 -1.09400 25.11800
H  13.16200 -1.53100 23.72600
H  12.77300 0.03400 24.45400
H  13.74200 4.44600 27.57800
H  12.67400 3.83800 28.91000
H  12.78800 3.07700 27.20400
H  14.90300 1.33700 32.72700
H  16.06500 4.95600 34.60900
H  17.71100 4.16100 34.52300
H  16.67600 3.74300 35.90800
Mg -2.78100 35.05800 26.85000
C  -4.66300 33.04100 29.10800
C  -1.96500 37.14500 29.43400
C  -1.03300 36.61300 24.69500
C  -4.49300 33.30200 24.27300
N  -3.14700 34.99500 28.93100
C  -3.90200 34.14300 29.66700
C  -3.70200 34.43100 31.18000
C  -2.90200 35.78400 31.28900
C  -2.71300 36.01800 29.73300
C  -3.55100 36.91300 32.08600
C  -3.07200 33.11400 31.94700
C  -3.70700 32.64400 33.22900
H  -2.89800 33.06200 34.47200
N  -1.72200 36.75900 27.01800
C  -1.41000 37.48200 28.13600
C  -0.47400 38.51200 27.83800
C  -0.18900 38.31500 26.45100
C  -0.97600 37.25100 25.99100
C  -0.10700 39.51400 28.83900
C  0.65100 39.12900 25.48800
O  0.73200 38.92400 24.25800
C  1.31800 40.38100 26.06600
N  -2.74000 34.87500 24.71100
C  -1.85000 35.69700 24.05400
C  -1.96300 35.43400 22.51400
C  -3.07700 34.34300 22.37600
C  -3.43900 34.15800 23.84300
C  -2.30800 36.78100 21.70900
C  -2.53600 33.05800 21.74500
C  -3.49300 32.32100 20.85700
N  -4.22200 33.42300 26.63200
C  -4.87000 32.85900 25.52900
C  -5.88200 31.85900 25.94200
C  -5.78800 31.89400 27.32900
C  -4.86400 32.87800 27.70700
C  -6.72200 31.07900 25.00900
C  -6.29700 31.34500 28.51600
O  -7.15300 30.50200 28.63700
C  -5.64700 32.05400 29.78000
C  -6.76800 32.69500 30.51800
O  -7.31200 33.72000 30.07100
O  -7.08900 32.16800 31.76000
C  -8.02400 33.03900 32.50100
H  -1.58000 37.68600 30.30000
H  -0.32600 36.96000 23.93900
H  -5.09300 32.76700 23.53500
H  -4.67200 34.70600 31.59500
H  -1.93700 35.69600 31.78800
H  -4.57600 36.58900 32.26500
H  -3.60400 37.89200 31.61000
H  -3.04300 37.12800 33.02600
H  -2.05300 33.47300 32.09200
H  -3.05500 32.22700 31.31300
H  -3.81400 31.56100 33.29600
H  -4.72100 33.03600 33.30500
H  0.97400 39.65100 28.86800
H  -0.35800 39.33800 29.88500
H  -0.65000 40.41600 28.55800
H  0.51500 41.09800 26.23800
H  1.94300 40.78200 25.26800
H  1.92400 40.13600 26.93800
H  -1.01800 34.98400 22.21100
H  -3.96500 34.62500 21.80900
H  -1.76800 36.82500 20.76300
H  -2.06100 37.61400 22.36700
H  -3.38900 36.84200 21.58700
H  -2.27200 32.40400 22.57500
H  -1.61700 33.13500 21.16400
H  -3.08100 31.48300 20.29500
H  -3.89200 33.02800 20.13000
H  -4.33500 31.92800 21.42800
H  -6.07800 30.70100 24.21500
H  -7.49600 31.69300 24.54800
H  -7.24600 30.33100 25.60300
H  -5.25100 31.18800 30.31100
H  -7.91700 32.94100 33.58200
H  -8.99600 32.60000 32.27700
H  -7.93500 34.11300 32.33400

