158

Mg 41.20900 9.03800 30.87800
C  43.17100 10.16700 33.62600
C  38.92000 7.83700 32.96300
C  39.42400 8.22000 28.21600
C  43.98100 9.67000 28.78300
N  41.19700 8.82500 33.00400
C  41.98500 9.50700 33.89500
C  41.41500 9.41900 35.32800
C  40.16100 8.50500 35.13500
C  40.12800 8.27500 33.61600
C  40.26400 7.18500 35.95300
C  41.00000 10.71100 36.00400
C  41.14300 10.72800 37.50700
H  41.85200 11.93500 38.08500
N  39.40900 8.14100 30.61000
C  38.59600 7.75900 31.63200
C  37.32300 7.28600 31.04500
C  37.37000 7.62100 29.64200
C  38.77500 8.08100 29.44300
C  36.27200 6.56200 31.82800
C  36.40000 7.42600 28.52600
O  36.49900 7.83000 27.36900
C  35.02000 6.92600 28.95700
N  41.77600 8.64900 28.87100
C  40.80700 8.44600 27.94500
C  41.38300 8.37500 26.52500
C  42.87100 8.79400 26.66400
C  42.89500 9.11500 28.19400
C  41.15000 6.95500 25.82900
C  43.46800 9.82700 25.71700
C  42.87400 11.25300 25.86100
N  43.16200 9.88700 31.11000
C  44.15400 10.08500 30.17300
C  45.22800 10.75500 30.76900
C  44.86700 10.87700 32.13000
C  43.67400 10.20500 32.27800
C  46.54700 11.23200 30.08400
C  45.26100 11.40700 33.38300
O  46.16200 12.14900 33.71300
C  44.19000 10.94700 34.43700
C  44.86000 10.09500 35.46600
O  45.75300 9.25200 35.28700
O  44.39400 10.49700 36.69200
C  44.82100 9.66400 37.82500
H  38.08100 7.59500 33.61900
H  38.87700 8.04200 27.28700
H  44.88600 9.78400 28.18300
H  42.17500 8.91400 35.92500
H  39.28900 8.99000 35.57300
H  40.44600 6.28800 35.36100
H  39.39100 7.01000 36.58200
H  41.03200 7.38400 36.70100
H  40.01500 11.01000 35.64600
H  41.66100 11.48600 35.61600
H  41.77200 9.90900 37.85700
H  40.13000 10.71200 37.91100
H  36.54300 6.38400 32.86800
H  36.10500 5.58500 31.37400
H  35.29000 7.03400 31.87200
H  34.58000 7.59900 29.69300
H  34.98200 5.86300 29.19500
H  34.28300 6.92400 28.15400
H  40.90300 9.06900 25.83500
H  43.52800 7.92400 26.65100
H  40.23900 6.79100 25.25500
H  41.15800 6.16300 26.57800
H  41.97400 6.64500 25.18600
H  43.42100 9.48600 24.68200
H  44.50700 9.90300 26.03700
H  42.38100 11.70000 24.99800
H  43.63500 11.95800 26.19400
H  42.09400 11.11500 26.61000
H  46.52100 11.28900 28.99600
H  47.27200 10.47900 30.39100
H  46.84400 12.20200 30.48300
H  43.78700 11.85200 34.89100
H  45.89800 9.73500 37.97900
H  44.55000 8.62400 37.64300
H  44.22800 9.96900 38.68700
Mg -12.60700 16.02200 42.31500
C  -9.56600 14.62800 41.55500
C  -11.68400 18.84200 40.44800
C  -15.79500 17.10900 41.93400
C  -13.82100 12.78100 42.98200
N  -10.83200 16.59000 41.13300
C  -9.67100 15.88200 40.96200
C  -8.63300 16.70800 40.21100
C  -9.29600 18.07600 39.86200
C  -10.72700 17.83600 40.48400
C  -8.39600 19.29500 40.31600
C  -8.03000 15.90600 38.95400
C  -6.43500 15.72800 38.91900
H  -5.78800 16.65800 37.78200
N  -13.54600 17.92400 41.66900
C  -12.98400 18.89900 40.93300
C  -13.90400 19.99600 40.72700
C  -15.11500 19.47500 41.08800
C  -14.81500 18.13300 41.61000
C  -13.53600 21.29900 40.14300
C  -16.50500 20.20200 41.02000
O  -16.66600 21.20000 40.34300
C  -17.65300 19.66200 41.80200
N  -14.57100 15.06900 42.25200
C  -15.76100 15.74400 42.22200
C  -16.94100 14.76400 42.43300
C  -16.22600 13.51900 43.17200
C  -14.77600 13.80400 42.78200
C  -18.13900 15.27700 43.30300
C  -16.74700 12.13900 42.69700
C  -16.66200 11.00300 43.72000
N  -11.84400 14.05900 42.42100
C  -12.44300 12.81200 42.73900
C  -11.38300 11.81200 42.95900
C  -10.21200 12.47200 42.54200
C  -10.59300 13.81300 42.11900
C  -11.58400 10.41700 43.48900
C  -8.83700 12.30400 42.30000
O  -8.07900 11.36700 42.49400
C  -8.31700 13.71300 41.65100
C  -7.44700 14.19500 42.68600
O  -7.84000 14.60800 43.77800
O  -6.16300 14.10700 42.26600
C  -5.11400 14.59400 43.21300
H  -11.30800 19.72500 39.92700
H  -16.82800 17.38400 41.71400
H  -14.13500 11.83300 43.42400
H  -7.83300 16.77900 40.94800
H  -9.49900 18.24300 38.80400
H  -8.35200 20.03300 39.51400
H  -7.40900 18.96700 40.63900
H  -8.74800 19.84100 41.19100
H  -8.36000 16.35000 38.01500
H  -8.45800 14.90400 38.97700
H  -6.18100 14.68000 38.76000
H  -5.96400 16.06100 39.84300
H  -13.93700 21.35200 39.13100
H  -12.45300 21.38300 40.05500
H  -13.87800 22.04400 40.86100
H  -18.26900 19.06500 41.12900
H  -18.26100 20.50600 42.12800
H  -17.21000 19.18100 42.67400
H  -17.40000 14.40300 41.51200
H  -16.44500 13.70500 44.22400
H  -18.99200 14.73100 42.89900
H  -18.28700 16.31800 43.01700
H  -18.05200 15.23800 44.38900
H  -16.05400 11.84900 41.90700
H  -17.72100 12.24000 42.21800
H  -15.97400 11.28600 44.51600
H  -16.28700 10.03700 43.38400
H  -17.64500 11.01600 44.19100
H  -11.95200 9.64700 42.81000
H  -12.19500 10.37800 44.39100
H  -10.56800 10.06300 43.66300
H  -7.76300 13.66300 40.71400
H  -5.04600 15.68100 43.21300
H  -4.12900 14.14300 43.09600
H  -5.33000 14.33800 44.25000

