158

Mg -2.41300 17.05200 26.07700
C  -2.90200 14.76500 28.83900
C  -2.90300 19.57500 28.26800
C  -2.48700 18.92200 23.41400
C  -2.65600 14.06200 23.98900
N  -2.97600 17.14700 28.30600
C  -2.97300 16.15300 29.25200
C  -3.13900 16.73600 30.66600
C  -3.18000 18.27100 30.45000
C  -3.01800 18.38100 28.89700
C  -4.55400 18.87800 30.87600
C  -1.96800 16.45800 31.68300
C  -1.81000 17.24000 33.01100
H  -2.00100 16.49500 34.26000
N  -2.55900 18.97900 25.89400
C  -2.67600 19.88500 26.87800
C  -2.53800 21.22400 26.29100
C  -2.44800 21.06200 24.92800
C  -2.45300 19.59700 24.68300
C  -2.52600 22.51500 27.16200
C  -2.21500 22.09600 23.75000
O  -2.19900 21.93200 22.56400
C  -2.08400 23.47300 24.21800
N  -2.44000 16.58100 23.97200
C  -2.38900 17.55300 23.07500
C  -2.32500 16.95900 21.67800
C  -2.20900 15.47700 21.92400
C  -2.42700 15.33900 23.42500
C  -3.57900 17.35400 20.79600
C  -0.89800 14.84400 21.38300
C  0.33700 14.98900 22.26200
N  -2.73700 14.80100 26.22800
C  -2.87400 13.80300 25.29600
C  -2.99600 12.52000 26.04200
C  -3.02400 12.80900 27.40100
C  -2.82300 14.20700 27.48900
C  -2.98900 11.10600 25.39800
C  -3.12900 12.25000 28.72600
O  -3.19700 11.10500 29.10600
C  -3.03800 13.51100 29.72800
C  -1.86900 13.26900 30.61900
O  -0.76700 13.77200 30.37700
O  -2.28800 12.49800 31.65100
C  -1.33700 12.11500 32.68700
H  -3.05500 20.46400 28.88500
H  -2.48200 19.48100 22.47600
H  -2.77200 13.19400 23.33700
H  -4.12500 16.47600 31.05000
H  -2.32200 18.80700 30.85400
H  -4.23300 19.71900 31.49000
H  -5.22300 18.26200 31.47700
H  -5.20300 19.28000 30.09800
H  -1.05200 16.64000 31.12200
H  -2.08300 15.41400 31.97600
H  -2.52400 18.06200 32.96500
H  -0.82700 17.69800 32.90600
H  -2.41700 22.26200 28.21700
H  -3.42300 23.08000 26.91200
H  -1.62000 23.08800 26.96400
H  -2.89000 23.75400 24.89600
H  -2.16300 24.13100 23.35200
H  -1.11600 23.54300 24.71300
H  -1.44400 17.33900 21.16200
H  -3.00100 14.87800 21.47400
H  -4.16900 18.20800 21.12900
H  -4.40400 16.64900 20.89800
H  -3.16900 17.35400 19.78600
H  -0.59400 15.31600 20.44900
H  -1.10400 13.78200 21.25100
H  0.00200 15.30700 23.24900
H  1.02700 15.74500 21.88700
H  0.84300 14.03300 22.39000
H  -4.01800 10.88500 25.11500
H  -2.63600 10.40100 26.15000
H  -2.21300 11.08100 24.63300
H  -3.94000 13.54300 30.33800
H  -1.66700 11.24500 33.25300
H  -1.11900 12.92000 33.38900
H  -0.35200 11.80100 32.34100
Mg 25.22300 0.38000 29.42700
C  27.10200 -0.33000 32.44500
C  22.41300 0.56100 31.32600
C  23.39200 0.38000 26.64000
C  28.12200 -0.40200 27.59100
N  24.87800 0.16500 31.66100
C  25.78100 0.00100 32.66700
C  25.11800 0.26800 34.04300
C  23.58000 0.39300 33.74300
C  23.60600 0.39100 32.15700
C  22.63600 -0.77000 34.35000
C  25.73800 1.46700 34.75800
C  26.54700 1.04200 36.01400
H  26.29700 1.89100 37.27100
N  23.15500 0.54200 29.08000
C  22.16100 0.61900 29.94900
C  20.88800 0.69200 29.27400
C  21.15100 0.62300 27.88200
C  22.67200 0.56200 27.82800
C  19.54300 0.66500 29.98500
C  20.21000 0.77000 26.77900
O  20.46600 0.64500 25.60500
C  18.79700 1.14400 27.12100
N  25.67000 -0.00400 27.45200
C  24.79000 0.16100 26.45200
C  25.45100 0.04200 25.04400
C  26.92600 0.05000 25.42800
C  26.87700 -0.10000 26.94800
C  24.89800 -1.24000 24.33700
C  27.76000 1.27700 24.87800
C  27.91900 2.47100 25.86000
N  27.26600 -0.12200 29.91400
C  28.30700 -0.44800 29.06400
C  29.47900 -0.90400 29.87300
C  29.08600 -0.77500 31.20200
C  27.72000 -0.31100 31.18200
C  30.91000 -1.20300 29.38300
C  29.47800 -1.02600 32.57400
O  30.57600 -1.43600 33.01300
C  28.30900 -0.61700 33.44000
C  28.08000 -1.77800 34.40700
O  27.14000 -2.58700 34.38900
O  28.96400 -1.60600 35.46500
C  28.80100 -2.51100 36.67500
H  21.57600 0.68100 32.01700
H  22.81800 0.58100 25.73300
H  28.96500 -0.61700 26.93100
H  25.15800 -0.60800 34.69100
H  23.37300 1.41400 34.06500
H  22.02000 -0.98400 33.47600
H  21.97200 -0.34700 35.10400
H  23.15700 -1.60600 34.81500
H  24.92200 2.09900 35.10900
H  26.38600 2.11300 34.16700
H  27.52500 1.43600 35.73800
H  26.59300 -0.03400 36.18200
H  18.96800 1.57000 29.79100
H  19.73100 0.54500 31.05200
H  19.01400 -0.21800 29.62600
H  18.16900 1.40000 26.26800
H  18.86400 2.02500 27.76000
H  18.35500 0.27600 27.60900
H  25.15900 0.98700 24.58500
H  27.34700 -0.89900 25.09700
H  24.24700 -1.74500 25.05100
H  25.68200 -1.95600 24.09000
H  24.32800 -0.84600 23.49600
H  27.34100 1.73800 23.98400
H  28.70800 0.91400 24.48100
H  27.38700 2.48400 26.81100
H  27.63700 3.40500 25.37300
H  29.00500 2.49900 25.94500
H  31.11300 -0.53600 28.54500
H  31.10100 -2.21600 29.02800
H  31.63000 -1.10700 30.19600
H  28.62500 0.20900 34.07700
H  28.15800 -2.00700 37.39500
H  29.72200 -2.75500 37.20500
H  28.26600 -3.41900 36.39500

