158

Mg 30.12700 58.90300 38.56300
C  27.24100 57.05100 37.76800
C  32.05000 56.28700 37.64800
C  32.88700 60.95100 38.52100
C  28.01900 61.76600 38.85100
N  29.63100 57.04400 37.64500
C  28.41000 56.37000 37.47400
C  28.52400 54.96000 37.04300
C  30.09000 54.68300 37.36700
C  30.65700 56.11000 37.60100
C  30.39900 53.77000 38.56500
C  28.24200 54.78700 35.49800
C  26.87500 54.17900 35.05400
H  26.18100 55.06100 33.94200
N  32.21000 58.59900 38.30700
C  32.78000 57.46800 37.93400
C  34.24500 57.63300 37.88000
C  34.46000 58.97100 38.24700
C  33.16000 59.54700 38.39400
C  35.19900 56.55400 37.50000
C  35.81300 59.62100 38.50100
O  36.91900 59.08200 38.24400
C  35.92400 60.86800 39.22900
N  30.40600 61.01400 38.63800
C  31.63700 61.60900 38.56500
C  31.45700 63.11800 38.67300
C  29.93500 63.37900 38.87100
C  29.40600 61.95200 38.68800
C  32.44300 63.95500 39.59000
C  29.40200 64.42900 37.81600
C  28.45000 65.49400 38.32900
N  28.09000 59.39200 38.36900
C  27.38700 60.55600 38.66400
C  25.93700 60.35800 38.53700
C  25.83100 59.00600 38.18400
C  27.14200 58.46300 38.14300
C  24.86300 61.42700 38.75200
C  24.94200 57.90400 37.97500
O  23.69800 57.86300 38.06800
C  25.75000 56.64300 37.57700
C  25.30100 55.61000 38.44400
O  25.76100 55.44000 39.56900
O  24.33500 54.80300 37.87600
C  23.66300 53.85900 38.73500
H  32.66400 55.38500 37.60200
H  33.68800 61.65900 38.30000
H  27.35300 62.58100 39.14100
H  27.92700 54.35300 37.72400
H  30.55500 54.19600 36.51000
H  31.09400 52.94400 38.40900
H  29.52900 53.13800 38.74600
H  30.62800 54.17000 39.55200
H  29.02200 54.24700 34.96100
H  28.47000 55.79400 35.14700
H  26.34200 53.90600 35.96500
H  27.15200 53.20800 34.64200
H  35.97000 56.59400 38.27000
H  35.69000 56.90100 36.59000
H  34.75000 55.56600 37.40000
H  36.92700 61.13400 39.56400
H  35.17100 60.99300 40.00700
H  35.63400 61.60000 38.47500
H  31.78300 63.42700 37.67900
H  29.68000 63.69200 39.88400
H  31.83300 64.24500 40.44600
H  32.92400 64.82000 39.13300
H  33.19200 63.21800 39.87900
H  28.88300 64.05100 36.93600
H  30.30400 64.96800 37.52600
H  28.90600 66.42600 38.66300
H  27.85900 65.18400 39.19100
H  27.65700 65.83300 37.66300
H  23.95900 61.04900 38.27500
H  25.06800 62.44700 38.42700
H  24.80100 61.41400 39.84000
H  25.62400 56.37700 36.52800
H  23.27000 54.40000 39.59600
H  24.30700 53.08700 39.15600
H  22.96800 53.26500 38.14200
Mg 9.46900 47.08200 27.28100
C  7.38800 46.74500 29.92400
C  12.09900 47.71800 29.50400
C  11.46600 47.93400 24.71900
C  6.77000 47.27600 25.20200
N  9.62900 47.49100 29.44900
C  8.72400 46.98800 30.31600
C  9.18900 47.10300 31.83900
C  10.58000 47.70000 31.65800
C  10.78300 47.67500 30.11700
C  10.65900 49.22800 32.10300
C  9.28000 45.72600 32.67200
C  10.24500 45.55200 33.84800
H  9.58300 44.78200 35.03600
N  11.53900 47.50200 27.10500
C  12.49500 47.65300 28.11900
C  13.83700 47.84300 27.65400
C  13.64900 47.91700 26.22700
C  12.17900 47.80300 25.97800
C  15.15600 47.92100 28.47400
C  14.67300 48.08700 25.15400
O  14.45300 48.09500 23.95200
C  16.17000 48.26500 25.60100
N  9.10200 47.80000 25.31400
C  10.13400 47.99000 24.39100
C  9.63300 48.32000 23.04600
C  8.08100 47.94300 23.19200
C  7.94300 47.56900 24.60100
C  9.86400 49.83200 22.61300
C  7.63400 46.70100 22.22800
C  6.74800 47.13800 21.05800
N  7.47900 47.04700 27.45500
C  6.46500 47.02200 26.57600
C  5.10800 46.73800 27.19200
C  5.52100 46.64500 28.47200
C  6.89600 46.82000 28.61600
C  3.75500 46.63300 26.51600
C  4.97100 46.47500 29.77800
O  3.76200 46.26400 29.99500
C  6.11200 46.61000 30.82600
C  6.14200 45.47900 31.69400
O  6.84900 44.45700 31.52400
O  5.13900 45.62800 32.63100
C  5.05500 44.51400 33.65200
H  13.00400 47.84000 30.10300
H  11.95900 48.15000 23.76800
H  5.90300 47.23500 24.54000
H  8.52800 47.77300 32.38900
H  11.39100 47.09400 32.06300
H  11.59100 49.46000 32.61800
H  9.83600 49.64200 32.68500
H  10.68500 49.78300 31.16500
H  9.36800 44.86700 32.00700
H  8.32500 45.66900 33.19400
H  10.61700 46.46700 34.30700
H  11.05100 44.85000 33.63700
H  15.05000 47.70300 29.53600
H  15.73500 48.84500 28.45500
H  15.79000 47.10700 28.12100
H  16.75600 48.51500 24.71600
H  16.59200 47.33400 25.97900
H  16.18300 48.98600 26.41800
H  9.97800 47.79100 22.15700
H  7.62000 48.88500 22.89700
H  9.09000 50.59700 22.56000
H  10.35600 49.80100 21.64100
H  10.56800 50.23400 23.34200
H  7.08100 45.96700 22.81400
H  8.53400 46.22800 21.83600
H  6.82000 48.19200 20.79100
H  5.75100 46.95700 21.46000
H  6.96900 46.42400 20.26400
H  3.96600 46.23500 25.52400
H  3.30700 47.61100 26.34000
H  3.01600 46.06900 27.08500
H  5.83100 47.42100 31.49900
H  4.59600 43.67700 33.12500
H  4.25100 44.80000 34.33000
H  6.02800 44.39600 34.13000

