158

Mg 35.45900 1.64800 29.53900
C  33.58100 2.96500 32.03400
C  38.26800 1.79000 31.68500
C  37.54900 0.84100 27.00400
C  32.88800 2.20300 27.25000
N  35.86100 2.17500 31.65000
C  34.86900 2.64800 32.43900
C  35.37800 2.57700 33.89000
C  36.90100 2.60700 33.77000
C  37.07700 2.22000 32.29100
C  37.49700 3.92000 34.17300
C  34.77600 1.35200 34.70300
C  34.18100 1.84500 36.05600
H  34.70000 3.06800 36.75300
N  37.58000 1.30500 29.34100
C  38.51600 1.31800 30.38200
C  39.74000 0.75900 29.95500
C  39.58900 0.41300 28.58700
C  38.20800 0.86400 28.22400
C  40.89300 0.58900 30.93300
C  40.62500 -0.07700 27.60600
O  40.34100 -0.25900 26.45900
C  41.98300 -0.27300 28.02800
N  35.33300 1.70600 27.33300
C  36.27200 1.12500 26.58700
C  35.74500 0.96200 25.19200
C  34.18200 1.07800 25.33200
C  34.15100 1.75200 26.70300
C  36.32900 2.00800 24.16500
C  33.36300 -0.24500 25.32200
C  32.36600 -0.34900 24.14500
N  33.57300 2.39700 29.59000
C  32.60000 2.50800 28.59500
C  31.43400 3.02100 29.17800
C  31.76900 3.26600 30.50900
C  33.05700 2.81800 30.71400
C  30.10800 3.26900 28.49600
C  31.24100 3.82100 31.70200
O  30.13900 4.23800 32.07000
C  32.39300 3.53000 32.81300
C  32.59300 4.87600 33.51200
O  33.42200 5.66300 33.19000
O  31.76300 5.02200 34.62200
C  31.86900 6.30700 35.43000
H  39.06000 1.84000 32.43400
H  38.07800 0.43300 26.14100
H  32.06800 2.07500 26.54000
H  35.02600 3.48800 34.37300
H  37.37300 1.81800 34.35500
H  38.48300 3.71000 34.58700
H  36.96200 4.49800 34.92600
H  37.60800 4.58600 33.31700
H  35.58200 0.63100 34.84400
H  34.04800 0.75400 34.15500
H  34.31900 0.99200 36.72000
H  33.10600 1.99300 35.95600
H  40.66900 0.62400 31.99900
H  41.55200 1.44200 30.77200
H  41.40600 -0.37300 30.95100
H  42.56200 -0.70500 27.21300
H  41.92000 -1.03300 28.80700
H  42.41600 0.59000 28.53400
H  35.94300 -0.05300 24.84800
H  33.77400 1.71600 24.54900
H  35.62500 2.78300 23.86100
H  36.74200 1.39300 23.36600
H  37.17300 2.55200 24.58900
H  32.83500 -0.31000 26.27300
H  33.98700 -1.13000 25.19900
H  32.60300 -1.14000 23.43400
H  32.39100 0.55600 23.53700
H  31.39000 -0.50800 24.60200
H  29.81700 4.22200 28.93600
H  29.47500 2.41900 28.75100
H  30.15500 3.45000 27.42200
H  31.99900 2.86300 33.58100
H  30.81100 6.50300 35.60100
H  32.16100 7.19100 34.86200
H  32.38700 6.19300 36.38200
Mg 46.98800 34.02800 27.05700
C  44.77400 32.90000 29.57600
C  47.49900 36.81300 28.93300
C  48.50500 35.41500 24.31600
C  46.10700 31.26500 25.10400
N  46.25400 34.69400 28.95900
C  45.56600 33.98400 29.88800
C  45.63900 34.63200 31.28700
C  46.26400 36.10000 30.96100
C  46.62800 35.87800 29.53000
C  45.45900 37.38200 31.28100
C  46.61300 33.77500 32.13800
C  47.05000 34.26300 33.50400
H  46.08400 35.19300 34.20300
N  47.91800 35.86500 26.67600
C  48.09600 36.84600 27.62100
C  48.88500 37.94500 27.07100
C  49.13600 37.51400 25.67200
C  48.48200 36.24900 25.49600
C  49.32700 39.23400 27.84500
C  49.77400 38.33200 24.63400
O  49.84100 37.94200 23.48900
C  50.36000 39.75600 24.92300
N  47.06000 33.53400 24.96300
C  47.82800 34.13900 24.06600
C  48.03700 33.38400 22.73500
C  47.39500 32.02300 23.03000
C  46.82400 32.21800 24.50300
C  47.58700 34.10700 21.47500
C  48.27800 30.78700 22.77500
C  49.56900 30.48600 23.59800
N  45.65900 32.41900 27.17900
C  45.50300 31.32300 26.39000
C  44.64200 30.38500 27.03100
C  44.24100 31.00700 28.20400
C  44.92900 32.17500 28.31400
C  44.17100 28.99600 26.50200
C  43.38300 30.93100 29.37100
O  42.63700 29.97300 29.44000
C  43.66900 32.12400 30.28700
C  44.09400 31.49000 31.52700
O  44.77700 30.45900 31.64500
O  43.54300 32.12700 32.63700
C  43.74500 31.38300 33.93100
H  47.73400 37.67600 29.56000
H  49.03900 35.70200 23.40800
H  46.01200 30.38600 24.46400
H  44.60700 34.71500 31.63000
H  47.12100 36.19200 31.62800
H  44.45500 37.11100 31.60900
H  45.39500 37.96300 30.36100
H  45.86800 38.06600 32.02400
H  47.48800 33.80000 31.48900
H  46.21800 32.76900 32.28200
H  48.00800 34.70800 33.23400
H  47.38600 33.49800 34.20300
H  50.37500 38.99600 28.02800
H  48.94500 39.15800 28.86300
H  49.15400 40.24400 27.47300
H  49.45700 40.27200 25.24800
H  50.81700 40.17300 24.02500
H  51.12200 39.65700 25.69600
H  49.11400 33.52700 22.81400
H  46.42500 32.05000 22.53300
H  48.48400 34.62600 21.13900
H  46.84300 34.87400 21.69000
H  47.32000 33.36000 20.72700
H  48.53400 31.09700 21.76100
H  47.65800 29.90900 22.59600
H  50.28600 31.24200 23.27700
H  49.98600 29.49300 23.43300
H  49.19300 30.54100 24.61900
H  44.62500 28.18400 27.07000
H  44.49700 29.09000 25.46600
H  43.11900 28.73800 26.38400
H  42.74200 32.68800 30.39100
H  44.40900 31.90500 34.61900
H  43.84900 30.29900 33.96100
H  42.71900 31.52500 34.27100

