158

Mg 1.72600 8.86900 26.51400
C  2.43100 10.59100 29.53500
C  1.90500 5.90400 28.45300
C  1.41800 7.06700 23.69600
C  2.11900 11.78800 24.74400
N  2.24600 8.34500 28.68900
C  2.28800 9.26000 29.73100
C  2.18600 8.50700 31.12000
C  2.25800 7.01300 30.73200
C  2.14100 7.04900 29.17800
C  3.56800 6.18500 31.11200
C  0.90600 8.95100 31.94800
C  1.28400 8.96600 33.40600
H  2.42500 8.13600 33.93200
N  1.64000 6.76100 26.15300
C  1.57000 5.70600 27.04900
C  1.50500 4.45800 26.34300
C  1.25200 4.77000 24.98100
C  1.42600 6.25600 24.85100
C  1.65700 3.07500 27.14000
C  1.04100 3.87800 23.79400
O  0.85400 4.27200 22.63100
C  1.01600 2.41300 23.95800
N  1.84700 9.33400 24.54000
C  1.65800 8.44000 23.53600
C  1.77800 9.19600 22.08800
C  1.61200 10.72400 22.47400
C  1.81500 10.63000 24.01100
C  3.06600 8.93800 21.22100
C  0.22500 11.41100 22.25100
C  0.02900 12.31300 21.00800
N  2.13500 10.78400 26.96300
C  2.32500 11.88000 26.10100
C  2.82600 12.99300 26.87000
C  2.75300 12.55900 28.23500
C  2.46400 11.18400 28.23100
C  2.88600 14.38100 26.26900
C  2.82300 12.98800 29.55200
O  3.12900 14.07200 30.00800
C  2.60400 11.72700 30.40500
C  3.67200 11.57900 31.36300
O  4.80100 11.13200 31.16400
O  3.28800 12.01000 32.60900
C  4.25700 11.92200 33.72000
H  1.87700 4.98900 29.04800
H  1.17100 6.58700 22.74700
H  2.21700 12.65800 24.09000
H  3.20000 8.76000 31.42800
H  1.39700 6.51200 31.17400
H  4.09300 5.86200 30.21300
H  3.24700 5.31800 31.68800
H  4.22400 6.80600 31.72200
H  0.05100 8.28600 31.83100
H  0.55100 9.90700 31.56500
H  0.50200 8.80100 34.14700
H  1.65400 9.98000 33.55900
H  0.97800 3.05400 27.99200
H  2.64100 3.15900 27.60000
H  1.64400 2.17200 26.52900
H  0.25200 2.09200 24.66600
H  1.96000 2.11100 24.41200
H  0.90400 1.89200 23.00800
H  0.86100 8.89500 21.58300
H  2.39200 11.37900 22.08500
H  3.40800 7.91900 21.40200
H  3.87900 9.54800 21.61400
H  2.92100 8.98200 20.14100
H  -0.02500 11.75100 23.25600
H  -0.43600 10.57400 22.03100
H  -0.88900 12.00800 20.50400
H  0.86200 12.22500 20.31200
H  -0.01300 13.37600 21.24300
H  3.29200 14.20700 25.27300
H  3.57600 14.90400 26.93200
H  1.96400 14.96000 26.32300
H  1.68600 11.91200 30.96200
H  4.45500 12.83500 34.28100
H  5.22200 11.55300 33.37100
H  3.89000 11.10900 34.34700
Mg 24.55200 -6.41300 45.62300
C  26.89000 -4.11700 44.27400
C  22.32900 -5.03200 43.51500
C  22.67900 -9.08800 46.13200
C  27.29900 -7.76200 47.50700
N  24.63800 -4.78200 43.99900
C  25.67400 -3.98100 43.64500
C  25.40300 -3.16400 42.40500
C  23.86900 -3.12600 42.63800
C  23.55100 -4.37300 43.41700
C  23.42200 -1.72300 43.31500
C  25.86500 -3.80900 41.09400
C  26.64100 -2.83000 40.21000
H  26.46000 -2.83500 38.69800
N  22.72700 -6.91300 44.93700
C  21.94600 -6.25000 44.08800
C  20.65100 -6.93700 43.93100
C  20.71400 -8.10300 44.75200
C  22.11700 -8.09600 45.29400
C  19.46300 -6.51000 43.07900
C  19.61800 -9.11600 44.87400
O  18.59300 -9.06400 44.16400
C  19.76500 -10.35800 45.81600
N  24.95200 -8.22000 46.54800
C  23.96000 -9.12600 46.74400
C  24.56800 -10.34800 47.51100
C  25.85300 -9.72900 48.10700
C  26.09600 -8.52100 47.33800
C  23.55600 -10.93600 48.57800
C  27.05200 -10.80900 48.12100
C  27.68800 -11.21700 49.44100
N  26.61600 -6.03300 45.88900
C  27.56800 -6.62700 46.72200
C  28.81500 -5.94100 46.59000
C  28.60900 -4.94400 45.61500
C  27.26100 -5.10900 45.21100
C  30.05300 -6.30200 47.32600
C  29.25400 -3.88400 44.96900
O  30.42300 -3.51500 44.98700
C  28.12800 -3.28300 43.97600
C  27.89400 -1.81800 44.18900
O  27.37900 -1.32700 45.13800
O  28.56100 -1.07200 43.17600
C  28.64500 0.42000 43.31900
H  21.53700 -4.51100 42.97400
H  22.03000 -9.92700 46.38800
H  28.12800 -8.14100 48.10900
H  25.90700 -2.21000 42.56200
H  23.32900 -3.29500 41.70600
H  22.77400 -1.18000 42.62600
H  24.27700 -1.05200 43.39300
H  22.91800 -1.85400 44.27200
H  24.98300 -4.06700 40.50800
H  26.51100 -4.68200 41.19300
H  27.67900 -2.89700 40.53400
H  26.35600 -1.83300 40.54700
H  18.58400 -6.59500 43.71800
H  19.26400 -7.16700 42.23300
H  19.62400 -5.48300 42.75100
H  18.90600 -11.02500 45.88900
H  19.98400 -10.09400 46.85000
H  20.51400 -10.99800 45.35200
H  24.85700 -11.11900 46.79800
H  25.71900 -9.45000 49.15200
H  22.81800 -10.15800 48.77400
H  24.14000 -11.10000 49.48300
H  23.06600 -11.81700 48.16200
H  27.93000 -10.52900 47.54000
H  26.76600 -11.78300 47.72300
H  28.03600 -12.24200 49.31000
H  27.10300 -11.00100 50.33500
H  28.54900 -10.54900 49.45400
H  30.89800 -5.66500 47.06400
H  30.22800 -7.32000 46.98000
H  29.87200 -6.20200 48.39700
H  28.52400 -3.52300 42.98900
H  27.84900 1.00400 42.85600
H  29.44600 0.70300 42.63600
H  28.84100 0.65500 44.36500

