158

Mg 25.60200 51.70900 26.55300
C  23.17100 52.53900 29.03500
C  27.72600 50.69500 29.14100
C  28.08400 51.24600 24.41100
C  23.53700 52.94400 24.03800
N  25.49100 51.77400 28.85900
C  24.35600 52.00500 29.56900
C  24.66200 51.60300 30.98500
C  26.13100 51.06500 31.02100
C  26.51800 51.18100 29.57400
C  27.10800 51.72200 32.10800
C  23.67000 50.60100 31.58000
C  22.98700 51.06500 32.83400
H  23.14200 50.25600 34.11600
N  27.63900 51.08300 26.74100
C  28.28300 50.68200 27.89400
C  29.66700 50.35900 27.55100
C  29.80400 50.38200 26.12600
C  28.47000 50.92800 25.72100
C  30.55000 49.66900 28.58700
C  31.01000 49.97900 25.26200
O  31.12100 50.06000 24.00800
C  32.32200 49.40200 25.93600
N  25.75300 52.00800 24.52000
C  26.87600 51.76500 23.94500
C  26.66000 51.89400 22.43500
C  25.23600 52.42600 22.29400
C  24.76100 52.41700 23.67700
C  27.70300 52.82100 21.66000
C  24.36500 51.55000 21.35800
C  23.36100 52.30100 20.48200
N  23.76000 52.53600 26.48800
C  23.06200 53.06700 25.37000
C  21.74300 53.51200 25.88800
C  21.79400 53.33500 27.29100
C  22.97100 52.71600 27.60600
C  20.63800 53.98400 25.06800
C  20.97200 53.42100 28.45000
O  19.80600 53.75200 28.51000
C  21.82400 52.90400 29.62100
C  22.10000 54.01700 30.53300
O  22.56200 55.10300 30.22200
O  21.51300 53.64900 31.71800
C  21.26500 54.87200 32.54900
H  28.40700 50.32700 29.91100
H  28.80400 51.18300 23.59200
H  22.91400 53.41000 23.27200
H  24.63700 52.53200 31.55500
H  26.24100 49.98500 30.92400
H  27.55500 50.93300 32.71300
H  26.51800 52.44100 32.67800
H  27.85500 52.27000 31.53400
H  24.18000 49.66500 31.81000
H  22.94500 50.47400 30.77600
H  21.91700 51.05900 32.62700
H  23.21500 52.11200 33.03100
H  30.59100 48.58600 28.47000
H  30.39500 49.91500 29.63700
H  31.54700 50.02500 28.33000
H  32.05300 48.55500 26.56600
H  32.81000 50.20500 26.48800
H  33.06700 49.05600 25.21800
H  26.73100 50.87600 22.05100
H  25.25500 53.45700 21.94100
H  27.13000 53.55100 21.08800
H  28.41300 52.28300 21.03300
H  28.31500 53.38200 22.36600
H  23.94200 50.77700 22.00000
H  25.01000 51.04300 20.64100
H  23.48400 52.07800 19.42200
H  23.37700 53.37200 20.68600
H  22.36900 51.95100 20.76700
H  19.78800 53.63100 25.65100
H  20.68000 53.55300 24.06800
H  20.44600 55.05300 24.97500
H  21.36100 52.03400 30.08600
H  21.45100 55.84900 32.10300
H  21.70300 54.84700 33.54600
H  20.21800 54.88600 32.84900
Mg -5.62300 24.81700 26.94500
C  -4.06900 26.30900 29.78900
C  -6.93500 22.46600 28.96100
C  -6.60600 23.16800 24.13800
C  -3.57500 26.88900 24.95400
N  -5.35500 24.36300 29.11000
C  -4.78900 25.14300 30.14700
C  -5.22600 24.66500 31.51700
C  -5.82000 23.28500 31.16000
C  -6.10300 23.36700 29.63600
C  -4.85000 22.15200 31.43500
C  -6.36200 25.68800 32.04800
C  -6.76300 25.51600 33.49900
H  -5.98700 24.64800 34.48400
N  -6.74400 23.18100 26.55600
C  -7.24000 22.34200 27.55500
C  -8.21000 21.40800 26.95600
C  -7.98500 21.48000 25.52800
C  -7.12900 22.61900 25.34900
C  -8.92000 20.44400 27.80900
C  -8.60700 20.61300 24.41600
O  -8.47100 20.86700 23.20400
C  -9.24800 19.35100 24.83700
N  -5.18700 25.07900 24.84100
C  -5.78800 24.29500 23.87900
C  -5.41200 24.66500 22.41900
C  -4.48300 25.95400 22.69100
C  -4.38600 25.97700 24.25400
C  -4.64200 23.52400 21.65200
C  -5.12100 27.18000 21.98700
C  -4.29900 27.84500 20.86200
N  -4.19100 26.34500 27.26600
C  -3.46400 27.06900 26.34000
C  -2.53500 27.96400 27.02400
C  -2.71300 27.72400 28.40600
C  -3.78500 26.73600 28.50700
C  -1.67900 29.01500 26.38400
C  -2.37700 28.24600 29.76200
O  -1.53900 28.94300 30.31800
C  -3.22600 27.20500 30.73000
C  -2.35900 26.41000 31.61400
O  -1.60000 25.51600 31.20100
O  -2.35600 26.97300 32.88200
C  -1.37700 26.40900 33.79800
H  -7.15600 21.62300 29.61900
H  -7.01600 22.60300 23.29800
H  -3.09000 27.64600 24.33500
H  -4.31800 24.63200 32.11900
H  -6.74200 23.08100 31.70400
H  -5.45500 21.31000 31.77000
H  -4.23300 22.35100 32.31200
H  -4.19300 21.87600 30.61100
H  -7.20900 25.71200 31.36200
H  -5.96100 26.68000 31.84400
H  -7.78400 25.15400 33.37700
H  -6.72600 26.50300 33.96000
H  -9.97400 20.37500 27.54100
H  -8.86100 20.67200 28.87300
H  -8.46300 19.46000 27.70700
H  -9.17000 18.79500 23.90200
H  -10.30700 19.37800 25.09200
H  -8.61800 18.74200 25.48600
H  -6.29000 24.89800 21.81700
H  -3.49800 25.85800 22.23500
H  -4.88500 23.43700 20.59300
H  -4.74600 22.57700 22.18200
H  -3.57000 23.72400 21.65800
H  -5.16300 27.91100 22.79500
H  -6.07900 26.98900 21.50400
H  -3.51100 27.20600 20.46400
H  -3.89800 28.76000 21.29800
H  -4.96300 27.96500 20.00500
H  -2.34100 29.70400 25.86100
H  -0.99800 28.61700 25.63200
H  -0.98100 29.42800 27.11200
H  -3.92100 27.78000 31.34100
H  -0.43300 26.95100 33.85100
H  -1.14800 25.35400 33.64800
H  -1.77200 26.58400 34.79800

