158

Mg 24.71700 1.12400 30.20900
C  26.78700 0.91700 32.97100
C  22.06700 1.52100 32.36000
C  22.66700 0.63800 27.52100
C  27.43200 0.23900 28.21300
N  24.48000 1.17600 32.50200
C  25.47200 1.11900 33.37500
C  24.99300 1.68300 34.71500
C  23.44400 1.44400 34.58700
C  23.30600 1.34400 33.07000
C  22.98600 0.04300 35.20800
C  25.56100 3.11000 35.10600
C  26.40000 3.19200 36.45400
H  25.98300 4.17500 37.54300
N  22.70100 1.06400 30.00500
C  21.73300 1.32400 30.98200
C  20.47000 1.41500 30.35000
C  20.62900 0.98100 28.99100
C  22.06500 0.94200 28.77900
C  19.20300 1.73700 31.10000
C  19.60700 0.75000 27.95300
O  19.93000 0.51900 26.79400
C  18.22500 0.68800 28.27000
N  25.00800 0.35900 28.23700
C  24.03300 0.52500 27.31700
C  24.56200 0.39800 25.88400
C  26.08200 0.15300 26.07500
C  26.20700 0.25200 27.56900
C  23.85000 -0.49300 24.87000
C  26.93200 1.15400 25.22700
C  26.44500 1.23500 23.78000
N  26.68700 0.63400 30.46900
C  27.71800 0.45500 29.56300
C  28.99700 0.32700 30.26500
C  28.68300 0.51500 31.64100
C  27.25800 0.69500 31.67200
C  30.39200 0.10500 29.75500
C  29.27900 0.65800 32.97800
O  30.44800 0.54600 33.40600
C  28.06500 0.96100 33.87600
C  28.07900 -0.18600 34.80300
O  27.46900 -1.22300 34.65500
O  28.86200 0.15100 35.88700
C  28.73800 -0.74800 37.01600
H  21.22700 1.86900 32.96500
H  22.09100 0.83500 26.61500
H  28.26700 0.09600 27.52400
H  25.37900 1.05500 35.51800
H  22.99700 2.33600 35.02400
H  23.84400 -0.59200 35.43200
H  22.41300 -0.51100 34.46400
H  22.41300 0.29900 36.09900
H  24.70500 3.78300 35.04700
H  26.22900 3.32200 34.27100
H  27.39000 3.52800 36.14500
H  26.36700 2.19000 36.88200
H  19.41800 1.72400 32.16800
H  18.35400 1.10500 30.84000
H  18.96900 2.75200 30.77900
H  18.18300 -0.13100 28.98800
H  17.70700 0.42600 27.34800
H  17.84200 1.61700 28.69300
H  24.34600 1.33900 25.37800
H  26.46900 -0.85600 25.93400
H  24.56400 -1.14500 24.36800
H  23.39700 0.11700 24.08800
H  23.03600 -1.02700 25.36000
H  27.97700 0.84800 25.28700
H  26.73600 2.15100 25.62200
H  25.70900 2.01300 23.57800
H  26.00300 0.31600 23.39500
H  27.26300 1.35800 23.07100
H  30.91800 1.05500 29.66700
H  30.37600 -0.34400 28.76100
H  30.83300 -0.53200 30.52100
H  28.01500 1.91200 34.40700
H  28.50900 -1.75000 36.65400
H  28.01100 -0.37400 37.73700
H  29.71900 -0.61400 37.47200
Mg -5.36100 25.56000 26.31100
C  -3.58900 26.36900 29.00900
C  -7.44000 23.39500 28.43500
C  -6.38800 23.67800 23.62400
C  -3.15100 27.25400 24.20700
N  -5.56300 25.05000 28.47700
C  -4.78200 25.63900 29.39000
C  -5.38500 25.47800 30.83400
C  -6.27200 24.19400 30.55200
C  -6.45400 24.16000 29.05100
C  -5.76000 22.85400 31.06100
C  -6.13200 26.73100 31.37400
C  -6.17800 27.00000 32.90300
H  -5.72800 25.97400 33.88800
N  -7.02500 24.09200 26.00200
C  -7.67500 23.39400 26.98700
C  -8.49400 22.34500 26.31000
C  -8.16500 22.38000 24.91400
C  -7.14300 23.42000 24.77600
C  -9.42100 21.34800 26.99900
C  -8.80500 21.55600 23.78500
O  -8.53000 21.76100 22.54400
C  -9.94900 20.57300 24.06500
N  -4.82700 25.50100 24.18700
C  -5.33200 24.54600 23.32700
C  -4.80500 24.73600 21.88900
C  -4.01600 26.04600 22.06100
C  -4.04500 26.34600 23.55000
C  -3.99600 23.64000 21.26300
C  -4.42600 27.28700 21.20800
C  -3.28600 27.96800 20.48300
N  -3.72000 26.69400 26.55900
C  -2.90500 27.33700 25.61200
C  -1.88600 28.08700 26.33800
C  -2.09000 27.75800 27.75500
C  -3.15500 26.79200 27.74300
C  -1.05900 29.23700 25.77300
C  -1.63800 28.01600 29.09300
O  -0.78700 28.76800 29.51200
C  -2.61000 27.08200 29.98300
C  -1.90600 26.15100 30.90800
O  -1.17600 25.18600 30.61800
O  -1.83900 26.66400 32.17000
C  -1.16300 25.96300 33.23800
H  -8.12400 22.79700 29.04000
H  -6.68900 23.21500 22.68200
H  -2.50000 27.81400 23.53200
H  -4.57600 25.21100 31.51300
H  -7.22000 24.44100 31.03000
H  -4.92600 22.93100 31.75800
H  -5.38300 22.39600 30.14600
H  -6.60700 22.38000 31.55800
H  -7.15900 26.75500 31.00800
H  -5.65700 27.65800 31.05300
H  -7.22400 27.21200 33.12600
H  -5.76100 27.99100 33.08300
H  -10.46000 21.66000 26.89400
H  -9.21800 21.26300 28.06700
H  -9.31200 20.33200 26.62000
H  -9.40500 19.74800 24.52500
H  -10.47300 20.13500 23.21600
H  -10.71100 20.84900 24.79400
H  -5.71700 24.91300 21.32000
H  -2.97400 25.87900 21.78700
H  -2.96000 23.89300 21.03600
H  -4.60000 23.26000 20.43900
H  -4.01000 22.79900 21.95700
H  -4.79200 28.08900 21.84800
H  -5.26000 27.10200 20.53100
H  -2.29500 27.51400 20.46400
H  -3.05600 28.95500 20.88300
H  -3.63100 27.97400 19.44900
H  -1.36700 29.50000 24.76100
H  -0.01100 28.95700 25.66600
H  -1.16100 30.13800 26.37900
H  -3.20000 27.73900 30.62100
H  -0.08200 26.09400 33.18600
H  -1.39500 24.89800 33.23200
H  -1.43200 26.24500 34.25500

