158

Mg -10.54900 16.24400 43.66800
C  -7.14700 16.66100 43.59800
C  -10.89300 19.68000 42.88700
C  -13.84100 15.79900 42.85000
C  -10.04700 12.75700 43.67600
N  -9.19400 17.94100 43.15900
C  -7.84700 17.84700 43.40400
C  -7.27200 19.31500 43.26400
C  -8.48900 20.12000 43.68000
C  -9.58700 19.17800 43.17800
C  -8.64500 20.38700 45.24300
C  -6.85800 19.58000 41.79800
C  -5.41300 19.99100 41.60400
H  -5.25000 20.93100 40.42000
N  -12.21400 17.62600 43.00100
C  -12.12900 18.95500 42.70800
C  -13.39100 19.44300 42.31600
C  -14.30600 18.31500 42.27000
C  -13.41600 17.10800 42.70600
C  -13.67500 20.92900 42.00500
C  -15.71500 18.30000 41.84300
O  -16.33600 19.33500 41.57400
C  -16.51800 16.91600 41.57600
N  -11.71500 14.49500 43.25200
C  -13.09200 14.61100 43.09400
C  -13.71900 13.15500 43.25600
C  -12.49700 12.19800 43.15200
C  -11.33100 13.21400 43.39100
C  -14.61700 12.93100 44.48000
C  -12.18800 11.76700 41.68400
C  -12.80700 10.41400 41.29600
N  -8.92200 14.95200 43.81800
C  -8.86100 13.59300 43.77600
C  -7.48000 13.11700 43.91100
C  -6.74100 14.31500 43.96800
C  -7.71100 15.40300 43.82400
C  -7.15300 11.70500 44.01000
C  -5.42800 14.91200 43.95800
O  -4.29800 14.43000 44.00300
C  -5.65000 16.45800 43.85800
C  -5.31500 16.95800 45.21500
O  -5.89000 16.78400 46.31200
O  -4.04600 17.50300 45.15200
C  -3.55600 18.18000 46.42700
H  -11.04400 20.75200 42.74000
H  -14.89500 15.57200 42.67800
H  -9.95700 11.66900 43.69100
H  -6.37500 19.53200 43.84300
H  -8.55600 21.11000 43.23000
H  -9.27600 19.68200 45.78300
H  -9.09100 21.38000 45.30400
H  -7.67100 20.59300 45.68800
H  -7.44900 20.38500 41.36000
H  -7.02400 18.66800 41.22400
H  -4.83100 19.07900 41.46900
H  -5.04100 20.50600 42.48900
H  -12.79700 21.51500 41.73100
H  -14.20500 21.38500 42.84100
H  -14.31000 21.13800 41.14500
H  -15.90400 16.13400 41.12800
H  -17.39100 16.98400 40.92700
H  -16.82200 16.52400 42.54700
H  -14.41400 13.01300 42.42900
H  -12.47000 11.37400 43.86600
H  -15.64600 13.06100 44.14500
H  -14.37800 13.71500 45.19900
H  -14.49200 11.93800 44.91300
H  -11.14300 11.51600 41.50300
H  -12.42200 12.63000 41.06100
H  -12.07800 9.64500 41.03700
H  -13.45400 10.65100 40.45200
H  -13.36300 10.02600 42.15000
H  -7.83900 11.31100 44.75900
H  -6.11400 11.53100 44.28900
H  -7.43900 11.26400 43.05500
H  -5.05100 16.85500 43.03800
H  -3.03200 17.50900 47.10600
H  -4.39600 18.72200 46.86100
H  -2.88800 18.96100 46.06200
Mg -4.37100 25.48200 26.21800
C  -2.74500 26.97900 28.96000
C  -5.43000 22.94600 28.32400
C  -5.42900 23.79400 23.54200
C  -2.75100 27.81400 24.12100
N  -4.19700 25.09400 28.39100
C  -3.52900 25.88200 29.32800
C  -3.94400 25.43000 30.67400
C  -4.35100 23.94600 30.43400
C  -4.64800 23.97100 28.91500
C  -3.35100 22.84800 30.88500
C  -5.15600 26.24500 31.29000
C  -5.07700 26.53500 32.76700
H  -4.69600 25.28800 33.66700
N  -5.33000 23.70900 25.94400
C  -5.71200 22.78000 26.95400
C  -6.37800 21.63000 26.27200
C  -6.08600 21.75000 24.91600
C  -5.57200 23.13700 24.76200
C  -6.89100 20.43000 27.07400
C  -6.36700 20.81400 23.83400
O  -5.99000 21.00300 22.67000
C  -7.07200 19.49900 24.09800
N  -4.24100 25.80000 24.19200
C  -4.85100 25.02000 23.31200
C  -4.74600 25.56500 21.86600
C  -3.91200 26.86900 21.95800
C  -3.57200 26.88000 23.50500
C  -4.19600 24.57900 20.82100
C  -4.68100 28.12900 21.55800
C  -4.78700 28.44100 20.05000
N  -3.10100 27.17300 26.49600
C  -2.44500 27.93200 25.53100
C  -1.53400 28.84300 26.18200
C  -1.63100 28.52100 27.52800
C  -2.57900 27.49900 27.65900
C  -0.53700 29.69100 25.40400
C  -1.04000 28.74700 28.85700
O  -0.17300 29.55200 29.14300
C  -1.82000 27.81300 29.82200
C  -0.83100 27.15500 30.81100
O  -0.31700 26.08500 30.65100
O  -0.69900 27.98100 31.88400
C  -0.14100 27.30200 33.05600
H  -5.63200 22.09100 28.97200
H  -5.91600 23.24300 22.73500
H  -2.28900 28.51200 23.42000
H  -3.09200 25.49500 31.35000
H  -5.31000 23.78500 30.92600
H  -2.38000 23.30100 31.08600
H  -3.22200 21.99500 30.22000
H  -3.58300 22.25100 31.76600
H  -6.06600 25.75200 30.94800
H  -5.24200 27.16200 30.70700
H  -6.09400 26.83600 33.01800
H  -4.40900 27.38900 32.87600
H  -7.98000 20.45000 27.03500
H  -6.70300 20.50000 28.14600
H  -6.45200 19.48200 26.76300
H  -6.38800 18.80100 24.57900
H  -7.41100 18.97700 23.20300
H  -7.86700 19.59600 24.83700
H  -5.70800 25.83700 21.43200
H  -2.95000 26.82900 21.44800
H  -3.41400 25.05200 20.22700
H  -4.86200 24.27800 20.01100
H  -3.91200 23.71500 21.42200
H  -4.22700 29.04000 21.94900
H  -5.70300 28.08500 21.93700
H  -4.13600 27.78100 19.47500
H  -4.57500 29.48400 19.81700
H  -5.84600 28.28500 19.84500
H  -0.02600 30.53200 25.87200
H  -1.16000 30.17200 24.65000
H  0.17100 29.05700 24.86800
H  -2.46200 28.46500 30.41500
H  -0.81700 27.37700 33.90800
H  0.77300 27.82300 33.33800
H  0.03700 26.22700 33.09700

