158

Mg 9.57900 48.41200 25.31400
C  7.66300 48.97200 28.14800
C  12.33000 49.47000 27.06000
C  11.31200 47.85500 22.44300
C  6.60700 47.88500 23.52800
N  9.91300 48.98300 27.41100
C  9.03300 49.10700 28.41100
C  9.68200 49.55400 29.74700
C  11.01200 50.20400 29.17200
C  11.09200 49.50700 27.76600
C  11.07800 51.77700 29.07600
C  10.04600 48.49400 30.82000
C  9.55700 48.74200 32.29500
H  9.54100 47.44800 33.15600
N  11.58600 48.56000 24.84300
C  12.54700 49.00800 25.68700
C  13.77900 48.90700 25.01700
C  13.55500 48.42000 23.74500
C  12.07900 48.26200 23.57000
C  15.04000 49.31400 25.71900
C  14.55000 48.10100 22.65900
O  14.27300 47.60900 21.57800
C  15.97300 48.48300 22.87100
N  9.06500 48.04800 23.25300
C  9.94600 47.65500 22.28800
C  9.26900 47.22600 20.95600
C  7.79000 47.10500 21.40400
C  7.79900 47.81400 22.84900
C  9.44500 48.14800 19.69600
C  7.20500 45.68600 21.35400
C  7.47200 44.65500 22.45900
N  7.53000 48.52700 25.67400
C  6.41200 48.29500 24.83300
C  5.16600 48.38300 25.60200
C  5.59200 48.73600 26.90600
C  7.02100 48.75100 26.91300
C  3.79000 48.18700 25.15000
C  5.14300 49.03300 28.26000
O  4.01400 49.01500 28.78100
C  6.49200 49.15000 29.15200
C  6.41900 48.05800 30.13200
O  6.86000 46.94000 29.85900
O  5.78200 48.41500 31.29600
C  5.50400 47.37100 32.25900
H  13.21400 49.92300 27.51400
H  11.87400 47.63400 21.53300
H  5.73800 47.64900 22.91000
H  9.13900 50.35300 30.25300
H  11.92200 49.88800 29.68200
H  10.22200 52.31800 29.48000
H  11.25900 52.02800 28.03100
H  11.93700 52.08600 29.67200
H  11.10400 48.22900 30.81200
H  9.51200 47.62200 30.44400
H  8.68800 49.37500 32.47800
H  10.45600 49.28600 32.58400
H  15.02500 49.62500 26.76400
H  15.58700 50.08600 25.17900
H  15.68300 48.43400 25.73500
H  15.96200 49.48200 23.30700
H  16.57900 48.17100 22.02100
H  16.36600 47.80000 23.62400
H  9.48700 46.16600 20.82500
H  7.27900 47.87000 20.82000
H  9.39500 49.20900 19.94000
H  8.78200 47.91500 18.86300
H  10.45500 47.94600 19.33800
H  7.44600 45.11200 20.45900
H  6.12000 45.75200 21.43100
H  8.00500 45.10500 23.29700
H  8.19600 43.91400 22.11800
H  6.59700 44.11900 22.82600
H  3.07800 48.48600 25.91900
H  3.68700 47.14500 24.84700
H  3.67900 48.85300 24.29400
H  6.38800 50.04700 29.76200
H  6.31100 47.26800 32.98400
H  5.29600 46.42800 31.75200
H  4.64400 47.56900 32.89800
Mg 0.20400 44.03100 25.67000
C  1.93300 43.74200 28.77500
C  -2.67100 43.28200 27.58000
C  -1.31400 43.58400 22.86600
C  3.28600 44.30800 24.08800
N  -0.29900 43.75000 27.97600
C  0.57100 43.69100 29.04300
C  -0.16100 43.56900 30.34400
C  -1.66200 43.27200 29.94100
C  -1.55700 43.49400 28.37700
C  -2.26600 41.92100 30.32800
C  0.01800 44.93500 31.19600
C  0.33000 44.62500 32.70000
H  -0.33900 43.46800 33.42800
N  -1.77800 43.72800 25.26800
C  -2.78600 43.37100 26.16000
C  -3.96500 43.21100 25.42400
C  -3.70000 43.46500 24.06500
C  -2.17000 43.54200 23.96500
C  -5.30100 42.90900 26.04000
C  -4.55600 43.51100 22.78000
O  -4.12200 43.74000 21.67400
C  -6.07300 43.55100 22.91400
N  0.94600 43.91100 23.82400
C  0.03600 43.89000 22.78600
C  0.76000 43.67100 21.42800
C  2.21300 44.13400 21.83600
C  2.17300 44.27900 23.34000
C  0.69800 42.19900 21.00700
C  2.73900 45.35800 21.09900
C  2.86500 46.72900 21.75000
N  2.27300 44.02400 26.24400
C  3.35200 44.21300 25.48300
C  4.51900 44.29900 26.38500
C  4.02200 43.95100 27.68500
C  2.61000 43.91300 27.53700
C  5.92900 44.66300 25.98600
C  4.36600 43.85200 29.10800
O  5.44800 43.83900 29.67100
C  3.01400 43.64800 29.80900
C  3.08300 42.53100 30.77100
O  2.71300 41.35000 30.62500
O  3.51200 43.01400 31.97000
C  3.63500 42.10900 33.12800
H  -3.54700 42.98000 28.15700
H  -1.67900 43.48700 21.84200
H  4.22200 44.38800 23.53000
H  0.24500 42.68300 30.83300
H  -2.27900 44.07700 30.34000
H  -2.16300 41.19600 29.52100
H  -3.29600 42.07000 30.65200
H  -1.75500 41.59400 31.23400
H  -0.87500 45.55700 31.25900
H  0.82000 45.60500 30.88800
H  0.11600 45.53400 33.26200
H  1.39500 44.46100 32.86100
H  -6.10200 43.63700 25.91400
H  -5.15400 42.59600 27.07400
H  -5.67100 42.01600 25.53700
H  -6.55600 42.58200 23.04100
H  -6.39300 43.91900 21.93900
H  -6.34700 44.27700 23.68000
H  0.36800 44.30500 20.63200
H  2.85700 43.29000 21.58700
H  0.42600 41.61600 21.88700
H  1.55200 41.87000 20.41500
H  -0.24800 42.04100 20.48800
H  2.09400 45.57000 20.24700
H  3.68700 45.04400 20.66200
H  2.34400 46.64000 22.70300
H  2.29300 47.42200 21.13300
H  3.91500 47.01100 21.82900
H  6.42400 44.51300 26.94500
H  6.10900 45.71500 25.76500
H  6.23600 44.00500 25.17200
H  3.03200 44.52000 30.46300
H  4.68400 41.81300 33.12200
H  2.91300 41.29900 33.22700
H  3.51200 42.71000 34.02900

