158

Mg 41.63200 40.58500 27.03400
C  40.95200 43.23300 29.49900
C  42.52700 38.69700 29.54200
C  42.68200 38.60600 24.65500
C  40.98100 43.17500 24.46500
N  41.83000 41.02600 29.34400
C  41.41500 42.03000 30.09700
C  41.40000 41.71800 31.61900
C  42.04100 40.21000 31.55600
C  42.06500 39.91000 30.03800
C  43.43200 40.09600 32.29600
C  39.92400 41.87900 32.23300
C  39.74200 42.68500 33.50800
H  39.07000 42.04900 34.82400
N  42.49000 38.83700 27.14300
C  42.79100 38.16800 28.26200
C  43.31200 36.88600 27.91100
C  43.20500 36.75900 26.48700
C  42.78100 38.10800 26.03100
C  43.81500 35.91900 28.90900
C  43.45800 35.55700 25.57300
O  43.58400 35.66100 24.33000
C  43.53800 34.22400 26.25900
N  41.81700 40.88500 24.90900
C  42.15900 39.79600 24.16200
C  42.09200 40.09500 22.63300
C  41.58400 41.56000 22.60800
C  41.47300 41.91200 24.09700
C  43.51100 39.95200 22.00400
C  40.27500 41.64100 21.70400
C  40.32200 42.53500 20.55500
N  41.20400 42.77300 26.96900
C  40.86300 43.59900 25.85500
C  40.56300 44.93300 26.41800
C  40.52700 44.80400 27.84100
C  40.93600 43.51600 28.09300
C  40.11100 46.18600 25.60500
C  40.17700 45.47500 29.03100
O  39.78200 46.64700 29.16600
C  40.37600 44.48300 30.16700
C  41.33100 45.18300 31.13300
O  42.53900 45.26200 30.97500
O  40.71700 45.80600 32.14300
C  41.59900 46.55400 33.03000
H  42.62900 37.94000 30.32300
H  43.10700 37.90900 23.93000
H  40.67900 43.85900 23.66900
H  42.05500 42.45100 32.09200
H  41.31700 39.56600 32.05400
H  43.74900 41.04300 32.73300
H  44.10400 39.61400 31.58600
H  43.43500 39.38600 33.12300
H  39.39400 40.95100 32.44800
H  39.24100 42.29300 31.49100
H  39.06300 43.44600 33.12300
H  40.67500 43.10500 33.88400
H  43.11200 35.08600 28.90400
H  43.95900 36.28500 29.92600
H  44.76100 35.53000 28.53100
H  44.49900 33.97800 26.71100
H  43.30200 33.49100 25.48800
H  42.67500 34.15500 26.92200
H  41.38700 39.33500 22.29500
H  42.40400 42.11600 22.15400
H  44.19800 40.44700 22.69000
H  43.55900 40.41500 21.01900
H  44.01400 38.98700 21.93900
H  39.38900 41.91000 22.28000
H  39.95900 40.64900 21.38000
H  39.29600 42.88700 20.44100
H  40.59900 41.88800 19.72200
H  41.03900 43.32600 20.77200
H  39.02400 46.12000 25.54900
H  40.46800 46.24700 24.57700
H  40.33200 47.12200 26.11800
H  39.39900 44.33100 30.62600
H  41.96700 46.01400 33.90200
H  41.00900 47.36300 33.46000
H  42.45000 47.01200 32.52600
Mg -5.31500 25.85400 26.10300
C  -4.10200 27.48300 28.89100
C  -7.03600 23.68900 28.03100
C  -6.00200 24.10600 23.29400
C  -3.25600 27.76600 24.10100
N  -5.35500 25.51900 28.21000
C  -4.91400 26.42900 29.14700
C  -5.70500 26.16500 30.52600
C  -6.38400 24.81900 30.25200
C  -6.21000 24.62600 28.72800
C  -5.93600 23.51100 31.04400
C  -6.67700 27.32900 31.02600
C  -7.12900 27.29100 32.47300
H  -6.49300 26.26200 33.46500
N  -6.53800 24.18800 25.67100
C  -7.23100 23.49000 26.62600
C  -8.01500 22.57200 25.97700
C  -7.72400 22.60000 24.55900
C  -6.69800 23.68100 24.43900
C  -9.01600 21.64900 26.64800
C  -8.41700 21.90100 23.42100
O  -8.12700 22.12000 22.22800
C  -9.52400 20.90900 23.73200
N  -4.79700 26.07300 23.95200
C  -5.08300 25.08700 23.05200
C  -4.36100 25.35600 21.70100
C  -3.65400 26.67900 21.97900
C  -3.86000 26.83000 23.45700
C  -3.54000 24.15800 21.11800
C  -4.21600 27.86600 21.07900
C  -3.13300 28.81000 20.44600
N  -4.04600 27.47300 26.36000
C  -3.28000 28.15000 25.43400
C  -2.41600 29.00700 26.17300
C  -2.72500 28.93800 27.53600
C  -3.73500 27.90900 27.58900
C  -1.41200 29.93000 25.52800
C  -2.36800 29.27800 28.88600
O  -1.40900 29.93900 29.36300
C  -3.39400 28.48000 29.81400
C  -2.61600 27.82500 30.97500
O  -1.73600 26.98500 30.93800
O  -3.14600 28.26600 32.16600
C  -2.42700 27.85300 33.39800
H  -7.61400 22.95700 28.59900
H  -6.19100 23.58300 22.35400
H  -2.50400 28.18300 23.42800
H  -4.92700 25.95500 31.26000
H  -7.43800 24.95800 30.49100
H  -5.06600 23.75700 31.65200
H  -5.82000 22.63200 30.41000
H  -6.74200 23.19600 31.70800
H  -7.60700 27.41500 30.46400
H  -6.10000 28.25300 30.98700
H  -8.21800 27.25200 32.47000
H  -7.04600 28.32500 32.80700
H  -10.00700 21.78400 26.21400
H  -9.04800 21.90300 27.70800
H  -8.74000 20.62200 26.41000
H  -10.35500 21.56100 24.00300
H  -9.16700 20.25400 24.52600
H  -9.73600 20.25500 22.88600
H  -5.25400 25.42100 21.07900
H  -2.60200 26.55800 21.72100
H  -3.43500 23.34700 21.83800
H  -2.57500 24.51800 20.76100
H  -3.99000 23.61900 20.28400
H  -4.97900 28.34400 21.69200
H  -4.67800 27.35900 20.23200
H  -3.31000 28.77400 19.37100
H  -2.10800 28.48400 20.62400
H  -3.34500 29.85700 20.66100
H  -1.03500 30.56500 26.33000
H  -1.94000 30.52400 24.78200
H  -0.55400 29.46200 25.04600
H  -4.00700 29.24600 30.28800
H  -2.03100 28.74000 33.89300
H  -1.61900 27.13700 33.24400
H  -3.15200 27.43400 34.09500

