158

Mg 46.26100 3.67400 48.22400
C  44.57500 6.62900 47.18000
C  43.37900 1.92000 47.62800
C  48.09200 0.94600 48.35300
C  49.22300 5.74100 48.31000
N  44.26400 4.23600 47.44100
C  43.78900 5.51500 47.05000
C  42.31200 5.47100 46.64700
C  41.95700 3.98800 46.99500
C  43.26500 3.32900 47.39500
C  40.73400 3.85700 47.94800
C  41.94900 5.99500 45.22500
C  40.59800 6.86500 45.21500
H  39.66100 6.77900 44.07800
N  45.79600 1.64700 48.05400
C  44.60200 1.14000 47.78800
C  44.67200 -0.27100 47.70100
C  46.05800 -0.64500 47.84000
C  46.76000 0.66800 48.13500
C  43.40400 -1.11800 47.27000
C  46.57900 -2.03000 47.54400
O  45.88300 -2.93100 47.12100
C  48.02300 -2.29200 47.88200
N  48.42200 3.47500 48.33300
C  48.83900 2.20000 48.38200
C  50.37800 2.19900 48.68600
C  50.78900 3.70800 48.44500
C  49.39900 4.37200 48.38700
C  50.67800 1.64500 50.10900
C  51.40500 4.05400 47.01300
C  52.92200 4.08600 46.96300
N  46.79200 5.73900 48.01800
C  48.04400 6.44700 48.03600
C  47.78300 7.90000 47.87600
C  46.43700 7.91800 47.47200
C  45.91900 6.64500 47.56800
C  48.88300 8.86500 47.75200
C  45.42300 8.86200 46.98400
O  45.52100 10.03800 46.71100
C  44.22900 8.02400 46.85000
C  43.16600 8.52800 47.73700
O  43.07600 8.35800 48.97500
O  42.20100 9.22000 47.02700
C  41.21500 10.02200 47.74000
H  42.45300 1.41800 47.34200
H  48.74600 0.07800 48.45300
H  50.08600 6.40300 48.40500
H  41.88300 6.01800 47.48700
H  41.73700 3.36000 46.13200
H  40.24800 4.83000 48.02100
H  40.99600 3.43400 48.91800
H  40.07800 3.18700 47.39200
H  41.65900 5.23200 44.50300
H  42.77800 6.53000 44.76300
H  40.89400 7.90900 45.31300
H  40.05900 6.64900 46.13800
H  43.82100 -1.90100 46.63600
H  42.66200 -0.59700 46.66400
H  42.94900 -1.63600 48.11300
H  48.66600 -1.66100 47.26800
H  48.27400 -3.34300 47.73600
H  48.20900 -2.10000 48.93900
H  50.90300 1.58200 47.95700
H  51.25000 4.24200 49.27500
H  49.79000 1.32900 50.65500
H  51.35100 2.28900 50.67600
H  51.34000 0.79400 49.94600
H  51.05200 4.97800 46.55600
H  51.10700 3.25000 46.33800
H  53.13200 3.49000 46.07500
H  53.32300 3.52800 47.81000
H  53.24900 5.12500 46.98800
H  49.47100 8.62800 46.86600
H  49.57300 8.61600 48.55900
H  48.49600 9.88000 47.84400
H  43.76100 8.15200 45.87400
H  40.43200 9.38200 48.14800
H  40.95000 10.69400 46.92400
H  41.72900 10.54600 48.54500
Mg 49.84000 44.91800 42.02500
C  46.56900 45.61400 41.26500
C  49.39200 41.74200 40.68700
C  53.21600 44.58000 42.02500
C  50.27300 48.34300 43.05600
N  48.20900 43.90400 41.00500
C  46.94000 44.38900 40.87400
C  46.16100 43.50900 39.91900
C  46.93400 42.15900 40.04400
C  48.32100 42.65700 40.49500
C  46.43000 41.12900 41.11500
C  46.14000 44.13700 38.44800
C  44.70200 44.24700 37.79200
H  44.32700 43.20400 36.73700
N  51.14300 43.33600 41.46600
C  50.74900 42.10900 41.08600
C  51.91100 41.25300 40.95500
C  53.05100 42.03300 41.31100
C  52.50200 43.38600 41.69600
C  51.90600 39.84700 40.40400
C  54.51800 41.58700 41.26200
O  54.79200 40.48900 40.79200
C  55.60700 42.44800 41.59800
N  51.48900 46.22800 42.59200
C  52.76200 45.87200 42.36200
C  53.78500 46.98400 42.83400
C  52.83300 48.08100 43.34300
C  51.41800 47.55300 42.96600
C  54.93400 46.47200 43.81800
C  53.28600 49.54400 42.88000
C  52.76000 50.77000 43.68800
N  48.70900 46.64300 42.19200
C  48.96400 47.93700 42.67300
C  47.75700 48.69200 42.72700
C  46.75700 47.84500 42.19100
C  47.36100 46.59700 41.89600
C  47.62400 50.12000 43.17900
C  45.28100 47.64800 41.88900
O  44.32000 48.34700 42.07800
C  45.17400 46.22200 41.09800
C  44.04100 45.46200 41.68600
O  44.10000 44.83300 42.74700
O  42.92200 45.58000 40.88200
C  41.72300 45.11700 41.63100
H  49.20100 40.70100 40.41800
H  54.30400 44.49700 41.96700
H  50.50100 49.27100 43.58500
H  45.15100 43.36300 40.30200
H  47.01500 41.66800 39.07400
H  46.05700 40.21100 40.66100
H  45.59400 41.51700 41.69700
H  47.21900 40.86000 41.81800
H  46.56400 43.36100 37.81100
H  46.70800 45.05600 38.30500
H  44.63000 45.20400 37.27500
H  43.95800 44.16100 38.58400
H  52.07400 39.78700 39.32800
H  50.90500 39.43000 40.51400
H  52.65600 39.29300 40.96800
H  55.52300 42.93700 42.56800
H  55.78700 43.17700 40.80800
H  56.55100 41.90400 41.60000
H  54.26500 47.39000 41.94400
H  52.77400 48.15100 44.43000
H  54.93700 46.99600 44.77400
H  55.94400 46.56200 43.41800
H  54.76600 45.41800 44.04100
H  53.00100 49.60200 41.82900
H  54.37100 49.59900 42.79100
H  53.49000 51.57900 43.68800
H  52.69600 50.53900 44.75200
H  51.77200 51.10300 43.37000
H  48.18500 50.29500 44.09700
H  46.58000 50.32200 43.42200
H  48.03100 50.87100 42.50300
H  44.96600 46.48800 40.06200
H  41.56300 45.66200 42.56100
H  41.73400 44.03100 41.71400
H  40.87600 45.45900 41.03600

