158

Mg 17.67500 -1.72800 27.59000
C  16.53100 0.08100 30.45000
C  19.71800 -3.43600 29.69500
C  19.37700 -2.71300 24.80400
C  15.79400 0.46300 25.65700
N  18.13300 -1.53500 29.87500
C  17.42400 -0.86100 30.81700
C  17.91600 -1.20100 32.30400
C  19.01500 -2.29100 31.98600
C  18.94900 -2.45700 30.39200
C  20.36200 -2.01100 32.56600
C  16.70400 -1.60700 33.21800
C  16.60200 -0.92200 34.59900
H  17.80500 -0.26000 35.20400
N  19.12100 -3.03000 27.29000
C  19.81600 -3.70700 28.30900
C  20.67600 -4.73900 27.66900
C  20.61700 -4.45700 26.28100
C  19.64000 -3.33000 26.02600
C  21.28900 -5.90300 28.46900
C  21.62100 -5.12000 25.16900
O  21.42900 -4.80100 23.96300
C  22.63700 -6.04800 25.65400
N  17.62300 -1.15900 25.52900
C  18.43200 -1.71600 24.57900
C  18.13000 -1.16200 23.21400
C  16.83300 -0.36200 23.40600
C  16.70700 -0.30200 24.93300
C  19.34900 -0.40900 22.53900
C  15.52700 -1.00600 22.81600
C  14.49800 -0.03000 22.20700
N  16.29500 -0.17700 27.88700
C  15.65400 0.62000 27.01700
C  14.74500 1.53600 27.65700
C  15.12300 1.43400 29.03200
C  16.06500 0.32500 29.09700
C  13.87000 2.47500 26.97200
C  14.84300 1.89700 30.44600
O  13.98000 2.69700 30.87100
C  15.82300 1.09600 31.38000
C  16.71900 2.09600 31.94500
O  17.84600 2.41600 31.54200
O  15.98800 2.66600 32.93600
C  16.77700 3.67400 33.62300
H  20.35300 -4.03300 30.35200
H  20.06100 -2.93700 23.98300
H  15.27300 1.14900 24.98500
H  18.38600 -0.29300 32.68100
H  18.70900 -3.13500 32.60400
H  20.52800 -2.67800 33.41200
H  20.50800 -0.98000 32.88600
H  21.15500 -2.18000 31.83700
H  16.68000 -2.69600 33.23500
H  15.78900 -1.35200 32.68200
H  16.21000 -1.66000 35.29900
H  15.77000 -0.21800 34.61100
H  21.01100 -6.82600 27.96000
H  20.84500 -5.94400 29.46400
H  22.37300 -5.80000 28.51100
H  23.46600 -5.69700 26.26800
H  23.01900 -6.44600 24.71400
H  22.00800 -6.76900 26.17800
H  17.79100 -2.01900 22.63200
H  16.88300 0.63500 22.96800
H  20.28300 -0.54000 23.08600
H  19.14200 0.66000 22.58300
H  19.40200 -0.66600 21.48100
H  15.07100 -1.51400 23.66600
H  15.68800 -1.77100 22.05600
H  14.40900 -0.08500 21.12200
H  14.64100 1.02200 22.45200
H  13.53800 -0.28300 22.65600
H  13.18900 1.91900 26.32800
H  14.48400 3.14200 26.36600
H  13.26100 3.04700 27.67300
H  15.22100 0.69500 32.19600
H  16.91500 4.47200 32.89400
H  17.63400 3.19500 34.09700
H  16.20100 4.02900 34.47700
Mg 41.35200 40.99400 26.89000
C  40.71300 43.28700 29.57100
C  42.30500 38.79700 29.39200
C  42.08100 38.92700 24.56000
C  40.85900 43.67300 24.60000
N  41.45100 41.02800 29.20800
C  41.11400 42.01500 30.05700
C  41.04200 41.55000 31.51100
C  41.91900 40.29400 31.43400
C  41.93800 40.00400 29.89500
C  43.44000 40.56600 32.00400
C  39.63300 41.38400 32.13700
C  39.25600 42.36500 33.30700
H  38.48800 41.77900 34.51200
N  41.95700 39.09000 27.00600
C  42.26700 38.40200 28.14000
C  42.67800 37.03200 27.76300
C  42.68900 37.03800 26.31300
C  42.15100 38.36900 25.87300
C  42.97200 35.89200 28.70300
C  43.07500 35.92900 25.36700
O  42.91300 35.96800 24.17000
C  43.60300 34.64600 25.89600
N  41.64700 41.31500 24.84200
C  41.77400 40.17700 24.10700
C  41.73500 40.52500 22.60700
C  41.22700 41.96600 22.67600
C  41.26600 42.34700 24.10800
C  43.07300 40.30800 21.96500
C  39.90200 42.31400 21.98700
C  38.63400 41.74200 22.63100
N  40.75900 42.99700 26.96900
C  40.70600 43.99300 26.01200
C  40.33300 45.26300 26.58700
C  40.31500 44.98000 27.99500
C  40.61600 43.59600 28.14500
C  40.02400 46.56800 25.85200
C  40.07400 45.69700 29.25600
O  39.92000 46.92000 29.41500
C  40.30400 44.57400 30.34400
C  41.36600 45.09900 31.31600
O  42.56100 44.93700 31.19000
O  40.82000 45.75500 32.38800
C  41.69600 46.41300 33.43400
H  42.66800 38.09300 30.14400
H  42.29800 38.18800 23.78600
H  40.65700 44.43500 23.84500
H  41.63000 42.30100 32.04000
H  41.42400 39.42800 31.87300
H  44.14300 40.62200 31.17300
H  43.64500 39.89400 32.83700
H  43.52600 41.54400 32.47700
H  39.50500 40.37500 32.53000
H  38.88600 41.62500 31.38100
H  38.69000 43.19300 32.87800
H  40.15600 42.80300 33.73700
H  42.28400 35.05500 28.58200
H  42.91100 36.24300 29.73300
H  43.95900 35.50300 28.45300
H  42.79300 34.23000 26.49500
H  44.51500 34.76100 26.48200
H  43.66700 34.02400 25.00300
H  41.05000 39.83100 22.12000
H  41.92600 42.63800 22.17700
H  43.13600 39.36200 21.42600
H  43.83000 40.26700 22.74800
H  43.31500 41.05400 21.20800
H  39.92900 41.80700 21.02200
H  39.80200 43.39500 21.88300
H  38.87500 41.10000 23.47900
H  37.97600 41.24300 21.91900
H  38.13500 42.62200 23.03700
H  39.62400 47.29700 26.55700
H  39.23700 46.40600 25.11600
H  40.88900 47.02800 25.37300
H  39.36400 44.47500 30.88600
H  42.76300 46.30800 33.23300
H  41.55500 45.86200 34.36400
H  41.42100 47.44500 33.65100

