158

Mg 8.60400 3.56100 27.71600
C  10.15400 2.12600 30.57500
C  7.12000 5.78300 29.71200
C  7.05000 4.70900 24.99700
C  9.88200 0.89300 25.87700
N  8.62300 3.83700 29.89800
C  9.29400 3.12700 30.83600
C  9.04600 3.72100 32.29100
C  8.08600 4.91800 31.91700
C  7.91600 4.87500 30.43800
C  6.69900 4.83000 32.65100
C  10.30300 4.23700 32.97900
C  10.08400 4.99100 34.33800
H  10.76200 4.38600 35.61800
N  7.38600 5.00600 27.36900
C  6.91300 5.87200 28.34000
C  6.22000 6.94300 27.65300
C  6.11900 6.54600 26.31600
C  6.89900 5.35700 26.22400
C  5.60300 8.16800 28.34000
C  5.36300 7.25800 25.12300
O  5.54700 7.08300 23.91300
C  4.44900 8.45000 25.52300
N  8.37100 2.82300 25.68200
C  7.78000 3.54000 24.72300
C  7.87800 2.89200 23.36500
C  8.76600 1.68400 23.62300
C  9.07000 1.78700 25.14800
C  6.51200 2.58100 22.60900
C  10.00100 1.74700 22.67100
C  10.00000 0.57400 21.62900
N  9.85300 1.85700 28.05100
C  10.34400 0.91500 27.19000
C  11.15300 -0.01300 27.90600
C  11.14400 0.49600 29.19900
C  10.34600 1.61500 29.26400
C  11.91900 -1.10100 27.37700
C  11.62400 0.20100 30.58400
O  12.36300 -0.64900 30.95200
C  10.92400 1.24200 31.51200
C  10.09500 0.69500 32.54700
O  9.17300 -0.13000 32.42300
O  10.51900 1.22800 33.76600
C  10.11100 0.37700 34.95600
H  6.68800 6.49300 30.42000
H  6.58600 5.05600 24.07100
H  10.22500 0.08800 25.22500
H  8.48100 3.07100 32.95900
H  8.46200 5.88900 32.23900
H  6.52800 5.78600 33.14600
H  6.80100 4.14000 33.48900
H  5.92600 4.64600 31.90500
H  10.86000 4.85100 32.27100
H  10.89800 3.35300 33.20700
H  9.00600 5.02900 34.49800
H  10.32000 6.05000 34.23700
H  4.53600 8.28900 28.15000
H  6.15800 8.95100 27.82300
H  5.77700 8.18900 29.41500
H  3.78400 8.74000 24.70900
H  5.15200 9.17500 25.93300
H  3.78400 7.99800 26.25900
H  8.29100 3.65500 22.70500
H  8.30700 0.71700 23.41600
H  5.65400 2.84600 23.22800
H  6.34200 1.50500 22.57700
H  6.39900 3.05000 21.63200
H  10.90900 1.68600 23.27000
H  10.01800 2.69300 22.13000
H  9.31200 -0.23800 21.86400
H  11.02900 0.21600 21.58800
H  9.62000 0.85000 20.64600
H  12.69100 -1.43500 28.07000
H  12.23300 -0.96600 26.34200
H  11.18200 -1.89800 27.47300
H  11.75800 1.71200 32.03300
H  10.68300 -0.55100 34.95300
H  9.06000 0.09300 34.91500
H  10.19400 0.80100 35.95700
Mg 46.49200 34.64700 28.19100
C  44.87700 32.67900 30.58900
C  46.52200 37.30600 30.37500
C  47.22500 36.72600 25.57900
C  45.39000 32.20900 25.71100
N  46.01200 34.76900 30.29800
C  45.44900 33.82600 31.10000
C  45.40400 34.32800 32.50500
C  45.45500 35.90600 32.30700
C  46.01700 36.05500 30.87800
C  44.19800 36.74800 32.62300
C  46.63900 33.84200 33.25700
C  46.52700 33.81100 34.80000
H  45.60400 34.77200 35.52600
N  47.05900 36.64900 28.10400
C  47.04900 37.56200 29.14400
C  47.71100 38.76300 28.64200
C  47.84200 38.64700 27.23200
C  47.33800 37.30100 26.90700
C  47.98800 39.90800 29.61700
C  48.40900 39.66200 26.30600
O  48.60200 39.45500 25.10400
C  48.82500 41.09500 26.84500
N  46.26200 34.52700 25.90500
C  46.86400 35.42200 25.16100
C  46.85100 34.97900 23.64400
C  46.48200 33.44800 23.81600
C  46.01700 33.36500 25.23100
C  45.80200 35.82800 22.83300
C  47.70700 32.53400 23.54200
C  47.44500 31.21400 22.80400
N  45.47100 32.76400 28.10100
C  45.15800 31.89300 27.05100
C  44.60800 30.69200 27.67700
C  44.53900 30.98600 29.03900
C  44.96300 32.27200 29.21900
C  44.29200 29.45700 26.84600
C  44.11800 30.42200 30.30800
O  43.82300 29.31300 30.58800
C  43.92400 31.62600 31.26800
C  44.18600 31.22300 32.73000
O  44.98700 30.36400 33.09200
O  43.23700 31.78700 33.48000
C  43.03700 31.48100 34.86600
H  46.27200 38.12500 31.05300
H  47.50300 37.46600 24.82500
H  45.25100 31.42500 24.96400
H  44.50400 33.93300 32.97500
H  46.11400 36.20800 33.12000
H  44.26700 37.42100 33.47800
H  43.46900 35.96500 32.83400
H  43.86300 37.49700 31.90700
H  47.55500 34.29200 32.87700
H  46.77600 32.79300 32.99200
H  47.52600 33.99100 35.19500
H  46.30700 32.79200 35.12000
H  47.89600 39.53500 30.63700
H  47.39700 40.79000 29.36800
H  49.04100 40.14400 29.45900
H  49.07100 41.64700 25.93900
H  49.71100 41.01200 27.47500
H  47.99400 41.56400 27.37400
H  47.79500 35.10900 23.11500
H  45.72100 33.06800 23.13500
H  44.86400 35.35900 22.53600
H  46.32700 36.39300 22.06300
H  45.53700 36.60600 23.55000
H  48.20300 32.31200 24.48700
H  48.45200 33.10300 22.98600
H  46.47900 31.27200 22.30200
H  47.53300 30.33700 23.44500
H  48.19400 31.22600 22.01300
H  45.17700 29.19800 26.26500
H  43.48200 29.59100 26.12900
H  44.07200 28.62400 27.51300
H  42.93500 32.08400 31.28100
H  41.98400 31.32400 35.10000
H  43.50900 32.24900 35.47900
H  43.66500 30.59900 34.99100

