158

Mg 47.05700 45.13800 43.06100
C  43.66700 44.12000 43.23900
C  47.76200 41.69800 42.45000
C  50.12600 45.99000 42.61200
C  46.00400 48.51200 43.40800
N  45.78100 43.14700 42.81200
C  44.49000 43.01400 43.01300
C  44.02300 41.52500 42.71800
C  45.40000 40.81000 42.85900
C  46.38700 41.96700 42.70000
C  45.55300 39.79800 44.03000
C  43.20000 41.23100 41.51800
C  43.62300 42.01200 40.30700
H  43.19800 41.50700 38.93700
N  48.73600 43.96900 42.42800
C  48.84500 42.54900 42.23300
C  50.21200 42.21300 41.91700
C  50.89900 43.49300 41.85700
C  49.97700 44.57100 42.33100
C  50.72800 40.86400 41.59900
C  52.40700 43.60100 41.53400
O  53.09900 42.65500 41.23200
C  53.06600 44.95700 41.53600
N  47.95500 47.05400 42.95500
C  49.27500 47.09800 42.92900
C  49.73300 48.54100 43.05700
C  48.47200 49.36300 43.35300
C  47.37600 48.28400 43.27100
C  50.96800 48.81600 43.95900
C  48.14600 50.51900 42.29100
C  47.64700 51.73800 42.99000
N  45.23400 46.12900 43.32300
C  44.99800 47.47300 43.42400
C  43.54500 47.70000 43.62000
C  42.98700 46.37800 43.50800
C  44.09000 45.51900 43.30700
C  42.76700 49.04800 43.83100
C  41.73500 45.63800 43.30800
O  40.62000 46.07200 43.13000
C  42.12800 44.15700 43.40600
C  41.80500 43.66400 44.81700
O  42.31900 44.15200 45.76900
O  41.09100 42.50600 44.77600
C  40.87400 41.87900 46.08900
H  47.98300 40.62900 42.44100
H  51.18400 46.25300 42.65700
H  45.78800 49.57300 43.55100
H  43.41300 41.23200 43.57200
H  45.56200 40.21700 41.95900
H  45.97400 38.89500 43.58800
H  44.61400 39.61100 44.55100
H  46.30500 40.23900 44.68500
H  42.12700 41.34400 41.67400
H  43.34900 40.15200 41.48500
H  44.71100 42.05200 40.26000
H  43.30400 43.04200 40.46800
H  49.80900 40.32300 41.37600
H  51.12400 40.36600 42.48400
H  51.30600 40.95900 40.68000
H  52.47400 45.78500 41.14900
H  53.92800 44.78700 40.89100
H  53.36200 45.12700 42.57100
H  50.06300 48.79000 42.04900
H  48.53700 49.72100 44.38100
H  51.08600 47.96700 44.63200
H  50.83500 49.77700 44.45700
H  51.83500 48.91200 43.30600
H  47.39700 50.14000 41.59600
H  49.09200 50.72300 41.78900
H  48.43600 52.48900 42.96100
H  47.33900 51.60400 44.02600
H  46.83100 52.14900 42.39700
H  41.68400 49.05900 43.71100
H  43.13400 49.75500 43.08700
H  43.03800 49.60100 44.73000
H  41.53600 43.53200 42.73800
H  41.86400 41.70400 46.51100
H  40.48600 40.87700 45.90500
H  40.36600 42.65400 46.66200
Mg 5.75000 54.25700 40.60700
C  5.77400 50.72000 40.60800
C  9.04400 54.18400 39.66000
C  5.57000 57.51600 39.87700
C  2.17500 54.00800 41.01100
N  7.24500 52.54100 39.99900
C  7.05600 51.22700 40.28800
C  8.44100 50.44600 40.21900
C  9.47700 51.63400 40.10400
C  8.57500 52.87500 39.92000
C  10.34500 51.78200 41.34200
C  8.46500 49.46800 38.99700
C  8.29200 50.17500 37.58900
H  6.99300 49.84900 36.85600
N  7.16300 55.66700 39.97800
C  8.45500 55.43200 39.64800
C  9.09700 56.71400 39.42200
C  8.08000 57.70600 39.57600
C  6.89400 56.99800 39.83200
C  10.56700 57.04800 39.19800
C  8.28100 59.24000 39.46700
O  9.32300 59.78500 39.20400
C  7.13500 60.07800 39.86700
N  4.11200 55.54100 40.50300
C  4.32900 56.87600 40.06300
C  2.92000 57.58900 40.01500
C  1.86700 56.59500 40.44200
C  2.72200 55.24400 40.66300
C  2.86300 58.87500 40.90300
C  0.67700 56.57100 39.45800
C  -0.46000 57.41000 39.84700
N  4.23500 52.81000 40.91300
C  2.90700 52.81200 41.14500
C  2.41400 51.42300 41.45400
C  3.55800 50.68300 41.36300
C  4.56300 51.48700 40.84400
C  1.00200 50.98000 41.91800
C  3.99100 49.34900 41.64800
O  3.48500 48.39000 42.15600
C  5.40800 49.30300 40.98900
C  5.21200 48.34200 39.82100
O  4.73500 48.58100 38.73200
O  5.58800 47.11000 40.19900
C  5.16600 46.05600 39.22600
H  10.13000 54.22100 39.54700
H  5.35000 58.56100 39.64800
H  1.12000 53.94400 41.28700
H  8.60400 49.93100 41.16600
H  10.12900 51.42600 39.25500
H  11.38700 51.80700 41.02300
H  10.28100 50.87500 41.94400
H  10.06100 52.65000 41.93600
H  7.71800 48.67800 38.90600
H  9.48700 49.09500 39.04800
H  9.11200 49.91300 36.92000
H  8.35500 51.25500 37.72000
H  11.04800 57.37100 40.12100
H  10.69500 57.80400 38.42300
H  11.11700 56.15700 38.89700
H  6.41400 60.21300 39.06200
H  7.43800 61.08800 40.14600
H  6.59200 59.79300 40.76800
H  2.77400 57.99600 39.01400
H  1.33800 56.84000 41.36300
H  3.84600 59.31400 41.07300
H  2.44300 58.60400 41.87200
H  2.23500 59.64700 40.45900
H  0.44500 55.50700 39.41900
H  1.01400 56.91900 38.48100
H  -0.15300 58.25100 40.46800
H  -1.08700 56.79700 40.49600
H  -1.04100 57.76400 38.99500
H  1.15900 50.34400 42.78900
H  0.50500 50.54500 41.05100
H  0.27700 51.72700 42.24000
H  6.07500 48.85200 41.72300
H  6.02500 45.58900 38.74300
H  4.45800 46.30100 38.43500
H  4.65000 45.26800 39.77400

