158

Mg 49.15100 34.46800 27.09700
C  47.14700 33.44800 29.60900
C  49.99200 37.34200 28.99800
C  51.03000 35.59600 24.50400
C  48.06800 31.87400 25.00100
N  48.64400 35.29400 29.05000
C  47.90300 34.59100 30.01100
C  48.06500 35.22500 31.37200
C  48.51000 36.61600 30.97400
C  49.13700 36.46300 29.59400
C  47.25600 37.66800 30.98400
C  49.06000 34.42100 32.20800
C  48.61500 33.90300 33.57700
H  47.40200 34.65700 34.15700
N  50.44000 36.18200 26.82800
C  50.60900 37.22100 27.70500
C  51.54600 38.18500 27.14400
C  51.80600 37.76100 25.81100
C  51.04600 36.44700 25.65500
C  51.89900 39.46200 27.92900
C  52.63300 38.48700 24.77500
O  52.97500 37.96100 23.71300
C  53.37400 39.84700 25.03200
N  49.39400 33.94200 25.04100
C  50.35000 34.39900 24.29000
C  50.56300 33.70800 22.97700
C  49.83000 32.34600 23.26800
C  49.04200 32.73500 24.46900
C  50.05800 34.44700 21.71100
C  50.67000 31.08000 23.39300
C  50.51500 30.06000 22.26200
N  47.74300 32.96700 27.15000
C  47.50500 31.90100 26.30000
C  46.62400 30.99700 27.00400
C  46.32400 31.63100 28.20000
C  47.08200 32.81600 28.34000
C  46.12500 29.60900 26.55000
C  45.62600 31.53000 29.43700
O  44.93500 30.63100 29.77200
C  46.13600 32.63100 30.41200
C  46.82500 31.79000 31.49400
O  47.95300 31.36100 31.55900
O  45.90300 31.61400 32.49200
C  46.29200 30.84100 33.76500
H  50.20100 38.23400 29.59100
H  51.65900 35.88500 23.65900
H  47.79100 31.02000 24.38000
H  47.04600 35.18900 31.75800
H  49.18000 37.15000 31.64700
H  47.58300 38.57500 31.49100
H  46.45500 37.27700 31.61200
H  46.82300 37.97600 30.03300
H  49.94200 35.04400 32.35300
H  49.29700 33.55500 31.59100
H  49.45600 33.89900 34.27000
H  48.45800 32.82700 33.50000
H  51.47600 39.52300 28.93200
H  51.75700 40.38700 27.36900
H  52.97800 39.39800 28.06200
H  53.98500 40.13900 24.17800
H  53.98600 39.66500 25.91600
H  52.56900 40.53800 25.28100
H  51.64900 33.77000 22.92200
H  49.13300 32.27700 22.43300
H  49.34500 33.91400 21.08200
H  50.87400 34.65800 21.02100
H  49.65800 35.39000 22.08600
H  50.39700 30.61200 24.33900
H  51.73500 31.27400 23.26800
H  49.82200 30.31200 21.45900
H  50.11300 29.14200 22.68900
H  51.46800 29.81600 21.79300
H  46.95000 28.90000 26.49400
H  45.77200 29.80900 25.53900
H  45.36900 29.14100 27.18000
H  45.19000 33.10700 30.66800
H  45.68700 29.93600 33.83700
H  46.09100 31.38000 34.69100
H  47.33300 30.54800 33.89700
Mg 16.78500 52.05000 26.25500
C  18.83900 51.07100 28.98300
C  14.28500 52.84200 28.51800
C  14.74100 52.99600 23.80200
C  19.09300 50.69600 24.10500
N  16.68200 52.04900 28.52400
C  17.65800 51.73300 29.42200
C  17.21400 52.22100 30.81000
C  15.64700 52.45000 30.65700
C  15.52800 52.47900 29.14500
C  14.86700 51.24500 31.21400
C  18.02700 53.46300 31.25500
C  18.19400 53.60400 32.78200
H  17.12300 53.20900 33.74500
N  14.81000 52.89900 26.18700
C  13.96900 53.16600 27.19800
C  12.70800 53.57300 26.63600
C  12.80200 53.69600 25.23100
C  14.13900 53.25900 25.00000
C  11.51300 53.82300 27.47200
C  11.79100 54.11900 24.11900
O  12.03400 54.20600 22.92000
C  10.39400 54.40200 24.35300
N  16.84300 51.80100 24.31900
C  15.98900 52.45700 23.40700
C  16.51800 52.32400 21.98800
C  17.85800 51.62000 22.12200
C  17.96300 51.31200 23.63700
C  15.53100 51.61200 21.04100
C  19.04500 52.55600 21.70000
C  20.14200 51.88800 20.86200
N  18.60900 51.04000 26.46600
C  19.46400 50.47600 25.44800
C  20.61600 49.87400 26.07900
C  20.48700 50.07500 27.44500
C  19.25500 50.76600 27.59700
C  21.57100 48.97200 25.43700
C  20.99200 49.79600 28.77900
O  21.89800 49.04400 29.18100
C  20.03400 50.59800 29.84700
C  19.56500 49.67300 30.85400
O  18.93600 48.64200 30.50700
O  19.89300 50.12200 32.10500
C  19.43900 49.34700 33.22600
H  13.54000 53.09000 29.27700
H  14.26500 53.26400 22.85600
H  19.87200 50.37900 23.40900
H  17.45100 51.47300 31.56600
H  15.38200 53.44300 31.02100
H  14.50900 50.57700 30.43100
H  13.94000 51.43900 31.75400
H  15.49300 50.57600 31.80400
H  17.53400 54.40100 31.00200
H  19.01200 53.41100 30.79100
H  18.51800 54.63300 32.93600
H  19.01500 52.96100 33.09800
H  11.16500 54.76600 27.05200
H  11.77300 54.00900 28.51400
H  10.69000 53.11900 27.34500
H  9.89000 54.77300 23.46100
H  10.28700 55.19000 25.09900
H  9.89300 53.54300 24.79900
H  16.70200 53.35300 21.67900
H  18.04000 50.64400 21.67300
H  16.09000 50.83700 20.51600
H  15.18600 52.27400 20.24600
H  14.70200 51.06700 21.49200
H  19.54800 53.02900 22.54300
H  18.66600 53.32500 21.02700
H  21.10800 52.01300 21.35100
H  20.32600 52.36600 19.90000
H  19.91500 50.83400 20.70600
H  22.18500 48.65200 26.27900
H  22.08000 49.52000 24.64400
H  21.15400 48.12900 24.88600
H  20.39300 51.50300 30.33800
H  18.50700 48.81200 33.04200
H  19.26600 50.08200 34.01200
H  20.27700 48.73300 33.55700

