158

Mg 40.18300 9.11600 29.15800
C  42.06000 10.49600 31.84600
C  38.32800 7.35400 31.48100
C  38.55000 7.73800 26.64600
C  42.83300 9.82900 27.02500
N  40.10500 9.09500 31.40600
C  40.90200 9.82200 32.31000
C  40.47200 9.59500 33.78300
C  39.34700 8.46100 33.63500
C  39.29900 8.22500 32.07300
C  39.38800 7.19200 34.45200
C  40.14200 10.99100 34.35500
C  39.13300 11.00100 35.53800
H  39.40200 11.89200 36.79000
N  38.55300 7.82600 29.04000
C  37.94100 7.22600 30.09700
C  36.71400 6.46300 29.56600
C  36.69400 6.75300 28.22500
C  37.95900 7.47100 27.88500
C  35.78900 5.63200 30.39900
C  35.64400 6.29000 27.15900
O  35.74000 6.60000 25.97500
C  34.47000 5.53100 27.54100
N  40.53800 8.96900 27.15600
C  39.72700 8.31200 26.27300
C  40.19700 8.42100 24.83200
C  41.67600 8.86400 24.99200
C  41.71100 9.20500 26.46800
C  40.02500 7.08200 24.06900
C  42.26500 9.98800 23.98600
C  41.71800 11.38200 24.24100
N  42.02500 10.09100 29.33500
C  42.99700 10.25000 28.36000
C  44.09000 10.89600 28.98100
C  43.75300 11.07600 30.29600
C  42.52000 10.49600 30.51000
C  45.42600 11.27000 28.41900
C  44.30300 11.52400 31.51600
O  45.31700 12.21400 31.75800
C  43.19000 11.20600 32.58300
C  43.68600 10.39200 33.67400
O  43.84100 9.20100 33.62400
O  43.97500 11.08900 34.80600
C  44.39400 10.40700 36.02600
H  37.67400 6.84800 32.19400
H  37.91600 7.36300 25.83900
H  43.65100 10.08100 26.34800
H  41.31100 9.22200 34.36900
H  38.33100 8.82900 33.77900
H  38.40400 7.05600 34.90100
H  40.16200 7.25700 35.21700
H  39.60400 6.36400 33.77800
H  39.71400 11.62600 33.57900
H  41.11100 11.43500 34.58500
H  38.88600 10.01200 35.92500
H  38.23800 11.42200 35.08000
H  36.16400 5.51600 31.41600
H  35.67100 4.67000 29.89900
H  34.81400 6.11900 30.43800
H  33.93900 5.23700 26.63500
H  33.93500 6.01100 28.36000
H  34.83700 4.58200 27.93200
H  39.69000 9.29100 24.41400
H  42.32700 7.99000 24.96100
H  40.94400 6.82200 23.54300
H  39.25800 7.12400 23.29500
H  39.79500 6.26400 24.75100
H  42.02200 9.80200 22.94000
H  43.35000 9.91900 24.06300
H  40.89800 11.40200 24.95900
H  41.40100 11.80000 23.28500
H  42.60000 11.97400 24.48600
H  45.38300 10.99100 27.36600
H  46.19900 10.75100 28.98500
H  45.45100 12.35300 28.53600
H  42.86000 12.14900 33.01900
H  43.69700 10.75100 36.79000
H  45.41300 10.72900 36.24200
H  44.33200 9.32800 36.17200
Mg 30.64600 58.06200 40.74700
C  27.89600 55.80100 39.89200
C  32.71200 55.59700 39.67700
C  32.92500 60.36200 40.84700
C  28.05400 60.43100 41.38900
N  30.34900 55.96100 39.80600
C  29.15800 55.26300 39.56000
C  29.50300 54.07900 38.66900
C  30.97500 53.88200 38.95700
C  31.37900 55.22600 39.51600
C  31.43400 52.65100 39.86000
C  29.11200 54.32600 37.17700
C  28.13500 53.33100 36.56100
H  27.01800 53.81600 35.61900
N  32.67500 57.92500 40.43500
C  33.35900 56.80000 40.08600
C  34.75500 57.11000 40.10900
C  34.89400 58.52300 40.32100
C  33.47000 59.05400 40.46900
C  35.88100 56.14200 39.68600
C  36.13000 59.36800 40.27300
O  37.24000 58.90800 40.17800
C  35.97400 60.85700 40.39600
N  30.48000 60.16300 41.01000
C  31.64100 60.84000 41.09600
C  31.27400 62.37800 41.42900
C  29.72600 62.30300 41.73200
C  29.37800 60.87600 41.32300
C  32.09600 63.07000 42.55600
C  28.90800 63.46500 40.99700
C  27.73300 64.05100 41.78100
N  28.43600 58.18900 40.61400
C  27.59800 59.16300 40.94200
C  26.22500 58.72100 40.85500
C  26.28700 57.39700 40.44600
C  27.63600 57.08300 40.36600
C  25.03800 59.64500 41.06100
C  25.53700 56.20100 40.11800
O  24.31900 55.94300 40.14900
C  26.54300 55.11400 39.61700
C  26.34400 53.91400 40.40400
O  26.39300 53.74800 41.62200
O  26.23100 52.82100 39.56700
C  25.67100 51.61600 40.27400
H  33.41500 54.88800 39.23500
H  33.62900 61.18800 40.96600
H  27.31800 61.22600 41.52700
H  28.94900 53.24400 39.09900
H  31.50400 53.83100 38.00500
H  30.61100 52.07100 40.27800
H  32.00000 53.02800 40.71200
H  32.02300 51.94600 39.27400
H  30.03100 54.25500 36.59300
H  28.73400 55.34700 37.13300
H  27.66300 52.81000 37.39500
H  28.64000 52.46700 36.13000
H  36.66400 56.67300 39.14400
H  35.52800 55.35300 39.02200
H  36.28800 55.65100 40.56900
H  35.51100 61.12800 41.34500
H  35.45800 61.16400 39.48600
H  36.94400 61.32700 40.23200
H  31.33000 62.91800 40.48400
H  29.44600 62.43400 42.77700
H  32.65900 63.91200 42.15200
H  32.86500 62.41500 42.96500
H  31.41500 63.50100 43.29000
H  28.56500 63.13400 40.01600
H  29.52900 64.32600 40.74600
H  28.09600 65.00800 42.15700
H  27.39300 63.48600 42.64900
H  26.91100 64.17300 41.07600
H  25.25900 60.71200 41.09500
H  24.69100 59.50900 42.08500
H  24.22000 59.55400 40.34700
H  26.45600 54.78800 38.58000
H  26.59500 51.09300 40.52300
H  25.06400 51.04700 39.57000
H  25.11600 51.78500 41.19700

