158

Mg 27.35000 50.16600 27.02600
C  25.11500 51.07900 29.65500
C  29.70500 49.42600 29.36900
C  29.57300 49.63700 24.55700
C  24.99500 51.23200 24.75500
N  27.33000 50.28800 29.24200
C  26.33600 50.65800 30.11100
C  26.73600 50.38100 31.60600
C  28.27400 49.89300 31.41200
C  28.46400 49.81700 29.90200
C  29.21000 50.93300 32.07100
C  25.86100 49.29100 32.22300
C  25.09100 49.67100 33.51500
H  25.25500 48.77100 34.70000
N  29.36800 49.53800 26.95400
C  30.15400 49.22500 28.00300
C  31.48900 48.68700 27.55100
C  31.49300 49.04600 26.17700
C  30.09400 49.40700 25.82200
C  32.59700 48.16500 28.42900
C  32.62900 49.11700 25.19700
O  32.52300 49.65000 24.10000
C  33.98700 48.67200 25.65500
N  27.30600 50.43900 24.94500
C  28.26900 49.98800 24.08900
C  27.80500 50.07200 22.60900
C  26.38000 50.71800 22.73900
C  26.22800 50.76600 24.21300
C  28.88500 50.70000 21.61500
C  25.20600 50.00500 22.06400
C  24.28500 50.72500 21.07900
N  25.37200 50.92800 27.10800
C  24.58900 51.39800 26.11900
C  23.38700 51.89000 26.61200
C  23.56900 51.82700 28.02000
C  24.78500 51.21300 28.27400
C  22.19800 52.53300 25.79100
C  22.96900 52.11700 29.27700
O  21.96200 52.69700 29.61500
C  23.92900 51.56200 30.43400
C  24.08600 52.77300 31.30000
O  24.36400 53.85100 30.90100
O  23.70100 52.39000 32.54300
C  23.87200 53.36600 33.61300
H  30.36600 49.08800 30.17000
H  30.26700 49.47900 23.72900
H  24.23600 51.35600 23.98000
H  26.68300 51.26000 32.24800
H  28.38200 48.90500 31.86000
H  29.81200 50.54900 32.89500
H  28.67500 51.74300 32.56600
H  29.83900 51.42600 31.33000
H  26.36600 48.35800 32.47500
H  25.07100 49.00200 31.53000
H  24.05000 49.58400 33.20400
H  25.29800 50.68900 33.84600
H  33.28700 47.52100 27.88300
H  32.21700 47.51300 29.21500
H  33.09100 48.96700 28.97800
H  34.72700 49.06200 24.95700
H  33.94200 47.58500 25.72500
H  34.06500 49.20700 26.60100
H  27.84000 49.07300 22.17300
H  26.50400 51.76700 22.46700
H  29.69500 51.21000 22.13700
H  28.32000 51.39400 20.99200
H  29.26600 49.98100 20.89000
H  24.68300 49.44500 22.84000
H  25.64900 49.23400 21.43400
H  24.53400 50.26500 20.12200
H  24.57300 51.77600 21.10800
H  23.23000 50.75400 21.35200
H  22.16000 51.86500 24.93000
H  22.39900 53.58500 25.59000
H  21.28300 52.49100 26.38200
H  23.43200 50.77900 31.00700
H  24.16400 54.35000 33.24700
H  24.61700 53.02000 34.33000
H  22.90000 53.52700 34.08000
Mg 7.40600 53.98900 42.29400
C  6.68200 50.52400 41.97500
C  10.38600 53.40200 40.60100
C  7.53600 57.22400 41.83900
C  4.31400 54.28400 43.94100
N  8.39000 52.23800 41.54600
C  7.90200 50.92600 41.38100
C  8.98300 50.00700 40.71300
C  10.25300 50.88200 40.73900
C  9.68100 52.28400 41.03200
C  11.31800 50.45300 41.78600
C  8.43100 49.54900 39.30300
C  8.39900 50.49800 38.13400
H  7.40500 50.20900 37.01200
N  8.75800 55.18700 41.26200
C  9.93600 54.77500 40.65100
C  10.58400 55.93200 40.11900
C  9.79400 57.08300 40.43900
C  8.63800 56.58000 41.18300
C  11.86500 55.78100 39.24300
C  9.99800 58.55900 39.92800
O  10.93000 58.81100 39.16900
C  8.98700 59.53700 40.21900
N  6.06800 55.56300 42.80300
C  6.42400 56.85500 42.58500
C  5.33400 57.76300 43.09700
C  4.31000 56.85100 43.83300
C  4.94300 55.48100 43.58900
C  5.85100 58.95400 43.97500
C  2.82500 57.00400 43.33200
C  2.34200 56.48700 41.97000
N  5.83400 52.68800 42.94000
C  4.68200 52.95800 43.62600
C  4.03700 51.68600 43.87300
C  4.79400 50.68700 43.36200
C  5.82100 51.38400 42.69300
C  2.78900 51.44700 44.79200
C  5.01100 49.24200 43.26100
O  4.40800 48.31300 43.78100
C  6.18900 49.06100 42.28100
C  5.62700 48.47200 41.04400
O  4.99500 49.04900 40.21100
O  5.98100 47.07900 41.07300
C  5.61600 46.30700 39.80300
H  11.33100 53.11900 40.13200
H  7.52800 58.31000 41.73000
H  3.30900 54.37600 44.35900
H  9.09400 49.11000 41.32300
H  10.72600 50.89500 39.75700
H  12.27500 50.55500 41.27600
H  11.21400 49.39300 42.01900
H  11.29900 50.93800 42.76200
H  7.42800 49.13700 39.41900
H  9.01400 48.71500 38.91200
H  9.40500 50.51000 37.71600
H  8.09300 51.49100 38.46200
H  11.65700 55.89700 38.17900
H  12.35800 54.83100 39.44900
H  12.45500 56.59800 39.65800
H  8.04600 59.18300 39.79600
H  9.23900 60.33300 39.51800
H  8.92300 60.06100 41.17200
H  4.90800 58.23300 42.21100
H  4.30900 57.11300 44.89100
H  6.93200 58.92200 44.11100
H  5.30100 58.98500 44.91500
H  5.64600 59.92700 43.52800
H  2.53300 58.04700 43.45000
H  2.25300 56.49000 44.10500
H  2.04500 57.27500 41.27700
H  1.52600 55.77500 42.08600
H  3.04000 55.95400 41.32400
H  3.06900 51.58600 45.83600
H  2.34400 50.47000 44.60500
H  2.05400 52.24800 44.70200
H  6.90000 48.43600 42.82100
H  5.71700 46.92700 38.91300
H  4.61700 45.87700 39.86400
H  6.36200 45.52600 39.65100

