158

Mg 49.42400 45.37600 43.00000
C  45.88000 45.47300 42.44700
C  49.28200 42.03500 42.13000
C  52.64700 45.42500 42.77400
C  49.22100 48.87800 43.46300
N  47.79000 43.94900 42.38100
C  46.42700 44.11900 42.27200
C  45.69100 42.86800 42.07600
C  46.77700 41.77100 42.44700
C  48.06600 42.63500 42.29400
C  46.66200 41.05500 43.77900
C  44.97400 42.57500 40.78200
C  45.30600 43.39100 39.48400
H  45.09600 42.74900 38.07800
N  50.85800 43.91300 42.52900
C  50.60000 42.60100 42.26500
C  51.88900 41.90900 42.26100
C  52.85200 42.89700 42.20400
C  52.14800 44.16000 42.49700
C  52.03500 40.40500 42.16400
C  54.27400 42.68300 41.96800
O  54.70500 41.64300 41.58900
C  55.36200 43.67200 42.12700
N  50.70200 46.93800 43.10500
C  52.04400 46.71300 42.95400
C  52.87000 48.03400 42.95500
C  51.67300 49.11800 43.15000
C  50.46500 48.25900 43.34700
C  53.92600 48.17900 44.14900
C  51.51900 50.11700 41.95000
C  52.40700 51.38600 41.99600
N  47.89400 46.91400 43.07900
C  47.97600 48.31500 43.24000
C  46.67500 48.91000 43.11100
C  45.82600 47.85500 42.80800
C  46.60900 46.63200 42.82300
C  46.39800 50.33500 43.13200
C  44.49200 47.52700 42.36600
O  43.56100 48.24600 42.19200
C  44.49400 46.04900 42.03400
C  43.32300 45.46100 42.71100
O  42.49600 44.67400 42.29000
O  43.33400 45.93900 44.03200
C  42.10500 45.71300 44.83400
H  49.17700 40.95100 42.05300
H  53.72900 45.56300 42.82900
H  49.16000 49.95100 43.65800
H  44.91800 42.83400 42.84300
H  46.80400 40.97400 41.70400
H  46.74800 39.98200 43.60800
H  45.74600 41.21900 44.34600
H  47.46600 41.37500 44.44200
H  43.94400 42.74700 41.09100
H  45.08000 41.52100 40.52400
H  46.36700 43.62300 39.57500
H  44.73700 44.32000 39.44000
H  53.08100 40.09800 42.17600
H  51.68800 39.99500 41.21500
H  51.58400 39.98300 43.06100
H  55.28000 44.46900 41.38700
H  56.35300 43.22600 42.20500
H  55.22500 44.30200 43.00600
H  53.27600 48.32800 41.98700
H  51.91500 49.72600 44.02200
H  54.39800 49.15700 44.04800
H  54.69100 47.40700 44.07000
H  53.48700 48.18300 45.14700
H  50.48200 50.41500 41.79500
H  51.62900 49.61000 40.99200
H  52.86800 51.42600 41.00900
H  53.19600 51.40100 42.74800
H  51.73600 52.24000 42.08800
H  47.12500 50.94100 42.59200
H  46.44600 50.60400 44.18800
H  45.37600 50.50800 42.79600
H  44.42700 45.83900 40.96700
H  42.31800 46.04400 45.85000
H  41.63000 44.73200 44.85800
H  41.35600 46.31200 44.31600
Mg -6.52100 24.94900 25.91800
C  -4.68000 26.06500 28.91100
C  -8.21200 22.90400 28.03100
C  -7.61200 23.40200 23.21500
C  -4.00400 26.63900 24.01000
N  -6.48700 24.66100 28.14900
C  -5.74600 25.21700 29.13800
C  -6.21800 24.80600 30.58400
C  -7.04100 23.53400 30.21500
C  -7.29900 23.74200 28.70100
C  -6.25900 22.15300 30.42700
C  -7.01600 25.99300 31.23700
C  -6.90900 26.10100 32.77000
H  -6.51600 24.80600 33.44600
N  -7.97500 23.55100 25.60200
C  -8.53100 22.81700 26.57700
C  -9.47000 21.88200 25.97100
C  -9.34200 22.03200 24.54300
C  -8.34600 23.11200 24.37300
C  -10.40400 21.03600 26.82700
C  -10.03200 21.20100 23.42100
O  -9.80500 21.35000 22.25000
C  -10.97000 20.15400 23.81600
N  -5.88900 24.95800 23.94100
C  -6.51700 24.26100 22.99700
C  -5.82000 24.31200 21.64300
C  -5.01300 25.62100 21.84200
C  -4.92900 25.80200 23.35100
C  -4.88600 23.14600 21.38400
C  -5.56400 26.88100 21.11300
C  -4.73000 27.55700 20.05600
N  -4.70800 26.06500 26.32500
C  -3.87500 26.74400 25.42200
C  -2.86800 27.54700 26.16800
C  -3.08500 27.16400 27.51100
C  -4.19900 26.31200 27.59400
C  -1.83000 28.42700 25.62800
C  -2.67300 27.48100 28.92000
O  -1.73600 28.17600 29.35300
C  -3.67800 26.77700 29.87400
C  -2.91200 25.95100 30.75400
O  -2.54400 24.80200 30.52200
O  -2.55800 26.70600 31.88400
C  -1.77700 26.08800 32.93600
H  -8.81200 22.25400 28.67100
H  -7.89300 22.81700 22.33700
H  -3.34800 27.19600 23.33800
H  -5.33200 24.51400 31.14800
H  -7.97900 23.57800 30.76900
H  -5.27000 22.44700 30.77700
H  -6.13700 21.55100 29.52700
H  -6.73700 21.51300 31.16900
H  -8.06500 25.84000 30.98600
H  -6.60300 26.93000 30.86300
H  -7.85700 26.54700 33.07000
H  -6.08500 26.81100 32.69900
H  -10.76100 21.62400 27.67200
H  -9.87100 20.14500 27.16100
H  -11.29400 20.57400 26.40000
H  -10.30100 19.42800 24.27800
H  -11.40700 19.65500 22.95200
H  -11.76700 20.62200 24.39400
H  -6.56600 24.49400 20.86900
H  -4.01900 25.47800 21.41900
H  -5.01100 22.36900 22.13900
H  -3.84500 23.43600 21.24500
H  -5.17000 22.64300 20.45900
H  -5.69300 27.68400 21.83800
H  -6.51200 26.65600 20.62400
H  -4.88300 28.60800 20.30100
H  -5.08300 27.36400 19.04300
H  -3.70000 27.25400 20.24100
H  -0.89900 28.42600 26.19600
H  -2.24000 29.43100 25.52300
H  -1.60000 28.07000 24.62400
H  -4.26900 27.54600 30.37100
H  -1.61200 26.82000 33.72700
H  -0.82900 25.73200 32.53300
H  -2.35200 25.25000 33.33000

