158

Mg 45.53300 4.46200 47.90200
C  43.01900 7.02100 47.23600
C  42.97400 2.20900 47.56200
C  47.91600 2.16200 47.68500
C  47.93200 7.03500 47.66700
N  43.21200 4.62200 47.50700
C  42.48400 5.76600 47.25600
C  41.02300 5.38900 46.91900
C  40.94400 3.82400 47.22600
C  42.48200 3.54400 47.51300
C  40.15100 3.56500 48.45600
C  40.56600 5.65900 45.48200
C  39.18600 6.30700 45.46500
H  38.51200 6.36100 43.97000
N  45.43700 2.44000 47.76300
C  44.29700 1.65300 47.58400
C  44.73500 0.28400 47.61800
C  46.09300 0.19500 47.68800
C  46.58200 1.61500 47.71000
C  43.74100 -0.83600 47.60200
C  47.00200 -1.02400 47.52200
O  46.45700 -2.11200 47.41400
C  48.43000 -1.00200 47.39300
N  47.62200 4.58300 47.53100
C  48.40800 3.46900 47.67100
C  49.91400 3.85200 47.80200
C  49.89000 5.39300 47.73000
C  48.38400 5.70600 47.61500
C  50.61700 3.22600 49.07100
C  50.83000 6.19900 46.72800
C  51.72700 7.32400 47.26500
N  45.57300 6.57900 47.53100
C  46.59500 7.45200 47.65800
C  46.08700 8.78700 47.63200
C  44.71000 8.68000 47.46100
C  44.39100 7.34400 47.41500
C  46.80100 10.03200 47.61400
C  43.46400 9.45900 47.24900
O  43.26000 10.67700 47.16100
C  42.30600 8.34800 47.12300
C  41.37800 8.57200 48.25400
O  41.74700 8.37300 49.40900
O  40.08500 8.69100 47.85400
C  39.04100 8.51000 48.94700
H  42.14700 1.49800 47.62200
H  48.64300 1.35100 47.77000
H  48.78500 7.70700 47.78100
H  40.43800 6.03800 47.57000
H  40.47900 3.30500 46.38800
H  39.14600 3.24700 48.18000
H  40.05700 4.52700 48.96000
H  40.56800 2.77800 49.08500
H  40.43800 4.72300 44.93900
H  41.20700 6.39000 44.98900
H  39.31200 7.35400 45.73800
H  38.54000 5.90900 46.24700
H  43.67400 -1.17500 46.56800
H  42.76300 -0.44400 47.88200
H  44.03800 -1.65800 48.25400
H  48.72400 -0.26400 46.64700
H  48.75800 -1.75600 46.67800
H  48.99300 -1.14400 48.31600
H  50.42800 3.46200 46.92300
H  50.06100 5.73600 48.75000
H  49.93800 2.49400 49.50900
H  50.87700 3.95100 49.84100
H  51.45800 2.61900 48.73500
H  50.29800 6.63200 45.88000
H  51.43400 5.46500 46.19500
H  51.24100 7.76700 48.13500
H  51.96500 7.99400 46.43900
H  52.58700 6.69700 47.50100
H  47.82300 10.01500 47.23600
H  46.93700 10.38600 48.63600
H  46.29900 10.78800 47.01000
H  41.81900 8.43900 46.15200
H  39.07600 9.34600 49.64600
H  39.31300 7.57600 49.43800
H  38.06900 8.53400 48.45300
Mg 29.97700 58.57900 38.69700
C  27.61500 56.56000 37.32600
C  32.44000 56.18000 38.08400
C  32.31900 61.01200 39.28400
C  27.53500 61.20400 38.69700
N  30.00500 56.51600 37.65000
C  28.85300 55.88600 37.36200
C  29.12300 54.39100 37.12100
C  30.66100 54.26400 37.45100
C  31.09100 55.69500 37.80500
C  31.03000 53.26500 38.49000
C  28.78400 53.84300 35.67000
C  29.21600 54.63600 34.42200
H  28.08700 55.06000 33.48100
N  32.10000 58.49800 38.81400
C  32.88900 57.43000 38.48200
C  34.30100 57.79900 38.73700
C  34.23500 59.18500 39.20800
C  32.84600 59.64400 39.07500
C  35.49200 56.88100 38.57200
C  35.48400 59.92300 39.58300
O  36.60700 59.42400 39.64000
C  35.48500 61.44600 39.92100
N  29.94200 60.74600 39.01700
C  31.02700 61.44800 39.39000
C  30.75800 62.93300 39.39100
C  29.21400 62.93700 39.46900
C  28.81100 61.56100 39.04600
C  31.55400 63.86100 40.39400
C  28.47700 64.12300 38.69000
C  28.54100 64.01500 37.10500
N  28.04600 58.88000 38.07200
C  27.13100 59.96400 38.20500
C  25.79700 59.63000 37.71500
C  25.86900 58.19000 37.57600
C  27.28200 57.92400 37.65600
C  24.51800 60.48800 37.56600
C  25.10100 56.99900 37.27900
O  23.90900 56.70500 37.14200
C  26.25600 55.88100 37.03600
C  25.77900 54.74200 37.92400
O  26.05100 54.56400 39.10000
O  24.90200 53.95600 37.21300
C  24.23400 52.93100 37.98200
H  33.13000 55.33400 38.05400
H  32.98400 61.86000 39.45800
H  26.74400 61.94000 38.85400
H  28.51200 53.81200 37.81400
H  31.11500 54.04600 36.48400
H  30.15700 52.92800 39.05000
H  31.76500 53.66000 39.19100
H  31.44500 52.36000 38.04700
H  27.76800 53.45100 35.61700
H  29.38200 52.93500 35.59100
H  29.90200 54.02100 33.83800
H  29.60400 55.57000 34.82900
H  36.11200 57.36700 37.81800
H  35.16900 55.93200 38.14400
H  36.12800 56.66100 39.43000
H  36.46000 61.83400 40.21400
H  34.79300 61.59700 40.75000
H  35.10400 62.09700 39.13400
H  30.96300 63.31500 38.39100
H  28.95000 63.14600 40.50600
H  32.29900 64.48800 39.90400
H  32.02600 63.30500 41.20400
H  30.83800 64.52100 40.88500
H  28.84800 65.12000 38.93100
H  27.47400 64.01700 39.10500
H  28.93900 64.90800 36.62300
H  27.55400 63.76000 36.71700
H  29.06800 63.14300 36.71800
H  23.76700 60.01400 36.93400
H  24.69300 61.49300 37.18000
H  23.99000 60.54600 38.51700
H  26.21100 55.47400 36.02600
H  23.72600 52.27200 37.27900
H  23.54200 53.43100 38.65900
H  24.92600 52.27100 38.50600

