158

Mg 53.90500 23.60200 43.71300
C  51.31700 25.95600 43.28800
C  51.73400 21.08200 42.57700
C  56.46400 21.41800 43.76300
C  55.81300 26.16600 44.87400
N  51.82900 23.59700 42.77200
C  50.97800 24.64900 42.79500
C  49.60400 24.24300 42.10800
C  49.74400 22.68400 42.08400
C  51.21000 22.42100 42.41300
C  48.88700 22.00200 43.11700
C  49.40500 24.75900 40.61800
C  50.76900 24.98300 39.84200
H  50.50100 25.68200 38.50600
N  54.09200 21.49400 43.21200
C  53.04400 20.65900 42.85300
C  53.57100 19.31500 42.79400
C  54.96900 19.38200 43.11700
C  55.23900 20.75300 43.34500
C  52.65400 18.13800 42.43800
C  55.92800 18.14400 43.26300
O  55.48600 17.02800 43.02600
C  57.32200 18.30600 43.56800
N  55.89000 23.77900 44.18200
C  56.81700 22.79300 44.04600
C  58.21700 23.18300 44.58800
C  57.96900 24.70600 44.97900
C  56.47400 24.96800 44.62100
C  58.75200 22.33300 45.73100
C  58.89200 25.69500 44.22300
C  58.71900 26.02400 42.74500
N  53.70800 25.74100 43.96200
C  54.49100 26.63000 44.59900
C  53.86000 27.84300 45.04700
C  52.49900 27.55600 44.55900
C  52.54900 26.29700 43.87000
C  54.40600 28.93900 45.99700
C  51.16700 28.11500 44.46300
O  50.73900 29.20000 44.86700
C  50.37900 27.05400 43.53200
C  49.80300 27.62900 42.33800
O  50.42400 28.15400 41.42100
O  48.44500 27.66000 42.49300
C  47.69400 28.73700 41.82100
H  50.98600 20.32500 42.33100
H  57.30200 20.79500 44.08400
H  56.42400 26.96200 45.30400
H  48.75200 24.44900 42.75500
H  49.51300 22.26100 41.10700
H  47.82900 22.23600 42.99800
H  49.06900 22.30200 44.15000
H  48.81600 20.91600 43.05500
H  48.69700 25.56800 40.43800
H  48.99500 23.95600 40.00600
H  51.36500 24.09600 39.62300
H  51.43800 25.70400 40.31200
H  53.09500 17.19600 42.76400
H  52.41800 18.09100 41.37500
H  51.72600 18.25800 42.99800
H  57.76300 17.31000 43.59900
H  57.45600 18.86000 44.49700
H  57.83700 18.92800 42.83500
H  58.89100 23.09800 43.73500
H  58.12200 24.70000 46.05800
H  59.55200 21.62800 45.50200
H  57.97200 21.65700 46.08100
H  59.05200 22.89800 46.61300
H  59.91500 25.32300 44.15900
H  58.94100 26.61800 44.80300
H  59.51700 25.72500 42.06500
H  58.55000 27.09000 42.59400
H  57.90700 25.39300 42.38300
H  55.40600 28.73100 46.37800
H  53.86700 28.87000 46.94200
H  54.25700 29.91000 45.52500
H  49.62300 26.66800 44.21600
H  48.19400 29.69100 41.98200
H  46.70000 28.81200 42.26400
H  47.68600 28.49300 40.75900
Mg 30.36200 58.08600 40.33400
C  27.56600 56.16100 39.33700
C  32.46100 55.68800 39.48700
C  32.89600 60.43300 40.21400
C  28.05500 60.87700 40.57800
N  29.97600 56.15300 39.54400
C  28.81900 55.51500 39.22900
C  29.09300 54.04800 38.97800
C  30.61900 53.90300 39.22900
C  31.08400 55.39000 39.40600
C  31.05400 52.78600 40.25100
C  28.54600 53.50300 37.61500
C  29.32400 53.89900 36.33300
H  28.44500 54.35400 35.23300
N  32.35900 58.06200 39.90100
C  33.07000 56.96900 39.53600
C  34.43900 57.24800 39.26200
C  34.59400 58.62100 39.59500
C  33.25800 59.12600 39.93700
C  35.39400 56.18500 38.72700
C  35.96100 59.27800 39.59800
O  36.96900 58.57300 39.37700
C  36.14700 60.70500 39.91400
N  30.46700 60.42600 40.32400
C  31.66700 61.04400 40.43400
C  31.48800 62.50200 40.70800
C  29.94600 62.63300 41.03600
C  29.38700 61.24900 40.59400
C  32.42500 63.22100 41.76100
C  29.22100 63.76800 40.24800
C  27.95100 64.42900 40.76300
N  28.21600 58.40300 40.34100
C  27.45400 59.57700 40.40400
C  26.06400 59.19500 40.44400
C  26.04600 57.88000 40.06500
C  27.37600 57.45600 39.85200
C  25.02100 60.12800 40.71200
C  25.19500 56.76000 39.74900
O  23.94900 56.64500 39.72900
C  26.10800 55.59500 39.18800
C  25.79700 54.26200 39.80300
O  26.43900 53.64700 40.65200
O  24.92900 53.60700 38.97100
C  24.62300 52.18600 39.31000
H  33.09100 54.81300 39.30700
H  33.71000 61.16100 40.18300
H  27.32400 61.67600 40.72300
H  28.54000 53.47300 39.72100
H  31.00400 53.50500 38.29000
H  30.43900 51.90300 40.07800
H  30.85800 53.17800 41.24900
H  32.09900 52.48400 40.18300
H  27.56500 53.97000 37.53300
H  28.39000 52.44100 37.80400
H  29.95300 53.06400 36.02500
H  30.14100 54.58300 36.56400
H  36.04500 56.43900 37.89000
H  34.97900 55.23800 38.38200
H  35.85900 55.74500 39.60900
H  35.72300 60.96300 40.88500
H  35.62500 61.14100 39.06300
H  37.21600 60.91300 39.95300
H  31.69500 62.98600 39.75400
H  29.62700 62.68800 42.07700
H  31.89400 63.56200 42.65000
H  32.85500 64.10500 41.29000
H  33.17600 62.51700 42.11900
H  29.11600 63.36100 39.24200
H  29.96000 64.53000 39.99700
H  28.34700 65.37800 41.12500
H  27.49900 63.98700 41.65100
H  27.27200 64.58100 39.92400
H  25.05200 60.94700 39.99300
H  24.92000 60.57400 41.70200
H  24.18000 59.47500 40.47700
H  25.71700 55.50200 38.17500
H  25.22900 51.64600 38.58200
H  23.59600 52.02600 38.98200
H  24.87800 51.93400 40.33900

