158

Mg 44.35200 5.07200 47.54700
C  42.04000 7.81100 47.51600
C  41.66800 2.97900 47.03000
C  46.56400 2.66200 46.93400
C  46.92000 7.45300 47.18700
N  42.15200 5.34100 47.45100
C  41.46900 6.56400 47.39900
C  39.92600 6.31100 47.39000
C  39.83000 4.68100 47.35700
C  41.29800 4.30100 47.28000
C  38.93800 4.07100 48.50300
C  39.11800 6.99200 46.23800
C  40.03600 7.17700 45.00700
H  39.43900 6.69500 43.66900
N  44.18200 3.04000 47.16200
C  42.97500 2.35200 46.97100
C  43.25500 1.01600 46.62100
C  44.64000 0.89900 46.46000
C  45.18700 2.20600 46.86800
C  42.18400 -0.01900 46.32700
C  45.30400 -0.40900 45.95800
O  44.74200 -1.52000 45.77900
C  46.73200 -0.31500 45.57200
N  46.44400 5.03100 47.17100
C  47.16300 3.88300 46.99900
C  48.65000 4.04000 47.12200
C  48.73300 5.59100 46.92400
C  47.30700 6.10800 47.08900
C  49.24000 3.60300 48.47700
C  49.24900 5.93900 45.51400
C  50.62200 5.48400 45.16300
N  44.50400 7.16300 47.37300
C  45.63100 7.97700 47.28500
C  45.18700 9.33000 47.24200
C  43.81900 9.33400 47.44600
C  43.38500 7.98700 47.44900
C  46.11600 10.52100 47.15100
C  42.62100 10.14900 47.65200
O  42.51400 11.38100 47.73700
C  41.42400 9.24300 47.66000
C  40.58500 9.44700 48.90600
O  40.60300 8.74300 49.91400
O  39.52500 10.32100 48.63700
C  38.27600 10.22300 49.47600
H  40.81400 2.33300 46.81600
H  47.34300 1.90200 46.83900
H  47.81300 8.05100 46.99300
H  39.48600 6.65900 48.32400
H  39.45700 4.37200 46.38100
H  39.55700 3.63300 49.28700
H  38.31800 3.22400 48.21200
H  38.29100 4.81100 48.97400
H  38.76600 7.99200 46.49100
H  38.24300 6.39500 45.98000
H  41.04900 6.78700 45.09800
H  40.12600 8.26200 44.96900
H  41.15300 0.26400 46.54000
H  42.34400 -0.93300 46.89900
H  42.22500 -0.24300 45.26000
H  46.95300 -1.13900 44.89400
H  47.29700 -0.57300 46.46700
H  47.04000 0.59800 45.06200
H  49.04700 3.62200 46.19600
H  49.40400 6.01400 47.67200
H  49.93900 4.31300 48.92100
H  49.67300 2.60300 48.48600
H  48.44600 3.45300 49.20800
H  49.15100 7.02400 45.47700
H  48.48200 5.56000 44.83900
H  51.12900 4.72100 45.75400
H  51.15200 6.43600 45.17800
H  50.70200 5.12900 44.13500
H  45.62900 11.49400 47.07500
H  46.69600 10.42200 46.23300
H  46.83300 10.35600 47.95500
H  40.87500 9.53900 46.76500
H  38.27400 11.08400 50.14400
H  38.25900 9.41100 50.20400
H  37.38800 10.13300 48.85100
Mg 34.57200 3.72500 29.22100
C  32.27800 4.51500 31.87600
C  37.20000 3.94800 31.50000
C  36.71400 3.23800 26.72100
C  31.92100 3.95200 27.03600
N  34.73100 4.23700 31.41500
C  33.57600 4.41900 32.33400
C  34.14300 4.59800 33.74700
C  35.73000 4.66800 33.46800
C  35.92900 4.27000 32.02300
C  36.51800 5.99000 33.86700
C  33.66100 3.47600 34.64400
C  33.62000 3.75600 36.20800
H  34.31700 4.95500 36.77700
N  36.69100 3.44600 29.14900
C  37.56400 3.59700 30.19200
C  38.92700 3.29300 29.69900
C  38.85400 3.19700 28.23900
C  37.40300 3.24800 27.95900
C  40.15100 3.21800 30.60900
C  39.88600 3.12000 27.18900
O  39.64600 3.04400 26.00200
C  41.33800 3.05900 27.56100
N  34.35000 3.68500 27.24600
C  35.36400 3.45800 26.41900
C  34.83400 3.29000 24.96000
C  33.33100 2.99500 25.14400
C  33.16000 3.58000 26.55600
C  35.10700 4.61500 24.21300
C  32.87100 1.53600 25.06400
C  31.80700 1.29000 24.02200
N  32.56100 4.12800 29.33900
C  31.59100 4.24400 28.37900
C  30.29100 4.52000 28.95900
C  30.49100 4.62100 30.33700
C  31.87100 4.37800 30.49600
C  28.96600 4.72700 28.25700
C  29.85600 4.87900 31.58100
O  28.69900 5.17400 31.88500
C  31.00000 4.68400 32.60900
C  30.97900 5.92300 33.44500
O  31.68000 6.88900 33.25700
O  30.18000 5.76100 34.54600
C  30.39300 6.70200 35.65500
H  38.08300 4.09800 32.12500
H  37.42400 2.87600 25.97400
H  31.00900 4.00600 26.43800
H  33.76500 5.49600 34.23600
H  36.27900 3.87400 33.97500
H  36.99500 6.40900 32.98100
H  37.31600 5.82100 34.59000
H  35.92000 6.76300 34.35100
H  34.23800 2.55800 34.52800
H  32.64400 3.31100 34.28900
H  34.05500 2.87600 36.68200
H  32.57300 3.90100 36.47600
H  40.71700 2.34300 30.29000
H  40.00500 3.02200 31.67200
H  40.66000 4.18200 30.61800
H  41.45400 2.37200 28.39900
H  41.61300 4.06200 27.88800
H  42.05600 2.79100 26.78600
H  35.31600 2.46100 24.44100
H  32.83200 3.56400 24.36000
H  35.38500 4.33300 23.19800
H  35.84900 5.21500 24.74100
H  34.20900 5.21900 24.08600
H  32.56700 1.19100 26.05200
H  33.67600 0.86600 24.76100
H  30.97500 0.66800 24.35200
H  32.32600 0.70300 23.26500
H  31.34300 2.20900 23.66200
H  28.43900 3.85200 28.63900
H  29.04100 4.71700 27.17000
H  28.48400 5.66900 28.51700
H  30.77200 3.89000 33.32000
H  31.14900 7.47900 35.54200
H  30.76600 6.11500 36.49400
H  29.46700 7.11300 36.05800

