158

Mg -1.52400 17.53200 27.01500
C  -2.29400 15.37200 29.60500
C  -2.52600 20.15400 29.11500
C  -1.21900 19.68700 24.41200
C  -1.49500 14.88200 24.75200
N  -2.39800 17.64800 29.07900
C  -2.47800 16.64200 30.02600
C  -2.83400 17.20800 31.38100
C  -3.42900 18.60400 30.99000
C  -2.64500 18.87900 29.73600
C  -4.97600 18.54500 30.72000
C  -1.60200 17.37800 32.31300
C  -1.86700 17.17500 33.75100
H  -0.62300 16.80700 34.56200
N  -1.70200 19.60400 26.84400
C  -2.04200 20.53200 27.84900
C  -1.87600 21.84500 27.33100
C  -1.39300 21.75300 26.00900
C  -1.44100 20.29400 25.69300
C  -2.28900 22.98300 28.17100
C  -1.01400 22.75700 25.04100
O  -0.67100 22.54700 23.90600
C  -1.06400 24.21400 25.48100
N  -1.49200 17.39000 24.91000
C  -1.39600 18.41200 24.03700
C  -1.22600 17.89900 22.52800
C  -1.07600 16.36800 22.72500
C  -1.33600 16.18600 24.23900
C  -2.49300 18.30700 21.64700
C  0.28600 15.71200 22.33400
C  1.53200 16.29600 22.99200
N  -1.83000 15.52800 27.12200
C  -1.76400 14.54600 26.09000
C  -1.89500 13.21000 26.69000
C  -2.04900 13.52300 28.06400
C  -2.03100 14.87600 28.26500
C  -1.84700 11.91700 26.03400
C  -2.21800 12.94700 29.37200
O  -2.26500 11.78900 29.78600
C  -2.42800 14.08600 30.38100
C  -1.50000 13.98000 31.55300
O  -0.32300 14.22400 31.57000
O  -2.20100 13.70200 32.64700
C  -1.49200 13.54200 33.96100
H  -2.90500 20.90000 29.81700
H  -1.08400 20.38100 23.58000
H  -1.50900 14.02900 24.07000
H  -3.53400 16.52900 31.86800
H  -3.21600 19.36400 31.74200
H  -5.20000 18.83000 29.69200
H  -5.40700 19.27300 31.40700
H  -5.29900 17.52200 30.91000
H  -1.25000 18.40900 32.28200
H  -0.82400 16.72500 31.91800
H  -2.50100 16.29000 33.79800
H  -2.40500 18.06700 34.07200
H  -1.44300 23.58300 28.50500
H  -2.70200 22.81200 29.16500
H  -3.06800 23.60500 27.72900
H  -0.25600 24.32900 26.20300
H  -2.08100 24.32900 25.85400
H  -0.86200 24.88400 24.64500
H  -0.36500 18.30700 21.99700
H  -1.79800 15.96100 22.01700
H  -3.28800 18.65900 22.30400
H  -2.68800 17.58100 20.85700
H  -2.30300 19.23300 21.10400
H  0.40400 15.83100 21.25700
H  0.16500 14.64300 22.50700
H  1.28000 16.95200 23.82500
H  2.11800 16.85900 22.26700
H  2.14400 15.44000 23.27700
H  -1.25300 11.36000 26.76000
H  -1.41800 11.83100 25.03600
H  -2.83400 11.45800 26.07700
H  -3.43800 14.08400 30.79000
H  -2.01400 14.02300 34.78800
H  -0.47600 13.93500 33.94800
H  -1.45800 12.47700 34.19400
Mg 47.26200 24.66500 27.62600
C  47.77500 26.90900 30.36000
C  46.25200 22.32900 29.81000
C  46.79300 22.82200 25.04300
C  48.28100 27.41000 25.48400
N  46.89600 24.60300 29.86000
C  47.24100 25.61300 30.73800
C  46.92100 25.24900 32.14000
C  46.53600 23.67800 32.00300
C  46.54300 23.48900 30.51300
C  47.39100 22.68300 32.90900
C  45.79200 26.25800 32.69000
C  45.99000 26.84000 34.11700
H  44.91200 26.78200 35.15700
N  46.60900 22.70700 27.40700
C  46.20700 21.92900 28.37700
C  45.63900 20.72900 27.79600
C  45.81200 20.79600 26.41500
C  46.48300 22.12000 26.22100
C  45.14000 19.57400 28.65300
C  45.37700 19.83600 25.30700
O  45.73100 20.10600 24.15100
C  44.66600 18.48000 25.58900
N  47.73500 25.03300 25.54000
C  47.37500 24.07200 24.72000
C  47.46800 24.52200 23.20900
C  47.75300 26.05900 23.30500
C  48.03100 26.17000 24.82400
C  48.44600 23.64700 22.28600
C  46.57600 26.93400 22.88600
C  45.38800 27.10300 23.78700
N  47.89700 26.68500 27.83800
C  48.33800 27.63700 26.89500
C  48.62000 28.94100 27.57400
C  48.49300 28.59300 28.96800
C  48.03200 27.28700 29.03500
C  49.16500 30.20500 27.01300
C  48.58100 29.17100 30.29100
O  48.91100 30.31200 30.61000
C  48.13900 28.04100 31.23600
C  49.26900 27.72100 32.12300
O  50.18200 27.01000 31.77300
O  49.08000 28.11500 33.45600
C  49.97600 27.42500 34.43100
H  45.83100 21.64500 30.54900
H  46.47500 22.29800 24.14000
H  48.61200 28.26500 24.89100
H  47.85200 25.40600 32.68500
H  45.52900 23.68600 32.42100
H  48.42000 23.00500 33.06600
H  47.44400 21.75100 32.34800
H  46.81900 22.57200 33.83000
H  44.86000 25.70400 32.80100
H  45.76500 27.15800 32.07600
H  46.33600 27.87000 34.20500
H  46.86900 26.40900 34.59500
H  45.64400 18.68200 28.27900
H  44.05700 19.53700 28.54000
H  45.35600 19.51100 29.72000
H  45.32600 17.79800 26.12600
H  44.29700 17.99800 24.68400
H  43.76100 18.64700 26.17300
H  46.48000 24.33200 22.78900
H  48.67300 26.25100 22.75300
H  47.82900 23.26500 21.47300
H  48.86100 22.76700 22.77700
H  49.18800 24.23200 21.74300
H  46.22900 26.42800 21.98500
H  46.90000 27.91100 22.52900
H  45.16500 28.12200 24.10000
H  45.59500 26.45100 24.63600
H  44.53200 26.71500 23.23500
H  49.56400 30.94700 27.70500
H  48.30100 30.69800 26.56800
H  49.80200 29.94900 26.16600
H  47.40900 28.59000 31.83200
H  49.94100 26.36100 34.19700
H  49.60600 27.54200 35.45000
H  51.02000 27.70100 34.27900

