158

Mg 17.21100 -1.47900 28.03100
C  16.15600 0.68400 30.71800
C  19.25300 -3.09800 30.34900
C  18.74700 -3.07200 25.56700
C  15.76000 0.67600 25.85400
N  17.63100 -1.17600 30.23900
C  16.98100 -0.31200 31.11700
C  17.32500 -0.57300 32.53500
C  18.49100 -1.55500 32.32800
C  18.47300 -2.04600 30.87700
C  19.84100 -1.10800 32.78300
C  16.17100 -1.17900 33.41100
C  15.93900 -0.49000 34.78800
H  17.12300 0.28600 35.43400
N  18.77900 -2.88200 27.94900
C  19.41000 -3.52400 29.03300
C  20.27000 -4.59200 28.58600
C  20.07800 -4.62900 27.16100
C  19.14000 -3.53600 26.80300
C  21.27200 -5.33300 29.44700
C  20.71800 -5.51100 26.13400
O  20.40700 -5.46700 24.95300
C  21.58700 -6.63300 26.54900
N  17.20600 -1.23900 26.03600
C  17.87900 -2.06600 25.21700
C  17.73500 -1.55100 23.79800
C  16.60500 -0.51600 23.92100
C  16.51800 -0.36100 25.35300
C  19.08700 -1.00300 23.28300
C  15.22000 -0.87500 23.27100
C  14.89600 -0.10500 21.97800
N  16.18000 0.35200 28.23500
C  15.63800 1.07600 27.17900
C  14.88200 2.15500 27.79900
C  15.04300 2.07300 29.14500
C  15.83300 0.92600 29.39600
C  14.10300 3.11300 26.96000
C  14.77300 2.63400 30.45100
O  14.08800 3.67900 30.64300
C  15.47300 1.74700 31.56200
C  16.44200 2.70000 32.26100
O  17.63300 2.75100 32.09000
O  15.74200 3.53800 33.11400
C  16.50700 4.67600 33.60900
H  19.85300 -3.57400 31.12700
H  19.13900 -3.55300 24.66900
H  15.28200 1.29900 25.09500
H  17.67900 0.35500 32.98300
H  18.30900 -2.47700 32.88100
H  20.10000 -1.61200 33.71400
H  19.87100 -0.02000 32.72600
H  20.56700 -1.24200 31.98200
H  16.37000 -2.22500 33.64500
H  15.17700 -1.17700 32.96400
H  15.86100 -1.31700 35.49500
H  14.98400 0.02600 34.69200
H  20.88600 -6.33500 29.63400
H  21.53400 -4.76400 30.33900
H  22.23400 -5.30000 28.93600
H  21.68600 -7.36500 25.74800
H  21.16100 -7.16600 27.40000
H  22.50700 -6.07000 26.70400
H  17.42100 -2.40600 23.19900
H  17.02400 0.43000 23.57800
H  19.79400 -0.68500 24.04900
H  18.89600 -0.09500 22.71000
H  19.56400 -1.77700 22.68200
H  14.35300 -0.75600 23.92100
H  15.22300 -1.87800 22.84400
H  13.90000 0.31000 22.12800
H  14.83600 -0.71000 21.07300
H  15.62600 0.66300 21.72500
H  14.59300 3.98900 26.53600
H  13.24900 3.47000 27.53500
H  13.56000 2.54100 26.20700
H  14.74100 1.44700 32.31200
H  16.73100 5.37900 32.80700
H  17.45300 4.29000 33.98900
H  16.03900 5.18300 34.45200
Mg 30.36900 58.07900 39.26100
C  27.47700 56.37700 38.15400
C  32.15900 55.14000 38.63800
C  33.22500 59.78900 39.55700
C  28.43500 60.89600 39.83900
N  29.91300 56.09600 38.21600
C  28.67300 55.61000 38.02100
C  28.69300 54.10200 37.68100
C  30.07400 53.66700 38.14400
C  30.79100 55.05400 38.44000
C  30.06000 52.77500 39.41200
C  28.45900 53.67000 36.19100
C  29.27000 54.49200 35.06200
H  28.36100 55.41800 34.27500
N  32.39800 57.54400 39.12700
C  32.95300 56.31700 38.85100
C  34.41300 56.35500 38.92700
C  34.76300 57.65800 39.22800
C  33.44800 58.41900 39.36800
C  35.25500 55.11500 38.60200
C  36.11200 58.13700 39.36500
O  37.07500 57.50200 38.89900
C  36.37600 59.44100 40.08600
N  30.70300 60.06400 39.68900
C  32.01300 60.50700 39.84100
C  32.00400 61.96900 40.05600
C  30.56600 62.27000 40.43400
C  29.82400 61.03100 39.93800
C  33.15900 62.51600 40.97200
C  29.83700 63.57400 39.89300
C  28.88900 64.11000 40.97600
N  28.36700 58.58200 39.12900
C  27.73300 59.74600 39.40900
C  26.30200 59.66900 38.96600
C  26.15300 58.36400 38.54700
C  27.41000 57.73800 38.63000
C  25.30700 60.82500 38.92500
C  25.25600 57.31900 37.99600
O  24.08200 57.46900 37.85400
C  26.00200 56.04200 37.82600
C  25.45800 54.90300 38.67000
O  25.64100 54.81100 39.83400
O  24.66700 54.00900 37.92800
C  24.18300 52.84400 38.55400
H  32.61300 54.14700 38.66400
H  34.11300 60.41900 39.46800
H  27.80300 61.74400 40.11200
H  27.88900 53.76200 38.33400
H  30.71800 53.16200 37.42300
H  30.89900 52.86800 40.10100
H  30.14100 51.76900 39.00100
H  29.09500 52.73700 39.91800
H  27.37700 53.75100 36.09000
H  28.73200 52.62900 36.01700
H  29.56300 53.71500 34.35600
H  30.13800 55.01600 35.46200
H  35.58700 55.14400 37.56400
H  34.76700 54.14800 38.72000
H  36.12200 54.93700 39.23900
H  35.68200 59.68700 40.89000
H  36.43000 60.27900 39.39100
H  37.29100 59.34500 40.67000
H  32.16200 62.38800 39.06200
H  30.64900 62.25200 41.52000
H  34.02900 62.74700 40.35800
H  33.44800 61.75900 41.70200
H  32.86700 63.41300 41.51800
H  29.32200 63.21400 39.00200
H  30.46500 64.40800 39.58100
H  29.20900 65.11000 41.26700
H  28.81100 63.47600 41.85900
H  27.89300 64.09700 40.53300
H  24.99200 61.25300 39.87600
H  24.42400 60.65200 38.31000
H  25.86800 61.59600 38.39700
H  26.05100 55.67300 36.80100
H  23.49100 53.23900 39.29800
H  25.12500 52.37700 38.83900
H  23.66800 52.20300 37.83800

