158

Mg 1.38000 7.67300 26.09900
C  2.08800 9.75100 28.85500
C  1.65300 4.97300 28.15900
C  0.88200 5.68800 23.43300
C  1.38400 10.48900 24.12300
N  1.65500 7.50600 28.32200
C  2.00900 8.42900 29.21300
C  2.15200 7.86600 30.61900
C  2.37500 6.35000 30.26900
C  1.86200 6.25600 28.79600
C  3.78200 5.72300 30.57000
C  0.80000 8.17700 31.31200
C  0.94700 8.68400 32.79100
H  2.02800 8.08900 33.64200
N  1.20500 5.54100 25.79100
C  1.39600 4.59000 26.80700
C  1.10300 3.26400 26.26800
C  0.85900 3.49200 24.90200
C  0.99200 4.95000 24.61700
C  0.93700 2.00300 27.01400
C  0.50000 2.41600 23.79300
O  0.29900 2.81800 22.65000
C  0.64700 0.93200 24.01300
N  1.08900 8.03000 24.18400
C  0.90300 7.05600 23.18000
C  0.79400 7.63300 21.78300
C  0.59800 9.14700 22.15600
C  1.20300 9.22400 23.52700
C  2.03900 7.38000 20.89800
C  -0.89200 9.65600 22.10200
C  -1.27700 10.90300 21.36800
N  1.61500 9.75400 26.38100
C  1.64200 10.71800 25.47700
C  1.91800 11.93800 26.14900
C  2.07800 11.63700 27.51300
C  1.91400 10.30200 27.57900
C  2.12400 13.34400 25.59600
C  2.46900 12.14800 28.83700
O  2.76300 13.28300 29.16500
C  2.35800 10.91900 29.81100
C  3.56500 10.74700 30.74500
O  4.51600 10.04000 30.53700
O  3.38600 11.42600 31.89500
C  4.40200 11.24700 32.91300
H  1.79800 4.20300 28.92000
H  0.59800 5.12900 22.53900
H  1.30600 11.34900 23.45500
H  2.99300 8.18900 31.23200
H  1.73900 5.85500 31.00200
H  4.64100 6.36400 30.77000
H  4.10900 5.29200 29.62400
H  3.69100 5.00800 31.38700
H  0.13800 7.33200 31.12000
H  0.42500 9.05600 30.78600
H  -0.01900 8.52800 33.27100
H  1.05100 9.76500 32.70600
H  -0.11500 1.83600 27.24400
H  1.39300 2.08800 28.00000
H  1.44600 1.18500 26.50300
H  0.54800 0.48900 23.02200
H  -0.18000 0.48400 24.56300
H  1.63900 0.80900 24.44700
H  -0.07300 7.21100 21.27600
H  1.19800 9.80700 21.52900
H  2.82500 8.13200 20.96700
H  1.81900 7.15600 19.85400
H  2.32600 6.34800 21.10000
H  -1.19400 9.92000 23.11500
H  -1.53600 8.83700 21.78000
H  -1.87300 11.59800 21.95900
H  -1.90000 10.70100 20.49700
H  -0.45000 11.54300 21.06000
H  2.97400 13.35300 24.91400
H  2.33100 14.01500 26.42900
H  1.18600 13.46700 25.05400
H  1.35400 10.96500 30.23400
H  4.87500 12.22800 32.95400
H  5.07600 10.41100 32.73200
H  3.93800 11.06500 33.88300
Mg 52.94400 23.53300 45.47400
C  50.47800 25.67400 44.10500
C  51.16900 20.89100 44.26100
C  55.81000 21.87100 45.45000
C  54.63000 26.47300 46.42500
N  51.04300 23.35000 44.41900
C  50.26100 24.31700 43.79600
C  48.98000 23.74600 43.15800
C  49.14700 22.22700 43.46100
C  50.57100 22.10400 44.06900
C  48.14400 21.68500 44.48000
C  48.93200 24.08300 41.67400
C  47.49500 24.15600 41.05200
H  47.22300 23.24400 39.81100
N  53.41300 21.53100 45.13100
C  52.56800 20.60500 44.71500
C  53.25000 19.36700 44.70000
C  54.59100 19.57800 45.04500
C  54.67900 21.05100 45.20200
C  52.55400 18.03100 44.37400
C  55.64600 18.55200 45.09400
O  55.41100 17.36100 44.93900
C  57.06600 18.95400 45.44700
N  55.04100 24.25200 45.76100
C  56.02200 23.31400 45.79700
C  57.34500 23.90900 46.21400
C  56.90100 25.40600 46.62000
C  55.47700 25.38600 46.16600
C  58.19600 23.02100 47.18300
C  57.82900 26.54600 45.93800
C  58.40600 27.47800 47.01900
N  52.54800 25.61700 45.50500
C  53.32300 26.67400 45.95500
C  52.52400 27.83400 45.96100
C  51.43400 27.52800 45.11600
C  51.50700 26.13600 44.90300
C  52.80800 29.28800 46.38900
C  50.34900 28.08800 44.40500
O  49.88200 29.22400 44.41200
C  49.72100 26.92300 43.59500
C  49.92400 27.27500 42.21500
O  50.99700 27.44000 41.64200
O  48.64900 27.40600 41.61500
C  48.66200 27.89300 40.19500
H  50.51800 20.09100 43.90100
H  56.77400 21.36300 45.39000
H  55.06400 27.41400 46.77000
H  48.06900 24.14400 43.60500
H  49.06300 21.75900 42.47900
H  48.17300 20.61100 44.66300
H  47.21100 21.91800 43.96700
H  48.12800 22.29000 45.38700
H  49.53600 23.41600 41.05800
H  49.30500 25.09900 41.54700
H  47.26800 25.19200 40.80200
H  46.77600 23.73900 41.75700
H  53.12700 17.30400 44.95000
H  52.64600 17.88200 43.29800
H  51.54400 18.11700 44.77600
H  57.54400 19.43200 44.59200
H  57.63500 18.03500 45.59100
H  57.19500 19.46100 46.40300
H  57.99500 24.03900 45.34900
H  56.92000 25.38200 47.71000
H  57.54500 22.18200 47.42900
H  58.45300 23.63400 48.04700
H  59.04900 22.65000 46.61500
H  57.25300 27.09100 45.19000
H  58.75100 26.12400 45.53800
H  59.48900 27.59900 47.00000
H  58.20000 27.21900 48.05700
H  57.97500 28.46300 46.83800
H  52.01500 30.02400 46.25700
H  53.60600 29.68600 45.76300
H  53.15700 29.28100 47.42200
H  48.67200 26.81900 43.87400
H  47.66100 27.75400 39.78600
H  49.47700 27.36500 39.70200
H  48.83900 28.96700 40.13100

