158

Mg 25.26500 -0.76700 28.99700
C  27.20400 -0.46800 31.89800
C  22.31200 -0.28600 30.97400
C  23.29100 -1.01800 26.38500
C  28.09000 -1.64200 27.35600
N  24.87900 -0.50100 31.22300
C  25.86400 -0.29500 32.19600
C  25.11000 -0.03300 33.56500
C  23.58800 -0.22500 33.21500
C  23.53400 -0.42400 31.71100
C  22.84300 -1.39200 34.03800
C  25.49600 1.47200 34.15700
C  26.40200 1.39400 35.48500
H  26.18300 2.35800 36.57200
N  23.07100 -0.68300 28.67600
C  22.08000 -0.37200 29.62000
C  20.81700 -0.24100 28.94200
C  21.09700 -0.51000 27.59200
C  22.52600 -0.77400 27.43100
C  19.55500 0.05700 29.68900
C  20.07100 -0.59200 26.42500
O  20.40500 -0.89300 25.32400
C  18.67200 -0.32400 26.64900
N  25.56100 -1.62900 27.23600
C  24.64200 -1.34500 26.24900
C  25.20900 -1.41200 24.80500
C  26.75300 -1.57800 25.14600
C  26.81600 -1.67000 26.71100
C  24.55900 -2.52400 23.88600
C  27.58300 -0.44000 24.51400
C  27.51900 0.99200 25.08600
N  27.22500 -0.97200 29.47400
C  28.29800 -1.40200 28.69800
C  29.56600 -1.33200 29.40400
C  29.20500 -0.97300 30.72300
C  27.77100 -0.78600 30.64300
C  30.88000 -1.60400 28.79700
C  29.69300 -0.63000 32.06400
O  30.79000 -0.54200 32.52100
C  28.38700 -0.35900 32.89700
C  28.46100 -1.28700 34.07000
O  28.24200 -2.49200 34.04200
O  28.80100 -0.46000 35.15000
C  28.74600 -1.16700 36.43500
H  21.48100 0.01400 31.61600
H  22.86300 -0.86200 25.39200
H  28.93100 -1.76500 26.67000
H  25.54200 -0.78800 34.22100
H  22.90700 0.55800 33.54700
H  23.43700 -1.85000 34.82900
H  22.45000 -2.15800 33.36900
H  22.10700 -0.91000 34.68100
H  24.60700 1.98900 34.51700
H  25.93200 2.05900 33.35000
H  27.42500 1.43000 35.11300
H  26.20000 0.41900 35.92800
H  19.58100 -0.25600 30.73300
H  18.62100 -0.41300 29.38100
H  19.45200 1.13800 29.78500
H  18.26200 -1.04000 27.36100
H  18.09300 -0.25900 25.72800
H  18.72500 0.71700 26.96800
H  25.00800 -0.44300 24.34700
H  27.04500 -2.54300 24.73300
H  25.34800 -3.02400 23.32300
H  23.79700 -2.02400 23.28900
H  23.96000 -3.20100 24.49300
H  27.14300 -0.29200 23.52800
H  28.61200 -0.76900 24.37300
H  26.87800 1.05700 25.96600
H  26.99600 1.64300 24.38600
H  28.47800 1.47300 25.27800
H  31.28400 -0.76100 28.23600
H  30.86300 -2.41100 28.06500
H  31.50500 -1.91600 29.63500
H  28.47000 0.67900 33.21700
H  27.81300 -0.79900 36.86100
H  29.64500 -0.93600 37.00600
H  28.67500 -2.24900 36.32300
Mg -0.92500 34.34500 26.79500
C  -1.95500 32.89300 29.78700
C  0.77600 36.73800 28.79500
C  -0.15200 36.05300 24.09900
C  -2.63600 31.93500 25.02300
N  -0.40000 34.58100 29.09500
C  -0.99500 33.89200 30.15200
C  -0.55400 34.32000 31.48200
C  0.17200 35.70200 31.10400
C  0.19600 35.73200 29.55300
C  -0.45100 36.95400 31.78300
C  0.22300 33.20400 32.20300
C  -0.53800 32.66200 33.43400
H  -0.00900 32.77200 34.81500
N  0.28800 36.02900 26.49500
C  0.98800 36.87800 27.35400
C  1.82700 37.82500 26.66000
C  1.66300 37.55800 25.30000
C  0.52300 36.62000 25.18500
C  2.85300 38.64600 27.37800
C  2.35100 38.25200 24.09200
O  1.97300 38.02200 22.92800
C  3.44300 39.29100 24.35400
N  -1.58300 34.14000 24.87700
C  -1.02400 34.92200 23.89500
C  -1.46800 34.49300 22.52900
C  -1.95100 33.04800 22.84400
C  -2.07900 33.00100 24.35400
C  -2.54000 35.42700 21.89800
C  -0.95100 31.94000 22.21500
C  0.25500 31.34100 22.97600
N  -2.12100 32.80400 27.24500
C  -2.78400 31.87200 26.46500
C  -3.40000 30.85000 27.19300
C  -3.21000 31.29300 28.56200
C  -2.38200 32.43900 28.51300
C  -4.47400 29.84200 26.65600
C  -3.43600 30.94300 29.97200
O  -4.01900 30.03200 30.51700
C  -2.80700 32.14600 30.74800
C  -4.00900 32.89700 31.37700
O  -4.57500 33.78700 30.75500
O  -4.57200 32.29000 32.50800
C  -5.81300 32.85600 32.97900
H  1.34500 37.51300 29.31300
H  0.09400 36.55100 23.15900
H  -2.97000 31.09600 24.41000
H  -1.52600 34.66100 31.83700
H  1.20100 35.73600 31.46100
H  0.36400 37.53600 32.21400
H  -1.18000 36.83900 32.58500
H  -0.88200 37.46500 30.92200
H  1.16000 33.63700 32.55500
H  0.47200 32.43900 31.46800
H  -0.79700 31.63500 33.17600
H  -1.45100 33.25600 33.47500
H  3.85400 38.23400 27.24700
H  2.66100 38.71700 28.44800
H  2.87500 39.66400 26.99000
H  2.85600 40.14300 24.69700
H  4.04300 39.53200 23.47600
H  4.13300 39.07400 25.16900
H  -0.60200 34.46800 21.86700
H  -2.92600 32.76200 22.44900
H  -3.05100 35.96600 22.69500
H  -3.40100 35.04300 21.35000
H  -2.10000 36.15900 21.22000
H  -0.61400 32.37200 21.27200
H  -1.62100 31.09300 22.07100
H  0.37700 31.74900 23.98000
H  1.14900 31.50900 22.37600
H  0.13900 30.26400 23.09400
H  -5.44100 30.34400 26.65400
H  -4.44300 28.98900 27.33400
H  -4.24000 29.70800 25.60000
H  -2.17500 31.77400 31.55500
H  -6.32500 32.10100 33.57600
H  -6.41700 33.31700 32.19700
H  -5.65300 33.68600 33.66600

