158

Mg 0.24700 8.38600 27.71900
C  0.88400 10.45800 30.52800
C  -0.15700 5.75300 29.73000
C  -0.08000 6.58000 24.88600
C  1.04100 11.23000 25.64200
N  0.57200 8.11300 29.88600
C  0.67800 9.05200 30.82900
C  0.28500 8.53700 32.23900
C  0.32500 6.96100 31.96000
C  0.26500 6.90700 30.48300
C  1.49100 6.16500 32.56400
C  -0.99300 9.04400 32.80500
C  -1.00300 9.32200 34.29600
H  -0.02000 8.49800 35.17300
N  -0.12900 6.46700 27.38500
C  -0.34400 5.54200 28.31700
C  -0.87800 4.34000 27.78300
C  -0.83600 4.54900 26.37400
C  -0.29200 5.91700 26.11200
C  -1.29200 3.12400 28.62000
C  -1.34900 3.60500 25.23500
O  -1.20900 3.82900 23.99200
C  -2.08600 2.41600 25.68000
N  0.38400 8.76800 25.66200
C  0.29900 7.86300 24.68100
C  0.75700 8.38500 23.34700
C  0.76300 9.94100 23.55800
C  0.74700 9.99100 25.06000
C  2.06300 7.75700 22.71300
C  -0.42200 10.66200 22.98700
C  -1.84100 10.27000 23.50800
N  0.90700 10.46300 27.97900
C  1.10300 11.43800 27.06000
C  1.31800 12.72900 27.77000
C  1.14900 12.39500 29.13400
C  1.00400 11.01900 29.16300
C  1.58500 14.10000 27.21700
C  1.14100 12.89100 30.43800
O  1.23300 14.00000 30.90500
C  0.85000 11.66900 31.33700
C  1.82000 11.64800 32.46700
O  3.04500 11.41500 32.29900
O  1.25400 12.14800 33.68400
C  2.07100 12.06000 34.88800
H  -0.47600 4.96900 30.42100
H  -0.05300 6.01700 23.95100
H  1.23100 12.12200 25.04100
H  1.12100 8.61800 32.93300
H  -0.59200 6.56000 32.39200
H  2.10400 5.74900 31.76500
H  1.08200 5.28000 33.05200
H  2.14800 6.76600 33.19400
H  -1.81500 8.33900 32.67700
H  -1.16300 9.97600 32.26600
H  -2.02700 9.20000 34.64900
H  -0.67500 10.31100 34.61500
H  -0.71200 2.32500 28.15900
H  -2.36900 2.98500 28.52400
H  -1.00300 3.14900 29.67100
H  -1.54000 1.60400 26.16000
H  -2.67300 2.06400 24.83200
H  -2.85800 2.67100 26.40600
H  -0.09300 8.28800 22.67200
H  1.68100 10.40600 23.19800
H  3.01400 8.28700 22.76300
H  1.74300 7.41300 21.72900
H  2.28600 6.88500 23.32800
H  -0.38400 10.64000 21.89800
H  -0.24900 11.71100 23.23000
H  -2.36300 11.15300 23.87600
H  -1.93400 9.59200 24.35600
H  -2.45800 9.86700 22.70500
H  2.51000 14.15800 26.64300
H  1.57500 14.78000 28.06900
H  0.81700 14.38700 26.49900
H  -0.09700 11.65000 31.87800
H  2.33400 12.98200 35.40700
H  3.06800 11.65300 34.71800
H  1.48400 11.56400 35.66100
Mg 48.21300 25.86800 27.84600
C  48.92400 28.06600 30.25800
C  47.11600 23.44700 30.14500
C  47.58200 23.58900 25.27900
C  49.50100 28.06700 25.44300
N  47.88100 25.79400 29.87600
C  48.29600 26.79800 30.68300
C  48.00900 26.51900 32.18300
C  47.75400 24.96700 32.12700
C  47.55600 24.70900 30.63800
C  48.67300 24.01400 32.90600
C  46.78600 27.42100 32.67700
C  46.16500 27.00400 33.99500
H  46.04000 28.05600 35.14200
N  47.44400 23.83100 27.74500
C  47.09000 23.03900 28.77700
C  46.55700 21.72000 28.31600
C  46.74200 21.77800 26.93200
C  47.26700 23.13800 26.56200
C  45.88400 20.71400 29.19000
C  46.43700 20.60800 25.95600
O  46.65100 20.63900 24.79400
C  45.97500 19.35000 26.46600
N  48.59600 25.84600 25.65500
C  48.09600 24.84200 24.84600
C  48.09100 25.28600 23.39200
C  48.85800 26.57200 23.39600
C  49.04200 26.87400 24.91900
C  48.60500 24.24500 22.37500
C  48.21400 27.74500 22.61900
C  48.89800 28.28500 21.38400
N  49.09900 27.66600 27.81200
C  49.59500 28.44800 26.77700
C  50.10700 29.70900 27.31500
C  49.80100 29.65100 28.70000
C  49.25600 28.37300 28.93300
C  50.66400 30.96800 26.60200
C  49.91300 30.34500 29.98200
O  50.27000 31.50900 30.17100
C  49.34800 29.35600 31.06500
C  50.38200 29.03800 32.14500
O  51.44300 28.47300 32.02800
O  49.92600 29.61200 33.34200
C  50.74600 29.36500 34.54000
H  46.79100 22.72400 30.89600
H  47.30700 22.95600 24.43300
H  49.77100 28.84800 24.73000
H  48.88900 26.77600 32.77300
H  46.80200 24.73800 32.60600
H  49.03900 23.18300 32.30300
H  48.21500 23.60200 33.80500
H  49.52700 24.56400 33.30400
H  46.03400 27.49400 31.89200
H  47.24100 28.39300 32.86900
H  46.70100 26.15000 34.40900
H  45.19600 26.57700 33.73600
H  46.56000 19.86200 29.25700
H  44.98100 20.38100 28.67900
H  45.63200 21.07100 30.18900
H  45.90500 18.57900 25.69900
H  45.00300 19.43300 26.95200
H  46.76300 18.99800 27.13200
H  47.11300 25.48600 22.95400
H  49.85100 26.52500 22.94900
H  49.05800 23.39400 22.88500
H  49.37300 24.63200 21.70600
H  47.76800 23.74800 21.88500
H  48.07400 28.59600 23.28600
H  47.24800 27.42700 22.22800
H  49.63400 27.65500 20.88300
H  49.33300 29.18200 21.82500
H  48.17400 28.53100 20.60700
H  50.13100 31.91600 26.68400
H  50.56100 30.80200 25.52900
H  51.69900 31.23200 26.81400
H  48.44800 29.82300 31.46500
H  51.04800 30.36200 34.86100
H  51.61500 28.71800 34.41700
H  50.11200 28.88900 35.28700

