158

Mg 41.51300 8.67900 30.19600
C  43.71900 10.27000 32.49800
C  39.68600 7.47000 32.90400
C  39.80300 6.61700 28.07200
C  43.89400 9.20700 27.78800
N  41.59400 9.05300 32.50200
C  42.49000 9.83500 33.16800
C  42.24700 9.72400 34.66200
C  41.07900 8.61700 34.78000
C  40.77200 8.31000 33.32600
C  41.59300 7.43800 35.67500
C  41.87100 11.12700 35.28400
C  42.47100 11.37100 36.67800
H  41.34800 11.31300 37.83700
N  39.90800 7.35700 30.40700
C  39.26000 7.02700 31.60100
C  38.14500 6.16800 31.34500
C  38.18400 5.94800 29.86900
C  39.33300 6.67800 29.39300
C  37.22700 5.68000 32.39900
C  37.30000 5.04400 28.99500
O  37.44900 4.89500 27.77400
C  36.22200 4.31800 29.70300
N  41.78900 7.93600 28.26100
C  40.94000 7.22200 27.50900
C  41.40800 7.12300 26.05900
C  42.78600 7.77700 26.04600
C  42.80200 8.45400 27.40400
C  41.39600 5.67600 25.55700
C  42.94400 8.81200 24.89500
C  42.43600 10.25400 25.14600
N  43.29100 9.80300 30.05500
C  44.17700 9.89200 28.99500
C  45.34700 10.58700 29.38700
C  45.25300 10.73000 30.80800
C  43.97100 10.20000 31.16500
C  46.49900 10.95800 28.51000
C  45.91700 11.20700 31.99700
O  47.04600 11.63600 32.06200
C  44.96100 10.90200 33.20000
C  45.54400 9.82600 33.97700
O  45.82500 8.71400 33.62700
O  45.67400 10.30000 35.30000
C  45.90100 9.18400 36.17000
H  38.98800 7.10200 33.65900
H  39.13600 6.16000 27.33800
H  44.68000 9.24000 27.03100
H  43.14800 9.24000 35.04000
H  40.16900 9.09700 35.13800
H  42.26500 7.88100 36.41000
H  42.08400 6.70200 35.03800
H  40.87300 7.02400 36.38000
H  40.79600 11.25000 35.41500
H  42.26700 11.94900 34.68800
H  42.93400 12.35600 36.60700
H  43.16500 10.56400 36.91100
H  36.19000 5.91900 32.16200
H  37.45100 6.08500 33.38600
H  37.40500 4.60900 32.48500
H  35.54100 5.03700 30.15800
H  36.82900 3.83500 30.47000
H  35.77100 3.57000 29.05100
H  40.72700 7.73000 25.46300
H  43.60700 7.06700 25.94400
H  41.04300 5.00800 26.34300
H  42.33000 5.35300 25.09700
H  40.74800 5.66800 24.68100
H  42.53800 8.50700 23.93000
H  44.01200 8.88300 24.68800
H  43.27900 10.91100 25.35800
H  41.75900 10.26300 26.00000
H  41.74600 10.57700 24.36800
H  47.10500 11.62300 29.12600
H  46.03000 11.42900 27.64600
H  47.01300 9.99900 28.45300
H  44.78400 11.84800 33.71000
H  46.86700 8.70100 36.01700
H  45.14200 8.42300 35.98900
H  45.72000 9.32200 37.23600
Mg 16.75900 52.40200 26.87200
C  18.68100 50.70700 29.26700
C  14.67900 53.41900 29.45100
C  14.70900 53.77600 24.41400
C  18.71000 51.08800 24.42400
N  16.47200 51.77100 29.00700
C  17.60600 51.28800 29.80800
C  17.42800 51.53800 31.36100
C  15.93200 51.92100 31.26300
C  15.71400 52.52600 29.85100
C  14.83500 50.85700 31.47300
C  18.45200 52.60100 31.95400
C  18.51100 52.67400 33.44700
H  17.43300 51.92600 34.22100
N  15.16400 53.59400 26.93500
C  14.44000 53.84000 28.06400
C  13.24800 54.74100 27.71000
C  13.25000 54.91100 26.30100
C  14.39300 54.03200 25.81400
C  12.33200 55.28800 28.81700
C  12.31800 55.77300 25.40200
O  12.40300 55.74600 24.18100
C  11.22400 56.68600 26.01200
N  16.67600 52.33300 24.70300
C  15.75800 52.96500 23.92300
C  16.11700 52.85700 22.38300
C  17.56300 52.33900 22.54700
C  17.63700 51.75600 23.95200
C  15.20200 51.94500 21.48300
C  18.78100 53.32600 22.32900
C  20.06100 52.74800 21.61300
N  18.32200 51.11600 26.81600
C  19.05800 50.68900 25.72000
C  20.21600 49.81900 26.13600
C  20.08600 49.83600 27.51200
C  18.97400 50.64600 27.87900
C  21.34500 49.26900 25.32300
C  20.64800 49.32000 28.78600
O  21.63000 48.59700 29.04200
C  19.79100 49.91600 29.90000
C  19.11400 48.88400 30.81900
O  18.31900 48.01300 30.45700
O  19.66700 49.03300 32.05500
C  19.32500 48.12200 33.12400
H  13.99400 53.69000 30.25700
H  14.12200 54.16500 23.57900
H  19.36800 50.66900 23.66000
H  17.40100 50.61500 31.94000
H  15.83500 52.76900 31.94200
H  14.00500 50.88500 30.76700
H  14.33000 50.98200 32.43000
H  15.17200 49.82000 31.47900
H  18.03100 53.56800 31.68000
H  19.42200 52.48000 31.47200
H  18.58300 53.74700 33.62600
H  19.46300 52.17700 33.63600
H  12.21400 56.36400 28.69000
H  12.69100 55.27600 29.84600
H  11.36900 54.77900 28.77900
H  10.55900 57.12000 25.26500
H  11.71700 57.52100 26.50900
H  10.72200 56.12700 26.80200
H  16.08400 53.86200 21.96200
H  17.81900 51.52600 21.86700
H  14.47400 51.36700 22.05400
H  15.75800 51.22900 20.87700
H  14.68500 52.68200 20.86900
H  19.19000 53.69100 23.27100
H  18.61900 54.11600 21.59700
H  19.99400 51.66700 21.49100
H  20.86000 53.00000 22.31100
H  20.30100 53.30600 20.70800
H  21.26900 49.23300 24.23600
H  21.54700 48.29400 25.76500
H  22.31000 49.74500 25.49700
H  20.41800 50.60100 30.47100
H  19.80600 47.15700 32.96600
H  18.25700 47.90400 33.15600
H  19.67500 48.47600 34.09400

