158

Mg 9.13800 2.81700 26.66900
C  10.52200 1.15500 29.51800
C  7.28900 4.70700 28.75300
C  7.96400 4.04700 24.07300
C  10.74600 0.15200 24.77600
N  9.00700 2.95100 28.90200
C  9.67000 2.23400 29.90500
C  9.23900 2.68400 31.29800
C  8.03600 3.72300 31.01000
C  8.18800 3.88200 29.50200
C  6.61400 3.19600 31.45000
C  10.48300 3.09500 32.23000
C  10.39100 4.14400 33.37500
H  10.96000 3.86700 34.76000
N  7.81900 4.17400 26.43900
C  7.15900 4.94200 27.36500
C  6.34900 5.95500 26.70700
C  6.57700 5.86400 25.27400
C  7.45200 4.61800 25.21300
C  5.72100 7.00900 27.44600
C  6.08600 6.75900 24.13900
O  6.45000 6.56900 22.98900
C  5.07800 7.89300 24.40800
N  9.39800 2.22800 24.69500
C  8.79400 2.93700 23.75300
C  9.15800 2.48600 22.32100
C  10.02200 1.23200 22.57400
C  10.15500 1.25600 24.12400
C  7.97500 2.24800 21.36500
C  11.39300 1.20800 21.84400
C  11.19700 1.07900 20.31600
N  10.39100 1.08800 27.03200
C  10.92800 0.10000 26.15600
C  11.56100 -0.95200 26.90600
C  11.52200 -0.46200 28.24600
C  10.81800 0.71800 28.27000
C  12.11900 -2.16800 26.38300
C  11.92900 -0.83900 29.53900
O  12.56700 -1.79200 29.87300
C  11.23600 0.18900 30.49900
C  10.30800 -0.56600 31.39100
O  9.24000 -1.02800 31.09800
O  10.84200 -0.60400 32.64400
C  10.08800 -1.30100 33.71700
H  6.63700 5.31200 29.38600
H  7.48800 4.44500 23.17400
H  11.21700 -0.61600 24.15900
H  8.73200 1.80600 31.69900
H  8.15900 4.63700 31.59100
H  5.97200 3.06600 30.57900
H  6.19400 3.93100 32.13600
H  6.83000 2.26600 31.97600
H  11.22200 3.64300 31.64500
H  10.92900 2.20500 32.67500
H  9.33100 4.39000 33.44400
H  10.91900 5.02500 33.01200
H  6.22300 7.96500 27.29600
H  5.71900 6.69800 28.49100
H  4.74000 7.12200 26.98400
H  4.16800 7.43300 24.79500
H  4.85000 8.30600 23.42500
H  5.55000 8.58000 25.11000
H  9.80100 3.26700 21.91500
H  9.40300 0.39600 22.24900
H  7.02700 2.64400 21.73000
H  7.93100 1.21000 21.03500
H  8.20400 2.77800 20.44100
H  11.85500 0.25600 22.10800
H  12.00900 2.07700 22.07700
H  10.16800 1.34600 20.07600
H  11.37300 0.05100 19.99900
H  11.85600 1.76300 19.78100
H  11.35000 -2.49900 25.68500
H  12.14500 -2.84400 27.23800
H  13.04200 -1.95700 25.84300
H  11.90800 0.74600 31.15300
H  10.48100 -2.28900 33.95700
H  9.05200 -1.39900 33.39300
H  9.97400 -0.73800 34.64400
Mg 46.09400 44.87000 42.56900
C  42.63200 44.03300 42.36000
C  46.92600 41.67100 41.78100
C  49.30200 45.74400 42.35000
C  45.10900 48.15800 42.65600
N  44.86300 43.09400 42.04000
C  43.49100 42.93700 42.02200
C  43.08600 41.47100 41.97000
C  44.49700 40.78100 41.76700
C  45.51900 41.93100 41.84300
C  44.75800 39.63500 42.80700
C  42.00000 41.12000 40.85900
C  42.04400 41.93000 39.52700
H  41.81800 41.19600 38.11200
N  47.86600 43.89500 42.23000
C  48.00800 42.52600 41.97300
C  49.40400 42.11800 41.90400
C  50.18300 43.34400 42.02800
C  49.13700 44.43300 42.17200
C  49.95500 40.69000 41.83000
C  51.71400 43.40300 41.96700
O  52.40500 42.39700 41.87700
C  52.39200 44.73700 42.07300
N  47.05000 46.73400 42.22700
C  48.40500 46.82600 42.41600
C  48.85000 48.30400 42.55900
C  47.39400 49.00600 42.56500
C  46.47900 47.87200 42.57800
C  49.83600 48.72900 43.73300
C  47.11900 49.97600 41.40000
C  46.97200 51.47300 41.82500
N  44.25700 45.95600 42.67800
C  44.00000 47.29100 42.70500
C  42.63700 47.60100 42.77400
C  42.00300 46.37700 42.64700
C  43.06800 45.39200 42.55500
C  41.96800 48.97600 43.17100
C  40.75500 45.65500 42.56700
O  39.59400 46.02000 42.51900
C  41.12800 44.10200 42.42100
C  40.68600 43.40800 43.64900
O  40.40300 42.24300 43.68200
O  40.71200 44.11900 44.84200
C  40.90000 43.38200 46.15700
H  47.19100 40.63300 41.57100
H  50.31900 46.13200 42.43900
H  44.81800 49.19000 42.85800
H  42.76400 41.33800 43.00300
H  44.61800 40.34400 40.77600
H  45.51300 39.92300 43.53900
H  45.06300 38.77800 42.20600
H  43.87300 39.36700 43.38400
H  41.00600 41.13600 41.30700
H  42.31200 40.08600 40.71100
H  43.01400 42.42300 39.46500
H  41.31500 42.73400 39.42500
H  50.70900 40.67600 41.04300
H  49.19200 39.94600 41.60200
H  50.47400 40.50200 42.77000
H  51.98300 45.34300 41.26400
H  53.47300 44.68500 41.94100
H  52.13000 45.13100 43.05500
H  49.34600 48.74200 41.69300
H  47.28900 49.48100 43.54000
H  49.29000 49.37900 44.41600
H  50.72600 49.17800 43.29200
H  50.20900 47.77600 44.10800
H  46.23000 49.62700 40.87500
H  47.95100 50.01000 40.69700
H  47.63500 52.06100 41.19100
H  47.38700 51.56800 42.82800
H  45.96900 51.88300 41.70200
H  41.30300 48.82400 44.02200
H  41.33700 49.31700 42.35100
H  42.68200 49.77200 43.38500
H  40.64900 43.67400 41.54000
H  40.67200 44.04100 46.99500
H  41.98200 43.25300 46.13300
H  40.27800 42.48700 46.17900

