158

Mg 26.24100 -1.19200 29.90900
C  28.09600 -0.81400 32.72600
C  23.49300 -0.67700 31.83100
C  24.30500 -1.63900 27.14300
C  29.19600 -1.73100 28.03500
N  25.80000 -0.80000 32.00700
C  26.70400 -0.51700 32.97900
C  26.05400 -0.28300 34.39800
C  24.54200 -0.69400 34.11800
C  24.55000 -0.78500 32.57700
C  23.94000 -1.91200 34.90700
C  26.34300 1.15000 35.00500
C  26.87800 0.97000 36.47800
H  26.12800 1.84500 37.54500
N  24.18500 -1.27600 29.60000
C  23.25100 -0.96800 30.51600
C  21.92900 -0.93600 29.86800
C  22.16500 -1.22800 28.51000
C  23.59100 -1.39500 28.38400
C  20.61900 -0.65500 30.66800
C  21.20900 -1.17200 27.30700
O  21.57200 -1.40800 26.14500
C  19.75900 -0.84500 27.58400
N  26.68800 -1.86800 27.91800
C  25.69900 -1.78800 26.95200
C  26.36300 -1.85600 25.52800
C  27.89100 -1.82800 25.83800
C  28.02700 -1.72900 27.35400
C  25.97400 -3.13600 24.64900
C  28.61000 -0.58300 25.14000
C  28.40600 0.87500 25.66600
N  28.22100 -1.36400 30.26000
C  29.34400 -1.60700 29.41600
C  30.52400 -1.49000 30.24200
C  30.07300 -1.21600 31.57200
C  28.64400 -1.16300 31.50500
C  31.79300 -1.72200 29.68100
C  30.53000 -0.94700 32.93200
O  31.65400 -0.96800 33.38800
C  29.20600 -0.70800 33.77300
C  29.18900 -1.60800 34.98800
O  28.56100 -2.62200 35.13200
O  29.86700 -0.96900 35.97100
C  29.67900 -1.42100 37.39000
H  22.61200 -0.58500 32.46900
H  23.77000 -1.69100 26.19200
H  30.10200 -1.94400 27.46500
H  26.65300 -1.08600 34.82900
H  23.91700 0.13800 34.44300
H  23.23400 -1.62200 35.68500
H  24.61200 -2.60400 35.41500
H  23.58800 -2.65700 34.19300
H  25.45900 1.78600 35.04900
H  27.04800 1.71200 34.39100
H  27.90800 1.31600 36.39400
H  26.87900 -0.01900 36.93500
H  20.17800 0.33400 30.54100
H  20.84300 -0.83400 31.71900
H  19.93500 -1.40800 30.27900
H  19.31900 -0.63600 26.60900
H  19.69300 0.12500 28.07700
H  19.29700 -1.69700 28.08300
H  25.93800 -1.04000 24.94300
H  28.27500 -2.75100 25.40400
H  25.81900 -3.96200 25.34300
H  26.75400 -3.39900 23.93400
H  25.10500 -2.85100 24.05600
H  28.20800 -0.57700 24.12700
H  29.64700 -0.92000 25.13600
H  29.33300 1.17800 26.15400
H  27.69500 0.92600 26.49100
H  28.21400 1.65400 24.92800
H  31.91800 -1.65900 28.60000
H  32.13300 -2.69400 30.03800
H  32.49100 -1.00200 30.10800
H  29.29200 0.35200 34.01300
H  30.36500 -2.25000 37.56400
H  28.67100 -1.80600 37.54300
H  29.99900 -0.76500 38.19900
Mg 26.35000 49.91700 26.10200
C  24.60200 51.53300 28.59500
C  28.93800 49.38800 28.45600
C  28.60300 49.15100 23.63200
C  24.10500 51.18500 23.76400
N  26.70600 50.39400 28.25100
C  25.77900 50.98300 29.08300
C  26.26200 50.88800 30.53800
C  27.75300 50.43100 30.44700
C  27.86900 50.01900 28.96400
C  28.76700 51.55500 30.88000
C  25.29500 49.90900 31.33100
C  25.05100 50.03500 32.86900
H  25.98600 50.90600 33.75100
N  28.40800 49.13500 26.03900
C  29.21600 49.00700 27.12600
C  30.47100 48.39600 26.66400
C  30.49300 48.43900 25.25000
C  29.10300 48.95900 24.92500
C  31.45900 47.66800 27.56900
C  31.59100 48.00000 24.22400
O  31.36400 48.00800 23.02800
C  33.00600 47.60900 24.70400
N  26.40000 50.16300 23.99600
C  27.40600 49.71900 23.14400
C  27.05200 49.82900 21.64200
C  25.62300 50.56200 21.74000
C  25.35600 50.58500 23.27100
C  28.14200 50.62000 20.88200
C  24.50400 49.91100 20.92500
C  24.00200 50.56600 19.60700
N  24.63200 51.11700 26.13900
C  23.82700 51.54900 25.11800
C  22.72900 52.23000 25.64200
C  22.95400 52.24200 27.02800
C  24.19700 51.66900 27.25400
C  21.63200 52.86200 24.93400
C  22.41700 52.69800 28.31300
O  21.42900 53.29400 28.62400
C  23.41600 52.08800 29.42500
C  23.78500 53.24900 30.25000
O  24.58900 54.11800 29.94500
O  23.06700 53.15600 31.49400
C  23.50100 53.90800 32.67200
H  29.70800 49.18000 29.20200
H  29.35000 49.01300 22.84800
H  23.42700 51.45600 22.95300
H  26.17200 51.85700 31.02900
H  27.82700 49.54600 31.07700
H  29.35400 51.82900 30.00400
H  29.55600 51.06600 31.45200
H  28.32200 52.41000 31.38900
H  25.56900 48.89600 31.03700
H  24.28600 50.08900 30.95800
H  25.03300 49.07800 33.39000
H  24.09600 50.54400 33.00400
H  32.34400 48.30300 27.55700
H  31.75400 46.73000 27.09800
H  31.05700 47.50000 28.56800
H  33.76000 47.40200 23.94400
H  32.96400 46.74700 25.36900
H  33.23700 48.39600 25.42200
H  26.92600 48.87600 21.12800
H  25.80200 51.59500 21.44200
H  28.74200 49.89300 20.33500
H  28.87300 51.12700 21.51200
H  27.62200 51.41200 20.34400
H  23.62800 49.89200 21.57300
H  24.81100 48.88100 20.74300
H  22.93600 50.35900 19.69900
H  24.39600 50.00700 18.75800
H  24.25800 51.60400 19.39100
H  21.78400 53.94100 24.94400
H  20.73900 52.68800 25.53500
H  21.55200 52.55700 23.89000
H  22.87100 51.36300 30.02900
H  24.28200 53.34300 33.18100
H  22.65000 54.03700 33.34100
H  23.86600 54.91100 32.45000

