158

Mg 25.85900 1.43500 29.89500
C  27.73300 1.24100 33.01400
C  23.08200 1.99000 31.83400
C  24.11600 1.39100 27.06200
C  28.69400 0.37200 28.21600
N  25.52000 1.30300 32.10500
C  26.40700 1.43400 33.24500
C  25.64300 1.54400 34.60100
C  24.21200 1.73900 34.10700
C  24.22500 1.62100 32.57200
C  23.16800 0.83700 34.80600
C  26.24000 2.66600 35.51900
C  26.40600 2.15800 36.99000
H  26.15800 3.13700 38.08800
N  23.89000 1.74800 29.46000
C  22.90200 1.91400 30.44200
C  21.60700 1.96100 29.70200
C  21.84300 1.61000 28.31100
C  23.30600 1.56700 28.25200
C  20.26100 2.08800 30.45900
C  20.89900 1.24300 27.22000
O  21.36800 0.78700 26.17600
C  19.45600 1.32100 27.44000
N  26.29400 0.81100 27.96100
C  25.43800 1.15100 26.92800
C  26.07000 0.99500 25.58400
C  27.53800 0.54900 25.96000
C  27.54900 0.49800 27.46700
C  25.42100 -0.05500 24.57300
C  28.67300 1.41800 25.24200
C  29.30300 2.62800 25.97800
N  27.86800 0.98600 30.42700
C  28.82900 0.47900 29.60600
C  30.04900 0.41100 30.40100
C  29.67600 0.68800 31.74400
C  28.35300 1.00900 31.71900
C  31.40600 0.16900 29.86200
C  30.23300 0.81800 33.09500
O  31.38800 0.85700 33.55100
C  28.95300 1.13300 34.01600
C  28.80400 0.01300 34.88200
O  28.23400 -1.04400 34.58900
O  29.32300 0.31400 36.11700
C  29.20400 -0.73700 37.15200
H  22.15900 2.23900 32.36200
H  23.52600 1.57100 26.16100
H  29.65000 0.04600 27.80000
H  25.75000 0.58200 35.10300
H  24.02200 2.80300 34.24700
H  22.37600 1.36100 35.34100
H  23.65000 0.02900 35.35800
H  22.64800 0.33100 33.99400
H  25.55800 3.51600 35.52500
H  27.09400 3.17100 35.06700
H  27.40700 1.74800 37.12300
H  25.65900 1.37100 37.09400
H  19.74700 3.02500 30.24500
H  20.38500 2.01700 31.54000
H  19.75500 1.16600 30.17400
H  19.22800 0.31600 27.79500
H  19.02400 1.52100 26.45900
H  19.12500 2.18500 28.01600
H  25.99700 1.93300 25.03300
H  27.65400 -0.45000 25.54200
H  24.48700 -0.39700 25.01700
H  25.98200 -0.98300 24.45900
H  25.34300 0.54100 23.66300
H  28.31300 1.82700 24.29800
H  29.43800 0.65400 25.10100
H  28.71000 2.77100 26.88200
H  29.17900 3.59900 25.50000
H  30.33600 2.39700 26.23600
H  31.48200 0.79900 28.97600
H  31.52200 -0.85500 29.50500
H  32.09400 0.37600 30.68200
H  29.18100 2.01900 34.60900
H  28.30600 -0.63700 37.76200
H  30.13700 -0.82700 37.70900
H  29.04500 -1.69700 36.66100
Mg 41.01400 8.64600 31.48200
C  43.14600 9.89200 33.88000
C  38.69900 8.13300 33.85000
C  39.12300 7.40400 29.03200
C  43.68300 8.96200 29.08800
N  40.91500 9.09000 33.60500
C  41.91700 9.59800 34.42200
C  41.33000 9.76900 35.85000
C  39.94500 9.11000 35.78000
C  39.85600 8.70700 34.34000
C  39.64900 7.99500 36.83900
C  41.27200 11.26700 36.23800
C  40.25800 11.71700 37.30700
H  40.79300 12.73900 38.25400
N  39.25900 7.82300 31.45800
C  38.41100 7.68000 32.49200
C  37.13600 6.99400 32.11000
C  37.21900 6.85400 30.69800
C  38.55800 7.43000 30.30300
C  36.02600 6.47900 33.06100
C  36.20300 6.21300 29.74000
O  36.38600 6.04300 28.55500
C  34.79500 5.79800 30.23300
N  41.41300 8.04600 29.36500
C  40.39300 7.69700 28.60100
C  40.78500 7.43700 27.20000
C  42.25800 7.90700 27.16800
C  42.57900 8.17300 28.63000
C  40.72100 5.88700 26.63900
C  42.48400 9.18400 26.22000
C  41.74800 10.44900 26.67000
N  43.01700 9.27700 31.46100
C  43.88500 9.48300 30.41600
C  45.05300 10.13900 30.90400
C  44.76100 10.38300 32.26400
C  43.56400 9.82100 32.55700
C  46.35200 10.51200 30.25000
C  45.37400 10.77900 33.52400
O  46.48500 11.20600 33.74300
C  44.34400 10.51300 34.69100
C  44.92300 9.59800 35.62300
O  44.75300 8.36900 35.52600
O  45.53800 10.20000 36.66400
C  45.85000 9.42500 37.84000
H  37.99800 7.85200 34.63900
H  38.36500 7.15800 28.28500
H  44.45300 9.13500 28.33300
H  41.89700 9.20000 36.58700
H  39.15900 9.85700 35.88500
H  38.76800 8.17000 37.45600
H  40.41600 7.90100 37.60700
H  39.53100 7.04900 36.31000
H  40.98900 11.79900 35.33000
H  42.27200 11.58000 36.53700
H  39.72000 10.94200 37.85200
H  39.62200 12.42400 36.77300
H  35.20500 7.18500 32.93400
H  36.31300 6.59000 34.10600
H  35.80400 5.43400 32.84400
H  34.37600 6.74500 30.57400
H  34.94100 5.02600 30.98800
H  34.01400 5.47500 29.54500
H  40.18100 7.93100 26.44000
H  42.99800 7.12800 26.98700
H  40.36900 5.14200 27.35300
H  41.72100 5.53300 26.38900
H  40.03600 5.85600 25.79100
H  41.91800 8.90100 25.33200
H  43.51800 9.46600 26.02200
H  42.38400 11.28300 26.37500
H  41.63700 10.51300 27.75300
H  40.75400 10.46600 26.22300
H  46.78900 9.84000 29.51200
H  47.10400 10.71000 31.01300
H  46.20500 11.47000 29.75000
H  44.09700 11.45800 35.17600
H  46.92200 9.51000 38.02000
H  45.65300 8.36700 37.66100
H  45.26400 9.73300 38.70600

