158

Mg 40.66400 9.01600 29.18000
C  42.46100 10.28500 31.86300
C  38.53300 7.64700 31.52000
C  39.05100 7.71500 26.67000
C  43.34800 9.95200 27.13200
N  40.47900 9.13000 31.40500
C  41.34000 9.70600 32.28300
C  40.80200 9.60200 33.70900
C  39.77400 8.45700 33.59500
C  39.56000 8.41500 32.04400
C  40.04700 7.04100 34.14200
C  40.13400 10.91800 34.33600
C  40.34200 11.01100 35.86400
H  40.77800 12.27200 36.49300
N  39.04400 7.78000 29.12200
C  38.27000 7.36800 30.17900
C  37.15300 6.57000 29.68200
C  37.21400 6.65100 28.24700
C  38.44800 7.40800 27.94900
C  36.15600 5.92800 30.64900
C  36.22400 6.08000 27.11000
O  36.42800 6.11000 25.92900
C  34.95300 5.42300 27.53200
N  41.32400 8.63800 27.19600
C  40.33600 8.25100 26.30800
C  40.74900 8.50000 24.84800
C  42.11900 9.16700 25.02100
C  42.31200 9.23700 26.51700
C  40.62700 7.18100 24.02300
C  42.26600 10.47200 24.24200
C  41.70300 11.71400 24.87500
N  42.46100 10.11900 29.36800
C  43.52200 10.30600 28.41400
C  44.52900 11.10300 29.12500
C  44.15500 11.08800 30.47600
C  42.89300 10.51300 30.51800
C  45.76300 11.67900 28.50200
C  44.60700 11.57800 31.69800
O  45.54100 12.23700 32.07200
C  43.48900 11.02500 32.65000
C  44.10200 10.03600 33.59600
O  44.66300 8.95900 33.33500
O  43.96900 10.57300 34.90700
C  44.57200 9.80500 35.92200
H  37.75400 7.29400 32.19800
H  38.39100 7.61200 25.80600
H  44.02100 10.28300 26.33800
H  41.58200 9.21600 34.36600
H  38.85600 8.71400 34.12400
H  40.80900 7.18700 34.90700
H  40.27900 6.28400 33.39300
H  39.22200 6.77900 34.80500
H  39.06300 10.96500 34.14400
H  40.56500 11.78700 33.83800
H  41.09200 10.30700 36.22600
H  39.41700 10.63900 36.30400
H  36.49500 5.70600 31.66100
H  36.04200 4.91100 30.27500
H  35.18700 6.42600 30.69100
H  35.09200 4.67100 28.30800
H  34.39900 5.04200 26.67300
H  34.40400 6.26000 27.96300
H  40.07100 9.17500 24.32600
H  42.80500 8.42600 24.61100
H  41.60100 6.76600 23.76500
H  40.12600 7.37700 23.07500
H  40.08500 6.44900 24.62000
H  41.73800 10.44900 23.28900
H  43.33500 10.60300 24.07800
H  41.37200 11.55900 25.90200
H  40.95000 12.10600 24.19100
H  42.49000 12.46000 24.98900
H  45.41200 12.29100 27.67100
H  46.43400 10.89100 28.15900
H  46.30300 12.21400 29.28300
H  43.06700 11.87300 33.18900
H  45.56600 9.40300 35.72400
H  43.92500 8.99500 36.25900
H  44.67600 10.52500 36.73400
Mg 30.46600 57.80400 39.41300
C  27.63600 55.81900 38.73500
C  32.30100 55.08700 38.11900
C  33.04300 59.78200 39.58200
C  28.28300 60.45400 40.39400
N  29.99000 55.71900 38.59900
C  28.79500 55.14500 38.45000
C  28.75400 53.70500 37.90400
C  30.29600 53.45400 38.09100
C  30.91500 54.82100 38.24500
C  30.61700 52.47500 39.23400
C  28.29000 53.60300 36.49100
C  28.58300 54.77300 35.60400
H  27.64400 55.03100 34.36300
N  32.38900 57.42300 39.06400
C  32.95900 56.34600 38.41700
C  34.40100 56.62400 38.22700
C  34.59500 57.90600 38.59500
C  33.34400 58.38600 39.18100
C  35.35900 55.60500 37.70500
C  35.92200 58.70600 38.48100
O  36.87300 58.17900 37.96900
C  36.15100 60.09400 38.84300
N  30.60200 59.85200 39.84900
C  31.80500 60.40500 39.97200
C  31.76200 61.84000 40.32700
C  30.24700 61.99200 40.83700
C  29.69600 60.67000 40.38900
C  32.75700 62.40300 41.36000
C  29.45300 63.17700 40.20100
C  28.68100 63.99900 41.23800
N  28.37800 58.15400 39.57700
C  27.66800 59.25300 39.94700
C  26.27600 59.00400 39.78100
C  26.17600 57.70300 39.32700
C  27.45600 57.20700 39.23100
C  25.18500 59.96200 40.01500
C  25.30300 56.67000 38.77400
O  24.05000 56.67800 38.66100
C  26.16800 55.42100 38.48800
C  25.85900 54.31800 39.47500
O  26.48200 54.10500 40.48800
O  24.69100 53.66100 39.05600
C  24.05800 52.43800 39.71000
H  33.01200 54.30700 37.83800
H  33.82600 60.54200 39.53600
H  27.66700 61.26600 40.78600
H  28.03400 53.18600 38.53700
H  30.69100 52.96900 37.19800
H  31.65300 52.13800 39.18800
H  30.10600 51.52300 39.09300
H  30.27200 52.83600 40.20300
H  27.25400 53.29900 36.34100
H  28.87500 52.83500 35.98500
H  29.56300 54.47500 35.23000
H  28.69500 55.74600 36.08200
H  35.74400 55.89700 36.72900
H  34.96900 54.63000 37.41200
H  36.13400 55.40500 38.44500
H  35.76000 60.18400 39.85700
H  35.67500 60.74700 38.11100
H  37.20900 60.32500 38.96600
H  32.02400 62.32300 39.38600
H  30.27200 61.96800 41.92700
H  32.79800 61.60700 42.10300
H  32.27800 63.24300 41.86400
H  33.70300 62.83100 41.02900
H  28.82900 62.68500 39.45500
H  30.26100 63.78300 39.78900
H  29.15900 64.94600 41.48900
H  28.37200 63.45600 42.13200
H  27.79200 64.31000 40.69000
H  25.48500 60.54700 40.88500
H  24.31100 59.37400 40.29700
H  24.90200 60.61600 39.19000
H  25.92300 55.01400 37.50700
H  24.94800 51.89200 40.02300
H  23.33700 51.89400 39.10000
H  23.32300 52.64900 40.48600

