158

Mg -12.37400 38.19000 42.01100
C  -10.09000 35.73200 40.98700
C  -10.32800 40.53900 40.53100
C  -14.78400 40.47500 42.35100
C  -14.41300 35.66200 43.07200
N  -10.56900 38.08800 40.71400
C  -9.69700 37.01100 40.62400
C  -8.34300 37.43800 39.93100
C  -8.31800 38.92800 40.08700
C  -9.81700 39.22200 40.47700
C  -7.38300 39.59400 41.08200
C  -8.26700 36.96100 38.38200
C  -6.88900 36.33600 37.97400
H  -5.99600 36.99100 36.93600
N  -12.56800 40.21100 41.52900
C  -11.62000 41.03500 40.94800
C  -12.09300 42.37400 40.80800
C  -13.39900 42.36800 41.36400
C  -13.65100 40.95800 41.72300
C  -11.25700 43.48500 40.12600
C  -14.24300 43.52800 41.58400
O  -13.77800 44.61100 41.24700
C  -15.57100 43.58700 42.34600
N  -14.33300 38.12900 42.57500
C  -15.06800 39.21600 42.80500
C  -16.47900 38.85200 43.37900
C  -16.27500 37.36400 43.68000
C  -14.97800 36.92800 43.02300
C  -16.97900 39.67700 44.61100
C  -17.46800 36.55300 43.17200
C  -17.75400 35.21600 43.97400
N  -12.32100 36.04000 42.17800
C  -13.23900 35.15300 42.60500
C  -12.79300 33.77700 42.45500
C  -11.56600 33.94700 41.81500
C  -11.33400 35.35800 41.63500
C  -13.45400 32.54700 42.90500
C  -10.37700 33.34300 41.29700
O  -10.11700 32.12100 41.21600
C  -9.34600 34.49300 40.84200
C  -8.31400 34.33900 41.89900
O  -8.45500 34.48200 43.10900
O  -7.00900 34.11200 41.38200
C  -5.90700 34.12500 42.32800
H  -9.64400 41.31000 40.17200
H  -15.59900 41.15500 42.60700
H  -15.05000 34.94500 43.59400
H  -7.54200 37.05800 40.56400
H  -8.25900 39.38700 39.10000
H  -6.56000 38.89900 41.24400
H  -7.81000 39.84700 42.05300
H  -7.02700 40.49800 40.58700
H  -8.48900 37.78800 37.70700
H  -8.95800 36.12900 38.24300
H  -7.10900 35.39400 37.47000
H  -6.24100 36.11000 38.82000
H  -11.58200 43.44100 39.08600
H  -10.16900 43.50100 40.19300
H  -11.36400 44.41800 40.68000
H  -16.42000 43.07500 41.89400
H  -15.85600 44.63700 42.41600
H  -15.42300 43.07300 43.29600
H  -17.11400 39.00200 42.50500
H  -16.15600 37.16300 44.74500
H  -17.76800 40.33900 44.25600
H  -16.21200 40.31000 45.05600
H  -17.43300 39.02200 45.35500
H  -17.27000 36.16000 42.17400
H  -18.36400 37.13200 42.94800
H  -18.80200 35.42500 44.18600
H  -17.16300 35.04000 44.87200
H  -17.64300 34.36300 43.30400
H  -13.10300 31.66500 42.36800
H  -14.54000 32.56800 42.82100
H  -13.40800 32.54000 43.99400
H  -9.04200 34.28300 39.81700
H  -5.68200 35.15200 42.61600
H  -5.23300 33.61300 41.64200
H  -5.98400 33.45900 43.18700
Mg -5.59000 25.73500 26.08000
C  -3.86300 27.13700 28.89300
C  -7.02200 23.54700 28.23000
C  -6.69400 24.22500 23.45500
C  -3.86500 28.05700 24.00100
N  -5.46600 25.38900 28.28900
C  -4.72200 26.04400 29.19900
C  -4.97100 25.51600 30.64500
C  -5.99600 24.35800 30.40900
C  -6.15300 24.45200 28.88900
C  -5.56200 23.02500 30.95800
C  -5.53400 26.60300 31.60500
C  -6.73300 26.28800 32.55300
H  -6.51400 25.05000 33.51700
N  -6.78000 24.15700 25.87800
C  -7.33200 23.36100 26.86900
C  -8.22200 22.36300 26.27900
C  -8.17300 22.59600 24.84600
C  -7.19900 23.70600 24.68900
C  -9.09300 21.43500 27.14600
C  -8.91200 21.89600 23.81700
O  -8.72900 22.04500 22.60700
C  -10.06600 21.02100 24.17400
N  -5.44900 26.14900 24.08400
C  -5.96800 25.32800 23.18300
C  -5.42400 25.67100 21.78100
C  -4.85000 27.07000 21.92200
C  -4.71800 27.09500 23.43000
C  -4.49600 24.52800 21.21900
C  -5.92300 28.16400 21.44400
C  -5.54700 28.95500 20.17400
N  -4.06600 27.20200 26.36200
C  -3.51800 28.09200 25.43000
C  -2.76800 29.09800 26.14800
C  -2.87800 28.79600 27.49000
C  -3.59000 27.59000 27.59200
C  -2.21800 30.32200 25.41900
C  -2.51400 29.17100 28.83200
O  -1.95500 30.12800 29.17700
C  -3.09300 28.07000 29.83500
C  -1.90800 27.55600 30.57000
O  -0.93100 26.96200 30.05900
O  -2.11800 27.74400 31.95900
C  -0.96000 27.37600 32.77400
H  -7.50700 22.87300 28.94000
H  -7.03200 23.67500 22.57500
H  -3.44000 28.78600 23.30800
H  -4.00300 25.12200 30.95500
H  -6.97400 24.55600 30.84900
H  -4.76200 22.62900 30.33200
H  -6.37500 22.35100 31.22500
H  -5.01500 23.08100 31.89900
H  -5.77300 27.51800 31.06300
H  -4.62100 26.75000 32.18100
H  -7.58300 26.15400 31.88400
H  -6.84500 27.19200 33.15100
H  -8.90000 20.37800 26.96600
H  -10.10400 21.76100 26.89900
H  -9.07300 21.59100 28.22500
H  -10.37000 20.40200 23.33000
H  -10.95100 21.58100 24.47600
H  -9.76800 20.23400 24.86700
H  -6.24500 25.62300 21.06700
H  -3.88800 27.06500 21.40900
H  -3.53800 24.93500 20.89700
H  -4.87500 23.94000 20.38300
H  -4.30800 23.80100 22.00900
H  -6.15500 28.92400 22.19100
H  -6.89900 27.77400 21.15500
H  -4.53700 28.67600 19.87400
H  -5.42600 30.00700 20.43300
H  -6.33600 28.88000 19.42500
H  -1.35600 30.06100 24.80500
H  -2.02100 31.13700 26.11500
H  -2.95200 30.64100 24.67900
H  -3.83500 28.64200 30.39100
H  -1.18800 27.52300 33.82900
H  -0.15600 28.05400 32.48700
H  -0.67200 26.35400 32.52500

