158

Mg 26.33000 50.01200 26.77200
C  24.04100 51.12900 29.21400
C  28.45200 49.23800 29.21800
C  28.31800 48.74600 24.34000
C  24.21500 51.31300 24.27200
N  26.13700 50.02300 28.95700
C  25.11900 50.38300 29.75100
C  25.42300 50.13900 31.21300
C  27.00300 49.89800 31.23200
C  27.25900 49.67700 29.67300
C  27.96800 51.04200 31.85500
C  24.57800 49.01900 31.87700
C  24.12200 49.16200 33.35700
H  24.99500 49.94200 34.42400
N  28.16700 49.09600 26.77000
C  28.92800 48.89600 27.90200
C  30.13000 48.07900 27.56500
C  30.06400 47.90100 26.16000
C  28.85200 48.65400 25.61100
C  31.17800 47.66300 28.63200
C  30.92200 47.02300 25.25400
O  30.80000 46.98800 24.05500
C  31.93500 46.10400 25.89500
N  26.40900 50.19700 24.63800
C  27.23200 49.44700 23.87000
C  26.83000 49.38900 22.34900
C  25.41900 50.03400 22.35200
C  25.36000 50.63400 23.83000
C  27.95300 50.01200 21.40400
C  24.24100 49.14600 21.94800
C  23.25700 49.75400 20.91700
N  24.64900 51.11500 26.70100
C  23.82300 51.55500 25.63800
C  22.65900 52.17300 26.19500
C  22.73900 52.01900 27.57800
C  23.90000 51.30800 27.81900
C  21.58000 52.72600 25.41700
C  21.92700 52.36200 28.81100
O  20.83000 52.87400 28.91500
C  22.82800 51.68900 29.92700
C  23.23600 52.66200 30.89900
O  23.97600 53.64600 30.76500
O  22.60500 52.42100 32.16500
C  23.07400 53.21400 33.26400
H  29.01100 48.88800 30.08800
H  28.73100 48.04200 23.61500
H  23.48400 51.60100 23.51400
H  25.17400 51.04100 31.77300
H  27.25900 48.90600 31.60200
H  28.68300 51.33800 31.08800
H  28.51800 50.52400 32.64100
H  27.46100 51.90900 32.27900
H  25.14400 48.09400 31.76400
H  23.65000 48.84100 31.33300
H  24.04600 48.23200 33.92100
H  23.21600 49.76400 33.42500
H  31.07100 48.30100 29.50900
H  32.14600 47.62300 28.13300
H  30.93300 46.64200 28.92600
H  32.86500 46.64100 26.08600
H  32.22100 45.30800 25.20700
H  31.40000 45.77300 26.78500
H  26.79900 48.31900 22.14300
H  25.51500 50.88300 21.67500
H  28.91900 50.02500 21.90900
H  27.64500 51.03500 21.18700
H  28.02000 49.45900 20.46700
H  23.71200 48.82000 22.84400
H  24.71300 48.26100 21.52100
H  22.21600 49.66700 21.22800
H  23.28100 49.32200 19.91600
H  23.43300 50.82500 20.81400
H  20.70300 52.84700 26.05300
H  21.27800 52.16700 24.53200
H  21.85100 53.75900 25.19700
H  22.28200 50.86200 30.38100
H  24.15900 53.32000 33.26300
H  22.68600 52.90800 34.23600
H  22.80500 54.25500 33.08200
Mg 9.11000 48.41300 25.96500
C  7.00800 48.86600 28.65700
C  11.81300 49.70600 27.76700
C  11.04400 48.01100 23.22300
C  6.23700 47.72000 24.03400
N  9.35600 49.26700 27.87600
C  8.36400 49.14800 28.88900
C  9.06400 49.48700 30.26600
C  10.37900 50.15700 29.82600
C  10.54500 49.70000 28.40900
C  10.43300 51.66600 30.09700
C  9.43300 48.22300 31.12000
C  9.55200 48.37200 32.67900
H  8.95600 47.35600 33.66900
N  11.14900 48.73500 25.60200
C  12.08300 49.22600 26.43800
C  13.36600 49.06600 25.79800
C  13.16700 48.56900 24.52700
C  11.76500 48.45000 24.36400
C  14.64400 49.51300 26.51300
C  14.16000 48.33300 23.43800
O  13.85600 48.14200 22.26600
C  15.72100 48.39200 23.77700
N  8.71100 48.03400 23.92600
C  9.63800 47.83200 22.97000
C  9.03900 47.45500 21.65500
C  7.54500 47.39700 21.98200
C  7.48800 47.69500 23.39600
C  9.42400 48.34500 20.41600
C  7.00200 45.98900 21.57400
C  5.81600 46.16700 20.61400
N  6.98100 48.42500 26.20900
C  5.96400 48.08400 25.36600
C  4.73500 48.10400 26.07200
C  5.13900 48.44500 27.38700
C  6.48600 48.63500 27.40500
C  3.40600 47.72800 25.60400
C  4.57700 48.60800 28.68700
O  3.43200 48.54800 29.11200
C  5.83400 48.93900 29.56300
C  5.81400 47.89200 30.61900
O  6.23200 46.80900 30.43100
O  5.29800 48.34800 31.82400
C  5.08100 47.27800 32.78300
H  12.64900 50.05700 28.37500
H  11.51300 47.93000 22.24000
H  5.37000 47.35900 23.47700
H  8.53500 50.20700 30.89000
H  11.22400 49.77000 30.39500
H  10.61300 52.07700 29.10400
H  11.28400 51.86400 30.74900
H  9.50400 52.01000 30.55300
H  10.38900 47.77100 30.85300
H  8.73900 47.43900 30.81600
H  9.08700 49.34100 32.86400
H  10.59700 48.52800 32.94700
H  14.42900 49.69800 27.56500
H  15.08400 50.41300 26.08300
H  15.43700 48.76600 26.47800
H  16.17100 47.51200 24.23500
H  15.89100 49.37400 24.22000
H  16.17900 48.44000 22.78900
H  9.62000 46.55200 21.46500
H  7.07100 48.18600 21.39800
H  9.86700 49.25200 20.82500
H  8.57800 48.58000 19.77000
H  10.09000 47.72000 19.82100
H  6.69500 45.56000 22.52800
H  7.76600 45.29600 21.22100
H  5.15300 45.30200 20.62600
H  5.98600 46.45200 19.57600
H  5.18900 46.98100 20.98000
H  3.54600 46.91300 24.89400
H  2.92900 48.52600 25.03500
H  2.63600 47.50900 26.34400
H  5.59900 49.82200 30.15700
H  5.62200 47.54100 33.69300
H  5.30400 46.24600 32.51400
H  4.00300 47.41100 32.87200

