158

Mg 48.47100 34.97500 27.70500
C  46.42500 33.61700 30.10300
C  48.47900 37.94000 29.51000
C  50.27300 36.44600 25.23000
C  47.72000 32.21400 25.58500
N  47.69800 35.64300 29.69500
C  46.87200 34.88900 30.48900
C  46.68600 35.58200 31.82100
C  46.89800 37.07500 31.41000
C  47.73100 36.90100 30.09900
C  45.52900 37.84400 31.10800
C  47.54300 35.09900 33.03100
C  48.69000 35.97200 33.57200
H  48.33200 36.88800 34.71700
N  49.45900 36.86500 27.53600
C  49.32700 37.89100 28.37000
C  50.19100 39.04600 27.83000
C  50.81700 38.51200 26.65200
C  50.20600 37.20300 26.43800
C  50.17500 40.47700 28.25600
C  51.80100 39.18500 25.71000
O  52.27800 38.71900 24.65200
C  52.45800 40.44100 26.22300
N  48.92900 34.44300 25.68800
C  49.71500 35.21900 24.85600
C  49.96300 34.50900 23.45600
C  49.15200 33.15200 23.61400
C  48.54400 33.21200 25.06700
C  49.50800 35.45500 22.24300
C  49.89600 31.87000 23.36500
C  50.35200 31.55400 21.89200
N  47.41300 33.18000 27.75500
C  47.16500 32.16100 26.89100
C  46.28800 31.13300 27.46500
C  45.99800 31.66000 28.74300
C  46.68200 32.87500 28.86700
C  45.92700 29.84900 26.76500
C  45.33200 31.40700 29.98900
O  44.67300 30.42600 30.21500
C  45.51400 32.71200 30.89700
C  45.90900 32.27800 32.28500
O  46.91300 31.72300 32.64600
O  44.97600 32.75300 33.15200
C  45.12000 32.60500 34.58100
H  48.41400 38.93600 29.95300
H  50.85700 36.85900 24.40500
H  47.48400 31.42200 24.87000
H  45.64300 35.43900 32.10400
H  47.36800 37.74400 32.13100
H  44.57200 37.32200 31.07100
H  45.71100 38.24900 30.11300
H  45.43400 38.56100 31.92300
H  47.94600 34.09300 32.91500
H  46.92500 35.07400 33.92900
H  49.16000 36.52800 32.76000
H  49.44300 35.25900 33.90800
H  49.93900 41.14500 27.42800
H  51.06600 40.66000 28.85800
H  49.22500 40.57200 28.78000
H  52.84900 40.13300 27.19200
H  51.80600 41.31400 26.26600
H  53.29400 40.61300 25.54500
H  51.04800 34.43500 23.53200
H  48.26500 33.31500 23.00200
H  50.46200 35.84000 21.88400
H  48.94700 36.34300 22.53300
H  48.97100 34.92300 21.45800
H  49.32200 31.01800 23.72900
H  50.73700 32.09300 24.02200
H  49.96200 30.59200 21.55900
H  51.42800 31.52400 21.71900
H  50.04800 32.34500 21.20700
H  46.85900 29.38200 26.44500
H  45.36700 30.05000 25.85200
H  45.29000 29.18300 27.34600
H  44.53300 33.18600 30.86300
H  44.50000 31.81100 34.99800
H  44.77000 33.48700 35.11700
H  46.13700 32.38800 34.90800
Mg 1.56800 41.98500 25.33500
C  3.70400 42.17900 28.19400
C  -0.98200 41.01000 27.34600
C  -0.24400 41.27500 22.56200
C  4.42900 42.21500 23.37800
N  1.42300 41.61600 27.46800
C  2.27900 41.97300 28.41500
C  1.59000 41.87700 29.83000
C  0.12900 41.46900 29.52400
C  0.17100 41.32800 28.03800
C  -0.37200 40.17700 30.19600
C  1.74500 43.25700 30.52900
C  1.75500 43.23500 32.01600
H  1.64800 41.98100 32.91900
N  -0.42800 41.34100 25.04200
C  -1.30300 40.86000 25.95600
C  -2.58400 40.41500 25.34700
C  -2.41700 40.63000 23.90200
C  -0.95800 41.05700 23.75300
C  -3.68600 39.78900 26.16800
C  -3.26600 40.39400 22.70500
O  -2.92800 40.50300 21.55000
C  -4.65700 39.99100 22.90300
N  1.93500 41.87200 23.27200
C  1.07500 41.61500 22.30400
C  1.73200 41.51300 20.94600
C  3.12600 42.19200 21.19300
C  3.20900 42.12500 22.74900
C  1.77700 40.12700 20.30300
C  3.29300 43.62400 20.47500
C  2.96400 44.84600 21.38500
N  3.63900 42.35700 25.67200
C  4.65400 42.39900 24.74400
C  5.91700 42.66200 25.45000
C  5.57300 42.54300 26.87000
C  4.21800 42.33000 26.91200
C  7.20400 42.92100 24.83600
C  6.15100 42.45900 28.15900
O  7.32800 42.45200 28.43900
C  4.93300 42.30500 29.09700
C  5.17500 41.14900 29.99100
O  4.86500 39.97500 29.77600
O  5.64200 41.56400 31.20800
C  5.74500 40.61000 32.25400
H  -1.81800 40.69100 27.97100
H  -0.79000 41.08400 21.63500
H  5.27000 42.31600 22.68900
H  2.04300 41.01900 30.32700
H  -0.56600 42.25600 29.81500
H  -1.31200 40.49200 30.65100
H  0.26900 39.61500 30.87600
H  -0.63100 39.51000 29.37400
H  0.86900 43.69400 30.04900
H  2.49500 43.92000 30.09700
H  0.97100 43.92200 32.33300
H  2.69100 43.75200 32.22800
H  -4.66200 40.05700 25.76400
H  -3.59800 40.10800 27.20700
H  -3.56200 38.70600 26.14600
H  -4.57400 39.17700 23.62300
H  -5.10700 39.71500 21.95000
H  -5.24600 40.78000 23.37100
H  1.10900 42.03700 20.22200
H  3.82500 41.44300 20.82100
H  1.49100 39.47500 21.12800
H  2.73500 39.96400 19.80900
H  1.02500 40.09700 19.51400
H  2.80900 43.63300 19.49800
H  4.36700 43.59000 20.29700
H  2.52200 44.59400 22.34900
H  2.34200 45.55500 20.83800
H  3.81800 45.51000 21.52300
H  7.58800 43.93900 24.90300
H  7.12900 42.53900 23.81800
H  7.83400 42.13400 25.25100
H  4.90900 43.14900 29.78600
H  4.77600 40.13900 32.42000
H  5.93200 41.05300 33.23200
H  6.43200 39.79100 32.03800

