158

Mg 40.78100 41.08500 26.75500
C  40.47300 43.59100 29.29400
C  41.55900 38.87500 29.27100
C  41.23100 38.89000 24.37700
C  40.14100 43.63300 24.42800
N  41.14400 41.28500 29.00400
C  40.76700 42.36900 29.82100
C  40.98700 41.96500 31.33500
C  41.62300 40.52200 31.22700
C  41.31700 40.17400 29.69600
C  43.04400 40.30400 31.57100
C  39.62500 41.93000 32.02100
C  39.60200 42.73500 33.36800
H  39.01000 41.93600 34.54100
N  41.38800 39.14900 26.74700
C  41.62000 38.46200 27.91300
C  42.03200 37.16600 27.45800
C  41.78600 37.00000 26.03800
C  41.50700 38.40900 25.66300
C  42.55700 36.13100 28.48000
C  41.77600 35.78400 25.16300
O  41.53000 35.88800 23.98100
C  42.34000 34.54600 25.69600
N  40.65800 41.23900 24.72700
C  40.86100 40.17100 23.92600
C  40.54900 40.46700 22.42200
C  39.98400 41.94400 22.47000
C  40.29500 42.29200 23.97200
C  41.82500 40.40700 21.52000
C  38.47400 42.06600 22.16500
C  37.61600 41.15700 23.02500
N  40.31200 43.19500 26.72300
C  40.20600 44.09200 25.70100
C  40.16000 45.37700 26.23200
C  40.17500 45.21700 27.65600
C  40.30000 43.88300 27.88900
C  39.84300 46.50600 25.26200
C  40.10700 45.97200 28.96800
O  40.01700 47.12000 29.15800
C  40.26300 44.93200 30.06100
C  41.46200 45.31700 30.89900
O  42.63400 45.34600 30.52300
O  41.06200 45.67600 32.18700
C  42.10100 46.05900 33.20000
H  41.79900 38.21100 30.10400
H  41.49400 38.20800 23.56500
H  39.88300 44.37200 23.66600
H  41.65600 42.67600 31.82000
H  41.04100 39.84700 31.85400
H  43.67100 40.06500 30.71200
H  43.02000 39.42300 32.21300
H  43.48700 41.13800 32.11500
H  39.29000 40.89300 32.00800
H  38.88200 42.37000 31.35500
H  38.92500 43.57700 33.22300
H  40.54700 43.13600 33.73500
H  41.73800 35.46200 28.74600
H  42.77500 36.60200 29.43800
H  43.50900 35.69500 28.17700
H  41.91400 34.45800 26.69600
H  43.42700 34.62200 25.73800
H  42.18700 33.63600 25.11700
H  39.82500 39.74500 22.04300
H  40.50800 42.66200 21.83900
H  42.62300 39.93700 22.09600
H  42.06400 41.44500 21.28900
H  41.59900 39.95600 20.55400
H  38.26100 41.72900 21.15100
H  38.18000 43.11300 22.24500
H  38.10700 40.51600 23.75600
H  37.07200 40.51600 22.33100
H  36.91800 41.78200 23.58200
H  39.92400 47.47600 25.75300
H  38.79700 46.57800 24.96500
H  40.40400 46.44900 24.32900
H  39.39400 44.87500 30.71700
H  42.40100 45.26100 33.87900
H  41.79600 46.91400 33.80400
H  43.01900 46.32000 32.67400
Mg -11.12000 17.14700 41.04600
C  -7.65800 16.69000 40.71800
C  -10.57300 20.46800 39.94900
C  -14.37600 17.63200 40.49700
C  -11.46800 13.68500 41.09400
N  -9.26800 18.38500 40.40000
C  -7.99900 17.99200 40.45800
C  -6.97400 19.14600 40.28700
C  -7.99700 20.40000 40.45500
C  -9.35900 19.76500 40.20100
C  -7.89800 21.23800 41.73200
C  -6.37000 19.22400 38.90400
C  -4.88600 18.89000 38.83200
H  -4.37300 18.06800 37.71300
N  -12.32200 18.86900 40.53600
C  -11.90200 20.03800 39.95200
C  -13.00800 20.84700 39.56400
C  -14.16700 20.14200 40.03600
C  -13.66600 18.80300 40.42300
C  -13.00700 22.28600 39.05000
C  -15.63300 20.60700 39.81200
O  -15.93600 21.66900 39.23400
C  -16.77200 19.81200 40.26400
N  -12.64600 15.78500 40.77000
C  -13.93100 16.29700 40.73300
C  -14.97700 15.18400 40.65700
C  -14.01200 13.85600 40.82600
C  -12.64200 14.43300 40.93400
C  -16.05400 15.31400 41.73800
C  -14.05500 12.74300 39.64200
C  -14.72200 11.41700 39.98800
N  -9.89500 15.39800 41.03200
C  -10.17800 14.08300 41.24300
C  -8.90200 13.38900 41.39800
C  -7.83900 14.31200 41.19500
C  -8.54800 15.60200 40.94300
C  -8.67400 11.97700 41.72100
C  -6.41500 14.54600 41.15400
O  -5.50300 13.74300 41.29100
C  -6.26900 16.09000 40.94800
C  -5.52600 16.54400 42.03500
O  -4.42900 17.13600 41.91000
O  -6.14000 16.39900 43.21000
C  -5.46200 16.88600 44.40900
H  -10.40900 21.52900 39.75200
H  -15.41400 17.67500 40.16000
H  -11.56400 12.60100 41.18500
H  -6.32200 19.09800 41.15800
H  -7.75800 21.08600 39.64300
H  -7.08700 20.87200 42.36200
H  -8.83800 21.11500 42.27100
H  -7.82000 22.29200 41.46800
H  -6.51500 20.17200 38.38700
H  -6.89800 18.48600 38.30000
H  -4.63200 18.49700 39.81600
H  -4.31700 19.81400 38.72800
H  -13.83800 22.26800 38.34600
H  -12.03700 22.37300 38.56000
H  -13.23100 22.97600 39.86300
H  -17.09500 19.11900 39.48700
H  -17.57500 20.52400 40.45300
H  -16.65000 19.29600 41.21600
H  -15.44700 15.12700 39.67500
H  -14.34400 13.28200 41.69100
H  -16.91000 15.31100 41.06200
H  -16.12100 16.23500 42.31700
H  -16.29100 14.55100 42.48000
H  -13.09300 12.47600 39.20500
H  -14.66600 13.19500 38.86000
H  -15.56600 11.37500 39.29900
H  -15.10400 11.34100 41.00600
H  -14.13400 10.54900 39.69300
H  -8.62000 11.79100 42.79400
H  -7.80600 11.53800 41.22900
H  -9.59400 11.46100 41.44500
H  -5.61500 16.34300 40.11300
H  -5.90600 17.84400 44.68000
H  -4.38200 17.03200 44.38300
H  -5.68300 16.16000 45.19100

