158

Mg 47.29400 16.23700 28.68800
C  45.03600 16.21400 31.27600
C  49.29900 18.30300 30.51400
C  49.13700 16.56500 25.91600
C  44.69600 14.83100 26.65000
N  47.16100 17.07600 30.66000
C  46.27100 16.73800 31.63200
C  46.69200 17.19900 33.02700
C  47.84500 18.23800 32.70400
C  48.09300 17.87300 31.17700
C  47.46200 19.77600 32.98400
C  47.06600 15.93800 33.89500
C  46.44700 15.97100 35.28200
H  46.35100 17.32100 36.10700
N  49.07800 17.20100 28.30400
C  49.75300 17.99000 29.17600
C  51.04700 18.36300 28.57400
C  51.03400 17.91700 27.20700
C  49.69600 17.21200 27.06400
C  52.07300 19.07000 29.44000
C  52.07300 18.09400 26.11300
O  51.90500 17.58800 25.01400
C  53.41800 18.85700 26.31200
N  46.99000 15.75900 26.59900
C  47.92700 15.89100 25.67200
C  47.57600 15.37100 24.27200
C  46.19700 14.65400 24.66100
C  45.88800 15.15500 26.09200
C  47.54800 16.60200 23.27600
C  46.48700 13.13100 24.62100
C  46.62700 12.42500 23.24200
N  45.28800 15.62100 28.78500
C  44.39100 14.98100 27.94800
C  43.16700 14.62500 28.72000
C  43.37100 15.17700 29.98700
C  44.65100 15.76700 29.98100
C  42.05000 13.83800 28.08100
C  42.74500 15.33700 31.28000
O  41.68100 14.92200 31.64100
C  43.84900 15.87400 32.18900
C  43.28300 16.86600 33.08000
O  42.78300 17.88100 32.69600
O  43.32300 16.37500 34.36000
C  42.40300 17.08500 35.23900
H  50.01500 18.82400 31.15400
H  49.75900 16.63900 25.02200
H  43.94200 14.29700 26.06900
H  45.82500 17.69100 33.46800
H  48.76700 18.06600 33.25900
H  46.42700 19.83700 33.32200
H  47.64500 20.21900 32.00400
H  48.23500 20.21600 33.61300
H  48.13400 15.83000 34.08000
H  46.74600 15.03200 33.37900
H  47.12800 15.33100 35.84300
H  45.44300 15.55200 35.21400
H  51.67400 19.98900 29.86800
H  52.97800 19.46100 28.97500
H  52.39800 18.47500 30.29300
H  54.04000 18.41200 27.08900
H  53.17600 19.79000 26.82000
H  53.97900 19.15300 25.42500
H  48.35700 14.64700 24.03800
H  45.44200 14.95200 23.93400
H  47.83500 17.54300 23.74400
H  46.53500 16.79600 22.92400
H  48.25700 16.41400 22.46900
H  45.56000 12.72700 25.02900
H  47.32900 12.93700 25.28500
H  47.68400 12.17600 23.14900
H  46.25400 13.03300 22.41800
H  46.09200 11.48700 23.09700
H  42.40100 12.84300 27.80800
H  41.72400 14.25500 27.12800
H  41.21700 13.83100 28.78300
H  44.23000 14.98500 32.69200
H  41.34900 16.97400 34.98400
H  42.68600 18.13700 35.22800
H  42.45500 16.67400 36.24800
Mg 47.89500 25.03300 27.73200
C  48.75100 27.42600 30.22200
C  46.93200 22.93000 30.01900
C  47.29300 22.91200 25.29400
C  49.03800 27.35700 25.44200
N  47.74100 25.26300 29.89300
C  48.15800 26.25400 30.74800
C  47.90900 25.85800 32.20200
C  47.53200 24.31800 32.04800
C  47.34500 24.17800 30.52500
C  48.64300 23.39700 32.57000
C  46.86500 26.72000 32.94100
C  46.47500 26.31500 34.35400
H  46.51400 27.38700 35.38100
N  47.17300 23.13400 27.66100
C  46.80100 22.43800 28.76600
C  46.45000 21.09300 28.33300
C  46.37900 21.10000 26.92000
C  47.02500 22.39100 26.53000
C  45.98100 20.01100 29.21200
C  45.93200 20.00900 25.98400
O  46.14000 20.08900 24.81900
C  45.13700 18.88100 26.41500
N  48.33300 25.01500 25.70800
C  47.83400 24.09700 24.88500
C  47.79600 24.49000 23.41200
C  48.22700 25.97300 23.43900
C  48.51000 26.14100 24.96700
C  48.73700 23.60700 22.64900
C  47.20300 27.01600 22.91900
C  47.32900 27.52800 21.46400
N  48.86300 26.92600 27.76900
C  49.37200 27.70500 26.74000
C  49.93900 28.88600 27.21200
C  49.74300 28.82500 28.62000
C  49.06900 27.66400 28.87300
C  50.68800 29.90800 26.40400
C  49.95800 29.54200 29.93800
O  50.47400 30.58300 30.24100
C  49.13600 28.65700 30.98400
C  49.93700 28.50500 32.21600
O  50.77300 27.61000 32.47700
O  49.59200 29.42100 33.20000
C  50.06300 29.07600 34.50300
H  46.60800 22.25000 30.80900
H  47.00300 22.17000 24.54700
H  49.30100 28.18200 24.77600
H  48.84300 25.99700 32.74600
H  46.58700 24.06500 32.53000
H  49.29400 23.82600 33.33200
H  49.14400 22.88400 31.75000
H  48.11800 22.64600 33.16000
H  45.99400 26.96300 32.33300
H  47.36200 27.68400 33.05100
H  47.09900 25.50500 34.73300
H  45.43800 25.98500 34.42500
H  46.58800 19.14300 28.95600
H  44.89200 19.97100 29.18900
H  46.20300 20.26600 30.24800
H  44.34900 19.13500 27.12400
H  45.67100 18.22900 27.10600
H  44.67100 18.24800 25.66000
H  46.79500 24.34400 23.00700
H  49.14800 26.10100 22.86900
H  49.57300 23.35100 23.30000
H  49.09400 24.09700 21.74300
H  48.26500 22.66500 22.36700
H  47.09800 27.90900 23.53500
H  46.25000 26.49000 22.96300
H  46.35800 27.84900 21.08800
H  47.76300 26.66700 20.95700
H  48.01900 28.36600 21.57000
H  51.14400 29.25800 25.65700
H  51.41400 30.46200 26.99900
H  50.05700 30.65400 25.92100
H  48.26100 29.21900 31.30900
H  51.15000 29.03800 34.58100
H  49.68400 28.12200 34.87000
H  49.81600 29.89100 35.18400

