158

Mg 25.45400 -8.07900 47.79300
C  28.28000 -5.88300 47.05700
C  23.83400 -6.48000 45.19800
C  23.28800 -10.55100 47.68600
C  27.68500 -10.01000 49.74100
N  26.08700 -6.43600 46.28700
C  27.25600 -5.72600 46.13100
C  27.15400 -4.83500 44.92300
C  25.64400 -4.97200 44.52700
C  25.11500 -6.09000 45.36300
C  24.85900 -3.63100 44.59400
C  28.05000 -5.12200 43.71100
C  28.70200 -3.86900 43.09300
H  28.19600 -3.38100 41.74300
N  23.66500 -8.31300 46.82000
C  23.12900 -7.48800 45.83900
C  21.77800 -7.93100 45.50300
C  21.59400 -9.08300 46.29400
C  22.84700 -9.38200 47.00600
C  20.90800 -7.28600 44.48600
C  20.18000 -9.85100 46.48900
O  19.24200 -9.54400 45.81500
C  19.95200 -10.89900 47.49400
N  25.63500 -10.11000 48.46500
C  24.49500 -10.91700 48.39700
C  24.66600 -12.07200 49.33400
C  26.11000 -11.96700 49.86500
C  26.47400 -10.61000 49.36700
C  23.59600 -12.22600 50.43200
C  27.11200 -13.15300 49.28900
C  27.67500 -13.97400 50.43200
N  27.47900 -7.93400 48.44000
C  28.23100 -8.77600 49.22600
C  29.52500 -8.38900 49.26700
C  29.51700 -7.15800 48.56200
C  28.25300 -6.94000 48.03900
C  30.65000 -9.11800 49.82300
C  30.46100 -6.12100 48.13100
O  31.61700 -5.87300 48.47700
C  29.66300 -5.25000 47.09000
C  29.59900 -3.78100 47.41300
O  29.85300 -3.30800 48.51200
O  29.37000 -3.13800 46.26700
C  29.65600 -1.65700 46.29300
H  23.25800 -5.97700 44.41800
H  22.54200 -11.33900 47.81100
H  28.21300 -10.65900 50.44200
H  27.36500 -3.82800 45.28300
H  25.54000 -5.39000 43.52600
H  23.84600 -3.77400 44.21800
H  25.27900 -2.88900 43.91400
H  24.82900 -3.24400 45.61300
H  27.44200 -5.56700 42.92300
H  28.79500 -5.90400 43.85600
H  29.73800 -4.17300 42.94800
H  28.61200 -3.02400 43.77500
H  21.14100 -7.48400 43.44000
H  21.06800 -6.21100 44.40700
H  19.87500 -7.51200 44.75100
H  20.32000 -10.61900 48.48200
H  20.56200 -11.71600 47.10900
H  18.93000 -11.26600 47.58800
H  24.56400 -12.90600 48.64000
H  26.12000 -11.95400 50.95500
H  23.36800 -13.29200 50.41700
H  22.67000 -11.68000 50.25200
H  24.04700 -11.85100 51.35100
H  27.95300 -12.68900 48.77400
H  26.70900 -13.73900 48.46300
H  28.71100 -13.75800 50.69600
H  27.75000 -15.04900 50.26600
H  27.12100 -13.83300 51.36000
H  30.77500 -9.96000 49.14300
H  30.36200 -9.69500 50.70200
H  31.64100 -8.66900 49.88700
H  30.20400 -5.32700 46.14700
H  29.99400 -1.22500 47.23500
H  28.76900 -1.13100 45.93800
H  30.42900 -1.48200 45.54400
Mg 26.00000 50.56600 26.27300
C  23.90300 51.62000 28.76100
C  28.06000 49.27400 28.52200
C  28.23500 50.05600 23.77800
C  24.04200 52.54200 24.04400
N  26.01700 50.65600 28.36500
C  25.01200 50.98500 29.18900
C  25.30400 50.50300 30.62000
C  26.82800 50.18000 30.58900
C  27.04300 50.06800 29.06200
C  27.90600 51.11900 31.23400
C  24.36200 49.31600 31.23300
C  23.99000 49.29800 32.72600
H  24.72300 50.25900 33.80400
N  27.85000 49.64600 26.17000
C  28.50100 49.08100 27.21300
C  29.71400 48.41200 26.76200
C  29.77400 48.64300 25.30300
C  28.60400 49.49600 25.00000
C  30.55600 47.55200 27.65300
C  30.88200 48.14600 24.33300
O  30.84400 48.32200 23.11000
C  31.95400 47.27100 24.77200
N  26.20000 51.33300 24.30700
C  27.13300 50.86700 23.44100
C  27.06300 51.56200 22.11700
C  25.68700 52.22400 22.15800
C  25.18000 52.00700 23.59100
C  28.27000 52.53300 21.94000
C  24.74800 51.69200 20.97400
C  23.80200 50.52000 21.35500
N  24.23300 51.76500 26.32300
C  23.49000 52.38000 25.33900
C  22.22700 52.85300 25.87300
C  22.28600 52.62900 27.23600
C  23.58600 51.93700 27.45200
C  21.10600 53.50800 25.12000
C  21.68800 52.73700 28.57700
O  20.65800 53.27200 28.85300
C  22.66300 51.97200 29.59100
C  23.00600 52.77800 30.79400
O  23.71900 53.77900 30.74800
O  22.52600 52.30000 31.97700
C  22.73900 53.02900 33.27600
H  28.78700 48.90900 29.25000
H  28.85800 49.68900 22.95900
H  23.39700 53.06900 23.33700
H  25.10900 51.37600 31.24200
H  26.88300 49.23600 31.13100
H  28.52800 51.59300 30.47400
H  28.52600 50.42800 31.80500
H  27.46600 51.90500 31.84700
H  24.67700 48.29900 30.99900
H  23.44400 49.38700 30.64900
H  24.16400 48.28100 33.07700
H  22.90900 49.38500 32.83300
H  30.16800 47.52000 28.67100
H  31.55300 47.94200 27.86000
H  30.73000 46.55200 27.25700
H  31.56900 46.25200 24.82500
H  32.36600 47.64100 25.71100
H  32.76300 47.46000 24.06700
H  27.05500 50.72000 21.42600
H  25.72800 53.29900 21.98600
H  28.91300 52.53200 22.81900
H  28.04100 53.54400 21.60100
H  28.92400 52.01600 21.23700
H  25.45700 51.19500 20.31200
H  24.32400 52.51300 20.39600
H  23.65300 50.54000 22.43500
H  24.08500 49.49600 21.11200
H  22.80000 50.62100 20.93800
H  20.67100 54.20500 25.83500
H  20.34400 52.80600 24.78100
H  21.50100 53.89500 24.18100
H  22.30100 51.04700 30.04000
H  21.91300 53.74000 33.28000
H  23.61400 53.67900 33.25400
H  22.82200 52.29800 34.08100

