158

Mg 24.67100 1.84700 29.45600
C  26.95900 1.61900 32.16100
C  22.10600 1.88400 31.69700
C  22.65000 2.00200 26.85800
C  27.38800 1.31400 27.32800
N  24.58900 1.74200 31.68100
C  25.63700 1.89300 32.56800
C  25.12200 2.11500 34.00600
C  23.57200 1.94300 33.89200
C  23.39500 1.89000 32.35300
C  22.81200 0.78200 34.73500
C  25.59500 3.36400 34.80100
C  24.97400 3.63800 36.20100
H  25.90300 3.40600 37.35700
N  22.69200 1.96000 29.34100
C  21.75600 1.90800 30.35100
C  20.41600 1.82300 29.77600
C  20.58100 1.80300 28.35000
C  22.03200 1.98000 28.12400
C  19.18600 1.80500 30.60600
C  19.48100 1.54300 27.30800
O  19.74900 1.57100 26.07600
C  18.00200 1.17700 27.78300
N  25.01300 1.80400 27.43900
C  23.99700 1.98000 26.49900
C  24.49100 1.87300 24.99900
C  26.10200 1.88900 25.24600
C  26.20100 1.59900 26.73500
C  23.98800 0.73000 24.22500
C  26.91000 3.16800 24.75900
C  26.68300 4.43500 25.53400
N  26.80300 1.53900 29.65700
C  27.71400 1.24700 28.67300
C  29.04500 1.04900 29.29500
C  28.78900 1.20600 30.73100
C  27.36600 1.43100 30.82800
C  30.37300 0.66900 28.62900
C  29.39900 1.20500 32.04200
O  30.57600 0.98500 32.30300
C  28.25300 1.57500 33.02000
C  28.19000 0.60200 34.11000
O  27.50400 -0.38600 34.20900
O  29.01600 0.95300 35.10800
C  29.19400 -0.02800 36.20400
H  21.31100 1.87300 32.44700
H  21.94900 1.98700 26.02100
H  28.18900 1.02300 26.64600
H  25.44600 1.22300 34.54300
H  23.04300 2.82500 34.25400
H  21.93900 0.96800 35.36100
H  23.57700 0.23600 35.28600
H  22.43800 0.14500 33.93400
H  25.33000 4.20000 34.15400
H  26.67900 3.24800 34.79200
H  24.09300 3.02000 36.37300
H  24.61100 4.66500 36.14700
H  18.83200 2.82900 30.48800
H  19.37100 1.79200 31.68000
H  18.51200 0.98800 30.34500
H  17.51700 1.92200 28.41300
H  18.14900 0.18200 28.20400
H  17.53700 0.83900 26.85600
H  24.21900 2.75400 24.41700
H  26.62300 1.11500 24.68400
H  23.00300 0.38900 24.54400
H  24.62100 -0.15700 24.27100
H  23.83500 0.92100 23.16300
H  26.47100 3.42700 23.79500
H  27.90900 2.88900 24.42600
H  26.37800 4.40700 26.58000
H  25.98900 5.08300 24.99700
H  27.67000 4.89600 25.54500
H  30.55100 1.33300 27.78400
H  30.44000 -0.33200 28.20400
H  31.12900 0.90600 29.37800
H  28.53200 2.54800 33.42600
H  28.49800 0.15300 37.02400
H  30.14600 0.09900 36.71900
H  29.15800 -1.03200 35.78000
Mg 36.74900 49.28100 25.95400
C  36.76600 47.43500 28.79700
C  35.32400 51.91700 27.74100
C  36.41700 51.00400 22.98900
C  38.23600 46.75100 24.20400
N  36.03200 49.52300 28.04100
C  36.23400 48.72400 29.08200
C  35.90300 49.30900 30.49000
C  35.30500 50.67700 30.03600
C  35.58600 50.73400 28.56000
C  33.74800 50.76400 30.42900
C  37.21500 49.45300 31.30000
C  37.31300 48.99300 32.77500
H  36.08700 48.86300 33.65500
N  35.95400 51.22200 25.44200
C  35.46000 52.15800 26.31800
C  35.10500 53.36500 25.61200
C  35.39700 53.08500 24.22000
C  35.94600 51.74000 24.17900
C  34.52600 54.57600 26.31400
C  35.21600 54.01600 23.02800
O  35.51400 53.59200 21.88700
C  34.69600 55.33500 23.19700
N  37.21600 48.93500 23.94100
C  37.00100 49.77500 22.86800
C  37.61400 49.27200 21.52400
C  38.44600 47.99700 21.96200
C  38.01100 47.95300 23.47600
C  36.48200 48.97300 20.48200
C  39.98000 48.09200 21.80500
C  40.67700 47.26800 20.66700
N  37.35700 47.47000 26.31700
C  37.92900 46.49600 25.56700
C  38.17800 45.30200 26.30300
C  37.68000 45.65300 27.56300
C  37.21700 46.96100 27.53100
C  38.80500 44.02900 25.71000
C  37.54300 45.08300 28.89400
O  37.70700 43.97900 29.39400
C  36.94100 46.24400 29.77700
C  35.63800 45.68900 30.30500
O  34.59500 45.57600 29.66400
O  35.85400 45.33700 31.58000
C  34.66700 45.19500 32.30900
H  34.90900 52.75100 28.31100
H  36.39600 51.39600 21.97000
H  38.71900 45.96300 23.62300
H  35.22100 48.70200 31.08600
H  35.83200 51.49000 30.53500
H  33.39400 50.01100 31.13300
H  33.17300 50.75000 29.50400
H  33.68600 51.71600 30.95700
H  37.65700 50.44900 31.30700
H  37.92700 48.83500 30.75200
H  37.96800 49.71400 33.26500
H  37.88000 48.06300 32.79200
H  33.82600 55.17600 25.73200
H  35.28500 55.26300 26.68700
H  33.82500 54.19900 27.05900
H  34.89800 55.89300 22.28200
H  35.13500 55.90600 24.01500
H  33.63200 55.15600 23.34800
H  38.33700 50.04400 21.26100
H  38.06200 47.07000 21.53600
H  36.50600 49.76400 19.73200
H  35.50100 49.01500 20.95500
H  36.64200 48.03300 19.95300
H  40.49300 47.73900 22.69900
H  40.21600 49.14300 21.64100
H  39.86200 46.82800 20.09200
H  41.28600 46.45800 21.06900
H  41.37800 47.80900 20.03100
H  39.28800 44.17900 24.74500
H  38.06900 43.28800 25.39700
H  39.61100 43.69700 26.36500
H  37.57500 46.39500 30.65100
H  33.79400 45.80400 32.07300
H  34.87500 45.46700 33.34400
H  34.47200 44.12900 32.20000

