158

Mg -2.15800 17.10500 26.37300
C  -2.70900 14.67900 29.00700
C  -2.61200 19.69100 28.61500
C  -2.13600 19.22500 23.90900
C  -1.87800 14.44900 24.25100
N  -2.77600 17.14600 28.49900
C  -2.77000 16.04700 29.37000
C  -2.76500 16.54000 30.82500
C  -2.92400 18.16200 30.71200
C  -2.72400 18.38000 29.16400
C  -4.17900 18.75800 31.25900
C  -1.53500 16.04300 31.65400
C  -0.87900 16.96300 32.77400
H  -0.64500 16.32500 34.17100
N  -2.28600 19.11700 26.29400
C  -2.45700 20.04700 27.31800
C  -2.47000 21.38800 26.78600
C  -2.39900 21.25800 25.38100
C  -2.31900 19.86200 25.10800
C  -2.61500 22.54200 27.80500
C  -2.33400 22.36000 24.34500
O  -2.49800 22.20600 23.18100
C  -2.22900 23.84000 24.89400
N  -2.01900 16.95200 24.40900
C  -1.94000 17.92200 23.53800
C  -1.81100 17.46500 22.06100
C  -1.74500 15.95800 22.19200
C  -1.85500 15.73600 23.71600
C  -2.97500 17.97700 21.17600
C  -0.47200 15.41900 21.56000
C  0.85000 15.54800 22.32500
N  -2.23000 14.99400 26.52900
C  -2.10100 14.05800 25.54500
C  -2.15200 12.75300 26.06900
C  -2.45600 12.93400 27.48200
C  -2.52500 14.33900 27.68100
C  -2.00600 11.41800 25.26200
C  -2.67100 12.28400 28.78300
O  -2.68900 11.05400 29.05500
C  -2.77800 13.41300 29.81700
C  -1.69900 13.02300 30.73700
O  -0.50900 13.30900 30.63200
O  -2.30500 12.31800 31.75000
C  -1.34500 12.09500 32.83800
H  -2.63300 20.43400 29.41500
H  -2.02800 19.96600 23.11500
H  -1.60200 13.57800 23.65300
H  -3.65100 16.07500 31.25500
H  -2.15600 18.71600 31.25100
H  -4.83400 18.89400 30.39800
H  -3.92800 19.68600 31.77100
H  -4.70800 18.05600 31.90400
H  -0.73500 15.77800 30.96300
H  -1.88100 15.19500 32.24600
H  -1.56800 17.79500 32.91800
H  0.01200 17.41000 32.33500
H  -1.80900 23.26000 27.65200
H  -2.85500 22.27500 28.83400
H  -3.47500 23.01500 27.33100
H  -3.07500 23.98300 25.56700
H  -2.28400 24.48300 24.01600
H  -1.24800 23.98500 25.34700
H  -0.81000 17.75200 21.73800
H  -2.59300 15.48700 21.69500
H  -3.47200 17.20000 20.59500
H  -2.70500 18.77000 20.47900
H  -3.72500 18.29500 21.89900
H  -0.26100 15.84500 20.58000
H  -0.61700 14.34300 21.46900
H  0.74600 16.08400 23.26900
H  1.59900 15.89300 21.61300
H  1.25900 14.58400 22.62700
H  -1.43100 11.64500 24.36400
H  -3.01200 11.01700 25.14300
H  -1.36100 10.78800 25.87400
H  -3.77800 13.30700 30.23700
H  -0.48600 11.48000 32.57000
H  -1.93400 11.73000 33.68000
H  -1.03000 13.00600 33.34700
Mg 42.38200 41.94800 25.23300
C  41.84100 44.40100 27.70200
C  43.95400 39.94300 27.58600
C  42.74400 39.66800 22.84800
C  41.21500 44.30700 22.89300
N  42.75100 42.13900 27.31800
C  42.33400 43.14700 28.16800
C  42.61000 42.84300 29.61700
C  43.27500 41.48800 29.53100
C  43.44500 41.20200 28.03700
C  44.54400 41.37800 30.42500
C  41.34300 42.75200 30.54600
C  41.40800 42.16300 31.96500
H  42.00200 43.06000 33.01900
N  43.30900 40.03800 25.22100
C  43.94300 39.40400 26.28800
C  44.31200 38.10100 25.92000
C  43.85700 37.98000 24.55000
C  43.26300 39.26000 24.12400
C  44.87700 37.02700 26.89600
C  43.89200 36.73300 23.70800
O  43.61600 36.75400 22.53900
C  44.31600 35.41200 24.31300
N  42.19900 42.04600 23.10800
C  42.20600 40.88700 22.39100
C  41.88200 41.19600 20.87500
C  41.24900 42.58500 20.99300
C  41.67600 43.05900 22.41400
C  43.13200 41.04000 19.99200
C  39.73900 42.67200 20.79400
C  38.83500 41.64400 21.59800
N  41.77800 43.97600 25.19100
C  41.35900 44.74400 24.19500
C  41.03200 46.08800 24.66800
C  41.12800 45.96500 26.10100
C  41.63500 44.71200 26.32500
C  40.56300 47.24000 23.94800
C  41.00000 46.71500 27.32900
O  40.64800 47.86700 27.55500
C  41.32600 45.66600 28.42900
C  42.31500 46.34200 29.30800
O  43.47000 46.49600 29.01100
O  41.69600 46.64600 30.54400
C  42.67000 47.29300 31.45600
H  44.45900 39.37400 28.36900
H  42.82300 38.87000 22.10700
H  40.73000 45.04500 22.25100
H  43.32700 43.58800 29.96200
H  42.49500 40.82500 29.90500
H  45.31400 41.35800 29.65300
H  44.48100 40.39000 30.88000
H  44.49100 42.22800 31.10400
H  40.46700 42.31800 30.06500
H  41.03700 43.74500 30.87400
H  41.94200 41.21400 32.01900
H  40.39500 41.96900 32.31900
H  44.86900 37.32600 27.94400
H  45.89100 36.81800 26.55700
H  44.33600 36.08200 26.94400
H  45.27300 35.70500 24.74600
H  44.51600 34.68700 23.52400
H  43.45800 35.11300 24.91500
H  41.13600 40.50400 20.48400
H  41.65400 43.29100 20.26800
H  43.36600 41.98400 19.50000
H  42.99400 40.37600 19.13900
H  44.00300 40.67200 20.53500
H  39.70600 42.53800 19.71300
H  39.35800 43.66800 21.01600
H  38.12400 42.28000 22.12500
H  39.47100 41.23500 22.38300
H  38.46800 40.94200 20.84900
H  39.98600 46.99300 23.05700
H  41.37500 47.89200 23.62500
H  39.91400 47.76800 24.64600
H  40.47700 45.41000 29.06200
H  43.35000 48.01800 31.00700
H  43.32300 46.58900 31.97300
H  42.13400 47.87300 32.20800

