158

Mg 34.69600 3.38100 29.22600
C  32.39100 4.21300 31.78900
C  37.25700 4.01300 31.67400
C  37.03400 2.94700 26.94000
C  32.12900 3.59900 27.00900
N  34.77900 4.26200 31.45200
C  33.68800 4.40900 32.25000
C  34.04600 4.47200 33.77600
C  35.65400 4.56800 33.68100
C  35.92500 4.33800 32.18200
C  36.15500 5.93300 34.26300
C  33.60700 3.15000 34.52900
C  33.32000 3.28700 36.00900
H  33.99400 4.42600 36.78000
N  36.79100 3.32400 29.33100
C  37.60700 3.61500 30.37600
C  38.98300 3.30400 29.96100
C  38.99200 3.08400 28.51700
C  37.60500 3.12800 28.21200
C  40.12700 3.41600 30.95900
C  40.05000 2.68300 27.59600
O  39.82600 2.36600 26.41300
C  41.51900 2.52400 28.05400
N  34.55900 3.29400 27.23800
C  35.70200 2.98500 26.51600
C  35.26300 2.75900 25.03700
C  33.74100 3.14600 24.98600
C  33.41900 3.33600 26.46600
C  36.13300 3.55100 23.98900
C  32.74000 2.22200 24.20900
C  32.07600 1.04900 24.95300
N  32.67000 3.71900 29.34300
C  31.75600 3.75100 28.33300
C  30.38700 4.04600 28.84300
C  30.60500 4.20600 30.22400
C  32.00800 4.04900 30.47800
C  29.09600 4.10000 28.04000
C  29.91900 4.46800 31.43000
O  28.75600 4.64900 31.68200
C  31.07500 4.48300 32.50100
C  30.91600 5.69300 33.31400
O  31.30800 6.82700 33.04000
O  30.43500 5.34100 34.58100
C  30.20600 6.43200 35.47000
H  38.08900 4.12400 32.37200
H  37.70400 2.72100 26.10700
H  31.23100 3.60900 26.38700
H  33.59100 5.35300 34.22900
H  36.08000 3.72700 34.22900
H  36.88100 5.69600 35.04100
H  35.35100 6.58900 34.59400
H  36.63500 6.50000 33.46500
H  34.22900 2.27400 34.34500
H  32.70400 2.69900 34.11700
H  33.83700 2.39400 36.35900
H  32.23700 3.29800 36.13000
H  41.12400 3.25300 30.55000
H  40.08500 2.53200 31.59600
H  40.09300 4.37900 31.46800
H  42.10700 2.04200 27.27300
H  41.55900 1.88800 28.93800
H  41.97500 3.48000 28.31200
H  35.34900 1.68700 24.85800
H  33.67800 4.13300 24.52700
H  36.88300 4.14700 24.50900
H  35.51300 4.08500 23.26800
H  36.72700 2.79500 23.47600
H  33.26700 1.86000 23.32600
H  32.05300 3.00400 23.88400
H  31.06400 0.91600 24.57200
H  31.96500 1.18900 26.02800
H  32.50400 0.06600 24.75800
H  29.26800 4.89200 27.31100
H  28.27000 4.44700 28.66100
H  28.91700 3.22200 27.42000
H  30.81300 3.55600 33.01100
H  29.56800 7.22900 35.08800
H  31.13400 6.78500 35.91900
H  29.70300 5.93000 36.29700
Mg 48.12700 16.36300 29.00500
C  46.13900 16.11300 31.88700
C  50.51200 17.84200 30.80500
C  49.77700 16.81400 26.12000
C  45.43900 14.95800 27.19600
N  48.24300 16.97500 31.15700
C  47.38400 16.74200 32.15000
C  47.82300 17.24300 33.43900
C  49.20900 18.01300 33.09000
C  49.34800 17.58800 31.59700
C  49.29900 19.53500 33.23200
C  47.92200 16.26800 34.64800
C  47.31400 16.84700 35.98200
H  47.05400 18.27500 36.22900
N  49.97500 17.19000 28.52400
C  50.77300 17.83700 29.43500
C  52.00800 18.18800 28.74100
C  51.82300 17.99900 27.36100
C  50.52200 17.25700 27.27500
C  53.12300 18.84800 29.41800
C  52.72400 18.39800 26.15600
O  52.43800 17.92700 25.06200
C  54.02900 19.20800 26.29400
N  47.63900 16.00700 26.94500
C  48.48600 16.21700 25.93300
C  48.08900 15.59500 24.61100
C  46.73600 14.86200 25.02900
C  46.60800 15.21000 26.52800
C  47.76000 16.53100 23.45000
C  46.86600 13.28900 24.90400
C  45.83300 12.71700 23.89600
N  46.18100 15.63300 29.40700
C  45.21800 15.15600 28.54700
C  44.05000 14.82200 29.29800
C  44.36600 15.13400 30.59400
C  45.67900 15.63800 30.64300
C  42.81100 14.10300 28.76500
C  43.89800 15.08100 31.90800
O  42.92400 14.58300 32.42700
C  45.02900 15.77000 32.81000
C  44.39600 16.95800 33.50500
O  44.34700 18.10400 33.15500
O  43.79000 16.45900 34.65700
C  42.70100 17.31100 35.27900
H  51.17800 18.46400 31.40800
H  50.37900 16.82300 25.20900
H  44.67700 14.44000 26.61100
H  47.07700 17.99800 33.68700
H  49.99900 17.53400 33.66900
H  49.38200 19.89200 32.20500
H  50.22800 19.60700 33.79700
H  48.37200 19.90300 33.67200
H  48.94300 16.02300 34.94000
H  47.32000 15.39700 34.38700
H  48.07200 16.54000 36.70100
H  46.42100 16.27300 36.23000
H  54.03400 18.33300 29.11500
H  53.10500 18.89800 30.50700
H  53.16400 19.85800 29.01000
H  54.14600 19.75600 27.22900
H  54.20200 19.75200 25.36600
H  54.78500 18.42800 26.38900
H  48.88600 14.89200 24.36800
H  45.82000 15.22200 24.56100
H  48.36300 16.56700 22.54200
H  47.92600 17.55900 23.77100
H  46.74200 16.39400 23.08600
H  46.80400 12.83000 25.89100
H  47.78500 13.08600 24.35500
H  46.48300 12.38400 23.08700
H  45.07300 13.41200 23.54000
H  45.37400 11.88300 24.42500
H  42.58000 13.19900 29.33000
H  42.98300 13.73000 27.75600
H  41.98900 14.81600 28.82900
H  45.26900 15.19800 33.70700
H  42.03500 16.76400 35.94600
H  42.01100 17.65200 34.50700
H  43.21100 18.12300 35.79700

