158

Mg 8.32100 3.45600 27.65800
C  9.56800 1.86100 30.45300
C  6.14700 5.32200 29.62700
C  7.15100 4.82700 24.83000
C  9.96400 0.98400 25.65000
N  7.88100 3.54600 29.78200
C  8.58100 2.88000 30.77800
C  8.10300 3.25900 32.12000
C  6.96100 4.28600 31.85200
C  7.00200 4.48100 30.34700
C  5.56300 3.94100 32.40200
C  9.19700 3.86200 32.98200
C  8.72300 4.47400 34.34400
H  9.61200 4.17800 35.54000
N  6.85100 4.86000 27.25400
C  6.03800 5.52100 28.19000
C  5.18600 6.46100 27.53800
C  5.56600 6.42300 26.11800
C  6.60200 5.35800 25.99800
C  4.31500 7.45800 28.38900
C  5.08500 7.22700 24.92400
O  5.64000 7.18800 23.81100
C  4.04000 8.32900 25.17900
N  8.70100 3.12600 25.54600
C  8.06600 3.84000 24.58600
C  8.47100 3.38900 23.15600
C  9.11200 1.98700 23.42800
C  9.33100 2.00600 24.99100
C  7.30000 3.26600 22.07400
C  10.46100 1.75500 22.56000
C  10.54400 0.56600 21.59100
N  9.43600 1.68100 27.92600
C  10.13900 0.89800 27.03500
C  10.84500 -0.07000 27.83000
C  10.78800 0.39300 29.13700
C  9.83400 1.44100 29.18800
C  11.54900 -1.23100 27.32300
C  11.24600 0.05400 30.43600
O  12.02600 -0.84300 30.86500
C  10.42500 1.04100 31.35900
C  9.65100 0.32100 32.34800
O  8.55700 -0.18200 32.21900
O  10.29500 0.40800 33.58200
C  9.65000 -0.33800 34.73700
H  5.45300 5.86800 30.27000
H  6.64000 5.33000 24.00700
H  10.28000 0.21200 24.94500
H  7.72000 2.38000 32.63800
H  7.20800 5.25600 32.28300
H  5.22400 4.75000 33.05000
H  5.55600 3.04900 33.02800
H  4.74300 3.79300 31.70000
H  9.65800 4.69000 32.44300
H  9.92900 3.13400 33.33000
H  7.82200 3.95400 34.66800
H  8.55900 5.54200 34.19900
H  3.37500 7.60500 27.85800
H  4.76900 8.44800 28.41700
H  3.93400 6.98900 29.29600
H  4.49200 9.15400 25.73000
H  3.19100 7.99500 25.77500
H  3.63800 8.48300 24.17800
H  9.24700 4.02700 22.73500
H  8.46200 1.12800 23.26300
H  6.29700 3.62500 22.30400
H  7.32900 2.25900 21.65900
H  7.64000 3.95900 21.30500
H  11.18800 1.72600 23.37100
H  10.76400 2.64200 22.00400
H  10.88300 0.87200 20.60100
H  9.63600 -0.03200 21.52200
H  11.33900 -0.13900 21.83400
H  12.16600 -0.93600 26.47400
H  10.80200 -1.97700 27.05100
H  12.12200 -1.58900 28.17800
H  11.09500 1.72800 31.87500
H  9.13000 -1.26500 34.49600
H  8.88400 0.28100 35.20500
H  10.30300 -0.53500 35.58700
Mg -6.14100 25.52300 25.65900
C  -4.55800 26.62500 28.46300
C  -7.91700 23.34700 27.63300
C  -7.59400 24.15100 22.81600
C  -4.51000 27.90800 23.72200
N  -6.27200 25.01400 27.82900
C  -5.50000 25.59100 28.80300
C  -5.95100 25.21000 30.19000
C  -6.63400 23.86000 29.83700
C  -6.97500 24.04900 28.36600
C  -5.82000 22.54200 30.07000
C  -6.83100 26.34600 30.76300
C  -6.90100 26.54200 32.20200
H  -6.09500 25.61100 33.06600
N  -7.53200 23.89700 25.30900
C  -8.17000 23.20300 26.27200
C  -9.10800 22.31400 25.66000
C  -8.83000 22.40400 24.26400
C  -7.97500 23.52600 24.04600
C  -10.00400 21.44200 26.50900
C  -9.30400 21.45400 23.16000
O  -9.06700 21.71800 21.97900
C  -10.17200 20.21700 23.49800
N  -5.99600 25.82900 23.57700
C  -6.69500 25.15800 22.61500
C  -6.40500 25.70500 21.18000
C  -5.66200 27.11000 21.49800
C  -5.35100 26.96300 23.03000
C  -5.51400 24.74500 20.32000
C  -6.38300 28.47300 20.99100
C  -5.63500 29.37100 19.94400
N  -4.68900 26.98700 25.96800
C  -4.13800 27.86200 25.12900
C  -3.20200 28.75400 25.86400
C  -3.36900 28.19200 27.18300
C  -4.31100 27.21100 27.20600
C  -2.19000 29.66800 25.20000
C  -2.82700 28.35100 28.53400
O  -2.00900 29.13000 29.00300
C  -3.62300 27.38500 29.37800
C  -2.66400 26.54400 30.13500
O  -2.14600 25.56400 29.69600
O  -2.45800 27.06800 31.42100
C  -1.49800 26.28900 32.25200
H  -8.46100 22.70600 28.33000
H  -8.12900 23.92300 21.89200
H  -4.19100 28.75200 23.10800
H  -5.11900 24.99600 30.86100
H  -7.49200 23.76400 30.50300
H  -5.54100 22.00600 29.16400
H  -6.40500 21.77200 30.57200
H  -4.85900 22.59700 30.58200
H  -7.87400 26.24000 30.46400
H  -6.59400 27.31000 30.31100
H  -7.91200 26.43900 32.59700
H  -6.68900 27.56900 32.50000
H  -9.89900 20.36000 26.43600
H  -11.02900 21.66500 26.21000
H  -10.11300 21.67900 27.56700
H  -10.31100 19.49000 22.69800
H  -11.09700 20.46600 24.01900
H  -9.59700 19.64600 24.22700
H  -7.36200 25.92200 20.70600
H  -4.67500 26.93700 21.07000
H  -4.84400 24.17200 20.96100
H  -4.89000 25.29000 19.61100
H  -6.21400 24.09800 19.79200
H  -6.42900 29.04400 21.91800
H  -7.33100 28.19800 20.53100
H  -6.11600 30.34400 19.84300
H  -5.63600 28.79700 19.01700
H  -4.65000 29.44900 20.40200
H  -1.75900 29.21600 24.30700
H  -1.34200 29.78900 25.87400
H  -2.53900 30.67400 24.96800
H  -4.26000 27.93800 30.06800
H  -2.09000 26.06200 33.13900
H  -0.64400 26.85700 32.62100
H  -1.03800 25.39300 31.83500

