158

Mg -2.37300 17.06300 26.43000
C  -2.76300 14.70500 28.95600
C  -3.22300 19.49500 28.66200
C  -2.60500 19.15500 23.85300
C  -1.78100 14.40600 24.14500
N  -2.69100 17.02800 28.57800
C  -2.65100 16.01200 29.45100
C  -2.90400 16.44900 30.94200
C  -3.03700 18.00400 30.73200
C  -3.09700 18.16800 29.24400
C  -4.11400 18.78800 31.53500
C  -1.93300 15.94900 32.04200
C  -1.61500 16.90800 33.23100
H  -0.95700 16.33200 34.51600
N  -2.75600 19.06600 26.27100
C  -3.10200 19.91500 27.28700
C  -3.28000 21.31100 26.77500
C  -3.07200 21.22300 25.35000
C  -2.89500 19.75800 25.09800
C  -3.59900 22.52000 27.64000
C  -3.18000 22.30700 24.37200
O  -2.85500 22.13600 23.16300
C  -3.39000 23.75800 24.76700
N  -2.45600 16.71900 24.20800
C  -2.37700 17.81600 23.43900
C  -1.91800 17.44400 22.02000
C  -1.61900 15.92000 22.11900
C  -1.93700 15.65300 23.59600
C  -2.79500 17.94300 20.90200
C  -0.16800 15.49900 21.72800
C  1.05800 16.29700 22.32600
N  -2.34900 14.94700 26.47200
C  -2.09600 14.02900 25.46100
C  -2.24300 12.69000 26.00300
C  -2.56000 12.91400 27.38500
C  -2.59300 14.29300 27.59700
C  -2.07500 11.43700 25.25400
C  -2.74100 12.20000 28.63900
O  -2.66500 10.99800 28.91300
C  -3.05700 13.35700 29.67300
C  -2.12300 13.19300 30.83400
O  -0.85900 13.28800 30.71800
O  -2.78900 12.68500 31.94400
C  -1.98800 12.10700 33.01600
H  -3.36000 20.28900 29.39800
H  -2.69800 19.80300 22.97800
H  -1.41900 13.64900 23.44700
H  -3.84900 16.05700 31.31600
H  -2.10600 18.48500 31.03400
H  -3.64600 19.66200 31.98900
H  -4.53100 18.14300 32.30800
H  -4.95800 19.16500 30.95600
H  -0.99900 15.82000 31.49600
H  -2.31200 15.04200 32.51500
H  -2.59500 17.36500 33.37100
H  -0.93600 17.72200 32.98000
H  -2.77400 23.20000 27.42700
H  -3.56200 22.26100 28.69800
H  -4.61900 22.88700 27.53200
H  -4.36600 23.75200 25.25200
H  -3.49900 24.31400 23.83600
H  -2.55600 23.94600 25.44300
H  -0.97300 17.98400 21.95900
H  -2.33600 15.42400 21.46500
H  -2.54900 18.96600 20.61600
H  -3.86600 17.79000 21.02900
H  -2.61400 17.31700 20.02800
H  -0.12700 15.45500 20.64000
H  -0.14300 14.44700 22.01200
H  0.77900 17.24000 22.79700
H  1.76400 16.64000 21.57000
H  1.51100 15.73900 23.14600
H  -1.37400 11.58200 24.43200
H  -3.05100 11.13900 24.87000
H  -1.68400 10.64600 25.89500
H  -4.08500 13.07300 29.89700
H  -1.01100 11.75900 32.68000
H  -2.57400 11.23900 33.31900
H  -1.98400 12.79800 33.85900
Mg 9.04500 3.73400 28.24100
C  10.56100 2.03700 30.90200
C  7.45000 5.81600 30.31900
C  7.49500 5.32800 25.58100
C  10.09800 1.19700 26.02400
N  9.14200 3.92700 30.31200
C  9.80500 3.21700 31.23600
C  9.64800 3.87900 32.70200
C  8.51300 4.83800 32.47700
C  8.38700 4.95800 30.95600
C  7.08800 4.45100 33.11600
C  10.93300 4.48200 33.33900
C  11.52800 3.78300 34.59300
H  11.83400 4.65000 35.80100
N  7.72000 5.43200 28.01600
C  7.09200 6.07200 29.00000
C  6.27700 7.14500 28.47900
C  6.26300 7.06400 27.07800
C  7.25300 5.95500 26.79400
C  5.41100 8.03800 29.32200
C  5.62900 7.92400 26.03500
O  5.84400 7.81500 24.80400
C  4.66900 9.11600 26.41200
N  8.69200 3.26500 26.10100
C  8.10700 4.09800 25.24100
C  8.17000 3.57300 23.74900
C  9.23300 2.45500 23.93400
C  9.29100 2.28400 25.44900
C  6.76600 3.20900 23.13800
C  10.68200 2.78800 23.42800
C  11.42300 1.59400 22.79100
N  10.14400 2.00100 28.39000
C  10.47900 1.04800 27.40600
C  11.27100 0.04500 28.03800
C  11.31000 0.37100 29.41600
C  10.67200 1.56000 29.54700
C  11.90200 -1.10400 27.39100
C  11.84100 0.02200 30.71200
O  12.60700 -0.88900 30.98200
C  11.30100 1.07700 31.76200
C  10.51400 0.44700 32.86500
O  9.35100 0.06100 32.77200
O  11.42800 0.28300 33.81300
C  10.93600 -0.20300 35.11700
H  6.99400 6.52300 31.01400
H  7.14200 5.85000 24.68900
H  10.35700 0.44200 25.27900
H  9.23700 3.06200 33.29400
H  8.78200 5.80600 32.90000
H  7.13800 4.67000 34.18200
H  6.81300 3.40900 32.95000
H  6.26700 5.02900 32.69000
H  10.78700 5.54700 33.51900
H  11.70600 4.49600 32.57000
H  12.52700 3.43900 34.32500
H  10.86400 2.94600 34.80900
H  5.84600 9.02800 29.17800
H  5.59900 7.91600 30.38800
H  4.32200 8.01500 29.30300
H  4.34700 9.62000 25.50100
H  5.18700 9.86600 27.01000
H  3.73800 8.78400 26.87100
H  8.43400 4.46800 23.18500
H  8.80100 1.53200 23.54700
H  5.91500 3.64000 23.66400
H  6.56500 2.13800 23.15300
H  6.62900 3.77000 22.21300
H  11.30700 3.15100 24.24400
H  10.59700 3.60900 22.71700
H  10.95000 0.64900 23.05900
H  12.46700 1.60500 23.10600
H  11.40700 1.59500 21.70100
H  12.97300 -0.90400 27.38900
H  11.56700 -1.29100 26.37100
H  11.78500 -1.93900 28.08200
H  12.11200 1.59200 32.27800
H  10.53200 0.58900 35.74700
H  11.81000 -0.63100 35.61000
H  10.20700 -1.00900 35.03100

