158

Mg 1.86600 -1.42200 42.16900
C  5.38100 -0.83300 41.78800
C  1.24800 1.47200 40.58000
C  -1.30300 -2.37900 41.82100
C  2.71300 -4.57000 43.37300
N  3.20400 0.10000 41.35100
C  4.53400 0.22000 41.42900
C  4.97500 1.57300 40.78500
C  3.63700 2.32800 40.69000
C  2.57200 1.27300 40.91000
C  3.48500 3.65100 41.58000
C  5.81400 1.53500 39.42900
C  5.74000 0.22100 38.57900
H  5.36500 0.27200 37.12600
N  0.19200 -0.56200 41.30100
C  0.13300 0.61200 40.71700
C  -1.22400 0.93400 40.34600
C  -2.01100 -0.13600 40.73200
C  -1.07500 -1.09000 41.34700
C  -1.56800 2.13200 39.54000
C  -3.50800 -0.28400 40.63400
O  -4.18000 0.54700 40.04200
C  -4.34100 -1.43500 41.18300
N  0.86800 -3.32500 42.55000
C  -0.50500 -3.37400 42.43100
C  -1.00600 -4.86900 42.64400
C  0.35100 -5.52800 43.30000
C  1.41300 -4.39500 43.17500
C  -2.39200 -5.08500 43.34800
C  0.70400 -6.83600 42.58400
C  0.93900 -7.98200 43.58500
N  3.67100 -2.48200 42.71500
C  3.84600 -3.75700 43.14300
C  5.23000 -4.08600 43.23300
C  5.87300 -2.95400 42.70000
C  4.87700 -1.99900 42.38100
C  5.78300 -5.38600 43.64200
C  7.15500 -2.38200 42.44900
O  8.34200 -2.76600 42.66500
C  6.90800 -0.99600 41.76000
C  7.58400 0.00900 42.52200
O  8.48700 0.70900 42.07900
O  7.17000 0.04700 43.81600
C  7.69900 1.20400 44.55600
H  0.93200 2.46100 40.24000
H  -2.30800 -2.75800 41.62300
H  3.07200 -5.54500 43.71100
H  5.66100 1.98000 41.52700
H  3.56600 2.64100 39.64800
H  4.21000 4.38300 41.22500
H  3.53000 3.37700 42.63400
H  2.48100 4.05100 41.43500
H  6.84300 1.58700 39.78500
H  5.61400 2.39200 38.78500
H  5.03800 -0.35600 39.18000
H  6.71700 -0.26200 38.57100
H  -0.76200 2.82600 39.29900
H  -2.31000 2.68700 40.11500
H  -2.06000 1.72700 38.65600
H  -5.39400 -1.23500 40.98900
H  -4.11000 -1.42500 42.24900
H  -4.07200 -2.40200 40.76000
H  -1.07500 -5.13500 41.58900
H  0.15200 -5.74900 44.34800
H  -2.13200 -5.74500 44.17500
H  -3.22200 -5.55800 42.82300
H  -2.69600 -4.07900 43.63800
H  1.60900 -6.67000 41.99900
H  -0.08900 -7.25400 41.96500
H  1.99800 -8.23100 43.51200
H  0.29100 -8.78900 43.24600
H  0.75300 -7.63400 44.60200
H  6.84100 -5.26200 43.87300
H  5.58000 -6.11700 42.85900
H  5.24700 -5.80200 44.49500
H  7.32500 -0.99600 40.75200
H  7.34100 1.15700 45.58400
H  7.38700 2.16400 44.14200
H  8.77800 1.29700 44.67900
Mg 49.18200 46.57000 43.21900
C  46.00300 47.35000 42.19600
C  48.91900 43.58800 41.53400
C  52.49800 46.24700 43.54200
C  49.57500 49.97000 44.21900
N  47.57600 45.58900 42.07700
C  46.34700 46.09100 41.73700
C  45.51200 45.04700 40.97200
C  46.53400 43.88100 40.85200
C  47.73500 44.40600 41.49900
C  45.90800 42.46900 41.36600
C  45.01600 45.54300 39.58900
C  43.93400 44.69300 38.96100
H  44.32100 43.78400 37.75000
N  50.50400 44.95800 42.76400
C  50.17500 43.81000 42.17700
C  51.35500 42.97700 42.04500
C  52.42200 43.69700 42.70600
C  51.91600 45.05900 42.96900
C  51.29900 41.59100 41.50900
C  53.89800 43.18100 42.97600
O  54.20600 42.05200 42.56700
C  54.96200 43.94500 43.61200
N  50.87800 47.96300 43.64100
C  52.10300 47.51600 43.89800
C  53.02300 48.70900 44.39100
C  52.11600 49.91100 44.23400
C  50.73600 49.26900 43.99300
C  53.46300 48.38400 45.78600
C  52.61700 50.95800 43.19200
C  52.30700 52.41900 43.57800
N  48.04700 48.29800 43.37400
C  48.31500 49.60000 43.82700
C  47.07500 50.35500 43.80800
C  46.16000 49.46900 43.23000
C  46.79500 48.29300 42.89900
C  46.91600 51.76600 44.30000
C  44.78700 49.40900 42.79600
O  43.81900 50.16000 42.92600
C  44.66300 48.02700 42.06900
C  43.70900 47.09000 42.70100
O  43.73900 46.84400 43.91400
O  42.80800 46.60500 41.71700
C  41.78600 45.71800 42.25500
H  48.86800 42.63100 41.01100
H  53.58400 46.13900 43.57500
H  49.67000 50.96300 44.66300
H  44.66500 44.69200 41.55900
H  46.87000 43.78700 39.82000
H  44.88600 42.43400 40.99000
H  45.87100 42.38800 42.45200
H  46.25300 41.53600 40.92000
H  45.91000 45.66900 38.97700
H  44.54400 46.51500 39.73100
H  43.12400 45.38200 38.72200
H  43.49900 44.09200 39.75900
H  50.78000 40.86800 42.13900
H  52.26900 41.15000 41.28200
H  50.72700 41.74100 40.59400
H  54.55900 44.39200 44.52100
H  55.35800 44.67700 42.90900
H  55.76400 43.27500 43.92000
H  53.83300 48.71700 43.66100
H  52.19800 50.33300 45.23600
H  53.71100 47.32300 45.77900
H  52.67600 48.49400 46.53200
H  54.42300 48.85500 46.00200
H  52.09500 50.80900 42.24700
H  53.69500 51.04600 43.05800
H  51.33900 52.52100 43.08800
H  53.11400 53.03200 43.17500
H  52.34300 52.67100 44.63800
H  45.83200 51.87200 44.28300
H  47.47200 52.41300 43.62100
H  47.27500 51.99100 45.30500
H  44.45800 48.25500 41.02300
H  41.28300 46.19800 43.09400
H  42.35000 44.85000 42.59600
H  41.08900 45.48000 41.45200

