158

Mg 2.56600 -3.25500 45.51300
C  5.93000 -2.25600 44.86900
C  1.60000 -0.90200 43.41400
C  -0.42800 -4.76100 45.58500
C  3.98000 -6.10900 47.13700
N  3.67700 -1.93700 44.05400
C  5.00500 -1.56600 44.04200
C  5.25100 -0.45800 42.98800
C  3.83400 0.10600 42.74300
C  2.94500 -0.98100 43.44300
C  3.63800 1.48400 43.51800
C  6.02700 -0.96900 41.75500
C  7.32800 -0.30900 41.34000
H  7.58300 0.06100 39.85400
N  0.83100 -2.84800 44.65900
C  0.59700 -1.72700 43.91500
C  -0.85200 -1.72100 43.59200
C  -1.49000 -2.88100 44.09300
C  -0.31900 -3.57000 44.79500
C  -1.46900 -0.63700 42.79400
C  -2.99000 -3.33100 44.02100
O  -3.84800 -2.64700 43.44200
C  -3.41000 -4.71700 44.48800
N  1.74600 -5.19000 46.37900
C  0.53600 -5.50100 46.30700
C  0.33700 -6.91100 46.93400
C  1.75900 -7.24900 47.44300
C  2.55800 -6.11900 46.94700
C  -0.74800 -6.98500 48.09200
C  2.13900 -8.67900 46.94900
C  2.15400 -9.75300 48.02800
N  4.51700 -3.99600 46.00300
C  4.94600 -5.06400 46.77600
C  6.35200 -4.99500 46.95300
C  6.75100 -3.82700 46.19200
C  5.64800 -3.36000 45.61700
C  7.15400 -5.89200 47.83400
C  7.93600 -3.05100 45.90900
O  9.07600 -3.18100 46.32700
C  7.43300 -1.92500 45.01200
C  7.53900 -0.66100 45.81000
O  6.82100 -0.45100 46.78600
O  8.29800 0.26000 45.15500
C  8.32400 1.63600 45.69900
H  1.22000 -0.07500 42.81000
H  -1.39900 -5.23900 45.72900
H  4.40000 -7.02400 47.56000
H  5.82800 0.35500 43.42900
H  3.60200 0.04800 41.68000
H  4.35200 1.57800 44.33600
H  2.65200 1.73200 43.91000
H  4.03200 2.34400 42.97600
H  5.44300 -0.98100 40.83500
H  6.19900 -1.99600 42.07600
H  8.16500 -0.92900 41.65800
H  7.46900 0.63400 41.86800
H  -1.96800 0.13100 43.38500
H  -2.18400 -1.02300 42.06700
H  -0.73400 -0.16100 42.14500
H  -2.78500 -5.39000 43.90200
H  -4.43200 -4.90400 44.15900
H  -3.40800 -4.73800 45.57800
H  -0.09500 -7.58500 46.19400
H  1.77900 -7.19800 48.53100
H  -1.42600 -6.13800 47.99000
H  -0.38100 -7.01500 49.11800
H  -1.38700 -7.85800 47.96200
H  3.11700 -8.66000 46.46800
H  1.55500 -9.00100 46.08600
H  2.98500 -10.43000 47.82800
H  1.24900 -10.35600 47.96600
H  2.27700 -9.30600 49.01400
H  6.55200 -6.01700 48.73400
H  8.15500 -5.52100 48.05200
H  7.13900 -6.87600 47.36600
H  7.98000 -1.90400 44.07000
H  8.34100 2.32600 44.85600
H  9.14800 1.90200 46.36100
H  7.40800 1.91800 46.22000
Mg 48.57100 35.84100 27.52400
C  46.67300 34.28100 29.76100
C  49.15800 38.47500 29.69600
C  50.40800 37.39100 25.07300
C  47.93000 33.22400 25.22700
N  48.06300 36.15500 29.52400
C  47.24100 35.40200 30.30900
C  46.84200 36.15600 31.56900
C  47.53300 37.57700 31.36100
C  48.31300 37.41300 30.11700
C  46.58900 38.83300 31.32800
C  47.20900 35.54700 32.92400
C  48.63700 34.93800 33.04100
H  49.57800 35.85900 33.73500
N  49.60600 37.65400 27.38200
C  49.70700 38.60500 28.42500
C  50.55300 39.71900 27.92700
C  51.10300 39.34100 26.63700
C  50.39300 38.06600 26.32200
C  50.93900 40.84900 28.77400
C  52.25900 39.89600 25.78100
O  52.48700 39.42800 24.68700
C  52.95200 41.24600 26.26800
N  49.03400 35.43000 25.46700
C  49.76000 36.20300 24.63900
C  49.66700 35.74900 23.15800
C  49.32000 34.25900 23.38700
C  48.73600 34.27400 24.79900
C  48.69000 36.59500 22.38200
C  50.36500 33.20500 23.14700
C  50.51300 32.60000 21.71800
N  47.53800 34.10400 27.50000
C  47.37400 33.10300 26.54100
C  46.45600 32.12600 26.99300
C  46.10700 32.51400 28.24000
C  46.82100 33.75000 28.47300
C  45.89100 30.97500 26.22400
C  45.32300 32.21800 29.38100
O  44.58700 31.28500 29.61900
C  45.60200 33.35500 30.40000
C  46.00700 32.71500 31.66900
O  47.09400 32.22500 31.95700
O  44.91000 32.67600 32.50700
C  45.06700 32.34100 33.88800
H  49.41100 39.28600 30.38400
H  50.90600 37.98200 24.30100
H  47.61100 32.61400 24.38000
H  45.75600 36.25800 31.58100
H  48.25900 37.88500 32.11400
H  46.68400 39.42100 30.41500
H  46.55800 39.37200 32.27500
H  45.59000 38.40000 31.29200
H  46.40700 34.82800 33.09400
H  46.97300 36.29700 33.67800
H  49.02000 34.69100 32.05100
H  48.54800 33.97100 33.53500
H  51.63300 40.68600 29.59800
H  50.07500 41.30400 29.25900
H  51.31700 41.68700 28.18800
H  53.32900 40.96100 27.25100
H  52.23300 42.06500 26.26300
H  53.85900 41.38700 25.68000
H  50.65200 35.89400 22.71400
H  48.49600 33.96900 22.73500
H  48.01300 35.91500 21.86600
H  49.19800 37.11500 21.57000
H  48.16100 37.28600 23.03800
H  50.22200 32.44300 23.91300
H  51.33800 33.64700 23.36100
H  49.76300 33.03700 21.05800
H  50.15800 31.58700 21.91100
H  51.55800 32.65700 21.41500
H  45.63700 31.26400 25.20400
H  44.99000 30.81000 26.81500
H  46.59100 30.14100 26.25700
H  44.62200 33.79900 30.57900
H  45.43900 33.19300 34.45800
H  45.73700 31.48500 33.97000
H  44.09700 32.14300 34.34300

