158

Mg 47.23600 25.59600 27.63400
C  48.41600 27.61400 30.34300
C  46.39300 23.13200 30.12900
C  46.81900 23.32100 25.15900
C  48.76500 27.70000 25.56600
N  47.36900 25.41700 30.03800
C  47.79100 26.46500 30.87100
C  47.51200 26.09900 32.30200
C  46.92700 24.61000 32.23900
C  46.88600 24.35700 30.75900
C  47.77400 23.60500 32.96700
C  46.57700 27.17200 32.95700
C  47.16500 27.92000 34.17800
H  46.23500 28.07500 35.30200
N  46.58000 23.50100 27.66000
C  46.26100 22.68600 28.77400
C  45.72600 21.42700 28.22100
C  45.81500 21.56900 26.78500
C  46.40400 22.85100 26.48100
C  45.12000 20.34100 29.02900
C  45.33700 20.46000 25.75300
O  45.33300 20.65300 24.54600
C  44.91500 19.06700 26.14400
N  47.87800 25.46200 25.69100
C  47.50100 24.44300 24.84200
C  47.90300 24.73700 23.39700
C  48.24000 26.27800 23.56500
C  48.23400 26.50800 25.00900
C  49.22600 23.85400 23.04300
C  47.19500 27.18600 22.83400
C  45.83300 27.24100 23.60400
N  48.37700 27.31000 27.81900
C  48.83800 28.12900 26.87900
C  49.49500 29.31700 27.46100
C  49.32700 29.12700 28.80100
C  48.68000 27.89300 28.99200
C  50.27200 30.49100 26.74900
C  49.66200 29.66500 30.11500
O  50.27700 30.67400 30.42000
C  49.06900 28.64100 31.16900
C  50.17300 28.16400 32.01000
O  50.98600 27.32700 31.66400
O  50.33100 28.92800 33.12800
C  51.61700 28.73200 33.85700
H  45.98800 22.41000 30.84100
H  46.62800 22.61600 24.34800
H  49.04700 28.50600 24.88500
H  48.44700 26.03600 32.85800
H  45.94300 24.71000 32.69600
H  47.15100 22.76000 33.25900
H  48.36800 24.06200 33.75800
H  48.44300 23.14900 32.23700
H  45.56800 26.82000 33.17300
H  46.31400 27.93300 32.22100
H  47.40300 28.93400 33.85600
H  48.12700 27.51600 34.49100
H  45.21400 20.47400 30.10600
H  45.69400 19.44700 28.78700
H  44.06300 20.35200 28.76200
H  45.80200 18.59000 26.56000
H  44.83800 18.40300 25.28300
H  44.05400 19.06600 26.81300
H  47.09900 24.45500 22.71800
H  49.25400 26.40800 23.18500
H  50.11100 24.45700 22.84200
H  48.92700 23.19600 22.22700
H  49.44100 23.38700 24.00500
H  46.89500 26.76500 21.87500
H  47.63900 28.17100 22.69100
H  45.82200 27.97600 24.40900
H  45.65300 26.28700 24.09900
H  45.02300 27.30100 22.87700
H  50.92000 30.09600 25.96600
H  50.87400 30.98900 27.50900
H  49.52300 31.10000 26.24200
H  48.41400 29.20400 31.83400
H  51.52100 28.13600 34.76400
H  51.91800 29.70600 34.24400
H  52.51800 28.47800 33.29800
Mg 29.13600 56.66400 41.21000
C  26.38800 54.85200 39.77000
C  31.21600 54.44300 39.92000
C  31.39900 59.14800 41.27600
C  26.67900 59.21900 41.91400
N  28.79000 54.95700 39.77200
C  27.67300 54.30700 39.52300
C  28.05700 53.05000 38.65200
C  29.49800 52.64500 39.23100
C  29.88100 54.10200 39.65900
C  29.49400 51.60200 40.38400
C  28.10900 53.49900 37.16000
C  27.02600 52.89300 36.25600
H  26.34500 53.80800 35.25700
N  31.03400 56.68100 40.88300
C  31.72700 55.64500 40.33100
C  33.12200 56.01400 40.41400
C  33.21900 57.35400 40.74900
C  31.86900 57.80900 40.97600
C  34.21800 54.99200 40.01400
C  34.55500 58.07500 40.69900
O  35.63400 57.57000 40.41400
C  34.66700 59.48200 41.00000
N  29.08300 58.92800 41.57300
C  30.18300 59.65100 41.64900
C  29.93900 61.08800 42.06400
C  28.41800 61.03600 42.50000
C  28.03300 59.66400 41.89900
C  30.92300 61.60000 43.16500
C  27.56300 62.23400 41.92600
C  26.80600 62.99600 42.93000
N  27.00300 57.01800 40.98300
C  26.17100 58.04000 41.35600
C  24.74500 57.77100 41.02600
C  24.85800 56.42200 40.52000
C  26.25400 56.06700 40.44300
C  23.57700 58.64700 41.31300
C  24.08700 55.33300 40.02600
O  22.88400 55.24200 39.86000
C  25.00400 54.23100 39.52500
C  24.75800 53.10400 40.32400
O  25.27500 52.86300 41.41200
O  23.90100 52.15200 39.64100
C  23.58300 50.98600 40.49900
H  31.92400 53.64800 39.67700
H  32.14000 59.94700 41.34100
H  26.00900 60.01900 42.23700
H  27.38100 52.19900 38.74000
H  30.10500 52.37700 38.36700
H  29.83100 50.64100 39.99600
H  28.54700 51.50700 40.91500
H  30.12400 51.86500 41.23400
H  29.05800 53.27300 36.67600
H  27.89600 54.56800 37.16900
H  26.32000 52.30600 36.84200
H  27.51200 52.14400 35.63000
H  34.68200 55.35500 39.09700
H  33.79000 54.00700 39.82200
H  34.95500 54.85700 40.80500
H  34.09100 60.14000 40.34900
H  35.71500 59.74100 41.15700
H  34.31900 59.57100 42.02900
H  30.14500 61.62200 41.13600
H  28.31600 60.82500 43.56500
H  31.52600 62.38600 42.71000
H  31.61000 60.90200 43.64500
H  30.24000 62.11800 43.83700
H  26.88600 61.79400 41.19400
H  28.19700 62.84300 41.28200
H  26.89600 62.59000 43.93700
H  25.76800 62.80800 42.65400
H  27.10100 64.04100 42.83700
H  23.10200 58.53400 42.28800
H  22.87600 58.43400 40.50600
H  23.94000 59.66300 41.15800
H  24.79800 54.02100 38.47500
H  23.55300 51.25300 41.55600
H  24.34600 50.21500 40.39400
H  22.65100 50.49400 40.21800

