158

Mg 0.27800 7.22000 26.36700
C  0.77000 9.66900 28.90700
C  0.42300 4.93500 28.93700
C  -0.04400 5.04700 24.04600
C  0.49900 9.81700 24.06300
N  0.68400 7.29000 28.65600
C  0.61900 8.41100 29.50400
C  0.42000 7.96700 31.08500
C  0.53300 6.43400 31.00200
C  0.50500 6.24300 29.43900
C  1.79000 5.76100 31.69900
C  -0.99400 8.45900 31.65100
C  -1.10900 8.66400 33.12500
H  -0.01300 8.00400 34.04100
N  0.04700 5.27200 26.43800
C  0.21200 4.45300 27.58500
C  -0.05100 3.07900 27.17400
C  -0.15500 3.06400 25.67900
C  0.00000 4.47700 25.33600
C  -0.30600 1.91800 28.09700
C  -0.46400 1.90900 24.77800
O  -0.58600 2.02800 23.56700
C  -0.42200 0.52800 25.32500
N  0.06100 7.40700 24.36800
C  -0.11700 6.36300 23.59800
C  -0.14800 6.75000 22.10900
C  -0.11400 8.28400 22.19000
C  0.09500 8.55400 23.60300
C  0.85300 6.05500 21.14300
C  -1.24600 9.06900 21.55200
C  -2.50500 9.44100 22.32100
N  0.70100 9.32700 26.41900
C  0.67600 10.27200 25.37500
C  1.04400 11.52900 25.89700
C  1.02900 11.36900 27.26000
C  0.89500 9.97600 27.55900
C  0.99500 12.75900 25.05500
C  1.08100 12.07200 28.43700
O  1.34000 13.28400 28.60400
C  0.84500 11.03200 29.62300
C  2.03500 11.10100 30.48700
O  3.20100 10.95200 30.08300
O  1.74000 11.26800 31.84200
C  2.83200 11.28300 32.85300
H  0.49800 4.15800 29.70000
H  0.04000 4.29300 23.26200
H  0.48700 10.68800 23.40500
H  1.22800 8.45100 31.63400
H  -0.33400 5.96400 31.46600
H  2.35500 6.46800 32.30600
H  2.47700 5.28600 30.99800
H  1.50300 4.95300 32.37200
H  -1.76200 7.71200 31.44900
H  -1.31000 9.38600 31.17300
H  -2.00100 8.14000 33.46700
H  -1.20900 9.74300 33.24700
H  -0.38600 2.17100 29.15400
H  0.57700 1.28300 28.01600
H  -1.17400 1.31100 27.83900
H  -1.39700 0.35600 25.78200
H  0.40000 0.43100 26.03400
H  -0.35000 -0.13800 24.46500
H  -1.14500 6.39200 21.85400
H  0.80100 8.72500 21.79300
H  0.29700 5.17500 20.82200
H  1.81800 5.95200 21.64100
H  1.12000 6.65100 20.27000
H  -1.46400 8.54800 20.62000
H  -0.84900 10.03200 21.22900
H  -3.33400 9.22700 21.64600
H  -2.42400 10.51800 22.46200
H  -2.60500 8.90900 23.26700
H  1.19400 13.71200 25.54500
H  -0.03300 12.85900 24.70600
H  1.71400 12.67100 24.24100
H  -0.00600 11.27000 30.26100
H  3.36300 12.23400 32.82300
H  3.48800 10.43700 32.64500
H  2.42200 11.22000 33.86000
Mg 35.65300 49.02100 24.84300
C  35.90100 47.15400 27.72600
C  34.24300 51.63700 26.58400
C  34.83000 50.60600 21.90800
C  36.96900 46.26600 22.97300
N  34.99100 49.28300 26.92200
C  35.25200 48.36400 27.96300
C  34.94100 48.99000 29.38700
C  34.41000 50.43100 28.97700
C  34.60400 50.50900 27.44600
C  32.94000 50.58400 29.45000
C  36.12700 49.21200 30.31300
C  35.96300 49.14100 31.91500
H  34.66700 48.92800 32.62900
N  34.52000 50.85100 24.33500
C  34.16600 51.78100 25.20000
C  33.68900 52.92200 24.43500
C  33.84300 52.64200 23.06500
C  34.48300 51.32100 23.02800
C  33.18300 54.19200 25.09500
C  33.49600 53.49000 21.94700
O  33.97000 53.24600 20.85800
C  32.72300 54.82300 22.14400
N  35.89100 48.52400 22.76600
C  35.48800 49.37100 21.76300
C  35.76500 48.69600 20.33800
C  36.61400 47.41700 20.82400
C  36.46500 47.42500 22.27100
C  34.42000 48.42600 19.60500
C  38.14200 47.38300 20.31400
C  38.92400 48.72300 20.63100
N  36.25900 47.06300 25.20400
C  36.84600 46.08800 24.39400
C  37.16800 44.92900 25.23500
C  36.86100 45.40100 26.56600
C  36.26200 46.60600 26.46700
C  37.82300 43.62200 24.82100
C  36.94200 44.95600 27.95500
O  37.27200 43.89000 28.44300
C  36.28400 46.13300 28.77800
C  35.08300 45.64600 29.45000
O  34.05900 45.33800 28.89000
O  35.27900 45.35900 30.77700
C  34.22000 44.55400 31.44600
H  33.76000 52.50600 27.03500
H  34.79200 51.04300 20.90800
H  37.29600 45.41900 22.36600
H  34.18600 48.44600 29.95400
H  34.89500 51.29000 29.44100
H  32.38000 50.98500 28.60500
H  32.83200 51.44900 30.10400
H  32.42400 49.75900 29.94000
H  36.66700 50.11100 30.01500
H  36.93200 48.55900 29.97700
H  36.34700 50.05100 32.37500
H  36.67300 48.34600 32.14600
H  33.83500 55.00700 24.78300
H  33.13500 54.16400 26.18300
H  32.15700 54.36200 24.76800
H  31.85500 54.60000 22.76400
H  32.38100 55.20300 21.18200
H  33.37700 55.55300 22.62000
H  36.27700 49.36900 19.65100
H  36.20400 46.44500 20.55100
H  34.42500 48.82900 18.59200
H  33.61400 48.78100 20.24700
H  34.34900 47.34000 19.55000
H  38.01100 47.26700 19.23800
H  38.57000 46.48100 20.75100
H  39.86900 48.63000 21.16600
H  38.40200 49.45600 21.24500
H  39.26100 49.21600 19.71900
H  37.02700 42.88500 24.92200
H  38.63500 43.43100 25.52400
H  38.16900 43.59200 23.78800
H  36.90300 46.50300 29.59600
H  33.50500 45.11800 32.04500
H  34.69200 43.90100 32.17900
H  33.57000 44.02200 30.75000

