158

Mg 26.94200 52.10200 25.86400
C  25.21400 53.28200 28.60500
C  29.38000 50.81900 27.67900
C  28.54100 51.08900 22.96600
C  24.51600 53.83300 23.87600
N  27.16800 52.02300 27.90300
C  26.39500 52.54000 28.91100
C  27.13000 52.39600 30.25100
C  28.51100 51.82500 29.96600
C  28.36300 51.47900 28.43600
C  29.82300 52.63600 30.42800
C  26.28300 51.60500 31.31000
C  25.80800 52.43700 32.53600
H  26.64300 52.44200 33.81300
N  28.79500 51.10700 25.37400
C  29.61800 50.64000 26.33800
C  30.72600 49.90800 25.70300
C  30.52800 50.00800 24.32300
C  29.29000 50.74000 24.16700
C  31.85700 49.32800 26.56100
C  31.37700 49.44300 23.18300
O  31.16800 49.62600 21.99300
C  32.54100 48.59000 23.49100
N  26.70100 52.62700 23.79200
C  27.41300 51.91900 22.81000
C  26.99500 52.32800 21.39200
C  25.63300 52.99400 21.66600
C  25.61800 53.21900 23.19400
C  28.07400 53.28900 20.92900
C  24.51100 52.11100 21.10900
C  23.72600 51.12100 22.03900
N  25.22800 53.26800 26.10600
C  24.32000 53.88400 25.22800
C  23.15800 54.34800 25.86500
C  23.48300 54.14800 27.21800
C  24.74200 53.48000 27.33400
C  21.96500 55.03100 25.25800
C  23.01600 54.38500 28.53700
O  21.91800 54.81000 28.87900
C  24.10700 53.93700 29.48200
C  24.49700 54.99500 30.43000
O  25.33300 55.80900 30.21400
O  23.67200 54.99000 31.50300
C  23.90100 55.95500 32.57100
H  30.16200 50.47800 28.36000
H  28.92500 50.69300 22.02300
H  23.71200 54.26100 23.27300
H  27.30300 53.42600 30.56200
H  28.51800 50.83900 30.42900
H  29.57600 53.57200 30.93100
H  30.51700 52.74800 29.59500
H  30.32900 52.05200 31.19700
H  26.72400 50.67600 31.67100
H  25.29900 51.48100 30.85700
H  24.80100 52.11200 32.79800
H  25.69100 53.46200 32.18500
H  31.56900 48.35900 26.96700
H  31.99700 49.93800 27.45400
H  32.83000 49.27800 26.07300
H  33.23800 49.19800 24.06700
H  32.97900 48.19600 22.57400
H  32.20300 47.81900 24.18400
H  27.04600 51.50600 20.67800
H  25.54000 53.95300 21.15600
H  28.59100 53.74700 21.77300
H  27.67000 54.15300 20.40100
H  28.77700 52.73500 20.30800
H  24.89200 51.47500 20.31000
H  23.77000 52.76300 20.64700
H  24.21900 51.12700 23.01200
H  23.76900 50.15200 21.54300
H  22.71300 51.49900 22.17800
H  21.19600 54.33000 24.93300
H  22.32700 55.64600 24.43400
H  21.57300 55.71400 26.01100
H  23.78000 53.09500 30.09300
H  23.46800 56.93500 32.37400
H  24.96000 56.09700 32.78800
H  23.35100 55.47700 33.38200
Mg -0.87300 34.78200 27.44600
C  -2.55800 32.58800 29.80000
C  0.16700 36.55300 29.99400
C  0.01500 37.15600 25.23200
C  -2.42400 32.88900 25.07900
N  -1.10400 34.53800 29.67600
C  -1.79800 33.57200 30.37800
C  -1.64300 33.75800 31.87100
C  -0.86100 35.14400 31.98900
C  -0.54000 35.46400 30.45800
C  -1.58600 36.29200 32.78200
C  -1.01800 32.54000 32.62600
C  -1.66600 32.26600 33.98700
H  -0.75000 32.21500 35.17900
N  0.04100 36.59700 27.59400
C  0.46600 37.13700 28.73600
C  1.26200 38.31000 28.50400
C  1.25200 38.49100 27.10900
C  0.41300 37.45100 26.54600
C  1.90000 39.10800 29.59200
C  2.09200 39.50700 26.24300
O  1.98800 39.58400 25.02700
C  3.16200 40.34000 26.80500
N  -1.27000 35.12900 25.49700
C  -0.76100 36.12000 24.76900
C  -1.19100 36.02600 23.33000
C  -1.72100 34.54600 23.24900
C  -1.77500 34.11900 24.70000
C  -2.16000 37.13700 22.90600
C  -0.84500 33.53000 22.42400
C  -1.37900 33.37700 20.94900
N  -2.31900 33.16400 27.39200
C  -2.78300 32.48600 26.35400
C  -3.73900 31.48600 26.76800
C  -3.64900 31.42100 28.10900
C  -2.75900 32.45800 28.46200
C  -4.63500 30.69100 25.78700
C  -4.02500 30.72900 29.29600
O  -4.67300 29.66700 29.43400
C  -3.46900 31.53500 30.50000
C  -4.58100 32.01500 31.35300
O  -5.42400 32.79300 31.02200
O  -4.58300 31.35000 32.58700
C  -5.52400 31.65600 33.59100
H  0.56600 37.09700 30.85200
H  0.28500 37.83300 24.41800
H  -2.95300 32.30000 24.32700
H  -2.67700 33.89100 32.18800
H  0.02400 35.05900 32.62000
H  -1.61200 37.23800 32.24100
H  -1.11500 36.40700 33.75900
H  -2.62500 36.08600 33.03800
H  -0.00300 32.74500 32.96700
H  -1.00900 31.66100 31.98100
H  -1.93500 31.21100 34.03400
H  -2.56100 32.86000 34.17000
H  1.40200 39.03000 30.55900
H  1.98400 40.15900 29.31400
H  2.90800 38.70300 29.68200
H  3.70900 39.85500 27.61300
H  2.64800 41.24400 27.13300
H  3.88300 40.56600 26.01900
H  -0.32100 36.08200 22.67600
H  -2.69600 34.51000 22.76400
H  -2.19900 37.78700 23.77900
H  -3.11900 36.71300 22.60700
H  -1.79100 37.62500 22.00400
H  -0.72700 32.56900 22.92500
H  0.19300 33.86300 22.43100
H  -0.39900 33.42300 20.47400
H  -2.10500 34.15200 20.70100
H  -1.86900 32.41600 20.79400
H  -4.04300 29.81500 25.52300
H  -4.88400 31.24300 24.88200
H  -5.50400 30.33300 26.33900
H  -2.77400 30.83700 30.96800
H  -6.40200 32.14800 33.17200
H  -4.92600 32.26800 34.26600
H  -5.92100 30.76600 34.07700

