158

Mg 23.82200 -5.61900 44.96100
C  26.11900 -3.26200 43.28400
C  21.44700 -4.78400 42.55400
C  21.96600 -8.15200 45.96600
C  26.60700 -6.81200 46.67200
N  23.79700 -4.13900 43.13600
C  24.82700 -3.18800 42.76100
C  24.29400 -2.26800 41.66300
C  22.73500 -2.64400 41.67900
C  22.64400 -4.01800 42.36700
C  21.88900 -1.52300 42.27400
C  25.05200 -2.42200 40.34400
C  25.72500 -1.15600 39.76400
H  25.33000 -0.77400 38.35700
N  21.96800 -6.28400 44.47600
C  21.13800 -5.73500 43.51900
C  19.83500 -6.33300 43.64400
C  19.90400 -7.29900 44.68600
C  21.30800 -7.29200 45.07800
C  18.67100 -5.79600 42.83200
C  18.72600 -8.06100 45.24100
O  17.70700 -7.90100 44.60300
C  18.73900 -9.00300 46.36300
N  24.24300 -7.14700 46.27600
C  23.21700 -8.09700 46.49400
C  23.87100 -9.27200 47.25800
C  25.19200 -8.64100 47.82700
C  25.39900 -7.51700 46.84000
C  22.94900 -9.88000 48.34300
C  26.33100 -9.69000 47.82500
C  26.89900 -9.86100 49.26800
N  25.86200 -5.08900 45.10600
C  26.90100 -5.67700 45.85000
C  28.11800 -5.01000 45.62800
C  27.83100 -4.00100 44.65200
C  26.49400 -4.18700 44.24500
C  29.38300 -5.30700 46.38900
C  28.46200 -2.92500 43.98200
O  29.56600 -2.37300 44.06000
C  27.33600 -2.35600 43.08100
C  27.07800 -0.97000 43.50400
O  26.65700 -0.65500 44.57700
O  27.22900 -0.07500 42.42100
C  26.84200 1.27800 42.78100
H  20.62100 -4.47500 41.91000
H  21.35100 -9.03500 46.15300
H  27.51900 -7.11600 47.18900
H  24.50700 -1.26800 42.04000
H  22.27700 -2.92200 40.73000
H  22.32200 -0.52900 42.16600
H  21.62300 -1.69000 43.31800
H  20.99000 -1.61100 41.66500
H  24.35300 -2.71200 39.56000
H  25.71900 -3.28400 40.33300
H  26.80800 -1.15500 39.88500
H  25.38600 -0.24700 40.26100
H  18.99800 -5.85100 41.79400
H  18.39600 -4.75400 42.99400
H  17.75500 -6.38600 42.84400
H  19.28600 -8.53300 47.18000
H  19.22700 -9.93700 46.08300
H  17.71700 -9.18300 46.69600
H  24.09300 -10.10800 46.59500
H  24.94700 -8.10000 48.74200
H  22.88100 -10.84900 47.84800
H  21.93500 -9.49000 48.43800
H  23.47800 -9.94100 49.29400
H  27.26500 -9.56300 47.27800
H  25.89500 -10.64900 47.54400
H  27.98700 -9.83500 49.32000
H  26.56900 -10.83900 49.61900
H  26.41300 -9.08000 49.85300
H  29.98600 -5.98900 45.79000
H  29.07300 -5.76800 47.32700
H  29.96100 -4.39500 46.53600
H  27.77100 -2.29200 42.08400
H  25.80800 1.24500 43.12500
H  26.92300 1.90500 41.89300
H  27.40400 1.75400 43.58400
Mg 49.83500 45.59000 41.30400
C  46.64400 46.16400 40.07500
C  49.55600 42.28100 40.23700
C  53.18800 45.21200 41.73000
C  50.21400 49.03700 41.76100
N  48.31200 44.39700 40.13800
C  47.02100 44.84500 39.88400
C  46.23500 43.75300 39.11900
C  47.16900 42.42100 39.29100
C  48.40200 43.02500 40.03800
C  46.60400 41.19500 40.02700
C  46.09200 44.28500 37.67500
C  44.74800 44.25800 37.08000
H  44.52300 44.27400 35.56000
N  51.15400 43.95900 41.16600
C  50.80500 42.66000 40.78900
C  51.90200 41.74600 41.03700
C  53.02300 42.57500 41.49200
C  52.52400 44.01200 41.46000
C  51.79800 40.29400 40.83700
C  54.46100 42.14000 41.80200
O  54.78700 40.92500 41.73200
C  55.46400 43.11400 42.27000
N  51.53400 46.95900 41.63000
C  52.77400 46.52000 41.84400
C  53.76300 47.67200 42.05000
C  52.77200 48.82500 42.25500
C  51.38700 48.24900 41.83400
C  54.92900 47.56300 43.07900
C  53.15500 50.08400 41.38500
C  53.08900 51.34700 42.18700
N  48.68800 47.28800 41.04600
C  48.92200 48.58100 41.32200
C  47.73000 49.41800 41.00100
C  46.90800 48.51200 40.47800
C  47.47800 47.17500 40.61300
C  47.61600 50.85300 41.07400
C  45.61800 48.41700 39.82900
O  44.78300 49.24900 39.46800
C  45.32700 46.86800 39.61700
C  44.03100 46.57500 40.35900
O  43.05500 46.20600 39.75500
O  44.19100 46.59600 41.70200
C  43.19600 45.87400 42.42800
H  49.42300 41.22700 39.98500
H  54.27400 45.22800 41.83800
H  50.44700 50.06800 42.03200
H  45.27500 43.63600 39.62200
H  47.53600 42.03100 38.34200
H  45.51600 41.25600 40.03600
H  47.00200 41.11200 41.03900
H  46.86600 40.24800 39.55500
H  46.77300 43.62100 37.14200
H  46.33800 45.34600 37.63900
H  44.06700 45.02800 37.44100
H  44.21300 43.36000 37.39100
H  52.20400 39.95500 39.88400
H  50.78400 39.95100 41.04000
H  52.31900 39.83800 41.67900
H  54.99600 43.72300 43.04300
H  55.87900 43.64800 41.41500
H  56.32600 42.63800 42.73800
H  54.26300 47.85500 41.10000
H  52.72300 49.08400 43.31300
H  54.80300 46.62300 43.61600
H  54.98900 48.34700 43.83500
H  55.86100 47.65700 42.52100
H  52.40800 50.24700 40.60800
H  54.14000 49.97600 40.93200
H  54.06100 51.83700 42.12000
H  52.89800 51.18000 43.24600
H  52.37800 52.03500 41.73000
H  46.61200 51.11500 41.40800
H  47.73200 51.31900 40.09500
H  48.33400 51.27200 41.77900
H  45.12300 46.69900 38.56000
H  42.93000 45.00200 41.83000
H  42.27300 46.44100 42.55000
H  43.60100 45.68400 43.42200

