158

Mg 43.18200 41.97600 26.07700
C  42.32800 44.32900 28.42300
C  44.62700 40.01700 28.64600
C  44.29700 39.75800 23.77800
C  42.41100 44.20400 23.51400
N  43.43800 42.23900 28.30900
C  42.92000 43.20000 29.08300
C  43.20000 42.98100 30.61500
C  44.15600 41.71600 30.57300
C  44.05700 41.27900 29.09000
C  45.60600 42.10700 30.90900
C  41.96800 42.73100 31.54700
C  41.83700 43.57900 32.82100
H  40.75300 43.29800 33.86400
N  44.04600 40.11000 26.22700
C  44.57200 39.46900 27.37300
C  45.17900 38.21900 26.94800
C  45.00600 38.07500 25.52600
C  44.42200 39.35700 25.09900
C  45.72500 37.23400 27.97900
C  45.35700 36.90800 24.63800
O  44.97300 36.89100 23.46800
C  46.06000 35.72300 25.18800
N  43.35900 42.00000 23.92200
C  43.83300 40.96100 23.20700
C  43.67400 41.19800 21.69400
C  42.77900 42.55300 21.59000
C  42.93800 42.97500 23.08100
C  45.01200 41.30900 20.86700
C  41.17400 42.48500 21.20700
C  40.29300 41.55300 21.99500
N  42.66400 43.89200 25.93900
C  42.39100 44.69900 24.82900
C  41.85000 45.94700 25.30800
C  41.79500 45.82700 26.68600
C  42.32000 44.54500 27.04100
C  41.28800 47.06700 24.43700
C  41.40900 46.48600 27.88100
O  41.00900 47.64800 28.01700
C  41.81700 45.59300 29.06200
C  42.81300 46.42000 29.84800
O  44.03400 46.45200 29.63900
O  42.24500 47.05000 30.87000
C  43.07300 47.74500 31.90200
H  45.21300 39.61500 29.47500
H  44.61300 39.07900 22.98300
H  42.19600 44.94100 22.73700
H  43.81900 43.82200 30.92700
H  43.86100 40.90300 31.23700
H  45.54200 42.43300 31.94700
H  46.02600 42.86000 30.24100
H  46.20000 41.19500 30.84500
H  41.89300 41.67800 31.81900
H  41.24700 43.04000 30.79100
H  41.71400 44.62200 32.53000
H  42.79900 43.56900 33.33200
H  45.44000 37.52000 28.99200
H  46.78900 36.99800 27.97400
H  45.11600 36.33200 27.92400
H  46.49900 35.20200 24.33600
H  45.30400 35.10100 25.66700
H  46.80800 35.92000 25.95600
H  43.14000 40.34900 21.26700
H  43.28100 43.24000 20.91000
H  45.81900 40.94300 21.50100
H  45.20700 42.33800 20.56600
H  45.07800 40.75100 19.93300
H  41.10800 42.10100 20.18900
H  40.70900 43.46500 21.10000
H  39.52900 42.18000 22.45400
H  40.85900 41.00600 22.74900
H  39.77200 40.88300 21.31100
H  40.20900 47.10000 24.58900
H  41.48200 46.96500 23.36900
H  41.79000 47.97600 24.76800
H  40.95800 45.40100 29.70400
H  43.59400 47.09400 32.60500
H  42.36100 48.32000 32.49300
H  43.89000 48.35400 31.51500
Mg -11.97400 16.21700 42.20900
C  -8.97300 14.66700 41.65600
C  -10.75200 19.08400 40.72500
C  -15.18600 17.36700 41.76000
C  -13.32500 13.19300 43.20500
N  -10.12800 16.77500 41.17300
C  -9.00400 15.98400 41.10500
C  -7.82700 16.67100 40.32500
C  -8.36800 18.13000 40.25900
C  -9.83600 17.99000 40.74700
C  -7.63100 19.22900 41.15200
C  -7.60900 15.92300 38.97200
C  -6.15400 15.73800 38.66800
H  -5.60300 16.36600 37.35200
N  -12.79900 18.03100 41.56900
C  -12.04200 19.08500 41.11100
C  -12.87100 20.22400 40.98800
C  -14.26500 19.83700 41.19400
C  -14.16700 18.35300 41.54000
C  -12.34200 21.61600 40.76000
C  -15.50400 20.68300 41.12400
O  -15.42400 21.86300 40.91100
C  -16.86200 20.08700 41.28400
N  -13.92500 15.33300 42.19900
C  -15.08300 16.00700 42.07000
C  -16.35000 15.19400 42.44200
C  -15.78600 13.96100 43.12100
C  -14.25000 14.14900 42.85400
C  -17.44900 15.92600 43.28900
C  -16.50900 12.64700 42.69200
C  -17.29500 11.79700 43.73200
N  -11.27800 14.26300 42.49000
C  -11.92500 13.12700 42.88100
C  -10.92700 12.11700 43.10400
C  -9.76400 12.65600 42.61400
C  -10.01100 13.97300 42.23400
C  -11.05600 10.75200 43.76200
C  -8.41600 12.34800 42.30400
O  -7.82800 11.28200 42.34900
C  -7.84900 13.61500 41.66600
C  -6.77800 14.15400 42.44200
O  -6.85600 14.45500 43.62700
O  -5.65100 14.33300 41.73500
C  -4.53700 14.98900 42.48600
H  -10.25900 19.96500 40.30900
H  -16.19200 17.75000 41.94400
H  -13.76900 12.37500 43.77800
H  -7.01500 16.71500 41.05100
H  -8.37900 18.36000 39.19300
H  -8.37300 19.66500 41.82100
H  -7.10700 19.89200 40.46300
H  -6.91200 18.83400 41.87000
H  -8.07000 16.44300 38.13200
H  -8.09500 14.95200 39.07500
H  -5.85800 14.68900 38.66900
H  -5.48900 16.06200 39.47000
H  -13.18000 22.27800 40.54000
H  -11.62400 21.61500 39.94000
H  -11.94900 22.11700 41.64500
H  -17.63800 20.71000 40.84000
H  -16.92200 19.93500 42.36200
H  -16.98300 19.18800 40.68000
H  -16.79400 15.00300 41.46500
H  -15.86600 14.11300 44.19700
H  -18.15800 16.36300 42.58700
H  -16.96400 16.63900 43.95700
H  -17.96700 15.20700 43.92400
H  -15.86100 11.94100 42.17400
H  -17.23400 12.91400 41.92400
H  -17.56300 12.36900 44.62100
H  -16.70600 10.97700 44.14300
H  -18.25900 11.40000 43.41400
H  -11.39100 10.00800 43.04000
H  -11.86800 10.73500 44.48900
H  -10.12800 10.41700 44.22500
H  -7.48500 13.27900 40.69500
H  -4.49300 14.68700 43.53300
H  -4.80100 16.04600 42.46500
H  -3.61700 14.68400 41.98600

