158

Mg 30.24200 58.49300 39.46600
C  27.70000 56.20300 38.52300
C  32.44600 56.01000 39.18500
C  32.72700 60.81200 40.03400
C  27.86000 61.09600 39.29700
N  30.12600 56.38400 38.75500
C  28.98000 55.61300 38.43200
C  29.38200 54.19000 38.09600
C  30.86000 54.09100 38.50500
C  31.18600 55.58200 38.90400
C  31.07400 53.10000 39.71700
C  28.95100 53.75500 36.65800
C  29.45000 54.59800 35.48600
H  28.50000 55.17100 34.44000
N  32.28300 58.41500 39.50900
C  33.02200 57.24900 39.37300
C  34.39000 57.54800 39.58300
C  34.50600 58.91900 39.94000
C  33.13200 59.46800 39.85600
C  35.45800 56.49800 39.43300
C  35.87400 59.64800 40.33700
O  36.92100 59.07100 40.25000
C  35.91600 61.08800 40.88600
N  30.27800 60.59800 39.59800
C  31.43300 61.31100 39.90400
C  31.14100 62.86100 39.94700
C  29.57600 62.89600 39.64000
C  29.19000 61.41700 39.58700
C  31.68500 63.47400 41.26100
C  29.18800 63.63700 38.35000
C  27.98400 64.61200 38.36600
N  28.17400 58.64400 39.14000
C  27.35500 59.75900 39.11500
C  26.00700 59.29100 38.73900
C  26.08000 57.91200 38.50800
C  27.38500 57.56100 38.83200
C  24.88200 60.25000 38.64100
C  25.32500 56.79900 38.22800
O  24.16600 56.68200 37.90500
C  26.26100 55.58700 38.28600
C  25.84700 54.58000 39.29900
O  26.60000 53.91100 40.04400
O  24.47600 54.31500 39.32600
C  23.91600 53.40200 40.30900
H  33.20400 55.23000 39.08700
H  33.56200 61.50300 40.17000
H  27.09700 61.87600 39.33300
H  28.69600 53.59200 38.69600
H  31.48200 53.75700 37.67400
H  30.25800 52.49100 40.10600
H  31.53300 53.65000 40.53800
H  31.87600 52.38300 39.54000
H  27.87300 53.59700 36.65000
H  29.45200 52.79400 36.54100
H  30.27300 53.98000 35.12700
H  30.05300 55.44800 35.80400
H  36.38700 57.06000 39.33800
H  35.33000 56.08400 38.43300
H  35.55800 55.69400 40.16300
H  36.92500 61.39000 41.16700
H  35.33600 61.20100 41.80200
H  35.63300 61.84100 40.15000
H  31.78700 63.06400 39.09300
H  29.07900 63.41800 40.45800
H  32.52500 64.14000 41.06400
H  31.96800 62.63100 41.89100
H  30.94300 64.05900 41.80500
H  29.04500 62.95500 37.51200
H  30.01700 64.25700 38.00600
H  27.83300 65.08000 39.33900
H  27.05800 64.08100 38.14900
H  28.04100 65.48200 37.71200
H  24.63400 60.61500 39.63800
H  24.01100 59.64000 38.40300
H  25.05300 61.06900 37.94300
H  26.23000 54.95200 37.40100
H  24.32900 53.53900 41.30800
H  24.18500 52.40600 39.95500
H  22.84000 53.24100 40.24200
Mg 36.13500 49.37400 26.22100
C  36.07200 47.65300 29.45300
C  35.04200 52.11200 27.92700
C  36.11700 50.75100 23.48300
C  36.88600 46.27600 24.83000
N  35.56300 49.82000 28.50700
C  35.60000 48.99900 29.57700
C  35.21900 49.76200 30.88200
C  34.87300 51.22700 30.28100
C  35.11700 51.04900 28.82600
C  33.45000 51.76000 30.52400
C  36.29300 49.74200 31.99700
C  35.89300 49.34200 33.43400
H  35.79800 50.50400 34.49200
N  35.53000 51.16400 25.69200
C  35.19400 52.18700 26.53400
C  35.06500 53.39800 25.78600
C  35.32800 53.04000 24.39900
C  35.66600 51.61900 24.47400
C  34.84500 54.77400 26.35000
C  35.40700 53.95200 23.18900
O  35.75000 53.52400 22.07900
C  34.92000 55.26700 23.25800
N  36.43800 48.60100 24.43600
C  36.38700 49.35000 23.43000
C  36.45300 48.66100 22.08100
C  36.71600 47.21600 22.52000
C  36.69100 47.36700 24.03700
C  35.18100 48.90800 21.28300
C  37.97600 46.58700 21.91100
C  37.68900 46.26000 20.35300
N  36.44500 47.34600 26.97100
C  36.80500 46.18100 26.21200
C  36.98900 45.01400 27.14600
C  36.83700 45.59500 28.44000
C  36.50500 46.99600 28.27900
C  37.35200 43.58500 26.75800
C  36.86400 45.27500 29.78900
O  37.08200 44.19900 30.40600
C  36.40200 46.60500 30.53100
C  35.21700 46.34200 31.34200
O  34.12500 45.94000 30.90600
O  35.54800 46.32000 32.67400
C  34.48000 45.79000 33.54100
H  34.60400 53.02500 28.33600
H  35.95100 51.21600 22.50900
H  36.98300 45.27400 24.40600
H  34.28900 49.28700 31.19500
H  35.59500 51.98400 30.58800
H  32.91500 51.27900 31.34300
H  32.82600 51.53900 29.65800
H  33.49100 52.81500 30.79500
H  36.61100 50.77600 32.13100
H  37.13800 49.08700 31.78700
H  36.74200 48.77300 33.81200
H  34.97300 48.75700 33.42900
H  34.11700 55.29400 25.72800
H  35.81400 55.27300 26.32100
H  34.51800 54.77700 27.39000
H  34.99600 55.72800 22.27300
H  35.56100 55.80800 23.95500
H  33.85500 55.31800 23.48300
H  37.22200 49.07100 21.42600
H  35.81600 46.61800 22.37800
H  34.42200 49.23000 21.99600
H  34.88500 47.95100 20.85400
H  35.28800 49.65900 20.50000
H  38.24000 45.66000 22.42100
H  38.76500 47.33500 21.83900
H  38.49800 46.84500 19.91500
H  36.72900 46.69900 20.08300
H  37.76500 45.20600 20.08500
H  37.71300 43.54000 25.73100
H  36.46200 42.99800 26.98500
H  38.16600 43.19300 27.36700
H  37.26500 46.95300 31.09800
H  34.08600 46.62900 34.11500
H  35.04800 45.20200 34.26200
H  33.59300 45.26100 33.19300

