158

Mg 24.16500 -5.58600 45.21600
C  26.50300 -3.42400 43.51200
C  21.77400 -4.46400 43.12300
C  22.63700 -8.45000 45.77500
C  26.99900 -6.68500 47.03800
N  24.19700 -4.25400 43.48100
C  25.14900 -3.37500 43.00900
C  24.59000 -2.24700 42.03400
C  23.06300 -2.35100 42.33000
C  22.98000 -3.79800 43.01700
C  22.48000 -1.25100 43.19500
C  25.04200 -2.54400 40.60800
C  24.87600 -1.47300 39.50800
H  25.06900 -1.93800 38.05800
N  22.34700 -6.32100 44.64100
C  21.48200 -5.64100 43.84900
C  20.29500 -6.41200 43.71300
C  20.45000 -7.58400 44.53500
C  21.81900 -7.53000 45.04300
C  19.20100 -5.93400 42.78700
C  19.36900 -8.44000 44.91300
O  18.24100 -8.34500 44.44300
C  19.58700 -9.58100 45.80300
N  24.77600 -7.35000 46.26500
C  23.89300 -8.35800 46.43200
C  24.45600 -9.43300 47.37900
C  25.74200 -8.70600 47.97300
C  25.87400 -7.54100 47.05500
C  23.47500 -10.21800 48.41800
C  27.11600 -9.57200 48.03500
C  28.03800 -9.43200 49.27600
N  26.29900 -5.05000 45.38700
C  27.29200 -5.66900 46.14300
C  28.58100 -5.02400 45.85700
C  28.28300 -4.11300 44.79000
C  26.94200 -4.20300 44.53600
C  29.92800 -5.32900 46.50900
C  28.87500 -3.14300 43.86700
O  30.08100 -2.82000 43.77900
C  27.68000 -2.58200 43.03700
C  27.63600 -1.20300 43.54900
O  27.01800 -0.79700 44.47000
O  28.50600 -0.39700 42.86200
C  28.96300 0.88300 43.54400
H  20.93200 -4.02100 42.58600
H  22.14700 -9.36700 46.10900
H  27.94200 -6.96800 47.51200
H  24.95700 -1.26100 42.32200
H  22.41700 -2.37100 41.45200
H  21.76700 -1.74100 43.85800
H  21.91300 -0.53500 42.60000
H  23.24500 -0.71200 43.75500
H  24.46300 -3.41300 40.29200
H  26.06900 -2.87300 40.45000
H  25.77000 -0.89000 39.72900
H  23.96500 -0.88600 39.61700
H  19.55800 -6.19500 41.79100
H  18.97700 -4.88200 42.96400
H  18.23400 -6.37100 43.03700
H  18.65400 -10.09800 46.02700
H  19.97500 -9.29400 46.78000
H  20.33000 -10.24300 45.35900
H  24.82700 -10.23800 46.74400
H  25.59700 -8.35900 48.99700
H  22.44500 -9.86100 48.42300
H  23.90200 -9.99700 49.39600
H  23.59500 -11.28000 48.20600
H  27.68500 -9.34300 47.13400
H  26.92300 -10.64100 47.94100
H  29.03400 -9.10900 48.97300
H  28.14100 -10.37700 49.80900
H  27.65700 -8.80300 50.08000
H  29.99400 -5.79500 47.49100
H  30.40600 -4.34900 46.52200
H  30.58200 -5.96100 45.90800
H  27.91000 -2.64900 41.97400
H  29.43200 0.65400 44.50100
H  28.03900 1.38400 43.83100
H  29.54200 1.47100 42.83100
Mg 35.22700 49.01100 25.25800
C  35.58400 47.33200 28.36500
C  33.95300 51.69200 26.94900
C  34.89300 50.45700 22.27900
C  36.65700 46.19900 23.70200
N  34.71400 49.38000 27.43500
C  34.95000 48.58500 28.55600
C  34.52400 49.36400 29.79400
C  33.83000 50.66100 29.25500
C  34.17400 50.59700 27.79400
C  32.35900 50.99400 29.62400
C  35.74400 49.50400 30.85100
C  35.50000 49.82400 32.32900
H  34.05400 49.56500 32.89400
N  34.56400 50.79800 24.69300
C  34.13500 51.82500 25.52000
C  33.98700 53.04300 24.77500
C  34.09200 52.70200 23.42500
C  34.51700 51.24100 23.42300
C  33.83500 54.36600 25.39300
C  33.97700 53.58000 22.20000
O  34.38200 53.15700 21.12600
C  33.38200 54.98900 22.28100
N  35.79500 48.45000 23.21400
C  35.41300 49.17100 22.12500
C  35.98600 48.56500 20.79400
C  36.65200 47.27200 21.35800
C  36.36800 47.29600 22.83400
C  34.91500 48.30200 19.71200
C  38.17300 47.05900 20.93600
C  39.30100 47.63300 21.86700
N  35.91700 47.14100 25.83100
C  36.48700 46.09900 25.06400
C  36.68200 44.99400 25.94100
C  36.36400 45.45600 27.21900
C  35.95600 46.79100 27.13800
C  37.33000 43.66600 25.46800
C  36.31300 44.99300 28.59900
O  36.59200 43.91300 29.11900
C  35.86200 46.25500 29.43000
C  34.61000 45.88000 30.16200
O  33.49000 45.79700 29.64500
O  35.01000 45.45900 31.46200
C  33.81700 44.92500 32.14400
H  33.44700 52.43300 27.57100
H  34.84500 50.96900 21.31500
H  37.17500 45.35000 23.25100
H  33.73300 48.80000 30.28900
H  34.34500 51.52100 29.68400
H  31.86800 50.12700 30.06700
H  31.79000 51.10500 28.70100
H  32.30000 51.92300 30.19100
H  36.24300 50.41100 30.51000
H  36.39300 48.65200 30.64900
H  35.83200 50.82400 32.60500
H  36.10600 49.22800 33.01200
H  32.90900 54.89800 25.17400
H  34.68900 54.94800 25.04800
H  33.89800 54.21700 26.47100
H  33.93800 55.66500 22.93000
H  32.33000 54.87700 22.54300
H  33.41600 55.38200 21.26500
H  36.79300 49.23600 20.49800
H  36.19300 46.36100 20.97500
H  34.46400 47.32000 19.85700
H  35.43600 48.27200 18.75500
H  34.17500 49.10200 19.68900
H  38.38100 47.49300 19.95900
H  38.33300 45.98200 20.89200
H  39.80500 46.80700 22.37000
H  38.80600 48.30300 22.56900
H  39.96300 48.22200 21.23200
H  36.51800 43.22700 24.88800
H  37.43300 43.24100 26.46600
H  38.25300 43.84800 24.91700
H  36.66700 46.33600 30.16000
H  32.92900 45.55600 32.18500
H  34.09600 44.80800 33.19100
H  33.59000 43.91500 31.80200

