158

Mg 24.65400 -7.91000 48.04800
C  27.19600 -6.01500 46.98600
C  22.70100 -6.65300 45.47600
C  22.50600 -10.33200 48.62300
C  27.07600 -9.78900 50.13700
N  24.99400 -6.58100 46.31000
C  26.05800 -5.70400 46.29400
C  25.77600 -4.67500 45.16200
C  24.25600 -4.73000 44.96600
C  23.90900 -6.04600 45.66200
C  23.48000 -3.46000 45.28300
C  26.53300 -4.93500 43.79800
C  26.88300 -3.66600 42.99200
H  26.18900 -3.50200 41.64200
N  22.82200 -8.35600 47.29400
C  22.11700 -7.69600 46.21400
C  20.86100 -8.31300 46.04400
C  20.85900 -9.51600 46.80700
C  22.08600 -9.44000 47.63100
C  19.82100 -7.60600 45.15400
C  19.83000 -10.49100 46.71600
O  18.79500 -10.32600 46.08600
C  19.94200 -11.82800 47.46200
N  24.79300 -9.87800 49.30300
C  23.63500 -10.60700 49.39800
C  23.91600 -11.86400 50.20100
C  25.34500 -11.67600 50.81500
C  25.76500 -10.37100 50.07200
C  22.80700 -12.39500 51.18900
C  26.41000 -12.78900 50.56200
C  27.31600 -12.94400 51.77100
N  26.73200 -7.94000 48.54400
C  27.54900 -8.75600 49.29900
C  28.89300 -8.21100 49.30900
C  28.75600 -7.12000 48.41200
C  27.44800 -7.04300 47.92500
C  30.08200 -8.80600 50.06300
C  29.55000 -6.01400 47.81600
O  30.74100 -5.83800 47.83600
C  28.51200 -5.22200 46.84200
C  28.27700 -3.88900 47.40100
O  27.35200 -3.50400 48.16000
O  29.26100 -3.02200 46.82200
C  29.17000 -1.67300 47.13000
H  22.03000 -6.24400 44.71800
H  21.85400 -11.18800 48.80600
H  27.79800 -10.04200 50.91600
H  25.95400 -3.73500 45.68400
H  24.10200 -4.83100 43.89200
H  24.16400 -2.80400 45.82000
H  22.63600 -3.77800 45.89400
H  23.11900 -2.89500 44.42200
H  25.97300 -5.60900 43.14900
H  27.46900 -5.43000 44.05400
H  27.96900 -3.57300 42.96100
H  26.41000 -2.86900 43.56600
H  19.82500 -6.56000 45.46200
H  18.80500 -7.89500 45.42400
H  19.95000 -7.72000 44.07800
H  20.83600 -12.34200 47.10900
H  19.01100 -12.35600 47.25600
H  19.95800 -11.71800 48.54700
H  23.94300 -12.66400 49.46100
H  25.22400 -11.53400 51.88900
H  22.08400 -11.61200 51.41700
H  23.20800 -12.67900 52.16200
H  22.27200 -13.25700 50.78900
H  26.96800 -12.45700 49.68600
H  25.92200 -13.73700 50.33200
H  26.58800 -12.78400 52.56600
H  28.13400 -12.24700 51.95400
H  27.65700 -13.97900 51.76500
H  29.77600 -8.74100 51.10700
H  30.93800 -8.15100 49.90100
H  30.22600 -9.86100 49.82900
H  28.99100 -5.25500 45.86400
H  30.16600 -1.24600 47.24700
H  28.65400 -1.44300 48.06200
H  28.78700 -1.07700 46.30200
Mg 29.73300 58.61000 38.65600
C  26.74500 56.87700 38.04000
C  31.40900 55.98200 37.41500
C  32.41200 60.66700 38.37000
C  27.79300 61.47500 39.20100
N  29.09600 56.67800 37.87100
C  27.90800 56.15500 37.73800
C  27.94400 54.72000 37.23600
C  29.40500 54.34500 37.42900
C  30.01000 55.80200 37.65400
C  29.64800 53.42400 38.66200
C  27.56800 54.74500 35.72200
C  26.47300 53.87900 35.10400
H  25.68000 54.62900 34.06500
N  31.70800 58.31400 38.07900
C  32.19600 57.16800 37.55000
C  33.61900 57.32100 37.38500
C  33.96700 58.60200 37.76500
C  32.71000 59.28100 38.10000
C  34.50300 56.19900 36.73200
C  35.31700 59.25500 37.70000
O  36.20500 58.49800 37.36600
C  35.57300 60.63100 37.91900
N  30.09700 60.81800 38.82500
C  31.29400 61.36800 38.78900
C  31.20200 62.81800 38.85500
C  29.72200 63.14000 39.08600
C  29.16300 61.70100 39.09900
C  32.26200 63.50400 39.86200
C  29.08200 63.95900 37.87700
C  27.97800 64.99500 38.18500
N  27.72100 59.05500 38.83000
C  27.08100 60.21500 39.02900
C  25.63700 60.08200 39.01400
C  25.42600 58.71300 38.67000
C  26.78900 58.16800 38.55000
C  24.60200 61.14200 39.17900
C  24.47800 57.69800 38.33200
O  23.30000 57.65100 38.23600
C  25.28000 56.42900 37.95200
C  24.97100 55.17900 38.83500
O  25.43100 55.01900 39.92700
O  23.96500 54.45600 38.24700
C  23.22000 53.54900 39.08800
H  31.87000 55.11700 36.93400
H  33.29600 61.28600 38.20600
H  27.23400 62.41200 39.24800
H  27.24600 54.07800 37.77300
H  29.85200 53.86200 36.56000
H  28.69200 53.35600 39.18200
H  30.49200 53.64500 39.31400
H  29.83500 52.39300 38.36200
H  28.37800 54.45000 35.05500
H  27.45500 55.75500 35.32700
H  25.84100 53.76000 35.98400
H  26.87300 52.92400 34.76300
H  35.09700 56.66500 35.94500
H  33.92200 55.42000 36.23700
H  35.01200 55.71000 37.56300
H  36.65400 60.77400 37.89400
H  35.10200 60.78600 38.88900
H  34.94200 61.15200 37.19900
H  31.52000 63.03600 37.83500
H  29.54800 63.66500 40.02500
H  32.99900 64.17500 39.42100
H  32.86500 62.75000 40.36800
H  31.66500 64.04400 40.59700
H  28.61600 63.25600 37.18600
H  29.80200 64.47400 37.24100
H  28.29100 66.00600 37.92400
H  27.77600 65.13700 39.24600
H  27.09600 64.68500 37.62300
H  23.84500 60.74700 39.85600
H  24.24600 61.44400 38.19400
H  24.99400 61.99100 39.74000
H  25.15600 56.24400 36.88500
H  23.31700 52.51800 38.74800
H  22.19000 53.84100 39.29500
H  23.64200 53.54400 40.09300

