158

Mg 40.87100 9.75300 30.43900
C  42.98200 11.51800 32.90800
C  39.04800 8.61000 32.94300
C  39.12300 8.17100 28.17500
C  42.91600 11.08200 28.07800
N  41.05700 9.99900 32.61200
C  41.84900 10.85400 33.41100
C  41.46300 10.74100 34.88500
C  40.41700 9.64100 34.86200
C  40.14100 9.40900 33.38900
C  40.66200 8.34200 35.70800
C  40.88400 12.12300 35.39700
C  40.12300 12.16900 36.72800
H  40.68600 13.05400 37.92300
N  39.39900 8.54800 30.53700
C  38.71600 8.21900 31.68400
C  37.59700 7.32400 31.25700
C  37.79200 7.02600 29.92700
C  38.82400 7.88300 29.50900
C  36.51800 6.78100 32.22300
C  37.02600 6.02900 29.01000
O  37.41400 5.67600 27.87300
C  35.69500 5.38600 29.57100
N  41.02200 9.62300 28.36400
C  40.10000 9.01600 27.62200
C  40.15300 9.38800 26.15100
C  41.48200 10.20200 26.12600
C  41.86300 10.32800 27.57600
C  40.05500 8.26500 25.08200
C  41.29500 11.65000 25.52700
C  42.37200 12.08300 24.53700
N  42.60600 11.01200 30.39900
C  43.29000 11.39900 29.34600
C  44.47900 12.17000 29.73100
C  44.39500 12.28000 31.20000
C  43.20100 11.54200 31.49900
C  45.60200 12.58600 28.86700
C  45.05900 12.81300 32.40100
O  46.08800 13.41200 32.53600
C  44.06600 12.43400 33.59300
C  44.69100 11.70500 34.70100
O  45.34300 10.62800 34.67600
O  44.34300 12.33400 35.89000
C  44.70000 11.56300 37.08500
H  38.38100 8.29400 33.74900
H  38.51500 7.63700 27.44100
H  43.36600 11.52800 27.18900
H  42.28000 10.49300 35.56200
H  39.45800 10.07600 35.14200
H  41.65700 8.30100 36.15100
H  40.53300 7.42100 35.13900
H  39.89500 8.21900 36.47300
H  40.24900 12.46200 34.57900
H  41.75300 12.76100 35.55700
H  39.93700 11.19100 37.17200
H  39.21700 12.73400 36.50800
H  36.43300 5.69600 32.18000
H  35.48200 6.97100 31.94100
H  36.74300 7.01100 33.26500
H  34.83600 5.99200 29.86000
H  35.94400 4.63200 30.31700
H  35.33400 4.82300 28.71000
H  39.41300 10.18000 26.03300
H  42.25400 9.68000 25.56200
H  39.08600 8.34500 24.58900
H  40.16800 7.26700 25.50600
H  40.77600 8.41100 24.27800
H  41.35100 12.31400 26.39000
H  40.26400 11.79300 25.20200
H  42.67600 13.07800 24.86100
H  41.98600 12.27600 23.53600
H  43.23800 11.42500 24.47000
H  46.44500 11.92000 29.05300
H  45.88400 13.59500 29.16600
H  45.36600 12.41400 27.81700
H  43.52100 13.32700 33.89900
H  43.86300 11.89200 37.70100
H  45.62800 11.97800 37.47800
H  44.58800 10.49000 37.24400
Mg -11.38100 37.69700 42.31700
C  -9.15700 35.05000 41.45000
C  -9.27700 39.92700 40.86400
C  -13.98000 39.99500 42.05700
C  -13.71300 35.14600 43.02500
N  -9.62500 37.43500 41.21000
C  -8.87000 36.29500 40.92800
C  -7.68000 36.53600 40.06600
C  -7.53000 38.09600 40.18400
C  -8.89300 38.55100 40.81600
C  -6.25000 38.52600 40.96500
C  -7.93900 36.08500 38.59900
C  -6.85600 35.17400 38.02400
H  -6.13300 35.68500 36.72500
N  -11.47500 39.86400 41.90100
C  -10.51900 40.54800 41.24400
C  -10.92700 41.90800 41.27800
C  -12.34200 41.87600 41.38500
C  -12.69800 40.55500 41.81500
C  -10.00700 43.02900 40.94500
C  -13.25700 43.02400 41.09600
O  -12.77000 44.14200 40.93200
C  -14.66000 42.93700 41.07300
N  -13.45600 37.60600 42.59600
C  -14.29600 38.72600 42.58700
C  -15.66600 38.33500 43.15600
C  -15.64700 36.80100 43.41600
C  -14.17600 36.48000 43.01000
C  -16.28400 39.14500 44.33300
C  -16.69600 35.95600 42.61200
C  -17.35200 34.82100 43.37400
N  -11.43600 35.50600 42.33300
C  -12.41800 34.68400 42.67400
C  -11.95100 33.34000 42.75900
C  -10.62500 33.40800 42.28400
C  -10.38900 34.76400 41.99600
C  -12.70100 32.16600 43.39600
C  -9.39100 32.69200 41.97100
O  -9.16300 31.49000 42.11300
C  -8.40900 33.72800 41.38900
C  -7.24300 33.77200 42.32600
O  -6.07500 33.80300 42.02700
O  -7.69800 33.90000 43.62500
C  -6.74200 34.09600 44.69800
H  -8.53800 40.65100 40.51600
H  -14.92600 40.53100 41.95700
H  -14.43900 34.36500 43.26100
H  -6.81200 36.02400 40.48100
H  -7.42600 38.56000 39.20300
H  -5.40300 37.87000 40.76000
H  -6.38300 38.55300 42.04600
H  -5.88600 39.50100 40.64200
H  -8.01700 36.98000 37.98200
H  -8.94000 35.65500 38.60200
H  -7.23400 34.23000 37.63100
H  -5.98200 35.05800 38.66500
H  -10.33100 43.61400 40.08400
H  -8.98300 42.70000 40.76800
H  -9.82200 43.76000 41.73200
H  -15.07300 43.89200 40.74900
H  -14.84400 42.80000 42.13800
H  -15.01000 42.06700 40.51700
H  -16.39200 38.55200 42.37200
H  -15.63400 36.65300 44.49600
H  -16.97200 38.50800 44.88900
H  -16.96500 39.88600 43.91600
H  -15.55400 39.57700 45.01700
H  -16.17700 35.58800 41.72700
H  -17.52800 36.60400 42.33500
H  -18.43800 34.90800 43.39200
H  -16.99700 34.86700 44.40400
H  -17.08000 33.87000 42.91600
H  -12.95300 31.37700 42.68700
H  -13.59700 32.54400 43.88700
H  -12.02800 31.63800 44.07200
H  -7.96900 33.45800 40.42900
H  -7.01200 34.89200 45.39300
H  -5.77400 34.40600 44.30500
H  -6.72000 33.12000 45.18200

