158

Mg 0.77700 -2.51000 44.60700
C  4.04000 -1.59400 43.81600
C  -0.33100 0.30100 42.97600
C  -2.43000 -3.62800 44.97300
C  2.00600 -5.55800 45.95100
N  1.77100 -0.88000 43.49000
C  3.10600 -0.76000 43.25100
C  3.38000 0.44000 42.28200
C  2.02200 1.20900 42.26500
C  1.09500 0.17800 42.97600
C  1.93700 2.60500 42.92800
C  3.98200 0.02200 40.91900
C  5.31500 0.61600 40.44900
H  5.17700 1.56300 39.17200
N  -1.14400 -1.87400 43.99900
C  -1.34800 -0.62500 43.45200
C  -2.73500 -0.35500 43.28400
C  -3.41300 -1.47400 43.89100
C  -2.31700 -2.40300 44.32900
C  -3.27700 0.89800 42.68400
C  -4.92700 -1.73100 43.99400
O  -5.77500 -0.92900 43.53400
C  -5.46300 -2.93500 44.68600
N  -0.12800 -4.33800 45.33800
C  -1.45700 -4.57500 45.34800
C  -1.75600 -5.98300 46.05600
C  -0.34300 -6.52800 46.25900
C  0.58400 -5.41400 45.77500
C  -2.68400 -5.90300 47.27900
C  -0.07500 -7.89600 45.57500
C  0.68900 -8.94200 46.39300
N  2.64300 -3.36200 45.01700
C  2.98900 -4.62800 45.59000
C  4.48300 -4.73200 45.56800
C  4.89600 -3.51800 44.98800
C  3.75600 -2.76000 44.57600
C  5.27100 -5.93500 46.01800
C  6.05100 -2.77600 44.59800
O  7.27300 -3.01600 44.77300
C  5.53500 -1.53900 43.76400
C  6.10200 -0.23700 44.21200
O  6.92100 0.36600 43.52100
O  5.57900 0.24600 45.39600
C  6.07700 1.46500 45.96600
H  -0.74000 1.21300 42.53700
H  -3.35000 -4.13600 45.26800
H  2.27400 -6.58700 46.19700
H  4.11100 1.11700 42.72400
H  1.74800 1.35200 41.22000
H  1.59000 3.37700 42.24000
H  2.94900 2.80900 43.27900
H  1.16300 2.47500 43.68400
H  3.26400 0.23800 40.12800
H  4.08200 -1.06300 40.92400
H  5.99300 -0.15400 40.07800
H  5.76800 1.20500 41.24600
H  -4.34000 0.83400 42.45000
H  -2.73800 1.00800 41.74300
H  -3.03800 1.67300 43.41200
H  -5.00200 -2.85500 45.67000
H  -5.31000 -3.90400 44.21000
H  -6.54700 -2.83500 44.73800
H  -2.28100 -6.54700 45.28500
H  -0.17600 -6.75600 47.31100
H  -2.83700 -4.85800 47.55200
H  -2.18200 -6.24500 48.18400
H  -3.59300 -6.50000 47.20500
H  0.60700 -7.72400 44.74200
H  -0.99000 -8.45400 45.37500
H  1.69100 -9.04900 45.97700
H  0.25400 -9.94100 46.39400
H  0.68600 -8.75400 47.46700
H  4.83500 -6.31900 46.94100
H  6.27200 -5.55600 46.22500
H  5.29300 -6.72200 45.26500
H  5.85400 -1.59800 42.72400
H  6.91900 1.91000 45.43500
H  6.40800 1.16900 46.96200
H  5.22700 2.14700 46.00800
Mg 26.99400 50.28700 26.64800
C  24.90000 51.35300 29.28000
C  29.48000 49.86500 28.95000
C  28.97000 49.86600 24.03800
C  24.39300 51.41500 24.36000
N  27.12400 50.61600 28.92700
C  26.13500 50.92900 29.78400
C  26.53800 50.81800 31.22700
C  28.01900 50.27500 31.04000
C  28.26800 50.27700 29.53400
C  29.11900 51.07700 31.78500
C  25.65600 49.97900 32.11600
C  24.96100 50.57500 33.37700
H  24.93700 49.70400 34.70900
N  28.93200 49.88000 26.52800
C  29.82500 49.66000 27.59400
C  31.11800 49.41400 26.99700
C  30.98800 49.50400 25.53200
C  29.54500 49.78500 25.34200
C  32.30000 49.23000 27.89300
C  32.09500 49.35700 24.53800
O  31.88600 49.64600 23.36300
C  33.43500 48.94100 25.03400
N  26.63900 50.46900 24.45000
C  27.63800 50.22900 23.63300
C  27.18700 50.29300 22.18400
C  25.70300 50.66100 22.29100
C  25.52600 50.88100 23.79200
C  28.04900 51.10500 21.19800
C  24.66600 49.65100 21.71700
C  23.81400 49.97700 20.44300
N  25.02100 51.15900 26.70900
C  24.16300 51.57600 25.71500
C  22.98800 52.17600 26.27700
C  23.18500 52.01500 27.73100
C  24.47700 51.47700 27.94600
C  21.94000 53.04100 25.57500
C  22.63300 52.37200 29.02000
O  21.59700 53.01600 29.28500
C  23.65300 51.85800 30.12800
C  23.98500 53.04600 30.93200
O  24.78800 53.90100 30.60900
O  23.15000 53.14500 32.06800
C  23.35600 54.20200 32.96600
H  30.19000 49.52800 29.70900
H  29.59200 49.81400 23.14100
H  23.52900 51.66400 23.74100
H  26.57600 51.84900 31.57900
H  28.08100 49.25700 31.42400
H  29.97800 50.44100 31.99900
H  28.66000 51.43600 32.70600
H  29.33700 51.95300 31.17400
H  26.17900 49.10200 32.49900
H  24.86600 49.54200 31.50400
H  23.89500 50.64800 33.16500
H  25.28100 51.59600 33.58700
H  32.97300 50.02900 27.58100
H  32.73100 48.24200 27.73000
H  32.18300 49.37100 28.96700
H  33.99200 48.59100 24.16500
H  33.44500 48.11200 25.74200
H  33.81800 49.79800 25.58900
H  27.24000 49.34300 21.65100
H  25.49700 51.61700 21.81000
H  27.40600 51.77200 20.62400
H  28.46200 50.43600 20.44300
H  28.92700 51.62400 21.58200
H  23.83900 49.41100 22.38500
H  25.15500 48.74100 21.36700
H  24.14400 50.93200 20.03400
H  22.76800 50.12900 20.70900
H  23.72900 49.26800 19.62000
H  22.50200 53.91100 25.23400
H  21.11800 53.33600 26.22700
H  21.53500 52.44700 24.75500
H  23.22400 51.06300 30.73800
H  24.09800 53.86300 33.69000
H  22.42800 54.41900 33.49500
H  23.76900 55.11200 32.53100

