158

Mg 0.82000 7.42400 25.21200
C  1.77400 9.12500 28.13900
C  0.85400 4.34300 27.01800
C  0.25500 5.88000 22.37100
C  1.41200 10.39200 23.42600
N  1.22300 6.84300 27.27700
C  1.55600 7.70700 28.32300
C  1.50300 6.87200 29.67500
C  1.43100 5.42600 29.25000
C  1.11700 5.54800 27.74700
C  2.61600 4.51400 29.59300
C  0.30600 7.42100 30.51400
C  0.57000 7.49300 32.03100
H  1.72300 6.62800 32.61400
N  0.63300 5.33600 24.75800
C  0.61900 4.26300 25.61300
C  0.33800 3.06600 24.77800
C  0.22200 3.50100 23.43700
C  0.26500 4.98200 23.46500
C  0.11100 1.72900 25.38000
C  0.10400 2.63300 22.14700
O  -0.05200 3.10300 21.04000
C  0.16600 1.13800 22.25100
N  0.86500 8.05800 23.16300
C  0.54500 7.17800 22.23000
C  0.34900 7.83200 20.86300
C  0.68500 9.34600 21.11800
C  0.95700 9.27200 22.63000
C  1.11500 7.19700 19.65800
C  -0.57000 10.31100 20.88700
C  -0.24400 11.31300 19.79000
N  1.52200 9.37300 25.58700
C  1.58800 10.47000 24.79200
C  1.75400 11.65900 25.54900
C  1.87300 11.19400 26.86600
C  1.71600 9.80300 26.86300
C  1.74400 13.09600 25.13000
C  2.05900 11.59600 28.20400
O  2.36900 12.63400 28.68100
C  1.85100 10.33000 29.11000
C  2.97800 10.07800 29.94400
O  4.03100 9.56800 29.66300
O  2.75200 10.63200 31.21300
C  3.89600 10.85400 32.07600
H  0.67600 3.45600 27.62900
H  -0.16700 5.44700 21.46200
H  1.54000 11.24500 22.75600
H  2.38700 7.06600 30.28200
H  0.63600 4.84600 29.71800
H  2.32800 3.83800 30.39800
H  3.52800 4.95400 29.99800
H  2.94800 3.96600 28.71100
H  -0.53400 6.74100 30.37300
H  -0.03700 8.36200 30.08300
H  -0.32900 7.29400 32.61400
H  0.81200 8.54800 32.15900
H  1.04000 1.16500 25.47300
H  -0.61500 1.14600 24.81400
H  -0.31900 1.75300 26.38200
H  0.42800 0.81000 21.24500
H  -0.82000 0.78200 22.55200
H  0.86000 0.76100 23.00200
H  -0.70600 7.64100 20.66600
H  1.64500 9.76300 20.81400
H  1.92900 7.86000 19.36300
H  0.38300 7.05100 18.86400
H  1.54400 6.21400 19.85500
H  -0.89200 10.91100 21.73800
H  -1.36700 9.61900 20.61500
H  -0.67000 10.88600 18.88300
H  0.81800 11.45200 19.59000
H  -0.69900 12.28200 19.99700
H  2.60300 13.31700 24.49600
H  1.76100 13.72300 26.02200
H  0.96900 13.51800 24.49200
H  0.92800 10.35800 29.68900
H  4.30300 11.79500 31.70500
H  4.74200 10.17200 31.99700
H  3.58400 10.90000 33.11900
Mg 46.24000 24.81400 28.61800
C  47.10400 27.24000 31.14200
C  45.63300 22.58200 31.11100
C  45.52800 22.54600 26.32000
C  47.64100 26.87800 26.32000
N  46.15900 25.01300 30.85700
C  46.58200 26.06100 31.60100
C  46.33300 25.83000 33.07200
C  46.00200 24.26700 33.09500
C  45.97100 23.88000 31.61400
C  46.99000 23.45700 34.01800
C  45.16100 26.77600 33.56500
C  45.30600 27.49400 34.87700
H  45.73800 26.70600 36.15300
N  45.63900 22.87800 28.70700
C  45.41400 22.09800 29.80200
C  44.98400 20.87000 29.44800
C  44.67800 20.88300 28.11900
C  45.25200 22.16000 27.61000
C  44.95600 19.68900 30.46500
C  43.97900 19.87200 27.36900
O  43.55600 20.15500 26.25000
C  43.66500 18.53600 27.94200
N  46.66700 24.64900 26.60300
C  46.29800 23.63100 25.79000
C  46.54200 23.86000 24.36000
C  47.13400 25.32100 24.37200
C  47.21600 25.63500 25.88200
C  47.40100 22.73700 23.60800
C  46.25900 26.29900 23.49400
C  45.20900 27.20700 24.14100
N  47.07000 26.70600 28.63700
C  47.65000 27.39100 27.60900
C  48.07100 28.56700 28.13900
C  47.93900 28.55600 29.50600
C  47.27700 27.41500 29.77200
C  48.70100 29.71100 27.34100
C  48.25800 29.25400 30.74300
O  48.80500 30.32500 30.95800
C  47.59000 28.51000 31.85200
C  48.55700 28.30900 32.89700
O  49.52300 27.57000 32.87100
O  48.22800 29.22300 33.87700
C  48.95700 28.98200 35.17900
H  45.36500 21.87800 31.90100
H  45.08700 21.77000 25.69100
H  48.11000 27.50600 25.56000
H  47.32800 26.12500 33.40500
H  45.00200 24.01400 33.44800
H  47.62100 24.14500 34.58000
H  47.63200 22.90000 33.33500
H  46.47400 22.66500 34.56100
H  44.33900 26.12900 33.87200
H  44.90600 27.51100 32.80200
H  44.38600 28.05200 35.05000
H  46.19200 28.05400 34.58000
H  45.52500 18.87400 30.01700
H  43.93400 19.38700 30.69600
H  45.40800 19.81500 31.44900
H  43.22300 17.89100 27.18200
H  42.97200 18.66500 28.77400
H  44.52000 17.92200 28.22300
H  45.59200 23.89200 23.82600
H  48.19200 25.25300 24.11900
H  48.44900 22.99700 23.45900
H  47.03500 22.79400 22.58300
H  47.35900 21.73200 24.02700
H  45.89100 25.77000 22.61500
H  47.02700 26.99800 23.16500
H  45.16000 27.05800 25.21900
H  44.16900 27.11000 23.82800
H  45.52400 28.24000 23.99000
H  48.20200 29.65300 26.37400
H  49.76900 29.53500 27.21200
H  48.38200 30.67500 27.73700
H  46.73400 29.01900 32.29400
H  48.94500 29.89900 35.76700
H  50.02000 28.74200 35.16100
H  48.32500 28.27600 35.71700

