158

Mg 27.49400 49.94800 26.95900
C  25.41400 50.69200 29.75400
C  29.91700 49.15100 29.36300
C  29.32800 49.01700 24.53200
C  24.87100 50.94000 24.92600
N  27.60800 49.91000 29.35900
C  26.61300 50.19100 30.24900
C  27.02300 50.01900 31.71900
C  28.58500 49.74500 31.57000
C  28.73300 49.58100 29.99200
C  29.47600 50.84600 32.16100
C  26.20900 48.92600 32.40100
C  25.48400 49.38600 33.71600
H  25.73200 48.44100 34.94000
N  29.40600 49.21600 26.95200
C  30.24900 48.92100 27.98300
C  31.45200 48.36300 27.44500
C  31.35000 48.47000 26.06100
C  30.02300 48.88100 25.79300
C  32.56100 47.75900 28.36600
C  32.47600 48.21500 25.12300
O  32.40500 48.43800 23.91300
C  33.75600 47.79700 25.62400
N  27.19500 50.11300 25.01700
C  28.10800 49.56500 24.18100
C  27.53900 49.29500 22.72300
C  26.02600 49.78800 22.90700
C  25.98700 50.31400 24.39900
C  28.38000 49.98600 21.61100
C  24.92700 48.63100 22.65300
C  24.31200 48.64600 21.27900
N  25.59400 50.84700 27.21100
C  24.61400 51.08800 26.28100
C  23.49500 51.66300 26.94100
C  23.73800 51.44400 28.28100
C  25.01300 50.93300 28.38500
C  22.17900 52.16000 26.36700
C  23.10800 51.43700 29.61800
O  22.02100 51.80700 29.96600
C  24.23700 51.02300 30.66300
C  24.43800 52.20100 31.48400
O  25.22300 53.13300 31.27900
O  23.76000 52.08000 32.68300
C  23.84200 53.10100 33.79700
H  30.74200 49.00700 30.06300
H  29.90900 48.58700 23.71400
H  24.04600 51.15100 24.24200
H  26.89000 50.90100 32.34500
H  28.77900 48.73800 31.93900
H  28.90200 51.51600 32.80200
H  29.89900 51.40000 31.32300
H  30.35100 50.50900 32.71600
H  26.77700 48.04600 32.70200
H  25.35500 48.63900 31.78700
H  24.42100 49.25900 33.51300
H  25.68400 50.43100 33.95500
H  32.59000 46.67100 28.30700
H  32.30400 47.72700 29.42400
H  33.57100 48.15500 28.26300
H  34.11000 48.63800 26.22000
H  34.52900 47.66300 24.86700
H  33.59400 46.84700 26.13200
H  27.54200 48.21900 22.54600
H  25.83900 50.64400 22.25800
H  28.43400 49.30000 20.76500
H  29.41400 50.05500 21.94800
H  28.01600 50.98300 21.36000
H  24.14200 48.73100 23.40200
H  25.50400 47.71800 22.79800
H  23.23400 48.74000 21.40900
H  24.58200 47.74500 20.72900
H  24.52200 49.57200 20.74400
H  21.54400 51.42700 25.86900
H  22.33400 53.04200 25.74400
H  21.70000 52.32400 27.33200
H  23.83400 50.13700 31.15400
H  23.66200 54.11200 33.43100
H  24.79700 53.10600 34.32300
H  23.04900 53.03400 34.54200
Mg -11.82700 38.11300 41.34100
C  -9.55400 35.45800 40.96500
C  -9.48800 40.17900 39.86300
C  -14.27400 40.32600 40.89500
C  -14.15100 35.81000 42.66200
N  -9.83800 37.75300 40.35200
C  -9.05400 36.64800 40.33100
C  -7.69400 36.85700 39.66200
C  -7.64900 38.38500 39.77100
C  -9.04600 38.84200 39.96200
C  -6.57900 38.94100 40.75800
C  -7.61900 36.20100 38.21500
C  -6.24800 35.53700 37.88200
H  -5.42000 36.16000 36.83100
N  -11.88700 40.02100 40.38200
C  -10.80900 40.75700 40.04700
C  -11.21100 42.11000 39.79400
C  -12.63000 42.19900 40.03800
C  -12.98500 40.77000 40.45200
C  -10.23700 43.25100 39.45500
C  -13.47900 43.46800 39.95400
O  -13.00600 44.53400 39.58600
C  -14.99700 43.42100 40.05600
N  -13.92500 38.03000 41.73400
C  -14.72100 39.10100 41.44100
C  -16.20400 38.87200 41.77600
C  -16.10400 37.37500 42.32500
C  -14.65200 37.01600 42.22400
C  -16.85000 39.87000 42.74800
C  -16.94900 36.40900 41.48200
C  -18.44500 36.50700 41.65200
N  -11.85100 36.05200 41.87900
C  -12.80800 35.26600 42.54700
C  -12.21000 33.95000 42.82000
C  -10.95900 34.00700 42.16700
C  -10.82000 35.21700 41.54000
C  -12.95700 32.91300 43.60000
C  -9.75400 33.26900 41.92400
O  -9.42300 32.13300 42.31500
C  -8.81100 34.16700 41.05900
C  -7.58500 34.19300 41.83100
O  -6.74900 33.30300 41.79500
O  -7.41900 35.36300 42.49100
C  -6.31000 35.22000 43.38100
H  -8.70200 40.88600 39.59100
H  -15.04600 41.07100 40.69000
H  -14.86200 35.12800 43.13400
H  -6.82600 36.52300 40.23000
H  -7.29000 38.85200 38.85400
H  -5.99600 38.13800 41.21000
H  -7.16800 39.38500 41.56100
H  -5.97000 39.69900 40.26600
H  -7.84800 36.99800 37.50800
H  -8.37400 35.41700 38.15700
H  -6.47600 34.50400 37.61700
H  -5.62800 35.44300 38.77400
H  -10.42900 43.61100 38.44400
H  -9.19400 43.04100 39.21800
H  -10.28600 44.04100 40.20400
H  -15.51000 44.37200 39.91200
H  -15.22100 42.98100 41.02800
H  -15.31100 42.66800 39.33400
H  -16.83700 38.85300 40.88800
H  -16.28500 37.32400 43.39800
H  -17.28500 39.34200 43.59700
H  -17.56400 40.48200 42.19700
H  -16.12000 40.57400 43.14800
H  -16.60600 35.37600 41.54700
H  -16.75900 36.71800 40.45400
H  -18.73600 35.46700 41.80000
H  -18.97100 36.92900 40.79600
H  -18.66900 37.09900 42.54000
H  -12.42400 32.56400 44.48500
H  -13.14100 32.02700 42.99300
H  -13.87000 33.36500 43.98900
H  -8.73500 33.65200 40.10100
H  -5.42100 35.20200 42.75100
H  -6.33900 34.29900 43.96300
H  -6.29200 36.07300 44.06000

