158

Mg 44.31200 3.79700 48.26000
C  42.07200 6.43000 47.27300
C  41.84400 1.47400 47.53900
C  46.64000 1.42900 48.12600
C  46.93100 6.27700 48.03200
N  42.26200 3.98600 47.28000
C  41.45800 5.10200 47.17200
C  40.00700 4.76300 46.87500
C  40.00800 3.26000 47.19800
C  41.48200 2.85700 47.35400
C  39.04900 2.71800 48.36100
C  39.47900 5.18200 45.43600
C  38.01300 5.66700 45.34900
H  37.32900 5.34400 43.94900
N  44.23700 1.69800 48.08900
C  43.11000 0.95100 47.88400
C  43.46400 -0.46400 48.14000
C  44.85000 -0.49500 48.37300
C  45.33200 0.91200 48.20600
C  42.49900 -1.62300 47.94800
C  45.63500 -1.67900 48.76400
O  45.14100 -2.80600 48.87300
C  47.15000 -1.53900 49.08500
N  46.51000 3.88300 48.05500
C  47.18300 2.73000 48.15800
C  48.71000 2.99400 48.07600
C  48.77000 4.43300 47.53700
C  47.36000 4.93600 47.84300
C  49.47400 2.69300 49.42900
C  49.09100 4.57200 46.05200
C  50.44300 5.22400 45.66200
N  44.48000 5.93900 47.88600
C  45.60800 6.75900 47.84700
C  45.10400 8.10100 47.64800
C  43.75700 7.97000 47.46800
C  43.41000 6.67100 47.64500
C  45.95800 9.32000 47.61200
C  42.54500 8.78700 47.30200
O  42.42500 10.01300 47.17600
C  41.39500 7.74300 47.10100
C  40.28300 7.95500 48.06800
O  40.21600 7.50700 49.22200
O  39.37200 8.87300 47.52600
C  38.06900 9.10200 48.34200
H  40.96300 0.82900 47.53300
H  47.48000 0.73300 48.08100
H  47.60000 7.10300 47.78000
H  39.27400 5.20000 47.55300
H  39.70000 2.64400 46.35200
H  38.63100 3.55400 48.92200
H  39.63000 2.12700 49.06800
H  38.30300 2.16000 47.79500
H  39.60700 4.31800 44.78300
H  40.15300 5.93900 45.03600
H  38.19600 6.73700 45.44800
H  37.40800 5.23500 46.14600
H  41.53000 -1.40400 47.50000
H  42.34100 -2.18500 48.86800
H  42.86800 -2.34500 47.22000
H  47.51700 -0.76100 49.75400
H  47.59200 -1.39000 48.10000
H  47.52900 -2.44200 49.56400
H  49.18300 2.39000 47.30200
H  49.41100 5.04100 48.17700
H  50.19100 3.44000 49.76900
H  50.13000 1.86600 49.15900
H  48.82100 2.24200 50.17600
H  48.35800 5.15100 45.49000
H  49.23200 3.59500 45.59000
H  50.86900 5.89400 46.40800
H  50.21600 5.79300 44.76000
H  51.14500 4.45100 45.35100
H  45.46700 10.04000 48.26700
H  45.90300 9.69900 46.59200
H  47.03200 9.24400 47.78500
H  40.80800 7.85100 46.18800
H  37.98500 8.32300 49.10000
H  37.24200 9.14300 47.63200
H  38.30600 10.02800 48.86500
Mg -11.84900 39.08200 42.15900
C  -9.66200 36.39900 41.54300
C  -9.53100 41.24900 40.90600
C  -14.14600 41.59500 42.43000
C  -14.37800 36.79100 43.12100
N  -9.84700 38.72200 41.07000
C  -9.13000 37.59000 41.04300
C  -7.91600 37.80500 40.17700
C  -7.85000 39.42500 40.23600
C  -9.19100 39.85100 40.78000
C  -6.63900 40.15000 40.92700
C  -7.96800 37.14700 38.72500
C  -6.99000 35.93600 38.54400
H  -6.04600 36.00300 37.41500
N  -11.83200 41.16400 41.81000
C  -10.80800 41.83000 41.23900
C  -11.18500 43.25800 41.19000
C  -12.48800 43.48900 41.71500
C  -12.89600 42.00700 41.91200
C  -10.10000 44.20500 40.56300
C  -13.13000 44.77500 41.96900
O  -12.52200 45.80400 41.69600
C  -14.39900 44.86500 42.71500
N  -13.96700 39.14200 42.79200
C  -14.62800 40.34000 42.77900
C  -16.16000 40.11200 43.10400
C  -16.25500 38.60900 43.19000
C  -14.77900 38.05700 42.99400
C  -16.69100 40.86700 44.41700
C  -17.35600 38.05700 42.15400
C  -17.03400 37.92200 40.64100
N  -12.07600 36.99200 42.21600
C  -13.10900 36.23000 42.71800
C  -12.72300 34.83500 42.76600
C  -11.38500 34.84500 42.29800
C  -11.01700 36.19500 42.02100
C  -13.65900 33.69700 43.16000
C  -10.28200 33.99000 41.88300
O  -10.17700 32.82800 42.05400
C  -9.16100 35.01700 41.34500
C  -7.90700 34.57400 41.98500
O  -7.48500 34.97600 43.06200
O  -7.25100 33.65200 41.17900
C  -5.89200 33.19000 41.62100
H  -8.81300 41.98900 40.54600
H  -14.92100 42.36100 42.36900
H  -15.25200 36.19600 43.39300
H  -6.99800 37.54100 40.70300
H  -7.81900 39.72000 39.18700
H  -6.98300 40.92400 41.61300
H  -6.01000 40.54400 40.12900
H  -6.12300 39.51800 41.64900
H  -7.71700 37.83100 37.91400
H  -8.95200 36.73700 38.50000
H  -7.66900 35.10400 38.35700
H  -6.59700 35.65600 39.52200
H  -9.16000 44.14500 41.11200
H  -10.48700 45.19900 40.33800
H  -9.99400 43.81300 39.55100
H  -15.15800 44.48300 42.03200
H  -14.58900 45.93400 42.81100
H  -14.17600 44.37800 43.66500
H  -16.76700 40.55300 42.31300
H  -16.49900 38.35500 44.22200
H  -17.69700 41.20600 44.17000
H  -16.00900 41.63200 44.78700
H  -16.85100 40.19900 45.26400
H  -18.09700 38.85600 42.13100
H  -17.83200 37.18100 42.59500
H  -17.33300 38.85500 40.16300
H  -17.63000 37.13700 40.17500
H  -15.95300 37.80500 40.56700
H  -14.52800 33.86400 42.52500
H  -13.93200 33.70600 44.21500
H  -13.23800 32.72400 42.90800
H  -9.08000 34.72400 40.29800
H  -5.36700 33.94700 42.20300
H  -5.34200 32.90700 40.72300
H  -5.74700 32.28400 42.20900

