158

Mg 46.76600 24.39000 28.47800
C  47.43600 26.55600 31.17000
C  45.87600 22.00100 30.81600
C  46.33800 22.17800 25.97600
C  48.30700 26.64000 26.35900
N  46.64900 24.34000 30.69600
C  46.80100 25.36000 31.59500
C  46.42400 24.99700 33.02300
C  46.25900 23.47300 32.88500
C  46.26500 23.22300 31.37100
C  47.34200 22.56500 33.61700
C  45.22700 25.87500 33.55400
C  45.63700 26.63100 34.85400
H  46.12500 25.80000 36.02600
N  46.06900 22.43600 28.38200
C  45.81700 21.57400 29.45700
C  45.55000 20.18500 29.04900
C  45.49800 20.24500 27.60100
C  46.05800 21.63100 27.24200
C  45.19500 19.04500 29.94300
C  45.20000 19.19700 26.53900
O  45.21300 19.45400 25.36400
C  44.67200 17.97400 26.94800
N  47.25600 24.38700 26.45600
C  46.83300 23.44600 25.54500
C  47.28000 23.77500 24.12500
C  47.84900 25.19500 24.31600
C  47.79500 25.42600 25.82700
C  48.30300 22.78200 23.38600
C  47.16800 26.33700 23.40600
C  45.76200 26.81000 23.84800
N  47.72200 26.18000 28.66800
C  48.30900 26.99200 27.71500
C  48.84200 28.12900 28.34200
C  48.60500 28.00900 29.70100
C  47.82400 26.85400 29.84000
C  49.57500 29.13100 27.59100
C  48.87500 28.59400 31.00700
O  49.54200 29.55500 31.32600
C  48.06500 27.70900 31.99000
C  49.04100 27.39500 33.14200
O  49.77900 26.44600 33.20700
O  48.90200 28.31800 34.14300
C  49.46700 27.91800 35.47900
H  45.63900 21.23900 31.56100
H  46.18200 21.66500 25.02500
H  48.70300 27.30400 25.58900
H  47.28500 25.16000 33.67100
H  45.29100 23.17400 33.28700
H  47.57400 23.00200 34.58900
H  48.28600 22.34400 33.12100
H  46.97600 21.54100 33.68500
H  44.26900 25.37400 33.69000
H  45.05600 26.65400 32.81100
H  44.73100 27.10800 35.22900
H  46.34300 27.41500 34.57900
H  46.02600 19.06100 30.64900
H  44.95200 18.10800 29.44100
H  44.27000 19.38900 30.40500
H  45.36900 17.32700 27.48000
H  44.26000 17.28300 26.21200
H  43.85500 18.12900 27.65200
H  46.31800 23.81400 23.61400
H  48.90700 25.31700 24.08200
H  49.16300 23.38000 23.08200
H  47.76500 22.43300 22.50500
H  48.55200 21.96500 24.06400
H  47.08200 26.23100 22.32500
H  47.74300 27.25400 23.53700
H  45.05400 27.00100 23.04200
H  45.81200 27.80000 24.30100
H  45.24100 26.21300 24.59700
H  48.79700 29.55800 26.95800
H  50.25400 28.63800 26.89500
H  50.02600 29.92500 28.18700
H  47.29900 28.36400 32.40500
H  49.83200 28.86600 35.87500
H  50.26000 27.19500 35.29200
H  48.63400 27.42700 35.98200
Mg 16.59600 52.64400 26.67200
C  18.71600 50.94800 28.97200
C  14.54800 53.41800 29.36100
C  14.62000 54.13200 24.48200
C  18.67300 51.44700 24.18200
N  16.56800 52.23300 28.81100
C  17.58300 51.57600 29.52900
C  17.24800 51.64700 31.04200
C  15.79000 51.93800 31.02000
C  15.61900 52.62500 29.66200
C  14.88100 50.72900 31.25000
C  18.06600 52.75200 31.70000
C  18.16500 52.75100 33.22500
H  17.03800 52.00400 33.92400
N  14.81600 53.71700 26.87500
C  14.18300 53.90300 28.06800
C  12.94700 54.61300 27.77500
C  12.95800 54.94700 26.38400
C  14.17000 54.29300 25.84200
C  12.00700 55.13900 28.87900
C  11.98400 55.82500 25.57200
O  12.20200 55.99100 24.35900
C  10.83400 56.42000 26.20400
N  16.62700 52.64300 24.65200
C  15.75400 53.46100 23.97800
C  16.05300 53.41100 22.46000
C  17.58500 52.93800 22.42200
C  17.63000 52.32500 23.84800
C  15.09700 52.52500 21.60100
C  18.68400 53.99400 22.10400
C  19.97200 53.54600 21.54000
N  18.25200 51.28000 26.49900
C  19.02900 50.90900 25.43900
C  20.14900 50.15800 25.86600
C  20.05900 50.08500 27.30300
C  18.93100 50.88200 27.62500
C  21.17900 49.50600 25.02200
C  20.66900 49.56200 28.52500
O  21.62400 48.88300 28.82400
C  19.82300 50.21900 29.71800
C  19.36100 49.15200 30.55800
O  18.68800 48.20300 30.18300
O  19.78400 49.47300 31.82600
C  19.37300 48.60200 32.91300
H  13.91100 53.67700 30.20900
H  13.95000 54.48600 23.69500
H  19.45400 51.23400 23.44800
H  17.50700 50.69900 31.51400
H  15.48500 52.73600 31.69700
H  14.15800 50.64300 30.43900
H  14.30200 50.77100 32.17300
H  15.49900 49.83900 31.36500
H  17.46600 53.65700 31.60300
H  18.98900 52.67100 31.12700
H  18.09900 53.77400 33.59700
H  19.07900 52.23500 33.51800
H  11.82100 56.21200 28.86200
H  12.40400 54.85800 29.85400
H  10.97400 54.83000 28.71600
H  9.96900 55.79500 26.42900
H  10.51700 57.22400 25.53900
H  11.13400 56.91000 27.13000
H  16.16800 54.45400 22.16700
H  17.66700 52.05300 21.79100
H  14.55900 51.78400 22.19200
H  15.59400 51.96300 20.81000
H  14.30500 53.12400 21.15000
H  18.93800 54.44900 23.06200
H  18.32400 54.77300 21.43200
H  20.48800 54.30400 20.95100
H  19.85300 52.66600 20.90800
H  20.60200 53.27300 22.38600
H  21.74700 48.84900 25.68100
H  21.79100 50.21400 24.46400
H  20.73400 48.83700 24.28600
H  20.43000 50.97900 30.21100
H  19.38000 47.57100 32.55900
H  18.39500 48.84300 33.32900
H  20.14500 48.75100 33.66700

