158

Mg 7.01300 54.25200 41.01600
C  6.78700 50.72900 40.69700
C  10.22000 54.11300 39.94400
C  6.96900 57.57500 40.75900
C  3.69300 54.22100 42.08100
N  8.28000 52.55700 40.27800
C  8.07400 51.23200 40.34800
C  9.38400 50.48300 40.18300
C  10.48800 51.61100 40.13900
C  9.58300 52.87300 40.08000
C  11.42600 51.64000 41.38200
C  9.38300 49.47300 39.03500
C  9.20100 50.14100 37.61200
H  8.01600 49.73400 36.77700
N  8.46700 55.70800 40.41300
C  9.71700 55.42300 40.09800
C  10.38400 56.70300 39.84400
C  9.42800 57.72900 39.91100
C  8.24900 57.03400 40.45400
C  11.90500 56.83000 39.56500
C  9.57000 59.26500 39.41500
O  10.68000 59.70300 39.10200
C  8.46500 60.24100 39.44000
N  5.53800 55.69700 41.33100
C  5.77000 57.03200 41.11800
C  4.52900 57.85600 41.32400
C  3.50900 56.80500 41.85400
C  4.22900 55.48000 41.76900
C  4.68600 59.20300 42.18700
C  2.26000 56.68400 40.90000
C  0.85500 56.87800 41.59000
N  5.47100 52.81800 41.34500
C  4.21900 52.94900 41.88600
C  3.71600 51.64900 42.28400
C  4.71100 50.71900 41.81600
C  5.65600 51.51600 41.17700
C  2.42400 51.35100 42.98700
C  5.08300 49.26500 41.79100
O  4.54200 48.27800 42.26100
C  6.39500 49.23700 40.97600
C  5.85300 48.57800 39.79800
O  5.12900 49.09900 38.87100
O  6.22800 47.22800 39.93700
C  5.55200 46.41300 38.95700
H  11.30100 54.13700 39.79400
H  6.85000 58.65700 40.67300
H  2.76500 54.04500 42.63000
H  9.45900 49.90000 41.10100
H  11.08000 51.55600 39.22500
H  12.37000 51.96900 40.94700
H  11.46400 50.64500 41.82400
H  11.29100 52.43900 42.11100
H  8.66400 48.68800 39.27000
H  10.36100 48.99200 39.03000
H  10.08600 49.95100 37.00400
H  9.11800 51.22700 37.65800
H  12.20500 56.97400 38.52700
H  12.48700 56.00500 39.97600
H  12.21700 57.70700 40.13300
H  7.71800 59.59900 38.97500
H  8.54000 61.17300 38.88000
H  8.24200 60.52800 40.46800
H  4.31000 58.21400 40.31800
H  3.19700 56.98400 42.88300
H  3.91000 59.27500 42.95000
H  4.58800 60.02800 41.48200
H  5.68500 59.16300 42.62300
H  2.32600 55.74300 40.35400
H  2.33500 57.49400 40.17400
H  0.55100 57.92000 41.49100
H  0.90100 56.46500 42.59800
H  0.17100 56.26800 41.00000
H  2.63400 51.03500 44.00900
H  1.93400 50.44100 42.64100
H  1.71900 52.17100 42.85200
H  7.11200 48.65600 41.55500
H  6.30100 46.25500 38.18100
H  4.53000 46.66200 38.67000
H  5.55400 45.44200 39.45300
Mg 1.14900 43.59000 25.86000
C  3.44700 43.52200 28.54600
C  -1.17300 42.47000 28.07200
C  -0.73900 43.01100 23.22300
C  3.90500 44.24900 23.75200
N  1.21400 43.03500 28.11500
C  2.17700 43.25800 28.96900
C  1.64500 43.09100 30.43900
C  0.24600 42.61100 30.28000
C  0.03900 42.77800 28.72000
C  0.06900 41.11000 30.87100
C  1.84700 44.39000 31.17400
C  2.22800 44.44300 32.64500
H  1.60700 43.29200 33.42900
N  -0.77000 42.99100 25.67000
C  -1.56000 42.58900 26.74000
C  -2.86300 42.20700 26.19300
C  -2.71900 42.27800 24.76000
C  -1.41100 42.75200 24.47800
C  -3.96900 41.73300 27.10500
C  -3.66000 41.81300 23.65700
O  -3.45600 41.80200 22.42700
C  -5.04100 41.19800 24.05600
N  1.51200 43.71600 23.91600
C  0.50900 43.48600 22.97800
C  1.09000 43.58000 21.53900
C  2.39900 44.36400 21.74700
C  2.66700 43.96200 23.22100
C  1.28100 42.21100 20.79200
C  2.18200 45.88800 21.65800
C  3.06200 46.55000 20.58900
N  3.24900 43.93000 26.10200
C  4.27400 44.13000 25.11200
C  5.50900 44.23800 25.73800
C  5.22800 43.99400 27.11600
C  3.86100 43.82300 27.23800
C  6.84600 44.35600 25.16100
C  5.86000 43.88800 28.42200
O  7.02600 43.93100 28.77100
C  4.69500 43.61400 29.44600
C  4.93500 42.32200 30.21000
O  5.05500 41.27600 29.63900
O  5.14200 42.44500 31.54300
C  5.16800 41.22200 32.37300
H  -2.02300 42.35900 28.74700
H  -1.27000 42.73900 22.30800
H  4.69600 44.53400 23.05400
H  2.25100 42.45600 31.08500
H  -0.38200 43.29500 30.85100
H  -0.56200 41.14600 31.75900
H  0.97900 40.56000 31.11000
H  -0.43200 40.51300 30.10800
H  0.89900 44.92800 31.16200
H  2.62900 44.95200 30.66400
H  1.95000 45.44900 32.96100
H  3.30600 44.47600 32.80000
H  -5.00900 41.67300 26.78300
H  -4.07800 42.47100 27.90000
H  -3.68100 40.75500 27.48900
H  -4.88300 40.17500 24.39800
H  -5.60000 41.16800 23.12000
H  -5.46900 41.90500 24.76600
H  0.40300 44.09400 20.86800
H  3.19900 43.98600 21.11100
H  1.35700 41.39900 21.51600
H  2.24300 42.26400 20.28300
H  0.54300 42.02000 20.01300
H  2.31800 46.29700 22.65900
H  1.15200 46.12800 21.39400
H  2.48400 47.22500 19.95700
H  3.57300 45.81900 19.96300
H  3.84900 47.06800 21.13600
H  6.76400 44.06200 24.11500
H  7.49400 43.66600 25.70100
H  7.11600 45.40500 25.28400
H  4.62100 44.46100 30.12800
H  5.80400 40.50900 31.84700
H  4.28200 40.68000 32.70200
H  5.65600 41.52000 33.30100

