158

Mg 24.42900 -5.18200 45.58300
C  26.21400 -2.48300 44.15500
C  21.72900 -4.42100 43.32500
C  23.04600 -8.14000 46.32800
C  27.32100 -6.00400 47.30000
N  24.05800 -3.57500 43.99600
C  24.89300 -2.57700 43.61200
C  24.29600 -1.73500 42.46500
C  22.84200 -2.24700 42.38500
C  22.79100 -3.48100 43.29600
C  21.75800 -1.18200 42.84400
C  25.10200 -1.93500 41.08100
C  25.49600 -0.66400 40.34200
H  25.39800 -0.80100 38.79200
N  22.55400 -6.10200 45.05100
C  21.61700 -5.64800 44.14200
C  20.57100 -6.62400 44.06500
C  20.80300 -7.61300 45.05300
C  22.17400 -7.33700 45.59200
C  19.37400 -6.40800 43.12000
C  19.84900 -8.73100 45.37700
O  18.66000 -8.67800 45.01700
C  20.14700 -9.83200 46.41300
N  25.07300 -6.87000 46.59700
C  24.33200 -7.92000 46.82400
C  25.00700 -8.90600 47.79200
C  26.45100 -8.35900 47.89500
C  26.34600 -6.96100 47.28500
C  24.21800 -9.00100 49.14800
C  27.62400 -9.27100 47.37600
C  28.87200 -9.49700 48.35500
N  26.35900 -4.32700 45.80600
C  27.37700 -4.85900 46.55200
C  28.55600 -3.90800 46.38800
C  28.14100 -2.99100 45.40500
C  26.78900 -3.29300 45.12600
C  29.90100 -4.05300 47.01200
C  28.53200 -1.89600 44.61100
O  29.63100 -1.34000 44.49500
C  27.32700 -1.51200 43.75300
C  27.06600 -0.05500 43.97300
O  26.41500 0.54100 44.80600
O  27.84200 0.65300 43.06000
C  27.77700 2.09900 43.13400
H  20.85300 -4.21900 42.70400
H  22.78200 -9.19200 46.45500
H  28.22000 -6.17300 47.89700
H  24.22900 -0.66100 42.64000
H  22.63600 -2.54700 41.35800
H  22.09600 -0.89500 43.83900
H  20.78000 -1.65400 42.94200
H  21.72300 -0.28600 42.22300
H  24.60300 -2.68000 40.46100
H  26.04000 -2.39100 41.39800
H  26.49200 -0.35900 40.66300
H  24.71600 0.05900 40.58300
H  19.58900 -6.98500 42.22000
H  19.16400 -5.37800 42.83100
H  18.45900 -6.81700 43.54800
H  20.81000 -9.43500 47.18200
H  20.83400 -10.52800 45.93100
H  19.23200 -10.26200 46.82000
H  24.91500 -9.83100 47.22300
H  26.64100 -8.32100 48.96800
H  23.25700 -8.50600 49.00800
H  24.74200 -8.76100 50.07300
H  24.00900 -10.06500 49.25900
H  28.04600 -8.81100 46.48300
H  27.28000 -10.23200 46.99400
H  28.84800 -10.47200 48.84200
H  28.83300 -8.67500 49.06900
H  29.76000 -9.48500 47.72200
H  30.06200 -3.68500 48.02600
H  30.59100 -3.44000 46.43100
H  30.29700 -5.06400 46.91700
H  27.60700 -1.62900 42.70600
H  27.02400 2.47400 42.44000
H  28.71600 2.51800 42.77200
H  27.56200 2.46800 44.13700
Mg 30.68900 57.06900 39.35300
C  28.01900 54.92400 38.29000
C  32.90000 54.78300 38.40700
C  33.01100 59.42400 39.50800
C  28.16700 59.51200 39.91800
N  30.44100 55.08300 38.15500
C  29.29200 54.32700 38.05500
C  29.68200 52.87200 37.78000
C  31.27200 52.80800 38.03400
C  31.56100 54.30100 38.27400
C  31.73600 51.85500 39.20700
C  29.19000 52.35500 36.34600
C  29.41100 53.17300 35.03800
H  28.40100 54.11800 34.40000
N  32.72700 57.01000 39.10100
C  33.50300 56.01300 38.68800
C  34.89600 56.41100 38.61100
C  34.92100 57.78000 38.99600
C  33.50900 58.08200 39.28100
C  35.93500 55.52500 38.09900
C  36.16200 58.62300 39.00400
O  37.19500 58.16000 38.60400
C  36.15800 60.09300 39.25800
N  30.65600 59.16500 39.68400
C  31.76000 59.94600 39.68900
C  31.36900 61.45500 39.86300
C  29.81100 61.37000 40.14900
C  29.49200 59.91500 39.87600
C  32.12900 62.29300 40.97100
C  29.00900 62.33100 39.17800
C  27.74900 63.06600 39.71000
N  28.53300 57.29000 39.19800
C  27.70400 58.32300 39.44600
C  26.29600 57.83000 39.21500
C  26.43100 56.47000 38.79500
C  27.79600 56.25900 38.75500
C  25.00800 58.42600 39.48800
C  25.63800 55.40500 38.30300
O  24.44000 55.27700 38.13000
C  26.65300 54.22800 38.00800
C  26.36800 53.15100 39.03100
O  26.80200 53.05300 40.17700
O  25.46000 52.27300 38.46100
C  24.76700 51.38300 39.39900
H  33.59100 53.94700 38.27700
H  33.63600 60.30900 39.36800
H  27.37000 60.21300 40.17500
H  29.18000 52.26300 38.53200
H  31.63600 52.52100 37.04700
H  32.14700 52.41500 40.04700
H  32.44200 51.10300 38.85400
H  30.85500 51.41200 39.67200
H  28.11100 52.21000 36.30400
H  29.71900 51.41500 36.18900
H  29.79900 52.44700 34.32300
H  30.25800 53.77600 35.36600
H  35.83400 55.43900 37.01700
H  35.68200 54.56800 38.55400
H  36.95100 55.69300 38.45800
H  37.12600 60.43700 39.62300
H  35.58300 60.17000 40.18100
H  35.75100 60.65200 38.41500
H  31.67300 61.87600 38.90500
H  29.65400 61.45600 41.22400
H  32.07800 63.37600 40.86100
H  33.18400 62.01800 40.94200
H  31.82900 61.94900 41.96100
H  28.64400 61.73900 38.33800
H  29.75200 63.05700 38.84900
H  27.62800 62.88700 40.77800
H  26.80000 62.71500 39.30400
H  27.84100 64.14800 39.62200
H  24.45600 57.89200 40.26100
H  24.40600 58.43100 38.57900
H  25.13400 59.48800 39.69700
H  26.44400 53.85400 37.00600
H  24.96300 51.64000 40.44000
H  24.99600 50.35200 39.12800
H  23.69300 51.49000 39.24800

