158

Mg -1.06400 17.73700 26.49500
C  -1.42600 15.70200 29.38100
C  -1.93700 20.49600 28.45100
C  -1.39800 19.55200 23.70700
C  -0.64400 14.84800 24.64100
N  -1.56200 18.02500 28.69400
C  -1.69100 17.06900 29.69700
C  -1.98800 17.67400 31.03900
C  -2.21000 19.24700 30.73700
C  -1.87900 19.30100 29.19100
C  -3.53600 19.83800 31.14600
C  -0.94300 17.37500 32.19600
C  -1.05700 18.23200 33.54600
H  -0.79600 17.44100 34.85400
N  -1.48500 19.75500 26.15200
C  -1.67100 20.78200 27.06900
C  -1.77000 22.08000 26.40700
C  -1.68400 21.81300 25.03500
C  -1.48000 20.34300 24.89300
C  -2.00700 23.37400 27.24100
C  -1.86200 22.81400 23.95900
O  -1.96900 22.49600 22.80900
C  -1.90100 24.25500 24.24500
N  -1.23600 17.21000 24.45400
C  -1.29000 18.18500 23.44500
C  -0.98400 17.56600 22.11300
C  -0.47400 16.07400 22.50200
C  -0.76100 16.02700 23.97700
C  -2.16300 17.55800 21.07600
C  0.96000 15.67400 22.13300
C  2.10100 16.57200 22.56100
N  -0.97500 15.72100 26.87300
C  -0.84500 14.66200 25.99400
C  -0.86600 13.40300 26.69900
C  -0.99400 13.79500 28.01800
C  -1.14900 15.17700 28.09800
C  -0.63600 11.92600 26.12500
C  -0.91600 13.27500 29.35600
O  -0.60100 12.14900 29.79800
C  -1.21300 14.51000 30.34700
C  -0.03200 14.40300 31.33300
O  1.14400 14.65100 31.08300
O  -0.49700 13.75500 32.44800
C  0.58800 13.50500 33.41400
H  -2.23600 21.36500 29.04100
H  -1.37700 20.11400 22.77100
H  -0.32800 13.95200 24.10100
H  -2.85300 17.15600 31.45600
H  -1.38900 19.71000 31.28500
H  -4.00700 20.65800 30.60400
H  -3.29500 20.28100 32.11200
H  -4.30700 19.06800 31.14400
H  0.03600 17.38800 31.71700
H  -1.25300 16.37600 32.50000
H  -2.01800 18.74300 33.59900
H  -0.19800 18.89100 33.41700
H  -1.26000 24.13000 27.00000
H  -1.94400 23.24800 28.32200
H  -3.01000 23.69900 26.96700
H  -2.85300 24.51400 24.70900
H  -1.87400 24.78700 23.29400
H  -0.95700 24.46000 24.75100
H  -0.15700 18.09900 21.64300
H  -1.11500 15.39300 21.94200
H  -2.97000 18.05600 21.61500
H  -2.42800 16.54300 20.78000
H  -1.90500 17.98100 20.10500
H  0.89100 15.54300 21.05300
H  1.10900 14.69600 22.59100
H  1.83500 17.32400 23.30400
H  2.49100 17.11900 21.70200
H  2.94600 16.07400 23.03500
H  0.21300 11.97400 25.44300
H  -1.53200 11.43000 25.75000
H  -0.33900 11.41900 27.04300
H  -2.17000 14.39600 30.85500
H  1.21400 12.65900 33.13000
H  0.12800 13.33600 34.38800
H  1.13100 14.42100 33.64400
Mg 45.81100 24.68900 28.59000
C  46.30400 26.80800 31.32700
C  45.87500 22.04800 30.80400
C  46.10300 22.73000 25.90000
C  46.46100 27.53900 26.50300
N  46.10500 24.53800 30.79600
C  46.17500 25.50300 31.70800
C  46.06600 24.99200 33.16600
C  46.04600 23.40300 32.98700
C  45.87300 23.27300 31.42200
C  47.32500 22.75800 33.55600
C  44.87000 25.60500 33.97900
C  45.18800 26.00800 35.43200
H  44.26300 25.65800 36.59100
N  45.87700 22.60200 28.37600
C  45.83100 21.70900 29.37800
C  45.74100 20.37800 28.85400
C  45.81600 20.51800 27.39100
C  45.96300 22.00600 27.16300
C  45.68900 19.25100 29.73900
C  45.72000 19.51800 26.31100
O  45.92000 19.80400 25.09600
C  45.31200 18.14800 26.68200
N  46.11500 25.07600 26.54400
C  46.08500 24.09900 25.59100
C  45.95600 24.66700 24.07700
C  46.00700 26.22900 24.41500
C  46.27100 26.32600 25.90000
C  47.17800 24.28800 23.14400
C  44.76800 27.13500 23.93300
C  43.40000 26.70500 24.37400
N  46.07000 26.77500 28.79000
C  46.40900 27.75800 27.89700
C  46.69900 28.99000 28.57400
C  46.71400 28.63600 29.92800
C  46.23600 27.31300 30.01100
C  46.97400 30.32600 27.93800
C  46.94000 29.16000 31.24000
O  47.34200 30.30700 31.52400
C  46.61700 28.05100 32.24000
C  47.83800 27.84100 33.10300
O  48.94000 27.33900 32.81800
O  47.56300 28.39400 34.33900
C  48.55300 28.11200 35.40500
H  45.81300 21.27500 31.57200
H  46.12800 22.15200 24.97400
H  46.60000 28.40500 25.85300
H  46.94100 25.37700 33.69000
H  45.21200 22.94200 33.51600
H  48.00300 22.41100 32.77600
H  46.97800 21.88800 34.11300
H  47.89600 23.39900 34.22800
H  44.17800 24.77700 34.13300
H  44.35300 26.42000 33.47200
H  45.15200 27.08800 35.28700
H  46.19500 25.64500 35.63900
H  45.45500 18.29200 29.27700
H  44.90300 19.37200 30.48400
H  46.67300 19.23200 30.20800
H  45.37500 17.46800 25.83200
H  44.28000 18.17400 27.03200
H  46.01400 17.69500 27.38200
H  45.00900 24.32500 23.66000
H  46.92000 26.61800 23.96300
H  48.05300 24.86900 23.43600
H  46.86500 24.60300 22.14800
H  47.50400 23.26500 23.33000
H  44.72600 27.06400 22.84600
H  44.97900 28.16800 24.20800
H  43.68000 25.93700 25.09400
H  42.71100 26.19400 23.70200
H  42.91900 27.55300 24.86300
H  48.06000 30.38900 27.87300
H  46.66000 31.07900 28.66000
H  46.49000 30.45700 26.97100
H  45.67500 28.32100 32.71800
H  49.48000 28.61300 35.12700
H  48.69500 27.03200 35.36500
H  48.39800 28.44200 36.43200

