158

Mg -2.07000 16.92100 26.35000
C  -2.65000 14.94200 29.13000
C  -2.63600 19.66300 28.26700
C  -2.26100 18.56300 23.47200
C  -2.43800 13.80600 24.26600
N  -2.56700 17.17900 28.47900
C  -2.58700 16.28200 29.45000
C  -2.61600 16.92800 30.84800
C  -2.66500 18.43600 30.50900
C  -2.66100 18.44900 28.99000
C  -3.79300 19.22700 31.26000
C  -1.50500 16.62000 31.84200
C  -1.41000 17.40300 33.13900
H  -0.74000 16.71500 34.35100
N  -2.20500 18.88800 25.90600
C  -2.45000 19.85500 26.88300
C  -2.57000 21.13900 26.14200
C  -2.23000 20.78800 24.81500
C  -2.25400 19.35700 24.68800
C  -3.01300 22.52400 26.71300
C  -1.89900 21.80200 23.68100
O  -1.71300 21.37300 22.51600
C  -1.66800 23.19200 24.01500
N  -2.17500 16.19500 24.15000
C  -2.20800 17.17500 23.19500
C  -2.10300 16.61200 21.71700
C  -2.51300 15.11300 22.05000
C  -2.26800 15.03100 23.56900
C  -2.85200 17.14400 20.59000
C  -1.66200 14.16600 21.15300
C  -2.48700 13.45700 20.07000
N  -2.44300 14.81200 26.60500
C  -2.57400 13.73200 25.69700
C  -2.97800 12.54400 26.46100
C  -2.91700 12.92600 27.84300
C  -2.61300 14.27100 27.85600
C  -3.22400 11.24300 25.89300
C  -3.04200 12.49600 29.27100
O  -3.10600 11.35600 29.73900
C  -2.92500 13.81500 30.14800
C  -1.72700 13.45600 30.97000
O  -0.58100 13.60600 30.61600
O  -2.05000 12.78100 32.14900
C  -0.89300 12.26700 32.92500
H  -2.63500 20.55300 28.90000
H  -2.36200 19.20800 22.59700
H  -2.69700 12.95600 23.63100
H  -3.59100 16.65000 31.24800
H  -1.73200 18.93600 30.76900
H  -4.54600 19.40500 30.49200
H  -3.41700 20.19000 31.60700
H  -4.10600 18.61200 32.10400
H  -0.52700 16.74300 31.37700
H  -1.56600 15.54900 32.03500
H  -2.38200 17.80100 33.43000
H  -0.81400 18.30900 33.03800
H  -3.61600 22.42900 27.61500
H  -3.71200 22.95700 25.99700
H  -2.09600 23.09600 26.85700
H  -1.17200 23.72700 23.20500
H  -0.88400 23.27000 24.76900
H  -2.59100 23.70900 24.27600
H  -1.06300 16.69300 21.39900
H  -3.58200 14.89900 22.02500
H  -3.59600 17.87400 20.90900
H  -3.22100 16.43800 19.84500
H  -2.18900 17.76700 19.99000
H  -1.39900 13.29400 21.75200
H  -0.74600 14.59600 20.74700
H  -2.17300 13.90900 19.12900
H  -3.56500 13.53300 20.21500
H  -2.28200 12.39600 19.92400
H  -2.58200 10.96500 25.05600
H  -4.28200 11.18500 25.63900
H  -2.89800 10.41900 26.52700
H  -3.81100 13.99000 30.76000
H  -0.56900 13.10600 33.54100
H  -0.08900 11.73300 32.41700
H  -1.31400 11.55700 33.63700
Mg 2.84100 -2.09700 44.96800
C  5.71600 -0.30200 43.85400
C  0.91800 -0.39300 42.75400
C  0.48600 -4.33300 45.36900
C  5.13000 -4.21700 46.72700
N  3.30000 -0.64500 43.49800
C  4.49200 0.06300 43.27200
C  4.27600 1.03400 42.20200
C  2.72800 1.08900 41.92000
C  2.28300 -0.01300 42.84100
C  2.05100 2.53000 42.08300
C  5.06400 0.65500 40.89300
C  5.78200 1.86100 40.24500
H  6.37200 1.49400 38.88700
N  0.87500 -2.29100 44.32100
C  0.25000 -1.36200 43.51400
C  -1.11000 -1.65300 43.46100
C  -1.30300 -2.91400 44.03900
C  0.04100 -3.21200 44.65600
C  -2.15600 -0.84100 42.82200
C  -2.56400 -3.86600 44.01000
O  -3.48600 -3.48400 43.25700
C  -2.69900 -5.10300 44.76800
N  2.82300 -3.97200 46.00400
C  1.65700 -4.72600 46.00200
C  1.75400 -5.97300 46.84700
C  3.28500 -6.02300 47.20000
C  3.83400 -4.69200 46.53300
C  0.82300 -5.96700 48.17700
C  4.01400 -7.32800 46.89200
C  3.83400 -8.00000 45.50800
N  4.97000 -2.25400 45.29400
C  5.72000 -3.06800 46.14000
C  7.14600 -2.56400 46.25300
C  7.17900 -1.54700 45.25500
C  5.86600 -1.42700 44.70300
C  8.29700 -3.11700 47.10300
C  8.07500 -0.54500 44.64500
O  9.24000 -0.34000 44.76200
C  7.12000 0.29100 43.73500
C  7.14900 1.60400 44.26100
O  7.10300 1.84800 45.45000
O  7.37400 2.55200 43.26600
C  7.51600 3.93300 43.76400
H  0.23000 0.15300 42.10500
H  -0.33100 -5.05100 45.47100
H  5.89500 -4.80100 47.24300
H  4.63200 1.98300 42.60300
H  2.44400 0.66400 40.95700
H  1.65600 2.83500 41.11400
H  2.83400 3.28400 42.17000
H  1.37000 2.50400 42.93400
H  4.39100 0.18200 40.17700
H  5.83100 -0.07600 41.14800
H  6.70100 2.03700 40.80300
H  5.13400 2.72900 40.12300
H  -2.90900 -0.73300 43.60200
H  -2.45300 -1.35900 41.91000
H  -1.71900 0.15300 42.73000
H  -2.50900 -4.80700 45.80000
H  -1.89600 -5.69300 44.32500
H  -3.61400 -5.67900 44.63300
H  1.47600 -6.89300 46.33300
H  3.22700 -5.83500 48.27200
H  -0.22300 -5.90300 47.87700
H  0.93600 -5.10100 48.82800
H  1.07100 -6.85100 48.76600
H  3.63800 -8.04800 47.61900
H  5.07600 -7.11600 47.01900
H  3.47500 -7.13700 44.94700
H  3.20400 -8.88900 45.50400
H  4.84200 -8.23900 45.16600
H  8.59400 -4.03600 46.59600
H  7.86800 -3.19300 48.10200
H  9.14000 -2.43200 47.18100
H  7.54100 0.28700 42.72900
H  8.57500 4.19000 43.75800
H  6.92500 4.07800 44.66900
H  7.00100 4.49000 42.98100

