158

Mg -2.97700 17.63500 26.72900
C  -3.32500 15.31500 29.47900
C  -3.56900 20.14000 28.97700
C  -3.25100 19.75900 24.16800
C  -3.14600 14.88700 24.67500
N  -3.46900 17.69300 29.02000
C  -3.45700 16.62400 29.92100
C  -3.60800 17.12100 31.39500
C  -3.80200 18.66200 31.15200
C  -3.69900 18.87100 29.58900
C  -5.10000 19.18000 31.77700
C  -2.36400 16.79600 32.31500
C  -2.35200 17.64500 33.59100
H  -1.89500 16.95700 34.90300
N  -3.21000 19.66600 26.64100
C  -3.30300 20.52400 27.64500
C  -2.94800 21.84400 27.10600
C  -2.82400 21.78600 25.69000
C  -3.15300 20.41900 25.44200
C  -2.89100 23.07600 28.02200
C  -2.44200 22.88700 24.73600
O  -2.30700 22.65400 23.53800
C  -2.32200 24.30800 25.16000
N  -3.39100 17.34500 24.71400
C  -3.35600 18.36000 23.86700
C  -3.59800 17.90500 22.40000
C  -3.45900 16.29700 22.57900
C  -3.28100 16.14900 24.07800
C  -4.69100 18.58600 21.56100
C  -2.23600 15.75100 21.81900
C  -0.86600 16.31900 22.25600
N  -3.08100 15.54000 26.95900
C  -3.15400 14.57900 26.00500
C  -3.05400 13.25200 26.57400
C  -3.19200 13.52200 27.93700
C  -3.19800 14.92000 28.14000
C  -2.96100 11.97500 25.85400
C  -3.37600 12.83200 29.22500
O  -3.47200 11.68300 29.58100
C  -3.42300 14.01700 30.24600
C  -2.29900 13.77300 31.10600
O  -1.12900 14.02600 30.89800
O  -2.73100 13.08400 32.20800
C  -1.67900 12.77900 33.23100
H  -3.54400 20.96800 29.69000
H  -3.41400 20.41100 23.30700
H  -3.24100 13.98000 24.07300
H  -4.49400 16.63000 31.79800
H  -3.09600 19.36800 31.58900
H  -5.68900 19.64800 30.98800
H  -4.88200 19.92400 32.54300
H  -5.69300 18.42200 32.28800
H  -1.41700 16.76100 31.77900
H  -2.65400 15.83400 32.73700
H  -3.15700 18.36400 33.74600
H  -1.55300 18.34300 33.33800
H  -1.89900 23.52400 27.96300
H  -3.15600 22.90200 29.06500
H  -3.59000 23.88300 27.79900
H  -2.40500 24.92900 24.26800
H  -1.42100 24.31900 25.77400
H  -3.17500 24.57800 25.78200
H  -2.67600 18.24100 21.92600
H  -4.39900 15.83500 22.27800
H  -5.15800 17.98100 20.78400
H  -4.34900 19.54100 21.16100
H  -5.57600 18.79200 22.16300
H  -2.28700 15.86500 20.73700
H  -2.08000 14.69200 22.02600
H  -0.90900 17.13300 22.98000
H  -0.34000 16.61600 21.34900
H  -0.31500 15.52600 22.76300
H  -3.74200 12.02700 25.09500
H  -3.12400 11.17200 26.57200
H  -1.98900 11.91900 25.36400
H  -4.34800 13.95500 30.82000
H  -2.17100 11.90100 33.64900
H  -1.57600 13.65700 33.86800
H  -0.71600 12.46100 32.83100
Mg 49.25800 46.33100 43.09300
C  46.10000 46.87500 42.12800
C  49.18000 43.24600 41.39000
C  52.75500 46.03500 43.23000
C  49.55500 49.72100 44.06400
N  47.80900 45.30400 41.79300
C  46.56500 45.61700 41.60500
C  45.88400 44.64700 40.63100
C  46.77500 43.33400 40.76600
C  47.99700 43.96000 41.37700
C  46.11900 42.27700 41.68500
C  46.01700 45.22000 39.18000
C  44.80200 45.04900 38.20900
H  45.00100 44.03500 37.15500
N  50.74700 44.78800 42.59500
C  50.47300 43.63400 41.81000
C  51.78000 42.90900 41.58500
C  52.73200 43.62000 42.30700
C  52.12900 44.86700 42.80000
C  51.94600 41.60500 40.86900
C  54.14900 43.21900 42.45400
O  54.41000 42.16600 41.96300
C  55.11900 44.02200 43.24100
N  50.90100 47.66500 43.51000
C  52.21100 47.30000 43.57200
C  53.08400 48.51400 44.03700
C  52.06800 49.59300 44.37400
C  50.74000 48.91600 44.03900
C  54.13000 48.24900 45.10800
C  52.16200 51.07900 43.76000
C  52.18600 52.23500 44.85300
N  48.09000 47.99500 43.22600
C  48.29300 49.25300 43.69000
C  46.94700 49.87100 43.80500
C  46.07700 48.94300 43.18800
C  46.86000 47.85100 42.78600
C  46.56000 51.19100 44.36900
C  44.67700 48.79200 42.80100
O  43.72300 49.52700 42.88700
C  44.67400 47.42500 42.12800
C  43.85700 46.47300 42.99900
O  44.36200 45.72500 43.81700
O  42.49000 46.66100 42.81000
C  41.52400 45.96700 43.69300
H  49.04400 42.28000 40.89900
H  53.81700 46.09000 43.48000
H  49.74600 50.75500 44.36000
H  44.82700 44.58500 40.88900
H  46.89500 42.89900 39.77400
H  46.32900 42.39400 42.74800
H  46.40000 41.27900 41.34800
H  45.02900 42.31000 41.67700
H  46.94200 44.89400 38.70400
H  46.26800 46.27900 39.24900
H  44.51500 46.01900 37.80200
H  43.95600 44.66600 38.77900
H  50.97300 41.36500 40.44100
H  52.22100 40.78100 41.52800
H  52.72100 41.65300 40.10400
H  56.02800 43.42600 43.33000
H  54.65900 44.15700 44.22000
H  55.44700 44.99000 42.86300
H  53.69000 48.78800 43.17400
H  51.86200 49.78000 45.42800
H  54.38100 47.23000 45.40200
H  53.77100 48.70100 46.03200
H  55.06700 48.74300 44.85400
H  51.42800 51.26300 42.97500
H  53.16500 51.25800 43.37300
H  51.66500 52.14100 45.80600
H  51.70600 53.09700 44.39100
H  53.23600 52.46400 45.03700
H  45.68400 51.09300 45.00900
H  46.24100 51.74000 43.48300
H  47.28900 51.78300 44.92300
H  44.39900 47.56600 41.08300
H  41.00900 45.15400 43.18100
H  40.76800 46.67500 44.03400
H  41.90900 45.36200 44.51400

