158

Mg 3.07800 -0.60000 44.50500
C  6.39100 0.37600 43.56600
C  1.85200 2.04500 42.73500
C  0.08200 -2.13900 44.52200
C  4.58000 -3.60900 45.94300
N  4.01000 1.12900 43.34300
C  5.35800 1.31100 43.10000
C  5.56000 2.59000 42.19100
C  4.11900 3.25100 42.17500
C  3.22700 2.09600 42.83100
C  3.91900 4.56600 42.91700
C  6.01100 2.16300 40.82200
C  7.40900 2.59300 40.29000
H  7.40900 3.29200 38.87800
N  1.17400 -0.04400 43.91200
C  0.90800 1.10000 43.17100
C  -0.52000 1.20800 43.03000
C  -1.12200 -0.01200 43.52100
C  0.06700 -0.83900 44.02400
C  -1.24200 2.36300 42.19900
C  -2.56700 -0.36900 43.59400
O  -3.46800 0.28300 43.08200
C  -3.05200 -1.73300 44.23100
N  2.51200 -2.56000 45.14400
C  1.18500 -2.91500 45.02100
C  0.92400 -4.36500 45.53600
C  2.36200 -4.87000 45.78100
C  3.24000 -3.59700 45.63300
C  0.17200 -4.32000 46.92100
C  2.77900 -6.00600 44.71700
C  2.67700 -7.43200 45.32400
N  5.11000 -1.49100 44.77400
C  5.50500 -2.62300 45.46500
C  6.91700 -2.54700 45.61200
C  7.33500 -1.45000 44.83100
C  6.16300 -0.80200 44.39500
C  7.73200 -3.46600 46.43100
C  8.48200 -0.72300 44.32000
O  9.64500 -0.87300 44.53400
C  7.96400 0.41400 43.44400
C  8.54400 1.63100 43.97400
O  9.31600 2.35800 43.35200
O  8.02600 1.97200 45.22200
C  8.24300 3.27800 45.76300
H  1.41800 2.84500 42.13200
H  -0.81700 -2.72900 44.71100
H  4.89900 -4.51900 46.45400
H  6.36700 3.13200 42.68400
H  3.78600 3.43200 41.15300
H  4.77000 4.94000 43.48600
H  3.00400 4.42100 43.49200
H  3.76400 5.30200 42.12800
H  5.29400 2.45100 40.05300
H  5.95600 1.07400 40.80300
H  8.11500 1.76400 40.23500
H  7.67800 3.37900 40.99700
H  -1.89100 1.83900 41.49700
H  -0.56400 3.09100 41.75300
H  -1.88200 3.02900 42.77800
H  -4.11600 -1.66800 44.46000
H  -2.62500 -1.96200 45.20800
H  -2.86400 -2.47500 43.45500
H  0.33900 -4.97700 44.85000
H  2.47600 -5.26800 46.78900
H  -0.71600 -3.79000 46.57500
H  0.61300 -3.63000 47.64000
H  -0.10600 -5.24700 47.42200
H  3.80600 -5.74600 44.45800
H  2.13800 -5.93700 43.83900
H  2.20200 -7.37800 46.30300
H  3.68000 -7.83600 45.46500
H  2.07300 -7.97900 44.60000
H  7.16500 -3.55500 47.35700
H  8.75700 -3.15200 46.62800
H  7.85500 -4.43100 45.94000
H  8.26100 0.40700 42.39500
H  7.41700 3.95500 45.54300
H  9.14600 3.70800 45.33000
H  8.24700 3.24300 46.85300
Mg 23.93900 -7.07800 44.99700
C  26.31900 -4.59400 43.79500
C  21.58100 -5.37600 43.16400
C  22.00300 -9.87200 45.41600
C  26.71900 -8.85600 46.30500
N  23.95700 -5.06300 43.83900
C  25.00800 -4.30500 43.40100
C  24.52400 -3.24000 42.42100
C  22.98200 -3.29600 42.42300
C  22.81700 -4.70500 43.17700
C  22.27600 -2.19700 43.23900
C  25.06600 -3.50500 40.98000
C  25.53300 -2.32000 40.23400
H  25.02100 -2.07000 38.85800
N  22.04800 -7.52300 44.46600
C  21.27100 -6.67500 43.70800
C  19.95500 -7.31400 43.60500
C  19.97900 -8.59200 44.25300
C  21.35400 -8.72500 44.76300
C  18.74400 -6.57000 43.09800
C  18.89500 -9.61200 44.45400
O  17.81500 -9.49400 44.00200
C  19.00300 -10.80500 45.26000
N  24.30700 -9.17300 45.75600
C  23.34300 -10.09700 45.86500
C  23.94900 -11.40000 46.49900
C  25.29100 -10.93800 47.16300
C  25.48900 -9.58700 46.37100
C  22.98700 -12.10600 47.62000
C  26.43100 -11.97000 47.10600
C  27.47900 -11.81000 48.18800
N  26.03200 -6.80900 45.18100
C  26.97400 -7.60800 45.76600
C  28.26200 -6.91700 45.67700
C  28.04100 -5.74900 44.84000
C  26.68200 -5.75600 44.61200
C  29.60300 -7.32400 46.16500
C  28.71100 -4.63400 44.17300
O  29.91500 -4.35600 44.19300
C  27.57200 -3.89100 43.36800
C  27.61000 -2.44000 43.78100
O  27.48000 -1.52900 42.95400
O  27.89900 -2.27900 45.07300
C  27.82400 -0.97100 45.70700
H  20.76400 -4.87700 42.63900
H  21.31000 -10.67000 45.69100
H  27.52300 -9.37900 46.82800
H  24.92800 -2.30600 42.81400
H  22.51600 -3.34300 41.43900
H  21.35000 -1.90000 42.74800
H  22.90200 -1.30500 43.26000
H  22.05000 -2.56000 44.24200
H  24.27400 -3.95600 40.38100
H  25.82700 -4.28500 41.02800
H  26.60500 -2.48900 40.12600
H  25.34100 -1.40900 40.80000
H  17.94200 -7.12900 42.61600
H  19.05000 -5.79700 42.39300
H  18.21700 -6.14000 43.95000
H  19.31200 -10.40400 46.22500
H  19.66900 -11.56200 44.84600
H  18.01200 -11.22900 45.42200
H  24.14900 -11.98900 45.60400
H  25.13900 -10.64200 48.20100
H  23.37000 -12.13400 48.64100
H  22.87700 -13.14900 47.32600
H  21.97700 -11.69600 47.60600
H  26.80800 -11.95400 46.08400
H  26.03000 -12.97700 47.22700
H  28.43600 -11.82500 47.66800
H  27.51100 -12.68100 48.84300
H  27.42800 -10.87300 48.74200
H  30.43800 -7.11300 45.49700
H  29.60400 -8.39200 46.38100
H  29.71200 -6.85900 47.14600
H  27.72900 -3.99800 42.29500
H  26.91400 -0.43400 45.43800
H  28.77400 -0.46200 45.54500
H  28.00200 -1.13700 46.76900

