158

Mg 1.22100 -1.33900 45.20400
C  4.38000 -0.28800 44.19900
C  -0.10800 1.49100 43.49500
C  -1.83700 -2.61800 45.42200
C  2.70100 -4.42700 46.26700
N  1.93900 0.41400 44.09300
C  3.34900 0.61800 43.86800
C  3.61400 2.02000 43.09800
C  2.17200 2.73500 43.15000
C  1.26100 1.50800 43.56500
C  2.10700 3.95000 43.98300
C  4.16300 1.71600 41.58600
C  5.44100 2.46500 41.06800
H  6.80400 1.77700 40.64200
N  -0.74600 -0.67300 44.57600
C  -1.07300 0.50900 43.91200
C  -2.44900 0.62100 43.93800
C  -3.03500 -0.58900 44.36900
C  -1.85100 -1.33000 44.88900
C  -2.95900 1.88700 43.25900
C  -4.49000 -0.90700 44.42600
O  -5.32100 -0.04300 44.07400
C  -5.02700 -2.29400 44.68600
N  0.53300 -3.27100 45.57300
C  -0.81700 -3.49200 45.75400
C  -1.07500 -4.90000 46.41400
C  0.35900 -5.26400 46.83600
C  1.29300 -4.27700 46.12600
C  -2.21000 -5.20000 47.46200
C  0.78300 -6.81300 46.58900
C  0.84000 -7.77300 47.81800
N  3.19400 -2.18800 45.30200
C  3.63100 -3.45200 45.77300
C  5.03200 -3.45900 45.75600
C  5.40800 -2.26400 45.12000
C  4.22100 -1.55500 44.82500
C  5.94200 -4.44000 46.39100
C  6.49100 -1.42600 44.71400
O  7.69000 -1.52700 44.74200
C  5.91900 -0.10100 44.13000
C  6.29400 1.09800 44.96700
O  6.21500 1.18900 46.19300
O  6.76400 2.07700 44.15900
C  7.40700 3.27500 44.77000
H  -0.47700 2.41000 43.03400
H  -2.83800 -3.05200 45.47400
H  3.12400 -5.31700 46.73800
H  4.22400 2.71900 43.66900
H  1.81400 3.03500 42.16500
H  3.04500 4.48400 44.13300
H  1.77600 3.71400 44.99500
H  1.31400 4.57000 43.56600
H  3.35700 1.99100 40.90700
H  4.33400 0.64200 41.51600
H  5.70500 3.26700 41.75700
H  5.15100 2.90000 40.11100
H  -4.02700 1.96800 43.46100
H  -3.04600 1.82900 42.17400
H  -2.40500 2.77100 43.57500
H  -4.33200 -3.02200 44.26800
H  -5.93400 -2.41800 44.09400
H  -5.25700 -2.48600 45.73500
H  -1.27100 -5.47200 45.50700
H  0.51300 -5.15300 47.91000
H  -3.12200 -5.66000 47.08200
H  -2.52600 -4.24000 47.86900
H  -1.84500 -5.87100 48.24000
H  1.74000 -6.98400 46.09600
H  0.02800 -7.18300 45.89500
H  1.33200 -8.72600 47.62300
H  -0.15800 -8.12300 48.08000
H  1.30300 -7.30500 48.68700
H  5.53000 -5.41300 46.12300
H  5.90900 -4.34200 47.47600
H  6.93700 -4.37200 45.95000
H  6.35400 -0.13200 43.13100
H  6.87200 4.22500 44.74700
H  8.33000 3.46700 44.22400
H  7.66300 3.18200 45.82600
Mg 45.86700 3.98400 48.09700
C  44.57900 7.12300 47.24300
C  42.72200 2.65300 47.36000
C  47.12000 0.89700 48.45800
C  49.11900 5.30800 48.40200
N  43.93400 4.81500 47.35900
C  43.66200 6.15300 47.10600
C  42.21800 6.37000 46.62500
C  41.58100 5.01800 46.86800
C  42.83700 4.09600 47.15800
C  40.53600 4.97700 47.97000
C  42.12900 6.78700 45.12800
C  40.87800 7.77800 44.86800
H  40.05800 7.59700 43.61800
N  45.07500 2.10300 47.84600
C  43.77000 1.70700 47.58500
C  43.67500 0.29200 47.56200
C  44.95600 -0.20300 47.74100
C  45.79300 0.99300 48.05100
C  42.40700 -0.44600 47.13400
C  45.34500 -1.61200 47.58300
O  44.52200 -2.42100 47.22900
C  46.74700 -2.03500 47.60600
N  47.85100 3.24100 48.59500
C  48.08400 1.88900 48.73400
C  49.60900 1.68400 49.20300
C  50.24200 3.06600 48.91900
C  49.06700 3.95700 48.57700
C  49.76000 1.11100 50.64700
C  51.44000 3.12000 47.92400
C  52.81000 2.50900 48.41000
N  46.67200 5.81300 47.95800
C  48.05600 6.24300 48.11000
C  48.09100 7.68100 47.79700
C  46.75000 8.08600 47.55200
C  45.91000 6.90100 47.66900
C  49.41500 8.48600 47.81100
C  45.92000 9.27700 47.28700
O  46.17800 10.45400 47.22800
C  44.46800 8.65400 46.99100
C  43.48700 9.24700 47.91600
O  43.11600 8.78000 48.99600
O  42.90400 10.30000 47.30700
C  41.67500 10.76700 47.98500
H  41.70800 2.25600 47.28000
H  47.43600 -0.08100 48.82800
H  50.11200 5.73500 48.55700
H  41.74200 7.17200 47.18900
H  41.07700 4.55700 46.01900
H  40.27000 6.00100 48.23500
H  40.78800 4.38300 48.84900
H  39.70900 4.48900 47.45600
H  42.04300 5.88500 44.52300
H  43.05000 7.30800 44.86700
H  41.22300 8.81100 44.90300
H  40.22600 7.61700 45.72700
H  42.51000 -0.75300 46.09300
H  41.56000 0.24000 47.13400
H  42.09700 -1.23700 47.81600
H  46.76700 -3.08400 47.30900
H  47.03600 -2.13700 48.65200
H  47.43700 -1.46700 46.98200
H  50.00300 0.87700 48.58600
H  50.57400 3.36700 49.91300
H  50.00800 0.05500 50.54200
H  48.87900 1.13100 51.28900
H  50.61600 1.64800 51.05500
H  51.65200 4.17700 47.76200
H  51.21400 2.54000 47.02900
H  53.01100 1.68600 47.72500
H  52.67100 2.01200 49.37000
H  53.65600 3.18800 48.52300
H  49.72800 8.57300 48.85100
H  49.17800 9.46500 47.39500
H  50.20000 8.08900 47.16700
H  44.34200 8.90900 45.93900
H  41.20400 11.28200 47.14800
H  41.85000 11.46700 48.80200
H  40.96700 9.98700 48.26700

