158

Mg 45.22700 5.50300 48.76900
C  42.80600 7.97700 47.91000
C  42.73200 3.19800 47.80100
C  47.58700 3.14500 48.80000
C  47.60800 8.02300 48.73800
N  42.99200 5.55500 47.84800
C  42.20600 6.67700 47.83300
C  40.76200 6.32200 47.50300
C  40.81400 4.80700 47.68700
C  42.23500 4.47400 47.83700
C  39.89700 4.27400 48.81200
C  40.34700 6.77200 46.00000
C  38.85600 6.77400 45.63400
H  38.46700 6.56500 44.17300
N  45.20900 3.48500 48.39600
C  44.06400 2.73400 48.06000
C  44.57200 1.33100 48.03800
C  45.91900 1.26100 48.33700
C  46.26800 2.67000 48.53500
C  43.61300 0.21400 47.66800
C  46.69600 -0.05500 48.22100
O  46.29400 -1.06600 47.67900
C  48.08500 -0.16100 48.82200
N  47.27300 5.61900 48.75100
C  48.07300 4.47500 48.87600
C  49.49600 4.77100 49.04600
C  49.44600 6.37100 49.27100
C  47.99500 6.72900 48.76400
C  50.15800 4.03500 50.21400
C  50.68800 7.09700 48.56700
C  51.00800 8.45200 49.23900
N  45.21700 7.55200 48.40300
C  46.28200 8.43000 48.46600
C  45.82900 9.77400 48.32000
C  44.43700 9.68300 48.10000
C  44.12000 8.32000 48.16700
C  46.69500 10.94400 48.44000
C  43.24700 10.39700 48.01000
O  43.03600 11.60600 48.06100
C  42.08400 9.30500 47.88300
C  41.15300 9.66000 49.06700
O  41.14500 9.17300 50.17300
O  40.10200 10.34100 48.52700
C  38.99800 10.43300 49.36900
H  41.94600 2.44100 47.83500
H  48.32100 2.34100 48.88600
H  48.28600 8.82400 49.03900
H  40.06800 6.82400 48.17700
H  40.33100 4.38500 46.80500
H  40.52900 3.74000 49.52200
H  39.16500 3.60600 48.35800
H  39.46500 5.09500 49.38400
H  41.03600 6.31100 45.29300
H  40.62900 7.80100 45.77800
H  38.36200 7.70300 45.91600
H  38.38000 6.08400 46.33000
H  43.77700 -0.75300 48.14300
H  43.58300 0.07100 46.58800
H  42.59200 0.47400 47.94700
H  48.83400 0.32900 48.20000
H  48.33500 -1.20800 48.99700
H  47.95100 0.42200 49.73300
H  50.07300 4.56400 48.14400
H  49.34600 6.60500 50.33000
H  49.41500 3.35000 50.62200
H  50.56100 4.55700 51.08200
H  50.99400 3.42500 49.87200
H  50.48200 7.33200 47.52300
H  51.53900 6.42500 48.45500
H  52.03800 8.34800 49.58000
H  50.29700 8.69800 50.02800
H  51.08700 9.24000 48.49000
H  47.43300 10.96900 47.63800
H  47.32100 10.91800 49.33200
H  46.18500 11.90500 48.36800
H  41.55200 9.55400 46.96400
H  38.54700 9.45400 49.20400
H  38.38700 11.16200 48.83700
H  39.17500 10.64000 50.42500
Mg 35.57500 2.50400 30.41300
C  33.03700 3.47000 32.63400
C  37.76700 2.79500 32.95400
C  38.02600 1.67400 28.16200
C  33.26900 2.59900 27.82000
N  35.34600 3.20400 32.53000
C  34.22700 3.28100 33.24500
C  34.54200 3.23800 34.79300
C  36.09300 3.39000 34.77900
C  36.46200 3.03000 33.34100
C  36.61500 4.83500 35.04500
C  34.04600 1.89800 35.39600
C  33.97200 1.90100 36.85300
H  34.59700 2.99500 37.70500
N  37.60100 2.35400 30.51200
C  38.29700 2.47800 31.68400
C  39.70400 2.22100 31.41000
C  39.79700 1.63200 30.10100
C  38.43900 1.89600 29.53500
C  40.85900 2.26100 32.50100
C  40.97300 0.98900 29.34200
O  40.90500 0.74000 28.15500
C  42.29700 0.79300 30.20900
N  35.67400 2.23300 28.34600
C  36.80200 1.93000 27.64100
C  36.50400 1.51700 26.17000
C  34.95000 1.68900 26.12400
C  34.59000 2.27500 27.50000
C  37.12600 2.56700 25.03500
C  34.20100 0.30500 25.92300
C  34.13700 -0.32200 24.49600
N  33.61300 2.98000 30.19900
C  32.79500 2.93700 29.08400
C  31.47800 3.32200 29.47900
C  31.54400 3.52100 30.87300
C  32.86900 3.29100 31.28300
C  30.24600 3.52700 28.59400
C  30.72800 3.90300 31.98700
O  29.55800 4.24200 32.04800
C  31.68800 3.75400 33.25700
C  31.73000 5.06100 33.97600
O  32.02100 6.13400 33.47100
O  31.41200 4.89600 35.32300
C  31.68600 6.10900 36.14500
H  38.49000 2.85000 33.77100
H  38.82300 1.45500 27.44800
H  32.61000 2.52000 26.95300
H  34.00600 4.09900 35.19500
H  36.41300 2.72600 35.58200
H  35.85100 5.44200 35.53200
H  37.06100 5.24800 34.14100
H  37.40500 4.73500 35.79000
H  34.64100 1.05700 35.04100
H  33.05400 1.84300 34.94900
H  34.51900 1.01100 37.16700
H  32.94700 1.88300 37.22300
H  41.14400 1.26400 32.83600
H  40.46200 2.76600 33.38100
H  41.66500 2.88000 32.10700
H  42.95600 1.65100 30.34300
H  42.83200 0.04400 29.62700
H  42.08100 0.17400 31.08000
H  36.89200 0.51100 26.01100
H  34.65300 2.39100 25.34500
H  37.39900 3.53800 25.44900
H  36.37200 2.84500 24.29700
H  38.05900 2.18400 24.62200
H  33.19600 0.36200 26.34100
H  34.73300 -0.43600 26.52000
H  34.24000 0.44200 23.72600
H  33.22600 -0.91900 24.50600
H  34.86100 -1.13500 24.43700
H  29.28800 3.59200 29.11000
H  30.16400 2.75500 27.83000
H  30.36300 4.44800 28.02200
H  31.39200 2.93100 33.90700
H  32.43300 6.79300 35.74200
H  31.93700 5.74300 37.14100
H  30.68500 6.52200 36.27300

