158

Mg 34.83700 3.31700 29.81500
C  32.69800 4.24500 32.45200
C  37.49100 3.29500 31.96200
C  36.72800 2.67900 27.20900
C  32.04300 3.78200 27.67300
N  35.03600 3.83100 32.03800
C  33.99900 3.99200 32.93500
C  34.54000 3.97300 34.36600
C  36.09000 3.78800 34.17100
C  36.27800 3.67700 32.60300
C  36.94700 4.98000 34.72100
C  33.89700 2.76900 35.16500
C  33.44800 3.12500 36.65000
H  34.14600 4.23600 37.48000
N  36.82300 2.94300 29.65200
C  37.78900 2.96300 30.62300
C  39.02900 2.50200 30.02100
C  38.84900 2.51200 28.62900
C  37.43600 2.65700 28.47500
C  40.27400 2.26500 30.78000
C  39.86900 2.46700 27.40100
O  39.59000 2.56800 26.26100
C  41.38300 2.44700 27.72700
N  34.40400 3.34700 27.68100
C  35.42000 3.05000 26.79400
C  34.89000 2.96100 25.39700
C  33.41100 3.15100 25.57200
C  33.24600 3.42800 27.05600
C  35.54300 4.02600 24.39600
C  32.56400 1.89500 25.11300
C  31.13100 2.18700 24.66600
N  32.80300 3.99100 29.94900
C  31.81600 4.13500 29.04000
C  30.59400 4.46500 29.64900
C  30.90900 4.52700 30.96100
C  32.27300 4.32300 31.06100
C  29.29700 4.72600 28.90600
C  30.29900 4.75500 32.28300
O  29.17900 5.00900 32.66500
C  31.54000 4.58600 33.29200
C  31.56500 5.92200 33.95100
O  32.16800 6.86100 33.45300
O  31.01300 5.76000 35.20500
C  31.17500 6.85200 36.14700
H  38.34900 3.11700 32.61300
H  37.26300 2.44600 26.28600
H  31.11000 3.79800 27.10600
H  34.23700 4.87700 34.89600
H  36.52600 2.93300 34.68700
H  36.42200 5.57800 35.46600
H  37.25800 5.63500 33.90700
H  37.86100 4.56800 35.15000
H  34.60300 1.95100 35.31100
H  33.06600 2.32300 34.61800
H  33.40500 2.19500 37.21600
H  32.42000 3.41700 36.43200
H  40.84100 1.40000 30.43400
H  39.95000 2.14900 31.81400
H  40.91600 3.12800 30.60500
H  41.90500 2.70300 26.80500
H  41.68700 1.42300 27.94500
H  41.61200 3.11200 28.56000
H  35.04500 1.93800 25.05400
H  33.20500 4.12800 25.13400
H  34.79100 4.55400 23.81000
H  36.03300 3.52400 23.56200
H  36.23700 4.67900 24.92500
H  32.67400 1.14300 25.89400
H  33.10800 1.42100 24.29500
H  30.45600 1.99000 25.49900
H  30.75300 1.46500 23.94100
H  30.91500 3.20400 24.33700
H  28.67600 3.83100 28.94100
H  29.46000 4.89200 27.84100
H  28.73600 5.46400 29.47900
H  31.28900 3.85800 34.06400
H  30.25800 7.43100 36.25800
H  31.96900 7.53800 35.85500
H  31.42200 6.44700 37.12900
Mg 48.99000 46.03000 43.27300
C  45.67500 47.26000 42.21400
C  48.38900 43.32400 41.25200
C  52.24700 45.61100 43.36300
C  49.43800 49.36500 44.63700
N  47.25800 45.48200 41.80200
C  46.01100 46.08900 41.58500
C  45.15900 45.22000 40.69900
C  45.99100 43.88700 40.60300
C  47.31300 44.30800 41.20600
C  45.37300 42.55700 41.16100
C  44.92100 45.91200 39.32000
C  43.39400 45.84600 38.95700
H  42.95500 45.61400 37.53000
N  50.18000 44.60200 42.51200
C  49.80500 43.47700 41.78400
C  50.90700 42.60800 41.63300
C  52.05100 43.25400 42.19400
C  51.56100 44.53400 42.70100
C  50.77000 41.34400 41.05100
C  53.53800 42.70000 42.20900
O  53.67600 41.58800 41.66200
C  54.70100 43.48100 42.73100
N  50.61300 47.29000 43.99600
C  51.87300 46.85000 43.98200
C  52.89300 47.84800 44.44000
C  51.94800 48.97800 44.94300
C  50.57800 48.60200 44.46900
C  54.04800 47.38900 45.39900
C  52.49000 50.36500 44.56100
C  52.54700 51.35600 45.69900
N  47.80100 47.93700 43.51400
C  48.13200 49.05400 44.24500
C  46.98600 49.95200 44.24000
C  46.06200 49.26100 43.54000
C  46.51700 47.98900 43.10800
C  46.91000 51.27700 44.88900
C  44.62700 49.26300 43.16500
O  43.74900 50.11600 43.44200
C  44.32400 47.91900 42.31000
C  43.44300 47.00600 43.04400
O  43.56700 46.58900 44.19100
O  42.29700 46.83600 42.27800
C  41.36000 45.90200 42.89000
H  48.27600 42.43200 40.63200
H  53.33100 45.47500 43.35600
H  49.58600 50.36400 45.05100
H  44.21800 45.10900 41.23900
H  46.28600 43.66800 39.57700
H  44.31400 42.57400 41.41900
H  45.94200 42.45600 42.08500
H  45.52700 41.69300 40.51400
H  45.52600 45.47100 38.52900
H  45.36800 46.90700 39.30000
H  42.97600 46.78600 39.31800
H  42.83800 45.11400 39.54200
H  51.25500 41.40300 40.07700
H  49.72600 41.03000 41.06000
H  51.29600 40.59500 41.64300
H  55.60200 42.86900 42.67500
H  54.52400 43.81800 43.75200
H  54.95500 44.39600 42.19500
H  53.33400 48.14900 43.49000
H  51.80300 49.02900 46.02200
H  53.96400 47.90200 46.35700
H  54.99700 47.68600 44.95200
H  54.06500 46.32700 45.64500
H  51.87100 50.91200 43.85100
H  53.39700 50.30800 43.95800
H  52.26200 50.91900 46.65600
H  51.74400 52.05500 45.46500
H  53.45300 51.95600 45.60200
H  47.70400 51.33500 45.63300
H  45.91400 51.41500 45.31200
H  47.12200 52.06600 44.16700
H  43.92900 48.28900 41.36300
H  40.52100 45.71400 42.22000
H  40.95700 46.26900 43.83400
H  41.76700 44.92800 43.15900

