158

Mg 35.74800 49.59500 25.33900
C  35.39700 47.64300 28.30700
C  34.45600 52.24700 27.07500
C  35.29300 51.03900 22.44800
C  36.79100 46.59000 23.75800
N  35.04500 49.88900 27.40800
C  35.09000 49.00000 28.46500
C  34.67900 49.66500 29.78500
C  34.45800 51.20000 29.40600
C  34.64000 51.13200 27.87700
C  33.19100 51.82900 29.90900
C  35.72400 49.53000 30.91300
C  35.24200 49.10800 32.26800
H  33.78500 49.49100 32.64100
N  35.04600 51.37600 24.80800
C  34.59000 52.44600 25.69400
C  34.23400 53.63500 24.88900
C  34.47500 53.27300 23.50500
C  34.88900 51.80500 23.50900
C  33.73900 54.91500 25.44900
C  34.32800 54.07000 22.19800
O  34.71700 53.67800 21.12000
C  33.48300 55.35000 22.18300
N  36.10700 48.89700 23.41300
C  35.81200 49.70600 22.32600
C  36.39800 49.14000 20.99400
C  36.88900 47.75300 21.52100
C  36.59500 47.72600 22.97500
C  35.58300 49.21900 19.70800
C  38.32000 47.36100 21.13000
C  39.44200 47.93400 21.98200
N  35.97000 47.51000 25.85000
C  36.43700 46.43700 25.12000
C  36.33800 45.15900 25.87900
C  36.01400 45.61900 27.18300
C  35.83400 47.04300 27.09400
C  36.59900 43.71200 25.32500
C  35.80800 45.28600 28.55600
O  35.94500 44.18500 29.07700
C  35.40600 46.56500 29.35000
C  34.08200 46.26800 30.03400
O  32.97000 46.15900 29.58200
O  34.32500 45.97100 31.36300
C  33.36700 45.48600 32.33500
H  34.20900 53.13700 27.65800
H  35.13700 51.38200 21.42300
H  37.01300 45.68400 23.19000
H  33.71800 49.22300 30.04900
H  35.29800 51.78100 29.78800
H  33.49500 52.39500 30.79000
H  32.37900 51.14400 30.15200
H  32.78700 52.46400 29.12000
H  36.22100 50.45700 31.19800
H  36.56300 48.92500 30.56900
H  35.97500 49.47200 32.98800
H  35.33600 48.02200 32.30300
H  32.66700 54.79600 25.60600
H  34.14300 55.72500 24.84100
H  34.09300 55.09300 26.46400
H  34.01800 56.24500 22.49900
H  32.67400 55.17000 22.89200
H  33.04100 55.40100 21.18700
H  37.30900 49.67400 20.72400
H  36.34500 46.94200 21.03500
H  36.12600 49.64400 18.86300
H  34.63000 49.74300 19.78300
H  35.35000 48.21100 19.36500
H  38.47700 47.77800 20.13500
H  38.49100 46.30800 20.90400
H  39.84600 47.11400 22.57500
H  39.20700 48.60400 22.80900
H  40.27700 48.37400 21.43800
H  37.59700 43.64800 24.89000
H  35.84200 43.20300 24.72800
H  36.70700 43.18200 26.27100
H  36.15000 46.83900 30.09800
H  33.67800 44.49300 32.65800
H  32.40700 45.52300 31.82100
H  33.28700 46.07900 33.24600
Mg -9.46400 18.75600 42.50800
C  -6.10500 17.71600 42.49100
C  -8.41300 21.96300 41.72400
C  -12.62800 19.46500 41.91500
C  -10.29900 15.35500 43.05000
N  -7.40700 19.69700 41.76800
C  -6.21200 19.07800 42.11900
C  -5.07100 20.07300 42.13500
C  -5.83200 21.45900 42.20000
C  -7.30700 21.07300 41.91900
C  -5.75100 22.20800 43.57500
C  -3.85000 19.94400 41.18200
C  -4.12300 19.14800 39.84200
H  -3.65200 19.78800 38.54400
N  -10.43300 20.62000 41.97200
C  -9.81000 21.75900 41.70100
C  -10.84600 22.70400 41.45400
C  -12.10000 22.13700 41.68600
C  -11.80200 20.66000 41.87100
C  -10.61800 24.07600 41.00400
C  -13.42500 22.76400 41.59700
O  -13.38000 23.99800 41.48700
C  -14.78000 22.06600 41.84700
N  -11.22400 17.50900 42.45100
C  -12.35500 18.08800 42.14400
C  -13.52300 17.10600 42.29800
C  -12.81800 15.76200 42.61300
C  -11.37500 16.22400 42.70300
C  -14.66100 17.55000 43.25400
C  -12.99700 14.58000 41.57900
C  -14.41800 13.96500 41.33700
N  -8.47700 16.89700 42.73600
C  -8.94600 15.63500 43.03400
C  -7.87100 14.73300 43.27200
C  -6.69300 15.52800 43.10000
C  -7.15900 16.80400 42.72900
C  -7.93000 13.24700 43.58500
C  -5.26100 15.56200 43.22100
O  -4.57400 14.61300 43.49700
C  -4.80900 16.93200 42.82100
C  -3.87500 17.50100 43.87100
O  -2.72000 17.82300 43.58800
O  -4.43800 17.42900 45.11400
C  -3.68500 17.86600 46.26200
H  -8.03100 22.98000 41.61900
H  -13.70000 19.59700 41.75300
H  -10.60100 14.32200 43.23500
H  -4.62700 20.00100 43.12800
H  -5.45000 22.07300 41.38400
H  -4.76600 22.67100 43.62800
H  -5.95200 21.52400 44.40000
H  -6.50700 22.99000 43.64000
H  -3.00600 19.47900 41.69200
H  -3.63900 20.95400 40.83100
H  -5.20500 19.02000 39.87400
H  -3.68200 18.16200 39.99200
H  -11.13800 24.38000 40.09600
H  -9.55600 24.31100 40.94000
H  -11.00700 24.74200 41.77400
H  -14.60100 21.39400 42.68600
H  -14.93200 21.49600 40.93100
H  -15.54700 22.83000 41.97700
H  -13.91100 17.05000 41.28000
H  -13.15200 15.46800 43.60800
H  -14.62000 17.03200 44.21200
H  -15.61500 17.14800 42.91400
H  -14.55600 18.61600 43.45600
H  -12.25800 13.79000 41.70800
H  -12.67700 15.10200 40.67700
H  -15.31900 14.28100 41.86200
H  -14.27400 12.93700 41.66900
H  -14.68500 13.94500 40.28000
H  -6.93600 12.83200 43.75300
H  -8.52400 12.72100 42.83800
H  -8.55500 13.20600 44.47700
H  -4.28900 16.89200 41.86400
H  -4.42800 18.28300 46.94200
H  -2.92000 18.63600 46.16000
H  -3.11800 17.10400 46.79700

