158

Mg 46.09100 4.54500 47.86200
C  43.78800 7.34900 47.46600
C  43.37100 2.51600 46.81600
C  48.26000 2.01800 47.38000
C  48.60900 6.82400 48.17700
N  43.83700 4.91300 47.27300
C  43.19900 6.09500 47.16200
C  41.70800 5.94300 46.77900
C  41.59700 4.35100 46.61400
C  42.97100 3.86700 46.94500
C  40.49000 3.74200 47.47500
C  41.26700 6.79600 45.52700
C  42.25500 6.92200 44.31200
H  41.55800 6.94100 42.94800
N  45.83300 2.52600 47.38000
C  44.62200 1.90600 47.03100
C  44.94600 0.51600 46.75100
C  46.32600 0.31200 47.02200
C  46.88300 1.61700 47.34000
C  43.94700 -0.51400 46.21400
C  47.01200 -0.98000 46.75000
O  46.42900 -1.98000 46.43800
C  48.51400 -1.01300 46.70900
N  48.11300 4.35900 47.80300
C  48.83000 3.22500 47.76000
C  50.32200 3.50600 47.80400
C  50.38300 5.03500 47.99000
C  48.95300 5.48200 48.01600
C  50.95900 2.60700 48.96200
C  51.03900 5.86500 46.83500
C  52.09800 6.82100 47.37300
N  46.22100 6.62600 47.82300
C  47.32500 7.40000 48.01000
C  46.96400 8.80500 48.00800
C  45.58900 8.86000 47.81600
C  45.20000 7.47400 47.71800
C  47.90900 9.86200 48.28300
C  44.49700 9.73500 47.74500
O  44.38400 10.98000 47.76000
C  43.27500 8.76400 47.48900
C  42.26300 9.05800 48.47900
O  42.08200 8.22900 49.41100
O  41.54800 10.19000 48.25900
C  40.52100 10.46500 49.26000
H  42.59300 1.85400 46.43200
H  49.02500 1.26100 47.19400
H  49.40300 7.57300 48.17800
H  41.12300 6.43200 47.55800
H  41.49600 4.12100 45.55400
H  39.70200 4.46000 47.70100
H  40.89000 3.22700 48.34800
H  40.06100 2.96900 46.83700
H  40.84300 7.75600 45.82100
H  40.32900 6.38500 45.15300
H  42.94700 6.08200 44.36700
H  42.88100 7.81100 44.22400
H  44.16700 -0.72600 45.16800
H  42.90700 -0.18900 46.23200
H  44.03000 -1.44600 46.77300
H  48.92400 -0.79900 47.69600
H  48.95400 -0.27900 46.03500
H  48.97700 -1.94700 46.39000
H  50.79800 3.26100 46.85400
H  50.79800 5.36500 48.94200
H  51.58200 3.30800 49.51800
H  51.76700 2.05500 48.48200
H  50.34300 1.94700 49.57400
H  50.35500 6.40900 46.18400
H  51.65600 5.12000 46.33200
H  53.09900 6.66500 46.97100
H  52.23400 6.90100 48.45100
H  51.92300 7.84600 47.04600
H  48.36800 9.74700 49.26500
H  47.50700 10.86000 48.11100
H  48.72500 9.94100 47.56600
H  42.85200 9.05000 46.52600
H  40.47500 11.53500 49.45800
H  40.65600 10.02800 50.25000
H  39.54800 10.11900 48.91100
Mg -0.00500 44.22900 25.54700
C  2.18800 44.45400 28.14700
C  -2.49600 43.71500 27.89500
C  -2.18200 43.34500 23.05900
C  2.52700 44.50400 23.23700
N  -0.06400 43.90800 27.84300
C  0.92000 44.18200 28.66600
C  0.42900 44.05400 30.10600
C  -1.06800 43.73400 29.96800
C  -1.23200 43.77800 28.50500
C  -1.64300 42.46200 30.69200
C  0.92300 45.15900 31.12900
C  0.31000 45.22800 32.48100
H  0.23000 43.94800 33.30000
N  -2.06600 43.73500 25.49100
C  -2.91500 43.63100 26.57000
C  -4.33200 43.53700 26.15100
C  -4.23200 43.32200 24.72400
C  -2.80200 43.50300 24.35700
C  -5.59700 43.53600 26.96300
C  -5.28900 42.96400 23.59200
O  -5.02600 42.75700 22.39600
C  -6.71700 42.74700 23.97400
N  0.13000 43.89100 23.45300
C  -0.84700 43.52900 22.66000
C  -0.38800 43.43500 21.17200
C  1.09200 44.06900 21.22400
C  1.29100 44.12000 22.75800
C  -0.49400 41.99600 20.59400
C  1.22200 45.51400 20.51100
C  1.41700 46.78700 21.37900
N  1.96500 44.43700 25.57300
C  2.90900 44.54200 24.58300
C  4.28700 44.58100 25.19400
C  4.03400 44.55500 26.52600
C  2.63300 44.53700 26.75900
C  5.49900 44.87300 24.48100
C  4.65600 44.54600 27.82300
O  5.81600 44.69900 28.20100
C  3.45500 44.45800 28.95400
C  3.71000 43.25500 29.85100
O  3.56500 42.05100 29.55700
O  4.07200 43.68800 31.11400
C  4.40400 42.64700 32.07900
H  -3.34900 43.64700 28.57400
H  -2.82200 43.15900 22.19500
H  3.36300 44.66000 22.55200
H  0.92800 43.13700 30.42000
H  -1.53700 44.69100 30.19700
H  -2.29800 42.73600 31.52000
H  -0.84800 41.86000 31.13200
H  -2.14600 41.81200 29.97500
H  0.85600 46.07000 30.53500
H  1.99000 45.07900 31.33800
H  -0.59500 45.83600 32.45600
H  1.06300 45.85500 32.95900
H  -5.43700 43.87700 27.98600
H  -5.95700 42.50800 26.91300
H  -6.27600 44.20900 26.44000
H  -7.28600 42.19900 23.22400
H  -7.01500 43.78800 24.09300
H  -6.80400 42.16500 24.89200
H  -1.04200 44.17300 20.70700
H  1.80700 43.38000 20.77400
H  -1.35900 41.99900 19.93000
H  -0.68100 41.24000 21.35500
H  0.38800 41.68300 20.03400
H  0.46500 45.65400 19.73900
H  2.10400 45.38800 19.88200
H  1.31700 46.83000 22.46400
H  0.78800 47.59700 21.00900
H  2.43300 47.13100 21.18900
H  5.46400 44.98400 23.39700
H  6.19800 44.03700 24.51700
H  5.84700 45.77000 24.99300
H  3.64000 45.36700 29.52600
H  4.88800 43.25400 32.84300
H  5.21300 42.02300 31.69600
H  3.53300 42.09600 32.43300

