158

Mg 46.20600 16.15200 28.24000
C  44.15400 15.64000 31.01700
C  48.43800 17.96000 30.13500
C  48.08100 16.73500 25.42600
C  43.84000 14.44400 26.15100
N  46.22300 16.65600 30.30700
C  45.31300 16.33300 31.32700
C  45.82200 16.98500 32.65200
C  47.10400 17.77300 32.26300
C  47.28600 17.40400 30.77900
C  47.04300 19.34600 32.37600
C  45.97800 15.98700 33.79500
C  45.59100 16.43200 35.21100
H  45.45800 18.02400 35.47900
N  47.98400 17.24300 27.85000
C  48.82600 17.81200 28.78900
C  50.10500 18.18300 28.16800
C  49.90200 17.94200 26.73900
C  48.57300 17.25100 26.58900
C  51.32900 18.73000 28.99200
C  50.82200 18.29700 25.61000
O  50.60300 18.01800 24.44000
C  52.08800 18.92800 25.85100
N  46.04600 15.59600 26.16500
C  47.01600 15.95000 25.28800
C  46.66300 15.34700 23.88400
C  45.27300 14.64400 24.07600
C  45.04200 14.82600 25.64000
C  46.81100 16.30300 22.71600
C  45.20500 13.15200 23.62500
C  45.95300 12.19800 24.57300
N  44.42700 15.12500 28.48900
C  43.51800 14.54100 27.58800
C  42.31300 14.06500 28.29400
C  42.50300 14.57200 29.66200
C  43.80100 15.11800 29.75900
C  41.13300 13.43400 27.68900
C  41.90600 14.61500 31.00800
O  40.84100 14.11400 31.41900
C  43.02800 15.36300 31.91800
C  42.48200 16.45300 32.71100
O  42.33200 17.62900 32.35500
O  42.16700 15.96300 33.97900
C  41.35600 16.78900 34.90600
H  49.15700 18.54300 30.71400
H  48.67400 16.81600 24.51200
H  43.18100 13.97700 25.41600
H  45.04000 17.67700 32.96200
H  47.91400 17.43100 32.90700
H  46.24300 19.81100 32.95200
H  47.05900 19.81500 31.39300
H  47.99500 19.60100 32.84300
H  47.00200 15.64200 33.93600
H  45.34900 15.16000 33.46800
H  46.38600 16.15800 35.90400
H  44.70300 15.88400 35.52700
H  51.21700 18.60600 30.06900
H  51.32300 19.76500 28.65200
H  52.21700 18.16200 28.71200
H  52.07100 19.82300 26.47300
H  52.61100 19.14200 24.91900
H  52.68200 18.18300 26.38100
H  47.39600 14.57600 23.64700
H  44.46600 15.19700 23.59500
H  45.85100 16.41000 22.21100
H  47.55600 16.07300 21.95400
H  46.99900 17.31400 23.07600
H  45.56300 13.02000 22.60400
H  44.16100 12.86300 23.50800
H  45.25400 11.66800 25.22000
H  46.78700 12.60500 25.14500
H  46.29000 11.39900 23.91200
H  40.79300 12.70100 28.42000
H  41.41700 13.10800 26.68800
H  40.34300 14.16500 27.51900
H  43.22900 14.56700 32.63400
H  40.41500 17.12200 34.46900
H  41.88200 17.64000 35.34000
H  40.91100 16.20700 35.71300
Mg 27.47400 50.69800 26.91100
C  25.47400 51.70400 29.63200
C  30.02400 49.81600 29.03100
C  29.49300 50.01300 24.26100
C  24.92300 51.81700 24.78600
N  27.61400 50.74500 29.05700
C  26.71700 51.01500 30.02200
C  27.15600 50.74700 31.43500
C  28.67000 50.31100 31.21100
C  28.80100 50.21900 29.60600
C  29.69900 51.17200 31.82100
C  26.30800 49.59600 32.01800
C  25.24300 49.96400 33.05600
H  25.15400 49.11000 34.37300
N  29.45100 49.87900 26.66500
C  30.34200 49.62100 27.66600
C  31.60100 49.11300 27.14800
C  31.52900 49.47400 25.72600
C  30.11800 49.89900 25.45800
C  32.72400 48.40600 28.01400
C  32.70400 49.57900 24.75500
O  32.53000 50.06500 23.67300
C  34.08200 49.12700 25.09900
N  27.29200 51.04300 24.82400
C  28.16800 50.45400 23.91400
C  27.59200 50.44700 22.51100
C  26.06000 50.79700 22.75400
C  26.11600 51.35000 24.17500
C  28.33700 51.35100 21.42100
C  25.01900 49.66400 22.56300
C  23.64700 50.01900 21.94500
N  25.58900 51.54000 27.02700
C  24.68600 52.01300 26.11300
C  23.55600 52.63600 26.76100
C  23.83900 52.57400 28.14600
C  25.03500 51.88500 28.26200
C  22.44000 53.44000 26.16400
C  23.29700 52.84600 29.48900
O  22.22600 53.36100 29.75700
C  24.27800 52.33700 30.46500
C  24.78400 53.47500 31.29300
O  25.51600 54.40900 30.84000
O  24.30600 53.38100 32.57300
C  24.76100 54.48400 33.44200
H  30.82400 49.47000 29.68900
H  30.00900 49.77000 23.33000
H  24.09800 51.93900 24.08100
H  27.06600 51.71200 31.93300
H  28.96600 49.31100 31.52600
H  30.74100 50.87800 31.94900
H  29.30600 51.40200 32.81100
H  29.62500 52.12800 31.30300
H  27.00000 48.94900 32.55700
H  25.81800 49.13800 31.15900
H  24.32000 49.87500 32.48300
H  25.37100 51.03200 33.23000
H  32.25400 48.00000 28.90900
H  33.44700 49.15400 28.34000
H  33.12200 47.65600 27.33100
H  34.71600 49.21100 24.21600
H  34.10100 48.07200 25.37300
H  34.56900 49.74000 25.85700
H  27.50000 49.39600 22.23700
H  25.72800 51.64400 22.15300
H  29.15800 51.91800 21.86100
H  27.69800 52.03600 20.86300
H  28.76800 50.76400 20.61000
H  24.90800 49.13200 23.50800
H  25.43500 48.90100 21.90400
H  22.90300 49.32300 22.33200
H  23.74000 49.91500 20.86400
H  23.30900 51.03600 22.14600
H  21.47300 53.08500 26.52100
H  22.38600 53.35000 25.07900
H  22.58400 54.49500 26.39700
H  23.91900 51.53800 31.11300
H  25.83200 54.60900 33.60200
H  24.39400 54.48300 34.46900
H  24.46700 55.45400 33.04200

