158

Mg 9.28200 4.38700 28.03400
C  10.81600 2.88100 30.90300
C  7.25000 6.17700 30.20000
C  7.73900 5.55000 25.43400
C  11.10700 2.06700 26.11100
N  9.02800 4.39900 30.30300
C  9.90500 3.94700 31.30900
C  9.52900 4.58300 32.65400
C  8.24100 5.41400 32.31800
C  8.06200 5.25000 30.83400
C  7.06200 5.02300 33.18600
C  10.76600 5.52200 33.08500
C  10.82200 5.94700 34.58800
H  11.79300 5.20700 35.58100
N  7.81600 5.88300 27.82600
C  7.07000 6.41400 28.80600
C  6.21200 7.38700 28.16500
C  6.44400 7.36200 26.81800
C  7.34500 6.23000 26.62400
C  5.17800 8.17400 28.89500
C  5.82900 8.20500 25.69000
O  6.05600 7.97100 24.55200
C  5.00600 9.25700 25.93900
N  9.27600 3.71700 26.05000
C  8.57000 4.47100 25.13600
C  9.06200 4.14800 23.76800
C  10.01000 2.92700 23.92900
C  10.20200 2.89500 25.47800
C  7.92900 3.89800 22.75700
C  11.40400 2.90900 23.12400
C  11.55700 1.81900 22.07000
N  10.71300 2.80500 28.39800
C  11.35000 1.91600 27.50700
C  12.11400 0.86600 28.16600
C  11.98300 1.26100 29.53900
C  11.10200 2.42900 29.60200
C  12.79300 -0.35600 27.58400
C  12.39600 0.92700 30.94800
O  13.01000 -0.02700 31.39000
C  11.68900 2.01300 31.86900
C  10.87100 1.26300 32.90200
O  9.74600 0.79300 32.83100
O  11.60700 1.21700 34.03000
C  11.12300 0.69200 35.26200
H  6.63200 6.85600 30.79200
H  7.40700 6.01000 24.50100
H  11.73500 1.51700 25.40700
H  9.25700 3.83400 33.39900
H  8.42800 6.48100 32.43500
H  6.38700 4.37600 32.62600
H  6.53800 5.87600 33.61800
H  7.38200 4.55100 34.11500
H  10.90200 6.38400 32.43200
H  11.63900 4.91000 32.85600
H  9.76300 5.79000 34.79300
H  10.98800 7.02000 34.69300
H  5.54800 9.16100 29.17200
H  4.88300 7.67300 29.81700
H  4.21900 8.07200 28.38800
H  4.01200 8.95400 26.26700
H  4.75900 9.80200 25.02800
H  5.58100 9.92900 26.57600
H  9.57200 5.08500 23.54100
H  9.40700 2.04100 23.73400
H  6.96900 3.88900 23.27300
H  8.12300 2.97400 22.21100
H  8.00800 4.74000 22.06900
H  12.18800 2.82200 23.87700
H  11.43800 3.90000 22.67200
H  10.67200 1.76300 21.43500
H  11.69500 0.82200 22.48700
H  12.41200 2.02600 21.42600
H  13.55700 -0.58300 28.32800
H  13.24900 -0.12500 26.62200
H  12.02000 -1.11900 27.68500
H  12.38700 2.66600 32.39300
H  10.52600 -0.20200 35.08100
H  10.46800 1.34100 35.84400
H  11.91800 0.44800 35.96700
Mg 9.76800 48.08600 25.98100
C  7.45000 47.91000 28.64300
C  12.10600 49.51100 28.08500
C  11.81000 48.31700 23.38000
C  7.12300 47.07500 23.92000
N  9.63100 48.92700 27.99300
C  8.70300 48.48500 28.99500
C  9.24100 48.67100 30.52100
C  10.61800 49.41300 30.18100
C  10.83200 49.25200 28.66300
C  10.60600 50.88100 30.71300
C  9.26200 47.28300 31.28300
C  10.27600 47.07000 32.42500
H  9.83400 46.09400 33.53500
N  11.73100 48.75700 25.77600
C  12.51100 49.30900 26.74300
C  13.87100 49.38100 26.24000
C  13.75200 49.07800 24.84900
C  12.37300 48.74000 24.61200
C  15.01700 49.85200 26.97800
C  14.84000 49.07300 23.77900
O  14.69800 48.83100 22.59900
C  16.25700 49.46800 24.18800
N  9.57600 47.75600 23.92200
C  10.52400 47.87100 22.97600
C  10.19400 47.23600 21.59600
C  8.69700 46.82500 21.85700
C  8.42900 47.18600 23.35300
C  10.43400 48.18000 20.42800
C  8.39300 45.37500 21.51300
C  8.63300 44.20700 22.52100
N  7.71000 47.65700 26.16500
C  6.83800 47.29400 25.24300
C  5.52300 47.08800 25.84200
C  5.72800 47.31400 27.20800
C  7.09000 47.62700 27.30500
C  4.24200 46.76500 25.09300
C  5.06600 47.29900 28.48900
O  3.93400 47.00600 28.82600
C  6.23400 47.61500 29.50100
C  6.37400 46.31900 30.20900
O  7.04000 45.37500 29.80400
O  5.74600 46.41100 31.41500
C  5.91000 45.28600 32.33500
H  12.90800 49.81600 28.76100
H  12.49900 48.21400 22.54000
H  6.35000 46.75200 23.21900
H  8.54500 49.36600 30.99000
H  11.36600 48.77400 30.65100
H  11.51800 50.92700 31.30800
H  9.78700 51.03100 31.41700
H  10.52200 51.56800 29.87100
H  9.49400 46.45100 30.61800
H  8.27600 47.07900 31.70100
H  10.26600 48.06600 32.86600
H  11.29400 47.08600 32.03600
H  14.77100 50.50900 27.81300
H  15.60000 50.60500 26.44800
H  15.79700 49.15700 27.28900
H  16.26700 50.52200 24.46600
H  16.90400 49.32100 23.32300
H  16.64900 48.85200 24.99800
H  10.77400 46.31800 21.50400
H  8.02500 47.35600 21.18200
H  9.51500 48.34100 19.86600
H  11.14900 47.69400 19.76400
H  10.94100 49.08900 20.75400
H  8.86500 45.14700 20.55800
H  7.31100 45.28500 21.40800
H  9.21900 44.51700 23.38600
H  9.16200 43.39100 22.02900
H  7.65100 43.77300 22.70900
H  3.66900 47.69100 25.06100
H  3.58600 46.09500 25.65000
H  4.45300 46.39500 24.08900
H  6.04100 48.37600 30.25800
H  6.21400 44.40800 31.76600
H  5.07000 45.06800 32.99500
H  6.75600 45.52000 32.98100

