158

Mg 54.04100 24.55100 44.49700
C  51.36100 26.69400 44.00400
C  51.94600 21.95200 43.50200
C  56.75800 22.61300 44.18500
C  56.06200 27.24300 45.37100
N  51.92900 24.34500 43.80200
C  51.00600 25.37600 43.83700
C  49.52800 24.82600 43.71000
C  49.79200 23.30400 43.95100
C  51.30600 23.18900 43.65500
C  49.37000 22.68400 45.47100
C  48.75700 25.02200 42.40300
C  49.66200 24.93800 41.14000
H  49.02700 24.74600 39.72900
N  54.31500 22.54200 43.80400
C  53.34600 21.65600 43.52000
C  53.99600 20.35500 43.20000
C  55.35700 20.51700 43.55600
C  55.54800 21.92300 43.83800
C  53.30800 19.12300 42.69900
C  56.36900 19.31000 43.38400
O  55.95600 18.21400 42.93100
C  57.78400 19.34300 43.67400
N  56.17900 24.90000 44.69800
C  57.13500 23.92000 44.58600
C  58.59900 24.44400 44.85600
C  58.25600 25.78700 45.59000
C  56.72400 26.04200 45.19900
C  59.32600 23.42100 45.76300
C  59.17400 26.98700 45.11000
C  59.63600 27.90400 46.21600
N  53.87400 26.61800 44.66100
C  54.76900 27.62200 45.04400
C  54.00400 28.87500 45.15400
C  52.71500 28.56100 44.70200
C  52.69600 27.17200 44.38400
C  54.43700 30.19500 45.57600
C  51.44000 29.14800 44.50700
O  51.05800 30.28600 44.70100
C  50.52300 27.99100 43.99900
C  50.00000 28.23400 42.64600
O  50.78100 28.24100 41.67400
O  48.68600 28.67300 42.65800
C  48.03100 28.93400 41.33200
H  51.22500 21.19000 43.20000
H  57.63400 21.97000 44.07900
H  56.76300 28.03700 45.63700
H  49.02000 25.26300 44.56900
H  49.26000 22.67900 43.23400
H  49.23400 23.53100 46.14400
H  50.07100 21.94700 45.86100
H  48.38100 22.22900 45.42100
H  48.37600 26.04100 42.46000
H  47.96200 24.27800 42.45200
H  50.33000 24.10400 41.35700
H  50.21600 25.87300 41.22300
H  53.76400 18.64900 41.83000
H  52.41600 19.51200 42.20900
H  53.06500 18.37800 43.45700
H  58.27800 18.37200 43.69400
H  57.97300 19.80600 44.64300
H  58.00800 20.00800 42.84000
H  59.14600 24.66900 43.94100
H  58.35500 25.67200 46.67000
H  59.73500 23.82100 46.69100
H  60.23800 23.13200 45.23900
H  58.79700 22.49300 45.97900
H  58.65000 27.62800 44.40100
H  60.05300 26.67900 44.54500
H  60.13600 27.36000 47.01700
H  58.87100 28.54000 46.66200
H  60.35700 28.63600 45.85100
H  54.44500 30.14700 46.66500
H  53.64700 30.91000 45.35000
H  55.43900 30.43500 45.21900
H  49.68000 27.87500 44.68000
H  48.28100 29.87800 40.84700
H  46.96200 28.97000 41.54100
H  48.31000 28.17300 40.60400
Mg 47.35300 25.63300 27.84700
C  48.46400 27.70100 30.41400
C  46.81500 23.15000 30.15300
C  46.94300 23.53500 25.36200
C  48.54800 28.09900 25.63100
N  47.56700 25.50900 29.97900
C  47.96000 26.53700 30.87600
C  47.66400 26.11300 32.35800
C  47.39800 24.61700 32.20100
C  47.22300 24.35900 30.66100
C  48.53900 23.79500 32.89700
C  46.69400 27.01100 33.26800
C  47.34900 27.55900 34.49800
H  46.39000 28.07000 35.63600
N  46.95000 23.63800 27.74800
C  46.64400 22.81900 28.80700
C  46.01500 21.59700 28.32600
C  46.08800 21.67600 26.89600
C  46.76900 22.92900 26.62000
C  45.45700 20.47900 29.27700
C  45.71300 20.64000 25.89000
O  45.87600 20.69500 24.63300
C  45.12000 19.33900 26.36200
N  47.69600 25.79400 25.79000
C  47.44400 24.79700 24.90800
C  47.55700 25.26100 23.48300
C  48.02600 26.71900 23.50600
C  47.97100 26.94300 25.03600
C  48.25600 24.30000 22.38800
C  47.19000 27.76100 22.72500
C  47.94200 28.50900 21.61500
N  48.24500 27.49200 27.90400
C  48.69200 28.35400 26.97900
C  49.24500 29.61900 27.53500
C  49.09600 29.41300 28.89100
C  48.56700 28.02200 29.08400
C  49.87200 30.81100 26.84500
C  49.22900 29.99400 30.20000
O  49.67300 31.08200 30.51500
C  48.84600 28.89100 31.24900
C  50.08700 28.83600 32.11300
O  51.12800 28.29100 31.80800
O  49.82100 29.27300 33.39500
C  50.87100 29.05100 34.41900
H  46.62400 22.37700 30.90100
H  46.66300 22.94100 24.48900
H  48.97000 28.77900 24.88800
H  48.66200 26.33300 32.73800
H  46.43500 24.33900 32.63100
H  48.01100 23.04500 33.48700
H  49.01900 24.37600 33.68500
H  49.11600 23.25200 32.14900
H  45.92700 26.36300 33.69200
H  46.15000 27.80100 32.74900
H  47.95000 28.41800 34.19900
H  48.06600 26.90000 34.98700
H  45.52200 20.78300 30.32200
H  46.08300 19.59200 29.38200
H  44.41000 20.24400 29.08800
H  45.85200 18.77400 26.93800
H  44.93100 18.79300 25.43800
H  44.17600 19.51800 26.87700
H  46.51300 25.37000 23.18500
H  49.05800 26.85700 23.18400
H  49.01100 23.73100 22.92900
H  48.63800 25.02700 21.67100
H  47.43000 23.68700 22.02900
H  46.69400 28.50000 23.35500
H  46.44400 27.24300 22.12300
H  48.17200 27.80000 20.81900
H  48.78200 29.01700 22.08800
H  47.31100 29.34200 21.30500
H  49.32900 31.02500 25.92500
H  50.88100 30.46900 26.61600
H  49.91600 31.73200 27.42800
H  48.06500 29.34400 31.86000
H  50.57400 28.27700 35.12700
H  51.03400 29.93800 35.03000
H  51.89800 28.97600 34.06300

