158

Mg 54.74100 24.17800 45.41100
C  52.14400 26.26500 44.44600
C  53.08700 21.49600 44.16900
C  57.56300 22.33500 45.99400
C  56.47200 27.06100 46.55500
N  53.02200 24.04600 44.08800
C  51.99800 24.95900 43.94800
C  50.78600 24.32100 43.17000
C  51.02500 22.87500 43.65100
C  52.53300 22.79100 43.85200
C  50.23100 22.30000 44.84800
C  50.74100 24.58400 41.63600
C  49.39900 24.44600 41.00600
H  49.37600 23.87300 39.58900
N  55.19300 22.14000 45.18000
C  54.37900 21.20600 44.62300
C  55.03900 19.98000 44.56500
C  56.40700 20.13600 44.94100
C  56.48000 21.57400 45.45700
C  54.39000 18.76100 44.03800
C  57.45400 19.13000 44.88100
O  57.21600 17.98900 44.44300
C  58.89900 19.39700 45.19700
N  56.82300 24.63200 45.95700
C  57.74700 23.70800 46.19500
C  59.04900 24.35200 46.62100
C  58.72000 25.85300 46.72800
C  57.26200 25.87200 46.46600
C  59.64900 23.74600 47.97600
C  59.47200 26.80600 45.76700
C  60.14900 28.07500 46.32400
N  54.41200 26.26700 45.55200
C  55.19000 27.26400 46.11500
C  54.37200 28.47800 46.23000
C  53.20100 28.13800 45.54100
C  53.31600 26.76100 45.16100
C  54.70600 29.69300 46.87600
C  51.95400 28.55300 45.11900
O  51.41600 29.67000 45.19200
C  51.28400 27.49800 44.30400
C  51.07700 28.02000 42.94700
O  51.96800 28.28600 42.12600
O  49.69900 28.16600 42.67700
C  49.40900 28.53800 41.28100
H  52.45900 20.62700 43.96100
H  58.52400 21.89900 46.27500
H  56.92800 27.99300 46.89500
H  49.84500 24.74500 43.52200
H  50.74000 22.18600 42.85600
H  49.42100 22.94900 45.18000
H  50.89500 22.04300 45.67300
H  49.79200 21.39100 44.43500
H  51.30800 23.79100 41.14800
H  51.22600 25.53400 41.41300
H  48.95300 25.43900 40.94500
H  48.70200 23.84500 41.58900
H  54.70000 18.58300 43.00900
H  53.30800 18.82800 43.92600
H  54.64300 17.87400 44.61900
H  59.25100 20.38000 44.88400
H  59.56900 18.63800 44.79200
H  59.02600 19.45100 46.27800
H  59.73700 24.19900 45.78900
H  58.96400 26.20000 47.73200
H  59.15800 22.77800 48.07100
H  59.33400 24.28400 48.87000
H  60.72100 23.56000 47.90400
H  58.72400 27.16000 45.05800
H  60.15300 26.31100 45.07500
H  59.60200 28.94700 45.96500
H  61.18700 27.90400 46.03800
H  60.14400 28.23900 47.40100
H  55.52500 29.64700 47.59300
H  53.82800 30.05600 47.41100
H  54.98700 30.43600 46.12900
H  50.28100 27.46200 44.72900
H  48.84800 29.47300 41.29800
H  48.58000 27.99700 40.82600
H  50.16000 28.46300 40.49500
Mg -10.79600 17.60500 40.91900
C  -7.22100 17.46800 40.74400
C  -10.47700 20.95400 40.01000
C  -14.05900 17.78100 40.59700
C  -10.82800 14.16000 41.57100
N  -8.98200 18.88800 40.26300
C  -7.66300 18.71100 40.26800
C  -6.84900 19.93800 39.89900
C  -7.92600 21.05900 40.05400
C  -9.23000 20.22500 39.98600
C  -7.90800 21.86500 41.43400
C  -6.24600 19.87800 38.44100
C  -4.71200 19.52000 38.37700
H  -4.36200 18.29100 37.51600
N  -12.13100 19.18500 40.40000
C  -11.84700 20.46800 40.12800
C  -13.06300 21.17600 39.84400
C  -14.15500 20.28300 40.06000
C  -13.49600 18.99600 40.33600
C  -13.07000 22.57900 39.45400
C  -15.66500 20.55900 39.80700
O  -15.93200 21.72400 39.64500
C  -16.74600 19.52800 39.92000
N  -12.24800 16.16400 40.86600
C  -13.57800 16.49000 40.78300
C  -14.48400 15.30100 41.13900
C  -13.47200 14.25500 41.57400
C  -12.07900 14.79400 41.26300
C  -15.58400 15.53700 42.19200
C  -13.67700 12.74700 41.02500
C  -13.01500 12.48000 39.63000
N  -9.37500 16.04000 41.16500
C  -9.56400 14.74600 41.53200
C  -8.22800 14.21400 41.84600
C  -7.30300 15.18000 41.49500
C  -8.03000 16.32700 41.07100
C  -8.09200 12.86000 42.53500
C  -5.92600 15.50000 41.39700
O  -4.88400 14.84800 41.61900
C  -5.85300 17.02400 41.04200
C  -5.05900 17.72400 42.17000
O  -3.82900 17.62300 42.27600
O  -5.87500 18.51500 42.92100
C  -5.20300 19.44600 43.74600
H  -10.45400 22.02900 39.81800
H  -15.13800 17.76800 40.76300
H  -10.90200 13.10400 41.84100
H  -6.12500 19.94800 40.71400
H  -7.92100 21.80300 39.25700
H  -7.15900 21.37200 42.05400
H  -8.85500 21.72600 41.95700
H  -7.65900 22.92500 41.39200
H  -6.34600 20.80700 37.87800
H  -6.86300 19.08000 38.02900
H  -4.48700 19.36100 39.43200
H  -4.10000 20.39100 38.14200
H  -12.84100 22.78500 38.40800
H  -12.33500 22.97300 40.15500
H  -13.94500 23.08700 39.85800
H  -17.63800 20.06500 39.59700
H  -16.62600 19.54400 41.00300
H  -16.53500 18.59900 39.39000
H  -14.86700 14.94200 40.18300
H  -13.44500 13.93600 42.61500
H  -16.58700 15.56000 41.76600
H  -15.34900 16.46300 42.71700
H  -15.60200 14.83300 43.02300
H  -14.70700 12.55500 40.72300
H  -13.32400 12.08900 41.82000
H  -11.94000 12.44100 39.80600
H  -13.22400 13.30000 38.94300
H  -13.31400 11.49600 39.26900
H  -8.56500 12.09500 41.92000
H  -8.52200 12.89600 43.53600
H  -7.08400 12.47600 42.69300
H  -5.24500 17.00200 40.13700
H  -4.51000 18.89600 44.38400
H  -5.97300 19.81000 44.42700
H  -4.75600 20.26900 43.18900

