158

Mg 16.62600 -2.15100 27.83400
C  15.53700 -0.05600 30.52800
C  18.60600 -3.87500 29.89000
C  18.04100 -3.70500 25.10400
C  14.86200 -0.08200 25.65200
N  16.87200 -1.97700 30.01100
C  16.32500 -1.14400 30.87600
C  17.02700 -1.34500 32.30000
C  17.96500 -2.52000 32.03600
C  17.85400 -2.84200 30.52600
C  19.45900 -2.25500 32.58300
C  15.93900 -1.54900 33.36300
C  16.03300 -0.70500 34.64200
H  17.35400 0.07700 34.88500
N  18.02000 -3.70500 27.52000
C  18.73900 -4.26800 28.54000
C  19.49500 -5.42000 27.99900
C  19.29500 -5.38300 26.60000
C  18.37700 -4.19300 26.33600
C  20.27400 -6.35900 28.88000
C  19.96600 -6.31000 25.53300
O  19.80600 -6.09300 24.33300
C  21.02600 -7.38800 26.01500
N  16.73300 -1.70600 25.60200
C  17.28200 -2.60800 24.69700
C  16.96300 -2.14300 23.28800
C  15.70400 -1.23200 23.51400
C  15.74900 -1.00200 24.99600
C  18.11300 -1.20300 22.79100
C  14.40000 -1.91400 23.05200
C  13.93600 -1.45700 21.63800
N  15.37500 -0.51100 28.01100
C  14.77900 0.29400 26.99900
C  13.93400 1.31600 27.56500
C  14.25800 1.23200 28.94100
C  15.09300 0.08000 29.20000
C  13.07200 2.27100 26.81000
C  14.05300 1.87400 30.19900
O  13.38200 2.92100 30.39700
C  14.89600 1.11100 31.30000
C  15.72700 2.09300 32.05900
O  16.77900 2.49000 31.66800
O  15.10700 2.50500 33.23400
C  15.59400 3.78500 33.75000
H  19.23800 -4.43000 30.58700
H  18.23900 -4.43900 24.32000
H  14.18400 0.38700 24.93500
H  17.59600 -0.44100 32.51900
H  17.55100 -3.37900 32.56500
H  19.93700 -1.48400 31.97800
H  19.84100 -3.26900 32.70400
H  19.29900 -1.71000 33.51300
H  15.89400 -2.62100 33.55500
H  14.93900 -1.31700 32.99800
H  15.72500 -1.36900 35.45000
H  15.28100 0.07900 34.55200
H  21.32200 -6.07100 28.95300
H  20.14800 -7.37600 28.50700
H  19.80800 -6.37200 29.86500
H  21.42300 -7.79500 25.08500
H  20.44200 -8.12000 26.57400
H  21.71700 -6.83600 26.65100
H  16.78700 -3.02300 22.66900
H  15.91200 -0.25900 23.06800
H  19.07300 -1.33300 23.29300
H  17.97300 -0.15200 23.04300
H  18.42900 -1.16400 21.74900
H  13.59500 -1.64200 23.73500
H  14.45200 -2.99700 23.16900
H  14.47700 -0.53700 21.41700
H  12.84900 -1.38800 21.61600
H  14.17400 -2.22700 20.90300
H  13.40900 3.18100 27.30700
H  12.03000 2.07600 27.06200
H  13.21400 2.37600 25.73500
H  14.08100 0.90100 31.99300
H  15.91400 4.42800 32.93100
H  16.34700 3.54900 34.50200
H  14.71600 4.24400 34.20600
Mg -12.41500 37.86900 42.82000
C  -10.24900 35.41500 41.50400
C  -10.32800 40.31200 41.50200
C  -14.80900 40.07700 43.24800
C  -14.60700 35.34800 43.74600
N  -10.60000 37.91000 41.53400
C  -9.83300 36.74500 41.30700
C  -8.56600 37.06000 40.52500
C  -8.45600 38.65000 40.81000
C  -9.87100 39.00100 41.30600
C  -7.34100 39.10500 41.77700
C  -8.69200 36.66100 39.03100
C  -7.58600 35.66500 38.62600
H  -6.61200 36.11000 37.51600
N  -12.61200 39.91600 42.41200
C  -11.59100 40.76900 41.98500
C  -12.04000 42.12100 42.02000
C  -13.40900 42.06900 42.46200
C  -13.69100 40.62900 42.69500
C  -11.17900 43.33600 41.63300
C  -14.31500 43.32900 42.72100
O  -13.89200 44.38000 42.33200
C  -15.76300 43.28700 43.32400
N  -14.50200 37.59400 43.15400
C  -15.20800 38.75900 43.43400
C  -16.48900 38.44800 44.25100
C  -16.28400 36.91500 44.57900
C  -15.09000 36.57000 43.77200
C  -16.83300 39.32700 45.51800
C  -17.51100 35.98300 44.35600
C  -17.78900 34.94500 45.37700
N  -12.42000 35.77600 42.70700
C  -13.38400 34.85600 43.15500
C  -12.79600 33.56900 43.06100
C  -11.55100 33.71300 42.39900
C  -11.38900 35.06300 42.13500
C  -13.42900 32.40900 43.60500
C  -10.38200 33.04100 41.85700
O  -9.99600 31.87200 41.87400
C  -9.53800 34.12400 41.11400
C  -8.10800 34.03000 41.60000
O  -7.24800 33.62900 40.88300
O  -7.87300 34.25400 42.93600
C  -6.52400 34.06900 43.29800
H  -9.62100 41.08200 41.18600
H  -15.52800 40.83600 43.56200
H  -15.11000 34.58100 44.33900
H  -7.73500 36.54400 41.00700
H  -8.14200 39.13700 39.88700
H  -6.94300 38.19800 42.23100
H  -7.71200 39.79200 42.53900
H  -6.57900 39.60800 41.18200
H  -8.60800 37.57400 38.44200
H  -9.73700 36.35900 38.95400
H  -8.07700 34.78400 38.21300
H  -6.96900 35.29000 39.44200
H  -11.31700 43.62800 40.59200
H  -10.14500 43.04500 41.81900
H  -11.46100 44.18000 42.26300
H  -16.33200 42.80200 42.53100
H  -16.24100 44.26500 43.27500
H  -15.90900 42.73900 44.25500
H  -17.37200 38.64100 43.64300
H  -16.04400 36.86600 45.64100
H  -17.47900 40.14600 45.20000
H  -15.96900 39.81900 45.96400
H  -17.35000 38.64500 46.19300
H  -17.43300 35.57500 43.34800
H  -18.37900 36.64100 44.32000
H  -17.06200 34.82700 46.18100
H  -17.85000 34.00600 44.82800
H  -18.77900 35.12000 45.79800
H  -12.85900 31.98800 44.43400
H  -13.47300 31.70200 42.77700
H  -14.45000 32.59500 43.93900
H  -9.60100 33.73800 40.09700
H  -5.92700 34.75700 42.69800
H  -6.17000 33.06300 43.07500
H  -6.34700 34.19000 44.36700

