158

Mg 4.81600 54.45900 40.57900
C  4.67300 50.95800 41.13700
C  7.91300 53.99000 39.08200
C  4.82900 57.72100 39.81100
C  1.80400 54.77900 42.19800
N  5.98400 52.52300 39.84100
C  5.77500 51.22500 40.28100
C  6.84200 50.30500 39.75100
C  8.02400 51.33300 39.40900
C  7.33500 52.75700 39.48900
C  9.19800 51.33500 40.47200
C  6.31400 49.44600 38.63600
C  5.38300 50.11500 37.64000
H  5.76100 50.10700 36.15200
N  6.10300 55.63800 39.40700
C  7.38100 55.31900 38.97100
C  7.99100 56.48300 38.48000
C  7.05300 57.56300 38.57700
C  5.90700 56.98700 39.23300
C  9.40600 56.49900 37.85000
C  7.20500 58.95900 38.00000
O  8.25200 59.25000 37.49300
C  6.08600 59.92200 37.87200
N  3.31000 55.97200 40.67600
C  3.64500 57.27600 40.48100
C  2.57000 58.30100 40.95500
C  1.61800 57.35100 41.67200
C  2.25000 55.90500 41.45300
C  3.15100 59.46800 41.89500
C  0.09300 57.53500 41.23100
C  -0.94600 57.94900 42.38100
N  3.50800 53.18000 41.49700
C  2.34500 53.51700 42.21000
C  1.84100 52.30800 42.83900
C  2.77300 51.30600 42.49100
C  3.69600 51.87000 41.63000
C  0.64000 52.37900 43.73300
C  3.09700 49.88800 42.73800
O  2.51900 49.04800 43.45000
C  4.39800 49.62300 41.87200
C  3.82600 48.66800 40.88300
O  3.02000 48.98700 40.06000
O  4.50500 47.48100 40.93300
C  4.07100 46.41900 40.02200
H  8.96400 53.89700 38.80100
H  4.94500 58.80500 39.88000
H  0.93100 54.90700 42.84000
H  7.15300 49.83000 40.68200
H  8.36100 51.21900 38.37800
H  9.13000 50.44700 41.10000
H  9.20100 52.21300 41.11900
H  10.15700 51.37000 39.95300
H  5.91200 48.53700 39.08300
H  7.16500 49.20000 38.00100
H  4.88800 50.97700 38.08700
H  4.52800 49.44700 37.53600
H  9.59000 56.92400 36.86300
H  9.68900 55.45600 37.71400
H  10.05100 57.02800 38.55100
H  5.96900 60.39100 38.84900
H  5.12500 59.51200 37.56000
H  6.31900 60.81300 37.29000
H  2.03800 58.77600 40.13100
H  1.56900 57.55800 42.74100
H  4.19800 59.70800 41.71200
H  3.06800 59.07700 42.90900
H  2.51200 60.34400 41.77300
H  -0.28800 56.63700 40.74500
H  -0.02500 58.24200 40.40900
H  -1.73200 57.21700 42.19300
H  -1.50800 58.86000 42.17300
H  -0.58900 58.13500 43.39400
H  -0.19500 52.89400 43.25900
H  0.92700 52.92500 44.63300
H  0.33400 51.39100 44.07500
H  5.20500 49.16800 42.44600
H  4.69300 45.55300 40.24700
H  4.36200 46.80800 39.04600
H  3.00600 46.18900 39.99500
Mg -9.63300 38.86300 39.80200
C  -8.77500 35.54300 39.30300
C  -6.28600 39.75300 39.06000
C  -10.59700 42.06000 39.21600
C  -13.01300 37.92200 40.15800
N  -7.69100 37.77700 39.35500
C  -7.64800 36.49000 39.13600
C  -6.20100 36.05000 38.89800
C  -5.36600 37.33500 39.15000
C  -6.43600 38.42200 39.22900
C  -4.53500 37.30300 40.44100
C  -5.86700 35.28200 37.58200
C  -6.18300 36.11100 36.30100
H  -7.32500 35.63200 35.44200
N  -8.59900 40.62900 39.30400
C  -7.25400 40.74600 39.04200
C  -6.99700 42.13400 38.67700
C  -8.19300 42.90300 38.68800
C  -9.23200 41.85300 39.01100
C  -5.62400 42.64100 38.38100
C  -8.41100 44.35100 38.32100
O  -7.47200 45.07500 38.14100
C  -9.80600 44.87000 38.08700
N  -11.53600 39.82100 39.73600
C  -11.61700 41.16400 39.53700
C  -13.03600 41.64100 39.37900
C  -13.93500 40.25000 39.74800
C  -12.77500 39.22900 39.90100
C  -13.37600 42.86900 40.36400
C  -15.02000 39.80600 38.73300
C  -16.39800 39.89600 39.41500
N  -10.64800 37.10100 39.94100
C  -12.07900 36.83300 40.05600
C  -12.29900 35.36700 40.11600
C  -11.04400 34.83700 39.75300
C  -10.09200 35.91500 39.67400
C  -13.64200 34.63000 40.44000
C  -10.31100 33.56100 39.42000
O  -10.74300 32.43600 39.38600
C  -8.92800 33.97600 39.00200
C  -7.89300 33.13700 39.75000
O  -7.73400 33.10100 40.95500
O  -7.11700 32.36100 38.88200
C  -5.97300 31.63000 39.50500
H  -5.21800 39.94000 38.92900
H  -11.05500 43.05100 39.24200
H  -14.04000 37.55900 40.23700
H  -5.97800 35.30100 39.65800
H  -4.73000 37.42800 38.26900
H  -3.50500 37.12500 40.13200
H  -4.86500 36.52700 41.13100
H  -4.67800 38.29200 40.87800
H  -6.48500 34.38700 37.49900
H  -4.81600 34.99500 37.53000
H  -5.29300 36.24300 35.68600
H  -6.44100 37.10700 36.66000
H  -5.67700 43.39400 37.59400
H  -4.89800 41.88500 38.08200
H  -5.20000 43.08200 39.28300
H  -10.25700 45.04900 39.06300
H  -10.19700 44.10500 37.41700
H  -9.85500 45.82100 37.55600
H  -13.21000 42.03500 38.37800
H  -14.28900 40.37800 40.77100
H  -13.30400 43.85200 39.89900
H  -12.59800 42.87600 41.12800
H  -14.33800 42.72500 40.85600
H  -14.93800 38.73800 38.53200
H  -15.02900 40.26500 37.74400
H  -17.01800 40.55800 38.81000
H  -16.44300 40.20600 40.45900
H  -16.91300 38.93600 39.37000
H  -13.64500 33.55100 40.28300
H  -14.54600 35.05400 40.00300
H  -13.70900 34.67100 41.52700
H  -8.81600 33.59600 37.98700
H  -4.99500 31.96200 39.15600
H  -5.93600 30.56000 39.30000
H  -5.87000 31.79100 40.57800

