158

Mg 1.56400 -1.81300 43.83600
C  4.92600 -1.18300 43.23900
C  0.82300 0.95800 41.97100
C  -1.65800 -2.72900 43.76500
C  2.37000 -4.99200 44.97700
N  2.82400 -0.37700 42.60600
C  4.16800 -0.31300 42.55300
C  4.60000 0.89500 41.70300
C  3.24400 1.76300 41.52900
C  2.18300 0.71200 42.03500
C  3.23100 3.19100 42.12800
C  5.28000 0.69200 40.30800
C  6.49400 1.64900 40.05700
H  6.61200 2.29800 38.75600
N  -0.20600 -0.99500 42.91600
C  -0.29300 0.18400 42.31400
C  -1.64500 0.47800 41.93500
C  -2.45500 -0.51500 42.55200
C  -1.45600 -1.43600 43.17200
C  -2.28300 1.74100 41.24800
C  -3.97800 -0.62100 42.41600
O  -4.71000 0.17700 41.78200
C  -4.70700 -1.78600 43.06300
N  0.48100 -3.69500 44.11200
C  -0.81900 -3.67600 44.28200
C  -1.31300 -5.02600 44.83200
C  -0.03700 -5.61800 45.45800
C  1.04400 -4.76000 44.76300
C  -2.52900 -5.10600 45.79600
C  0.08400 -7.06600 44.98600
C  0.75800 -8.02700 46.08000
N  3.24800 -2.88200 44.18800
C  3.49100 -4.12200 44.69600
C  4.86600 -4.32900 44.96100
C  5.45600 -3.19800 44.47100
C  4.44100 -2.36100 43.86500
C  5.44800 -5.50000 45.64400
C  6.70400 -2.46200 44.41000
O  7.86500 -2.66900 44.87300
C  6.40400 -1.13900 43.59000
C  6.78000 0.08100 44.38100
O  6.34900 0.47100 45.48500
O  7.73600 0.76000 43.65600
C  8.19900 2.05300 44.22700
H  0.48200 1.89400 41.52500
H  -2.70000 -3.00700 43.59000
H  2.75100 -5.83100 45.56300
H  5.21700 1.37200 42.46300
H  3.04400 1.89900 40.46600
H  3.07500 3.95300 41.36500
H  4.23900 3.22500 42.54200
H  2.51400 3.22400 42.94800
H  4.63900 0.84300 39.43900
H  5.61200 -0.34600 40.32200
H  7.37100 1.01500 40.18100
H  6.63600 2.35300 40.87700
H  -2.90300 2.33900 41.91700
H  -2.77900 1.39300 40.34200
H  -1.50000 2.38000 40.84100
H  -4.54900 -2.64000 42.40400
H  -5.78400 -1.61400 43.07500
H  -4.31200 -1.93500 44.06800
H  -1.63600 -5.49800 43.90400
H  0.06400 -5.60100 46.54300
H  -3.21900 -4.26800 45.69800
H  -2.17900 -5.10700 46.82800
H  -3.02700 -6.06300 45.64000
H  0.66700 -6.95600 44.07200
H  -0.89200 -7.51500 44.80400
H  1.18700 -7.41900 46.87600
H  1.56900 -8.53300 45.55700
H  0.00500 -8.71600 46.46300
H  4.91000 -5.45600 46.59100
H  6.42800 -5.23500 46.04100
H  5.28100 -6.37400 45.01400
H  7.01300 -0.96700 42.70200
H  7.35300 2.73900 44.27000
H  8.93400 2.48600 43.54700
H  8.62900 1.94600 45.22300
Mg 16.76800 -1.37000 27.97900
C  15.80800 0.78600 30.64400
C  18.84800 -3.00600 29.97100
C  18.10100 -2.91000 25.20100
C  14.88300 0.82400 25.72100
N  17.24100 -1.04000 30.00300
C  16.75600 -0.19800 30.94900
C  17.38500 -0.54900 32.32600
C  18.43000 -1.61300 32.02000
C  18.15700 -1.90700 30.56400
C  19.93700 -1.20000 32.21100
C  16.21900 -1.04600 33.22400
C  16.05700 -0.33200 34.60900
H  17.21900 0.45000 35.29000
N  18.18300 -2.92700 27.68600
C  18.94700 -3.44600 28.64600
C  19.80700 -4.44900 28.10600
C  19.45300 -4.52700 26.72700
C  18.58400 -3.37600 26.47300
C  20.79700 -5.17700 28.82700
C  20.09400 -5.45700 25.68300
O  19.75100 -5.42000 24.50600
C  20.89300 -6.62500 26.13300
N  16.53000 -1.13900 25.76100
C  17.21800 -1.89400 24.86800
C  17.02100 -1.36700 23.45600
C  15.70500 -0.57600 23.61200
C  15.67200 -0.22100 25.13300
C  18.28800 -0.53700 22.92500
C  14.43400 -1.40800 23.27500
C  13.81700 -1.06600 21.95900
N  15.60200 0.39900 28.13000
C  14.92700 1.10200 27.11400
C  14.24600 2.25900 27.79600
C  14.47500 2.07300 29.17500
C  15.29400 0.95400 29.29400
C  13.38000 3.35300 27.22300
C  14.21600 2.71600 30.42200
O  13.58400 3.71900 30.70100
C  15.06500 1.86400 31.45000
C  15.97900 2.83500 32.03700
O  17.08600 3.10700 31.58000
O  15.43800 3.35500 33.14800
C  16.30800 4.39400 33.75400
H  19.46000 -3.46300 30.75100
H  18.52500 -3.38900 24.31600
H  14.34100 1.48000 25.03800
H  17.80900 0.37100 32.72800
H  18.24000 -2.58000 32.48500
H  20.38700 -0.86500 31.27600
H  20.47200 -2.03600 32.66100
H  20.07800 -0.33400 32.85900
H  16.29600 -2.10900 33.45200
H  15.28400 -1.00300 32.66600
H  15.81500 -1.10600 35.33700
H  15.16600 0.29300 34.55000
H  20.60300 -6.24000 28.68800
H  20.81900 -4.98700 29.90000
H  21.81400 -4.92400 28.52900
H  20.35400 -7.13700 26.93000
H  21.88500 -6.29800 26.44700
H  20.95500 -7.17000 25.19100
H  16.88100 -2.24700 22.82900
H  15.66200 0.36000 23.05400
H  18.03700 0.33600 22.32200
H  18.95300 -1.16600 22.33200
H  18.88400 -0.18700 23.76800
H  13.61200 -1.23000 23.96800
H  14.66700 -2.46500 23.14700
H  12.74700 -1.17200 22.13500
H  14.05500 -1.63700 21.06200
H  13.90700 -0.02400 21.65400
H  12.63400 3.60700 27.97600
H  12.77500 3.03400 26.37400
H  13.97900 4.20300 26.89500
H  14.45300 1.44900 32.25100
H  16.33800 5.22100 33.04500
H  17.23600 3.87300 33.99100
H  15.84000 4.69200 34.69300

