158

Mg 16.80900 -1.26600 27.28300
C  15.60700 0.69900 30.13200
C  18.91700 -2.86800 29.34700
C  17.90700 -2.87700 24.56800
C  14.70200 0.76500 25.33000
N  17.16600 -1.09000 29.52900
C  16.50400 -0.36700 30.45100
C  17.06100 -0.60000 31.87500
C  18.22400 -1.70800 31.58900
C  18.11400 -1.95400 30.08400
C  19.60700 -1.38500 32.14500
C  15.91900 -1.04000 32.94100
C  16.03800 -0.46700 34.36400
H  17.40700 0.13600 34.86700
N  18.28400 -2.60800 26.99400
C  18.99400 -3.23200 27.96300
C  19.83000 -4.15700 27.42500
C  19.54400 -4.16200 26.05300
C  18.54400 -3.21300 25.81200
C  20.81200 -5.07700 28.26400
C  20.11500 -5.01300 25.03900
O  19.73800 -5.07100 23.86400
C  21.22900 -6.01300 25.39100
N  16.39400 -0.99100 25.23000
C  16.93900 -1.84800 24.29300
C  16.47400 -1.51400 22.88400
C  15.42000 -0.36900 23.17400
C  15.50000 -0.19200 24.63200
C  17.50800 -1.10200 21.93600
C  14.05800 -0.72300 22.60800
C  13.15900 -1.70000 23.41900
N  15.39400 0.32700 27.57700
C  14.70000 1.08200 26.71400
C  13.90100 2.10100 27.35200
C  14.24100 2.01500 28.66300
C  15.09500 0.91000 28.80700
C  12.95800 3.03500 26.67100
C  14.04000 2.57700 29.95500
O  13.30900 3.51100 30.29200
C  14.92700 1.69800 30.98800
C  15.75700 2.74900 31.62400
O  16.70300 3.36800 31.24900
O  15.05900 3.06600 32.73600
C  15.46700 4.20600 33.62000
H  19.64800 -3.34600 30.00300
H  18.02500 -3.40800 23.62000
H  14.07100 1.33400 24.64300
H  17.44000 0.38200 32.15900
H  17.93200 -2.64600 32.06100
H  19.92500 -2.18200 32.81700
H  19.64000 -0.46100 32.72300
H  20.26100 -1.37500 31.27300
H  16.12100 -2.09600 33.12000
H  15.01000 -0.76800 32.40500
H  15.62300 -1.17100 35.08600
H  15.39900 0.41500 34.31500
H  20.51500 -6.12400 28.20100
H  20.67900 -4.88700 29.32900
H  21.83500 -4.88500 27.94100
H  20.90300 -6.72900 26.14500
H  21.98200 -5.31100 25.74900
H  21.68800 -6.48800 24.52400
H  15.94600 -2.41800 22.57900
H  15.73700 0.57600 22.73300
H  18.47100 -1.07100 22.44400
H  17.22700 -0.13900 21.50900
H  17.61100 -1.88000 21.17900
H  14.19000 -1.14700 21.61300
H  13.52200 0.21000 22.43900
H  12.34200 -1.14500 23.88100
H  13.77000 -2.22100 24.15700
H  12.78300 -2.38600 22.66100
H  12.29000 3.52000 27.38200
H  12.27500 2.46200 26.04300
H  13.40000 3.88800 26.15600
H  14.20800 1.25300 31.67600
H  15.12300 4.11300 34.65000
H  15.22800 5.20000 33.24000
H  16.55700 4.22700 33.64300
Mg 48.77000 35.61800 28.36200
C  46.48900 34.08900 30.71100
C  48.84400 38.31900 30.48500
C  50.34900 37.36300 25.97300
C  48.37400 32.99800 26.33500
N  47.77800 36.08100 30.36800
C  46.99300 35.36300 31.18500
C  46.63800 36.06000 32.49300
C  47.24500 37.47900 32.32400
C  47.99900 37.29400 30.96100
C  46.22000 38.63800 32.30600
C  47.18200 35.41400 33.78100
C  48.59400 34.81500 33.70500
H  49.79300 35.70100 34.11200
N  49.43900 37.55900 28.28400
C  49.47800 38.51400 29.26700
C  50.17800 39.70700 28.84700
C  50.53400 39.44000 27.48800
C  50.10800 38.06700 27.18900
C  50.38300 40.92900 29.67200
C  51.34100 40.28000 26.58300
O  51.69800 39.97900 25.42600
C  51.91900 41.62200 27.05300
N  49.23000 35.31700 26.40800
C  49.92700 36.13300 25.58600
C  50.38500 35.37200 24.37700
C  49.97800 33.90100 24.61800
C  49.15400 34.04400 25.88700
C  49.91100 35.87600 23.05400
C  51.23500 33.00400 24.76500
C  51.67000 32.17000 23.57700
N  47.75000 33.80100 28.49100
C  47.61400 32.84300 27.52700
C  46.74200 31.78400 28.00500
C  46.23400 32.25000 29.23800
C  46.94000 33.42200 29.53000
C  46.49300 30.51800 27.31800
C  45.26700 31.99800 30.26200
O  44.40400 31.10400 30.35600
C  45.40800 33.19500 31.26000
C  45.71000 32.66100 32.61600
O  46.77500 32.17500 32.92500
O  44.65100 32.88000 33.40700
C  44.83500 32.68000 34.81400
H  49.04500 39.19000 31.11400
H  51.01500 37.77600 25.21200
H  48.35200 32.11100 25.69900
H  45.55200 36.03800 32.58100
H  48.05700 37.67700 33.02300
H  45.83600 38.79500 31.29800
H  46.67100 39.53400 32.73500
H  45.36500 38.17500 32.79700
H  46.52500 34.57100 33.99400
H  47.20500 36.15200 34.58300
H  48.72000 34.41400 32.70000
H  48.70600 33.96000 34.37200
H  50.22900 41.83000 29.07900
H  51.32600 40.90200 30.21900
H  49.56300 40.99900 30.38700
H  51.21100 42.44700 26.97400
H  52.73200 41.75800 26.34000
H  52.41200 41.42000 28.00400
H  51.46700 35.48400 24.43700
H  49.30300 33.40400 23.92100
H  50.79200 36.26900 22.54700
H  49.11900 36.60800 23.21100
H  49.58800 35.11500 22.34400
H  51.11300 32.39300 25.66000
H  52.12400 33.59200 24.99300
H  52.54200 32.63500 23.11900
H  50.91400 32.23900 22.79400
H  51.73000 31.09900 23.77000
H  47.42100 30.20900 26.83500
H  45.67500 30.51500 26.59800
H  46.25300 29.78400 28.08700
H  44.48800 33.77900 31.24100
H  44.33800 33.51300 35.31200
H  45.87500 32.82300 35.10900
H  44.43700 31.70400 35.09000

