158

Mg 6.54600 53.77300 40.99500
C  5.62900 50.28100 40.76200
C  9.50800 52.92800 39.70900
C  7.03500 57.01700 40.87600
C  3.19800 54.33600 41.91000
N  7.33600 51.83200 40.06800
C  6.85300 50.53000 40.07400
C  7.92400 49.57300 39.56200
C  9.21800 50.40400 39.57800
C  8.68000 51.84500 39.86200
C  10.28000 50.00900 40.54600
C  7.60400 48.83300 38.22400
C  6.89600 49.49400 37.01900
H  7.81800 49.92400 35.96400
N  8.06700 54.92900 40.40200
C  9.23000 54.34500 39.88100
C  10.15800 55.35700 39.61900
C  9.54500 56.63200 40.00200
C  8.18400 56.27300 40.45500
C  11.49500 55.16600 39.03700
C  10.18400 57.92900 39.97500
O  11.32800 58.05400 39.65300
C  9.47400 59.22000 40.35700
N  5.22300 55.43900 41.17500
C  5.78000 56.68100 41.24400
C  4.67700 57.72800 41.55200
C  3.43200 56.86200 41.90800
C  3.93100 55.43300 41.65200
C  5.17800 58.69500 42.74800
C  2.01500 57.22600 41.36000
C  1.04500 57.70500 42.32900
N  4.78000 52.57600 41.32900
C  3.53900 52.95900 41.81600
C  2.70800 51.80000 42.07800
C  3.55800 50.74300 41.79600
C  4.74000 51.26000 41.22600
C  1.31300 51.73300 42.45300
C  3.69600 49.30300 41.73000
O  2.88300 48.46700 42.16500
C  5.08900 48.94600 41.13300
C  4.90100 47.98700 40.01500
O  4.47500 48.21600 38.87200
O  5.50100 46.82100 40.42400
C  5.51600 45.80900 39.35200
H  10.54400 52.62300 39.54800
H  7.22700 58.09100 40.93100
H  2.19700 54.54300 42.29700
H  7.95500 48.79900 40.32900
H  9.55900 50.29500 38.54800
H  10.00000 49.06500 41.01300
H  10.46900 50.73200 41.33900
H  11.28900 49.97200 40.13400
H  7.12800 47.88100 38.46000
H  8.57800 48.44900 37.92000
H  6.29300 50.35000 37.32300
H  6.14900 48.82600 36.59100
H  11.74300 54.10800 39.12300
H  12.32400 55.67300 39.53200
H  11.43200 55.44000 37.98400
H  10.12700 60.01800 40.00400
H  9.45800 59.24700 41.44700
H  8.54200 59.37000 39.81200
H  4.52800 58.36300 40.67900
H  3.28100 56.91400 42.98600
H  5.21300 59.71500 42.36400
H  6.17000 58.37900 43.07100
H  4.61200 58.76300 43.67800
H  1.55800 56.44700 40.74900
H  2.15000 58.15800 40.81100
H  1.54800 58.05000 43.23200
H  0.25100 57.02400 42.63600
H  0.50300 58.55100 41.90600
H  1.29000 51.74800 43.54300
H  0.76000 50.86500 42.09400
H  0.87300 52.66800 42.10600
H  5.51900 48.33700 41.92800
H  4.55400 45.76500 38.84100
H  5.60200 44.83500 39.83400
H  6.39400 46.03800 38.74800
Mg -6.52900 24.48200 25.88700
C  -4.91800 26.02300 28.53700
C  -8.59900 22.77400 28.16500
C  -7.82800 22.52100 23.45400
C  -4.40000 26.00500 23.72900
N  -6.71300 24.33300 28.02300
C  -5.97100 25.13000 28.91000
C  -6.38400 24.85800 30.38400
C  -7.24300 23.57800 30.22200
C  -7.59500 23.57100 28.72900
C  -6.52200 22.28000 30.70600
C  -7.21500 26.12900 30.80900
C  -7.03600 26.47400 32.33100
H  -6.39600 25.41200 33.21000
N  -8.13900 23.03900 25.84400
C  -8.89100 22.54400 26.86300
C  -9.84500 21.60400 26.32100
C  -9.58300 21.45900 24.93300
C  -8.49200 22.39600 24.66100
C  -10.87900 20.97100 27.20800
C  -10.31000 20.63700 23.94100
O  -10.02600 20.57100 22.79600
C  -11.53400 19.81700 24.39800
N  -5.94300 24.07900 23.99200
C  -6.72800 23.29700 23.11200
C  -6.43800 23.55200 21.64500
C  -5.36500 24.70400 21.68500
C  -5.21100 24.95400 23.23900
C  -5.88900 22.20400 21.05700
C  -5.79300 25.95100 20.89800
C  -4.91400 26.64800 19.94200
N  -4.96800 25.73800 26.02300
C  -4.20400 26.34500 25.04600
C  -3.24700 27.21300 25.68300
C  -3.38100 26.99000 27.05900
C  -4.52200 26.18300 27.20200
C  -2.29400 28.19400 25.02300
C  -2.89700 27.33900 28.41200
O  -1.97800 28.04200 28.75400
C  -3.89700 26.70800 29.43600
C  -3.02400 25.70400 30.08100
O  -2.81100 24.56500 29.67600
O  -2.42000 26.31700 31.13300
C  -1.41500 25.48100 31.78700
H  -9.22000 22.40100 28.98200
H  -8.31900 22.10000 22.57500
H  -3.71500 26.50800 23.04300
H  -5.48000 24.74800 30.98200
H  -8.17400 23.66900 30.78200
H  -6.86100 22.01800 31.70900
H  -5.44500 22.41900 30.61100
H  -6.81700 21.49900 30.00500
H  -8.25600 25.92300 30.55900
H  -6.95200 27.00800 30.22000
H  -8.02000 26.65100 32.76600
H  -6.31700 27.28900 32.41800
H  -11.80500 21.54700 27.21400
H  -10.53500 20.93500 28.24200
H  -10.99900 19.91900 26.94700
H  -11.22400 18.92500 24.94200
H  -12.14800 19.37700 23.61200
H  -12.22100 20.40300 25.00800
H  -7.35300 23.86800 21.14400
H  -4.32800 24.43300 21.49100
H  -5.02000 22.53300 20.48700
H  -6.59100 21.96100 20.26000
H  -5.65300 21.38300 21.73400
H  -6.09500 26.73400 21.59400
H  -6.70800 25.67500 20.37300
H  -3.92800 26.19300 20.03600
H  -4.95900 27.73200 20.04800
H  -5.42700 26.48700 18.99400
H  -2.11100 27.97000 23.97200
H  -1.28100 28.08000 25.41000
H  -2.64100 29.22700 24.99900
H  -4.33900 27.46500 30.08400
H  -1.63400 25.25000 32.83000
H  -0.62100 26.22300 31.86500
H  -1.18900 24.48700 31.40200

