158

Mg 8.56300 3.52100 28.09900
C  10.30400 1.95200 30.84000
C  6.57700 5.04500 30.13100
C  7.26900 4.69700 25.35900
C  10.66100 1.40300 25.93000
N  8.32800 3.24700 30.22100
C  9.24400 2.81600 31.14100
C  8.85200 3.26600 32.52200
C  7.54700 4.08700 32.30100
C  7.48500 4.16000 30.75200
C  6.25600 3.72600 33.09700
C  10.03900 3.98800 33.35100
C  9.58500 4.96000 34.44500
H  10.20500 4.86700 35.76900
N  7.17500 4.80000 27.82600
C  6.42300 5.32400 28.78500
C  5.45500 6.27700 28.17800
C  5.55900 6.08700 26.76000
C  6.70300 5.16900 26.56400
C  4.49800 7.11100 28.95100
C  4.78600 6.65500 25.73200
O  5.00800 6.37400 24.55700
C  3.70300 7.68900 25.94800
N  9.01500 3.15900 25.93900
C  8.37700 3.90900 25.03400
C  8.79800 3.59300 23.54700
C  10.01900 2.65200 23.77700
C  9.88900 2.37800 25.35100
C  7.65500 3.14700 22.56000
C  11.36400 3.29600 23.42600
C  11.89400 4.34800 24.38500
N  10.14900 1.97700 28.24500
C  10.79800 1.19600 27.30100
C  11.71700 0.41000 28.00500
C  11.61300 0.70000 29.39000
C  10.57900 1.58600 29.46300
C  12.66000 -0.45600 27.32400
C  12.11500 0.45500 30.72400
O  12.96100 -0.29600 31.08800
C  11.21300 1.24600 31.72200
C  10.59300 0.33800 32.73500
O  9.59000 -0.28800 32.43900
O  11.16800 0.53400 34.02300
C  10.37200 -0.05000 35.10100
H  5.95400 5.59900 30.83700
H  6.94500 4.92300 24.34100
H  11.19300 0.67800 25.30900
H  8.65800 2.37900 33.12600
H  7.61300 5.13900 32.57900
H  6.48800 2.70700 33.40800
H  5.36900 3.69400 32.46400
H  6.18500 4.47000 33.89100
H  10.40600 4.58200 32.51400
H  10.77200 3.21800 33.59600
H  8.49900 5.01900 34.51100
H  9.87700 5.95100 34.09900
H  3.44000 6.89000 28.81600
H  4.73800 8.15100 28.73400
H  4.77100 7.09000 30.00600
H  3.32600 8.00400 24.97500
H  4.10700 8.55600 26.47100
H  2.90400 7.22600 26.52700
H  9.13100 4.56700 23.18700
H  9.87200 1.68500 23.29600
H  6.68600 3.36600 23.00700
H  7.74100 2.11200 22.22700
H  7.71300 3.77700 21.67300
H  11.26400 3.65500 22.40100
H  12.05700 2.45500 23.38900
H  11.24800 4.39600 25.26100
H  11.98800 5.31700 23.89600
H  12.88000 4.06500 24.75400
H  13.29700 0.08600 26.62600
H  12.27600 -1.32900 26.79700
H  13.37800 -0.65600 28.11900
H  11.90900 1.87600 32.27600
H  9.78900 0.74900 35.55800
H  11.06700 -0.33300 35.89300
H  9.81100 -0.92500 34.77400
Mg 5.60800 54.59200 39.79700
C  4.21200 51.25900 39.80100
C  8.60100 53.16500 39.30200
C  6.66800 57.67300 39.28800
C  2.24500 55.83900 39.93700
N  6.23000 52.44200 39.62100
C  5.54100 51.22000 39.62200
C  6.47300 50.10400 39.52300
C  7.84700 50.74900 39.90700
C  7.55300 52.22800 39.56600
C  8.20700 50.48900 41.35600
C  6.57900 49.34800 38.14700
C  6.49900 50.26300 36.90700
H  5.23600 49.98200 36.06900
N  7.41500 55.34900 39.36600
C  8.51900 54.58000 39.18200
C  9.60400 55.51100 38.88600
C  9.14800 56.88000 38.87800
C  7.72100 56.72300 39.26400
C  11.02800 55.07400 38.67200
C  9.94400 58.17400 38.80400
O  11.14400 58.09700 38.67300
C  9.28200 59.52300 38.71000
N  4.62800 56.49300 39.89200
C  5.34600 57.57900 39.56000
C  4.35700 58.78200 39.41900
C  2.93200 58.23200 39.65400
C  3.27200 56.74800 39.91800
C  4.80700 60.09300 40.03400
C  1.88300 58.58900 38.61300
C  0.44000 58.90000 39.11900
N  3.70500 53.81900 39.95200
C  2.42200 54.43900 40.02200
C  1.36400 53.43400 40.32900
C  2.05200 52.18600 40.24300
C  3.41400 52.46900 39.98100
C  -0.13600 53.55700 40.48600
C  1.89500 50.76400 40.29500
O  0.86200 50.13100 40.50900
C  3.21000 50.13500 40.00200
C  3.01200 49.13400 38.95800
O  2.46000 49.38200 37.84900
O  3.42900 47.88400 39.42300
C  3.40100 46.75500 38.45700
H  9.61800 52.83400 39.51900
H  7.07000 58.64700 39.00300
H  1.23400 56.24000 40.02500
H  6.18100 49.34300 40.24600
H  8.58900 50.23200 39.29800
H  9.11600 49.88800 41.37400
H  7.47500 49.92400 41.93300
H  8.56300 51.36700 41.89500
H  5.80800 48.57900 38.10100
H  7.53000 48.81900 38.20800
H  7.32700 50.10400 36.21600
H  6.56900 51.30400 37.22100
H  11.22500 54.03000 38.91600
H  11.61500 55.69300 39.35100
H  11.40000 55.19600 37.65500
H  10.14700 60.18700 38.72600
H  8.61400 59.79900 39.52600
H  8.70000 59.55600 37.79000
H  4.29000 58.93900 38.34300
H  2.62200 58.56600 40.64500
H  3.96000 60.77600 40.10600
H  5.63000 60.62000 39.55100
H  5.23500 59.79500 40.99100
H  1.88100 57.63600 38.08500
H  2.18300 59.35000 37.89200
H  -0.07100 59.25500 38.22400
H  0.34900 59.51500 40.01400
H  -0.04400 57.98500 39.46000
H  -0.53400 53.16200 41.42100
H  -0.68500 53.08200 39.67300
H  -0.36800 54.62000 40.54000
H  3.50100 49.62600 40.92000
H  2.49300 46.16600 38.58800
H  4.35400 46.25300 38.62000
H  3.50900 47.10400 37.43000

