158

Mg 31.57400 59.02200 39.92600
C  29.05700 56.87500 38.82900
C  33.85700 56.88200 38.95200
C  33.78100 61.53900 40.36200
C  28.93400 61.51700 40.23100
N  31.48900 57.12800 38.85900
C  30.40200 56.36400 38.72700
C  30.74100 55.05000 38.13800
C  32.25500 54.89300 38.43100
C  32.58000 56.38000 38.77300
C  32.54000 53.95300 39.63100
C  30.29600 54.79000 36.63600
C  29.30100 53.64100 36.23600
H  28.22300 54.09800 35.29700
N  33.60200 59.21200 39.66400
C  34.35400 58.18600 39.22200
C  35.71300 58.64500 39.18100
C  35.72700 60.03900 39.52300
C  34.32700 60.34300 39.86700
C  36.88400 57.82500 38.75200
C  36.88600 60.99900 39.34300
O  37.95400 60.60200 38.81700
C  36.82700 62.46100 39.53900
N  31.38100 61.26300 40.20900
C  32.43000 62.00500 40.50500
C  32.11700 63.48900 40.80700
C  30.52900 63.40600 40.72200
C  30.29400 61.99900 40.27700
C  32.63700 63.88600 42.22500
C  29.80000 64.57400 39.91600
C  30.17900 66.10700 40.13400
N  29.36200 59.20100 39.64900
C  28.47300 60.24100 39.89000
C  27.17000 59.82900 39.60600
C  27.29800 58.47800 39.20100
C  28.64600 58.12500 39.23300
C  25.87700 60.56700 39.84500
C  26.57800 57.30000 38.77300
O  25.37400 57.12600 38.67900
C  27.68300 56.27300 38.40000
C  27.30100 55.01400 39.26700
O  27.65100 54.79100 40.37200
O  26.44000 54.32000 38.45300
C  25.87700 53.06800 38.89600
H  34.64800 56.16200 38.73400
H  34.51500 62.29900 40.63900
H  28.07900 62.18500 40.35300
H  30.18600 54.25900 38.64100
H  32.81000 54.58600 37.54500
H  31.93100 53.05000 39.60300
H  32.36100 54.42900 40.59500
H  33.59000 53.67800 39.52600
H  31.19500 54.71900 36.02500
H  29.87200 55.74400 36.32200
H  28.81500 53.20000 37.10600
H  29.69700 52.76600 35.72200
H  37.23900 58.06100 37.74900
H  36.78900 56.75100 38.59100
H  37.59200 58.03300 39.55500
H  35.88700 62.86900 39.16800
H  37.69400 62.96900 39.11600
H  36.82900 62.65300 40.61200
H  32.59800 64.17800 40.11200
H  30.13300 63.33900 41.73500
H  32.87400 63.01500 42.83600
H  31.92200 64.37700 42.88500
H  33.54600 64.46800 42.07600
H  28.72100 64.47900 40.03800
H  29.91800 64.27400 38.87500
H  29.26200 66.63600 40.39200
H  30.57500 66.59800 39.24500
H  30.92800 66.20400 40.92000
H  25.17400 60.25900 39.07200
H  26.02900 61.64600 39.80300
H  25.48300 60.42400 40.85100
H  27.61400 55.97500 37.35300
H  25.19500 53.37900 39.68800
H  26.65800 52.43100 39.30900
H  25.28700 52.61000 38.10200
Mg 36.40500 49.05900 25.18000
C  36.53000 47.00800 28.16100
C  35.17400 51.57100 27.06500
C  35.77000 50.60900 22.34500
C  37.64100 46.20700 23.46600
N  35.53800 49.14200 27.30600
C  35.96100 48.30100 28.35700
C  35.83200 48.97800 29.72000
C  35.20200 50.32800 29.32700
C  35.28300 50.37100 27.82800
C  33.65300 50.48900 29.66200
C  37.16100 49.11800 30.59100
C  37.07200 48.54900 32.04800
H  36.67600 49.40800 33.12800
N  35.62300 50.90500 24.72100
C  35.19700 51.83400 25.63700
C  35.00300 53.07600 25.02900
C  35.25200 52.82900 23.63000
C  35.51900 51.38300 23.51300
C  34.75200 54.42700 25.77000
C  35.11000 53.82800 22.48900
O  35.28400 53.60300 21.27300
C  34.84800 55.17300 22.87100
N  36.77600 48.51700 23.23500
C  36.37800 49.34200 22.24700
C  36.65300 48.62000 20.88100
C  37.63100 47.38600 21.25700
C  37.41300 47.39600 22.80900
C  35.25700 48.26000 20.27600
C  39.11500 47.36700 20.84400
C  39.50400 46.57800 19.56800
N  36.92600 46.95600 25.61000
C  37.43300 45.91800 24.83600
C  37.62700 44.73700 25.63000
C  37.36700 45.18900 26.93400
C  36.93100 46.48700 26.88000
C  38.05900 43.43500 25.05800
C  37.51700 44.79500 28.31600
O  37.99600 43.80000 28.87200
C  36.89400 45.95700 29.15100
C  35.69200 45.47900 30.03600
O  34.55200 45.51900 29.64200
O  36.13500 45.04000 31.26400
C  35.03800 44.75800 32.29200
H  34.89400 52.41000 27.70500
H  35.35500 50.99100 21.41000
H  37.88100 45.38100 22.79400
H  35.06400 48.34600 30.16600
H  35.68100 51.21200 29.74600
H  33.14500 51.06500 28.88900
H  33.54100 50.94900 30.64300
H  33.01900 49.60200 29.66100
H  37.38600 50.17100 30.75700
H  38.00500 48.61500 30.11800
H  38.00200 48.04700 32.31600
H  36.35600 47.72800 32.06800
H  35.38400 55.26300 25.47000
H  35.15800 54.31300 26.77500
H  33.70700 54.70100 25.91000
H  35.70600 55.55900 23.42200
H  33.86800 55.37400 23.30500
H  34.90900 55.76100 21.95500
H  37.11400 49.36400 20.23200
H  37.11800 46.49500 20.89600
H  34.46700 48.79200 20.80700
H  34.96600 47.21100 20.33600
H  35.13000 48.59100 19.24600
H  39.76100 47.21300 21.70800
H  39.24600 48.41000 20.55600
H  39.24900 47.20200 18.71100
H  38.96200 45.65500 19.36300
H  40.57100 46.37000 19.65100
H  37.22400 42.89300 24.61600
H  38.58300 42.89300 25.84500
H  38.75300 43.68100 24.25300
H  37.62600 46.40700 29.82300
H  34.00100 44.76700 31.95600
H  35.05700 45.55100 33.03900
H  35.33000 43.91100 32.91200

