158

Mg 0.20600 7.40700 24.71900
C  0.92300 9.29900 27.58800
C  0.70800 4.56800 26.60700
C  0.03600 5.61500 21.84100
C  0.46200 10.42300 22.77700
N  0.80600 7.02700 26.79100
C  0.78000 7.89900 27.83800
C  0.68300 7.20700 29.17900
C  0.91900 5.76400 28.79600
C  0.73100 5.74800 27.29600
C  2.41600 5.18000 29.17600
C  -0.66600 7.51400 29.90900
C  -0.65500 7.58100 31.47200
H  0.63500 7.25500 32.38100
N  0.46200 5.36200 24.32700
C  0.60400 4.32600 25.21700
C  0.53100 3.07900 24.52500
C  0.30100 3.37500 23.12500
C  0.32200 4.82000 23.04100
C  0.59800 1.75500 25.28100
C  0.17100 2.40000 21.98600
O  -0.09000 2.71900 20.84300
C  0.12200 0.94100 22.24200
N  0.22500 7.98300 22.57300
C  0.08100 6.97800 21.61200
C  0.25300 7.73100 20.27400
C  0.05600 9.22400 20.57000
C  0.21400 9.26600 22.06500
C  1.55600 7.28400 19.49200
C  -1.18700 10.04800 20.11200
C  -2.38700 10.38500 21.03600
N  0.67600 9.41600 25.07000
C  0.66500 10.51500 24.22600
C  0.97600 11.72300 24.99900
C  1.01800 11.23600 26.32500
C  0.83200 9.86300 26.33000
C  1.00600 13.16200 24.47200
C  1.28500 11.63600 27.65100
O  1.63500 12.76500 28.03900
C  1.03200 10.34200 28.60700
C  2.19900 10.33200 29.53900
O  3.25200 9.71400 29.39900
O  1.87200 11.16300 30.63600
C  3.00100 11.28800 31.58100
H  0.50500 3.67900 27.20900
H  0.08800 5.04500 20.91100
H  0.41100 11.40400 22.30100
H  1.48900 7.61700 29.78800
H  0.17400 5.09500 29.22600
H  2.98100 5.93900 29.71700
H  3.00300 4.86900 28.31200
H  2.19500 4.35900 29.85700
H  -1.37600 6.71800 29.68400
H  -1.04700 8.44400 29.48500
H  -1.37100 6.79800 31.72100
H  -1.23500 8.45200 31.77700
H  -0.44500 1.54400 25.51400
H  1.09900 1.96900 26.22600
H  1.25600 0.98300 24.88300
H  1.12500 0.71000 22.60100
H  0.04800 0.28500 21.37500
H  -0.75000 0.70800 22.85400
H  -0.58900 7.37700 19.68000
H  0.87600 9.82900 20.18400
H  1.27800 6.81000 18.55000
H  2.18800 6.59500 20.05200
H  2.22500 8.14400 19.52700
H  -1.54200 9.56600 19.20100
H  -0.73700 10.99700 19.81800
H  -2.50000 11.45100 20.84200
H  -2.10900 10.25000 22.08100
H  -3.18000 9.74400 20.65100
H  0.07500 13.38600 23.95100
H  1.87600 13.17600 23.81500
H  1.16600 13.93400 25.22400
H  0.11900 10.60100 29.14500
H  2.84000 10.41200 32.20900
H  2.89800 12.15600 32.23300
H  3.95900 11.17300 31.07400
Mg 40.96600 8.58100 29.90400
C  42.97100 9.81000 32.34300
C  38.74800 7.45100 32.21000
C  38.96100 7.69300 27.45100
C  43.43900 9.31300 27.55800
N  40.79200 8.70900 32.05300
C  41.74300 9.28200 32.91100
C  41.30300 9.20800 34.42600
C  40.06100 8.27800 34.25300
C  39.86300 8.05200 32.74800
C  40.28500 6.91800 34.92000
C  41.02000 10.68400 35.04900
C  41.60600 10.81400 36.52200
H  41.13800 11.89600 37.46800
N  39.16500 7.54600 29.78100
C  38.48300 7.10300 30.88700
C  37.27600 6.40900 30.42100
C  37.23000 6.63100 28.99800
C  38.54400 7.23900 28.68900
C  36.29500 5.73900 31.35000
C  36.14700 6.32900 28.02100
O  36.16600 6.60500 26.85700
C  34.96900 5.62700 28.56400
N  41.20700 8.29100 27.74100
C  40.14300 8.12500 26.97400
C  40.41800 8.43400 25.49400
C  41.92700 8.89400 25.48900
C  42.19300 8.88900 27.01500
C  40.09500 7.25900 24.38600
C  42.16000 10.24200 24.76200
C  41.63500 11.52100 25.67300
N  42.91100 9.30000 29.93700
C  43.76200 9.49100 28.90000
C  45.09300 9.94100 29.42900
C  44.74100 10.16400 30.81300
C  43.41400 9.78300 31.01000
C  46.30500 10.45900 28.74900
C  45.31500 10.57800 32.10900
O  46.42200 10.90700 32.45500
C  44.14600 10.45300 33.14700
C  44.53400 9.55000 34.28800
O  44.86300 8.38400 34.21200
O  44.85300 10.30900 35.41300
C  45.82300 9.81200 36.39300
H  38.04900 7.09600 32.97000
H  38.35500 7.61800 26.54600
H  44.20700 9.57400 26.82700
H  42.09800 8.69000 34.96300
H  39.25800 8.83400 34.73500
H  41.32600 6.60800 35.01100
H  39.72300 6.11300 34.44600
H  39.93100 7.03900 35.94400
H  39.94700 10.85600 35.13900
H  41.48800 11.45500 34.43700
H  42.68500 10.92100 36.63500
H  41.46600 9.82900 36.96800
H  35.74200 4.90300 30.92000
H  35.58400 6.48100 31.71400
H  36.75000 5.39400 32.27800
H  34.57800 6.24700 29.37100
H  35.23900 4.60600 28.83100
H  34.26400 5.39300 27.76700
H  39.77700 9.31000 25.39200
H  42.59900 8.13100 25.09700
H  40.98400 6.70100 24.09300
H  39.65800 7.77100 23.52900
H  39.28500 6.62600 24.74900
H  41.51800 10.23300 23.88100
H  43.23400 10.36700 24.61900
H  41.97600 11.68900 26.69500
H  40.54900 11.42600 25.66800
H  41.88600 12.38700 25.06100
H  46.55300 9.71800 27.99000
H  47.14200 10.53600 29.44400
H  46.08800 11.45100 28.35200
H  43.97700 11.43800 33.58100
H  45.42100 9.01100 37.01300
H  46.24100 10.61400 37.00100
H  46.65200 9.50000 35.75800

