158

Mg 3.07700 -0.31100 44.99500
C  6.57200 0.35400 44.68700
C  2.60300 2.44100 42.89400
C  -0.04500 -1.10300 44.95400
C  3.99700 -3.49900 46.43200
N  4.40400 1.16600 43.89400
C  5.78000 1.16600 43.90300
C  6.36900 2.26300 42.98200
C  5.08500 3.08300 42.71100
C  3.95900 2.16600 43.11600
C  4.90200 4.52700 43.26800
C  7.14300 1.59600 41.81200
C  8.59700 2.07200 41.48200
H  9.05200 2.00700 40.07700
N  1.49000 0.61700 44.16700
C  1.48500 1.69500 43.39300
C  0.06600 2.01900 43.08900
C  -0.74100 0.97300 43.55300
C  0.19200 0.11800 44.35000
C  -0.35600 3.29000 42.35800
C  -2.24500 0.79800 43.27800
O  -2.77700 1.63400 42.57300
C  -2.97900 -0.34200 43.76500
N  2.18100 -2.07600 45.52600
C  0.82800 -2.12900 45.42800
C  0.35700 -3.52000 45.78500
C  1.57000 -4.30500 46.41600
C  2.67000 -3.28300 46.03800
C  -0.81100 -3.55900 46.76100
C  1.94600 -5.72400 45.83800
C  0.74000 -6.65900 45.37700
N  4.87500 -1.40600 45.51900
C  5.03600 -2.61900 46.15300
C  6.45800 -2.73200 46.49100
C  7.06400 -1.60400 45.92600
C  6.09100 -0.80900 45.33800
C  7.14300 -3.76300 47.25900
C  8.32900 -0.91200 45.73600
O  9.45300 -1.17600 46.05800
C  8.06700 0.33300 44.91700
C  8.49300 1.47000 45.79400
O  7.88500 1.83300 46.83000
O  9.68300 1.99800 45.28800
C  9.93700 3.36800 45.80600
H  2.35100 3.25700 42.21300
H  -1.08400 -1.44100 44.95600
H  4.17000 -4.43500 46.96600
H  7.04900 2.84800 43.60100
H  5.06300 3.07100 41.62100
H  4.93400 5.20600 42.41500
H  5.78700 4.76100 43.86100
H  3.94800 4.64900 43.78100
H  6.58200 1.85600 40.91500
H  7.05400 0.51600 41.69200
H  9.34200 1.59000 42.11400
H  8.76800 3.10900 41.77200
H  -0.90400 3.07500 41.44100
H  0.48700 3.93800 42.11900
H  -1.12100 3.71000 43.01000
H  -4.04500 -0.16700 43.61900
H  -2.71900 -0.49000 44.81300
H  -2.71000 -1.26800 43.25800
H  0.13800 -3.90600 44.79000
H  1.57700 -4.26200 47.50500
H  -0.89400 -2.66700 47.38100
H  -0.81900 -4.48000 47.34400
H  -1.70800 -3.68500 46.15500
H  2.56300 -6.27100 46.55200
H  2.60800 -5.72400 44.97200
H  0.96800 -7.69400 45.63100
H  0.60300 -6.72200 44.29700
H  -0.25500 -6.38400 45.72700
H  7.20200 -4.71700 46.73500
H  6.56500 -3.78900 48.18400
H  8.12400 -3.40800 47.57500
H  8.57100 0.38200 43.95200
H  10.35500 4.02100 45.03900
H  10.62500 3.43400 46.64800
H  9.03600 3.91100 46.09000
Mg 47.33200 35.68600 27.08600
C  45.65300 33.76400 29.61100
C  47.25400 38.28800 29.38000
C  48.27300 37.66400 24.69700
C  46.77100 32.89400 24.86700
N  46.72200 35.87100 29.21000
C  46.14800 34.97000 29.99200
C  46.32000 35.51500 31.44500
C  46.43600 37.02900 31.39700
C  46.89700 37.10200 29.90000
C  45.16000 37.82700 31.73000
C  47.61000 34.78400 32.05700
C  47.53900 34.61000 33.56800
H  46.90700 35.67300 34.41600
N  47.96100 37.68200 27.10500
C  47.80700 38.64600 28.11200
C  48.33600 39.87500 27.67400
C  48.59400 39.73100 26.30200
C  48.29800 38.32000 25.96100
C  48.45200 41.12000 28.54900
C  49.18000 40.71800 25.29500
O  49.50200 40.43500 24.13000
C  49.55200 42.17100 25.65700
N  47.55100 35.30500 25.05400
C  47.99400 36.31800 24.29000
C  48.13900 35.77500 22.85100
C  47.96300 34.19900 22.94400
C  47.41400 34.15000 24.34500
C  47.20600 36.47400 21.78000
C  49.22100 33.35500 22.77400
C  49.11600 31.95800 22.11700
N  46.38700 33.71700 27.16800
C  46.25600 32.73900 26.20000
C  45.49400 31.63400 26.77100
C  45.24300 32.00400 28.06500
C  45.73900 33.29700 28.30100
C  45.26800 30.34900 26.09100
C  44.69200 31.54800 29.28700
O  44.23800 30.45500 29.61900
C  44.76900 32.73400 30.25700
C  45.14800 32.22300 31.60500
O  46.13200 31.48300 31.89400
O  44.22800 32.62700 32.55600
C  44.39800 32.06300 33.94800
H  47.08300 39.14800 30.03000
H  48.49000 38.29200 23.83000
H  46.59300 32.08400 24.15700
H  45.56200 35.19900 32.16200
H  47.18700 37.40900 32.08900
H  44.38200 37.06300 31.71300
H  45.05500 38.58200 30.95100
H  45.22700 38.33900 32.68900
H  48.54000 35.29800 31.81300
H  47.67700 33.78500 31.62700
H  48.60100 34.52600 33.79900
H  47.02500 33.65800 33.69700
H  49.47900 41.47900 28.49900
H  48.16400 40.87500 29.57200
H  47.73800 41.90700 28.30900
H  48.69700 42.44900 26.27300
H  49.61100 42.76700 24.74600
H  50.45700 42.16300 26.26400
H  49.11800 36.06800 22.47200
H  47.21400 33.84000 22.23900
H  46.37600 35.83200 21.48500
H  47.77300 36.78200 20.90200
H  46.77600 37.35800 22.25100
H  49.73000 33.17700 23.72100
H  50.01700 33.86500 22.23100
H  48.04600 31.90300 21.91600
H  49.36800 31.22400 22.88200
H  49.71500 31.86400 21.21100
H  46.09000 29.95100 25.49500
H  44.62800 30.55700 25.23300
H  44.87600 29.55200 26.72200
H  43.80100 33.22300 30.36200
H  44.96400 31.14800 34.12500
H  43.35900 31.94500 34.25500
H  44.76600 32.94000 34.48000

