158

Mg 2.15200 -1.21700 43.54000
C  5.62200 -0.49600 43.19500
C  1.41900 1.37700 41.46800
C  -0.91900 -2.59900 43.26200
C  3.27600 -4.13500 45.31000
N  3.46900 0.23900 42.50600
C  4.80300 0.35600 42.41800
C  5.31000 1.57600 41.50700
C  3.93500 2.14500 41.13000
C  2.83900 1.25000 41.76200
C  3.65500 3.57600 41.54400
C  6.15300 1.04600 40.35100
C  7.06200 2.08500 39.67700
H  6.62900 2.53700 38.31400
N  0.48000 -0.67200 42.51300
C  0.34000 0.41100 41.73000
C  -0.98600 0.57600 41.31200
C  -1.67300 -0.58700 41.75600
C  -0.70000 -1.41100 42.53800
C  -1.34900 1.78700 40.39700
C  -3.10400 -1.03300 41.28200
O  -3.91200 -0.19800 40.77100
C  -3.53100 -2.39600 41.38700
N  1.33100 -3.06200 44.04300
C  -0.00100 -3.33600 44.02400
C  -0.44900 -4.51100 44.90600
C  0.93900 -5.21000 45.11600
C  1.98000 -4.09800 44.83300
C  -1.25600 -3.96400 46.11400
C  1.20500 -6.53400 44.28400
C  1.20700 -7.84400 45.08100
N  4.06200 -2.10800 44.33000
C  4.29400 -3.31600 45.01100
C  5.73400 -3.46600 45.16900
C  6.25900 -2.33700 44.54600
C  5.21700 -1.53800 44.01100
C  6.54800 -4.64600 45.74700
C  7.53300 -1.71800 44.21800
O  8.67900 -1.92200 44.49500
C  7.16200 -0.51300 43.27600
C  7.76100 0.77400 43.73300
O  8.36900 1.45100 42.91500
O  7.48900 1.22700 45.00700
C  8.04800 2.55200 45.40000
H  1.09100 2.21300 40.84800
H  -1.89300 -3.08900 43.31600
H  3.49000 -5.07700 45.81900
H  5.94600 2.21600 42.11800
H  3.83900 2.20700 40.04600
H  3.37100 4.17200 40.67700
H  4.55400 4.00800 41.98300
H  2.88600 3.47200 42.31000
H  5.59300 0.60800 39.52500
H  6.87200 0.28900 40.66600
H  8.09900 1.75400 39.71500
H  7.16500 3.01400 40.23900
H  -0.72300 1.83600 39.50600
H  -1.25000 2.63600 41.07300
H  -2.40500 1.72500 40.13500
H  -4.33900 -2.51200 40.66500
H  -3.83700 -2.60000 42.41300
H  -2.65500 -2.93600 41.02800
H  -1.01500 -5.27700 44.37700
H  1.10700 -5.45800 46.16400
H  -2.27700 -4.31600 46.26600
H  -1.26600 -2.87500 46.14100
H  -0.75600 -4.19200 47.05600
H  2.19100 -6.47100 43.82500
H  0.46000 -6.69200 43.50500
H  0.45100 -8.55600 44.74800
H  0.81000 -7.81600 46.09500
H  2.14400 -8.40000 45.11000
H  5.94300 -4.95800 46.59700
H  7.46000 -4.18300 46.12500
H  6.76400 -5.36000 44.95300
H  7.61800 -0.84300 42.34200
H  7.42000 3.11600 46.09000
H  8.39800 3.21100 44.60500
H  8.92700 2.28900 45.98800
Mg 25.98000 50.08100 26.75900
C  23.97300 51.58700 29.18300
C  28.17800 49.03300 29.14100
C  27.91200 48.77600 24.31900
C  23.95100 51.58900 24.33700
N  26.05400 50.32400 28.97300
C  25.09200 50.91700 29.72600
C  25.38400 50.68200 31.25400
C  26.81000 50.04600 31.21400
C  27.08200 49.80200 29.69700
C  27.89600 50.84700 31.93700
C  24.33100 49.66400 31.80500
C  23.80700 50.07900 33.23900
H  24.75500 50.73100 34.28000
N  27.81800 49.01400 26.72400
C  28.53200 48.73100 27.81500
C  29.63200 47.89100 27.37300
C  29.53500 47.76100 25.98000
C  28.39200 48.50100 25.59300
C  30.74600 47.34900 28.29400
C  30.41300 46.98400 25.00500
O  30.28400 47.09800 23.78400
C  31.35900 46.01800 25.50100
N  25.89100 50.12800 24.67800
C  26.79600 49.55900 23.91500
C  26.53900 49.78200 22.39000
C  25.16300 50.47200 22.42100
C  25.03300 50.79000 23.90700
C  27.75300 50.50500 21.71700
C  24.00000 49.61200 21.76300
C  23.59900 49.97500 20.31900
N  24.26300 51.27300 26.69100
C  23.60500 51.94000 25.67000
C  22.47500 52.66200 26.11400
C  22.59700 52.49300 27.50500
C  23.65500 51.71700 27.77300
C  21.46400 53.39300 25.19700
C  22.05200 52.83600 28.80400
O  21.05000 53.48800 29.11600
C  22.93500 52.24900 29.91600
C  23.32300 53.34300 30.80600
O  24.10700 54.27400 30.54000
O  22.86800 53.04200 32.04900
C  23.19500 54.03500 33.09600
H  28.97400 48.79400 29.85000
H  28.50900 48.44400 23.46700
H  23.42500 52.09700 23.52600
H  25.45900 51.61200 31.81900
H  26.80000 49.07400 31.70800
H  28.04400 50.47400 32.95000
H  27.51700 51.86600 32.01400
H  28.84200 50.71000 31.41200
H  24.67700 48.65300 32.01900
H  23.47800 49.56400 31.13400
H  23.27000 49.25400 33.70700
H  23.00400 50.78500 33.03000
H  30.60000 46.26900 28.29400
H  30.62300 47.66800 29.32900
H  31.74500 47.59100 27.93000
H  32.25300 46.48000 25.92200
H  31.70800 45.42000 24.65900
H  30.98800 45.22500 26.15000
H  26.50000 48.76800 21.99200
H  25.29000 51.39100 21.84800
H  27.61700 51.56300 21.49400
H  27.89500 49.91100 20.81400
H  28.72300 50.50100 22.21400
H  23.16700 49.73400 22.45600
H  24.32200 48.57100 21.74200
H  23.82400 49.16300 19.62700
H  24.28400 50.74300 19.96000
H  22.56000 50.28800 20.21600
H  22.04700 53.93900 24.45600
H  21.03000 54.16500 25.83300
H  20.71000 52.73400 24.76700
H  22.29100 51.54200 30.44100
H  24.25800 54.25000 33.20600
H  22.73400 53.81000 34.05800
H  22.94100 55.06500 32.84500

