158

Mg 24.88400 -6.75500 47.75500
C  27.66500 -4.73800 46.90100
C  22.94400 -4.81500 45.87900
C  22.73800 -9.34600 47.83200
C  27.24400 -8.77800 49.63500
N  25.35200 -5.13800 46.21400
C  26.47100 -4.36800 46.17200
C  26.21800 -3.09600 45.39400
C  24.66700 -3.04500 45.29300
C  24.28900 -4.43100 45.85900
C  23.94300 -1.89800 46.03200
C  26.92200 -3.01200 43.99600
C  26.89600 -1.63500 43.22500
H  25.99000 -1.57100 42.02000
N  23.03900 -6.98100 46.99500
C  22.33000 -6.10100 46.21400
C  21.02400 -6.65200 45.86200
C  20.85900 -7.88600 46.58100
C  22.26500 -8.15900 47.16000
C  20.09600 -5.89600 44.98400
C  19.62900 -8.76500 46.59000
O  18.59300 -8.43800 46.03200
C  19.55600 -10.09200 47.25600
N  25.10100 -8.79900 48.44900
C  24.01800 -9.62200 48.50400
C  24.10800 -10.89000 49.33100
C  25.56100 -10.64900 49.95300
C  26.04700 -9.37300 49.32700
C  23.01400 -10.90500 50.43300
C  26.53100 -11.85200 49.80200
C  27.72400 -12.07900 50.76900
N  26.90900 -6.71800 48.33000
C  27.73500 -7.62000 49.13700
C  29.04500 -7.08200 49.23900
C  29.09000 -5.94000 48.40400
C  27.81100 -5.78800 47.86500
C  30.23800 -7.76500 49.78600
C  29.94000 -4.94700 47.86400
O  31.15200 -4.75100 47.94700
C  29.07600 -4.15100 46.87400
C  29.15200 -2.70400 47.24500
O  29.35100 -2.22900 48.29900
O  29.02800 -1.98700 46.09800
C  28.76500 -0.58400 46.26800
H  22.25400 -4.16300 45.33900
H  22.02600 -10.12700 48.10400
H  27.87800 -9.26400 50.37900
H  26.68400 -2.36200 46.05200
H  24.31300 -3.02800 44.26200
H  24.56600 -1.00500 46.01900
H  23.73300 -2.24800 47.04200
H  22.97300 -1.80800 45.54100
H  26.40400 -3.71600 43.34400
H  27.95900 -3.32500 44.11000
H  27.92000 -1.42700 42.91700
H  26.48200 -0.84000 43.84500
H  20.50200 -5.70200 43.99200
H  19.91500 -4.99200 45.56500
H  19.14600 -6.40400 44.81700
H  18.68400 -10.73400 47.13400
H  19.78500 -9.95000 48.31300
H  20.32300 -10.64100 46.71000
H  24.10300 -11.76800 48.68500
H  25.52800 -10.35000 51.00100
H  22.27100 -10.12200 50.28300
H  23.45600 -10.76300 51.41900
H  22.56100 -11.89000 50.55200
H  26.93300 -11.83200 48.78900
H  25.92800 -12.75900 49.85900
H  27.53900 -13.05900 51.20900
H  27.69100 -11.44500 51.65500
H  28.65500 -12.07100 50.20200
H  31.11100 -7.25700 49.37800
H  30.28400 -8.79500 49.43200
H  30.23000 -7.78800 50.87600
H  29.54900 -4.37800 45.91900
H  29.68000 -0.22600 46.74000
H  27.90600 -0.28300 46.86700
H  28.74000 -0.14600 45.27000
Mg 6.88200 53.17800 41.53200
C  6.05400 49.84400 41.14800
C  10.18300 52.35100 41.39500
C  7.85500 56.52000 41.44600
C  3.54400 54.13800 41.71800
N  7.95200 51.21900 41.12000
C  7.40100 49.98200 41.11500
C  8.59000 48.91200 41.13300
C  9.81800 49.76400 41.38000
C  9.33500 51.21800 41.31900
C  10.63600 49.50900 42.69300
C  8.76000 47.99900 39.86300
C  8.90500 48.71400 38.50700
H  7.85000 48.28500 37.45800
N  8.74500 54.30300 41.22400
C  9.94700 53.70800 41.20300
C  10.95100 54.76100 41.10400
C  10.30000 56.02900 41.23200
C  8.87300 55.64200 41.17800
C  12.40100 54.40200 41.02900
C  10.97500 57.37100 41.22300
O  12.19800 57.40000 41.16000
C  10.25100 58.59800 41.23000
N  5.84700 55.13400 41.43700
C  6.49700 56.34000 41.65600
C  5.48900 57.37200 41.99700
C  4.15800 56.58700 41.93200
C  4.52900 55.10700 41.64800
C  5.71400 58.09900 43.38000
C  3.06000 57.09200 40.92000
C  1.71400 57.41200 41.60800
N  5.11600 52.23900 41.60200
C  3.86900 52.75700 41.65300
C  2.96700 51.62400 41.71100
C  3.77200 50.48600 41.47200
C  5.11100 50.86300 41.37100
C  1.47300 51.58300 41.91900
C  3.66200 49.05000 41.26200
O  2.60900 48.42000 41.13200
C  5.12700 48.50900 41.16300
C  5.33100 47.71500 39.97400
O  5.26900 48.04600 38.79500
O  5.46700 46.44400 40.44200
C  5.65200 45.38100 39.42900
H  11.24600 52.10000 41.40800
H  8.05900 57.55900 41.71400
H  2.47300 54.34700 41.75700
H  8.35800 48.22600 41.94800
H  10.49300 49.73800 40.52400
H  10.51800 50.33100 43.39900
H  11.70100 49.52200 42.46300
H  10.43200 48.55200 43.17500
H  7.87900 47.35800 39.87800
H  9.67700 47.45300 40.08300
H  9.86900 48.47000 38.06000
H  8.86600 49.79200 38.65800
H  12.95600 55.11700 40.42200
H  12.54100 53.43300 40.54900
H  12.84700 54.21100 42.00500
H  9.56200 58.46900 40.39500
H  10.77900 59.54200 41.09500
H  9.82800 58.58200 42.23400
H  5.46000 58.03900 41.13600
H  3.68400 56.60100 42.91400
H  4.90600 57.94900 44.09700
H  5.71000 59.17700 43.21800
H  6.72500 57.86000 43.70800
H  2.87900 56.34300 40.14900
H  3.28300 58.00000 40.35900
H  1.55700 57.12500 42.64800
H  0.99400 56.84000 41.02300
H  1.49800 58.47800 41.53100
H  1.01800 51.32500 40.96300
H  1.08600 52.54500 42.25700
H  1.14400 50.86400 42.66900
H  5.34700 47.90400 42.04300
H  5.27700 45.46800 38.40900
H  5.18200 44.50100 39.86700
H  6.73800 45.28100 39.41300

