158

Mg 10.09800 48.26300 26.09700
C  8.02100 48.02700 28.89100
C  12.50300 49.38200 27.90200
C  11.79100 48.74500 23.12400
C  7.21300 47.29900 23.94400
N  10.13800 48.76700 28.16300
C  9.32800 48.37300 29.16000
C  10.02600 48.58100 30.56000
C  11.22500 49.44200 30.12100
C  11.32000 49.20500 28.66100
C  11.23100 50.99300 30.44700
C  10.33500 47.40700 31.38300
C  9.82400 47.40700 32.79800
H  10.34600 46.36000 33.85400
N  11.92500 48.84600 25.62000
C  12.84600 49.26800 26.58500
C  14.07400 49.51200 25.97300
C  13.86600 49.37000 24.56200
C  12.46600 49.03000 24.33500
C  15.34900 49.96000 26.72100
C  14.81300 49.52800 23.42600
O  14.63500 49.42800 22.23700
C  16.19900 49.86000 23.76700
N  9.48600 48.15800 23.89000
C  10.46000 48.50800 22.91100
C  9.76800 48.37800 21.51500
C  8.55800 47.34600 21.81700
C  8.43300 47.59600 23.31600
C  9.28700 49.76500 20.93100
C  8.95100 45.89300 21.38000
C  9.01000 44.79200 22.38900
N  8.00800 47.80800 26.28200
C  7.00500 47.51400 25.35200
C  5.79900 47.36400 26.14200
C  6.17800 47.39200 27.46300
C  7.45600 47.77600 27.52700
C  4.50200 47.04600 25.57800
C  5.68200 47.24800 28.80800
O  4.50000 47.04900 29.14800
C  6.78700 47.63100 29.82300
C  7.13000 46.45800 30.61800
O  7.72800 45.49700 30.17700
O  6.67200 46.44200 31.88900
C  6.81800 45.21400 32.69400
H  13.34600 49.73200 28.50200
H  12.35700 48.76300 22.19000
H  6.38300 46.90600 23.35300
H  9.35900 49.22800 31.13000
H  12.14100 49.09400 30.59800
H  12.24500 51.38300 30.35000
H  10.81900 51.32700 31.39900
H  10.74300 51.44000 29.58100
H  11.41300 47.27700 31.48300
H  9.95700 46.48400 30.94300
H  8.75800 47.29100 32.60200
H  9.85400 48.40900 33.22700
H  15.61300 50.99800 26.52100
H  16.15400 49.25300 26.52000
H  15.26700 49.86500 27.80400
H  16.76000 50.14100 22.87600
H  16.68100 48.93100 24.06900
H  16.42400 50.70500 24.41700
H  10.47400 47.96300 20.79600
H  7.69800 47.79900 21.32300
H  9.33200 50.61400 21.61200
H  8.28300 49.69900 20.51000
H  9.97500 49.94900 20.10700
H  9.96000 45.97100 20.97600
H  8.39200 45.53500 20.51600
H  8.33300 45.09700 23.18700
H  10.00300 44.53000 22.75600
H  8.54600 43.85300 22.08600
H  4.61800 46.43900 24.68000
H  3.98500 47.95500 25.27000
H  3.91300 46.50500 26.31800
H  6.40400 48.45600 30.42400
H  7.59700 45.26200 33.45500
H  6.90200 44.27800 32.14200
H  5.87400 45.18000 33.23700
Mg -10.01800 38.23300 40.93100
C  -7.88300 35.41800 40.64500
C  -7.46900 40.05700 39.43400
C  -12.07400 40.73200 40.65500
C  -12.54900 36.06700 42.03400
N  -7.96300 37.75300 40.10300
C  -7.31500 36.58300 40.10000
C  -5.90900 36.69100 39.44500
C  -5.78800 38.21800 39.17600
C  -7.19700 38.74800 39.58000
C  -4.59400 39.00300 39.85000
C  -5.89600 35.73500 38.19600
C  -4.73700 34.73900 38.14000
H  -3.76800 34.95800 36.92800
N  -9.74900 40.20700 40.28800
C  -8.60400 40.80800 39.70100
C  -8.91900 42.20700 39.49400
C  -10.27100 42.45700 39.81900
C  -10.78000 41.11600 40.29300
C  -7.87800 43.21600 38.93900
C  -11.03600 43.74500 39.69100
O  -10.42600 44.69600 39.28900
C  -12.50400 43.86200 40.07900
N  -11.96900 38.34500 41.24300
C  -12.64200 39.56000 41.04000
C  -14.12300 39.37700 41.28700
C  -14.28200 37.89900 41.68300
C  -12.87300 37.36400 41.59800
C  -14.64000 40.32000 42.40700
C  -15.41700 37.10100 40.94600
C  -16.83700 37.66400 41.21200
N  -10.16400 36.18000 41.44100
C  -11.26200 35.48200 41.89800
C  -10.81200 34.10500 42.17600
C  -9.46500 34.04100 41.68800
C  -9.14800 35.33800 41.25400
C  -11.64300 33.11400 42.98200
C  -8.43800 33.12500 41.45600
O  -8.38500 31.89300 41.65200
C  -7.23500 33.98200 40.81300
C  -6.05300 33.93200 41.86400
O  -5.33000 32.97600 41.93800
O  -5.92600 35.00500 42.75000
C  -4.84300 34.81700 43.83700
H  -6.69300 40.67400 38.97800
H  -12.85100 41.49900 40.63900
H  -13.40900 35.45100 42.30300
H  -5.14300 36.38600 40.15800
H  -5.59400 38.41600 38.12200
H  -3.98400 38.27900 40.39000
H  -4.90200 39.82000 40.50300
H  -3.91100 39.20900 39.02600
H  -5.95300 36.34800 37.29700
H  -6.81700 35.15300 38.15400
H  -5.07200 33.70300 38.18200
H  -4.01800 34.84300 38.95300
H  -8.01300 44.23100 39.31400
H  -8.03500 43.33800 37.86700
H  -6.82500 42.98600 39.09900
H  -12.64900 43.68400 41.14500
H  -13.11300 43.12500 39.55600
H  -12.95200 44.84100 39.90600
H  -14.75100 39.52100 40.40800
H  -14.46100 37.86500 42.75800
H  -14.74200 39.96000 43.43100
H  -15.61600 40.61700 42.02100
H  -14.08600 41.25800 42.41400
H  -15.45500 36.04500 41.21300
H  -15.23500 37.04200 39.87300
H  -17.43500 36.78700 41.46000
H  -17.21800 38.07000 40.27400
H  -16.92100 38.41800 41.99400
H  -12.64100 32.90800 42.59400
H  -11.76600 33.35200 44.03800
H  -11.07500 32.19500 42.83600
H  -6.86200 33.52200 39.89800
H  -3.95000 34.26600 43.54200
H  -5.32300 34.35700 44.70000
H  -4.53000 35.81100 44.15800

