158

Mg 16.94800 -1.74400 27.76500
C  15.70900 0.64300 30.29000
C  18.74100 -3.21800 30.12200
C  18.60800 -3.31200 25.24700
C  15.47300 0.48000 25.38100
N  17.24400 -1.22700 29.91300
C  16.59500 -0.36200 30.79600
C  17.07600 -0.57400 32.26400
C  18.03800 -1.83000 32.19000
C  18.07100 -2.07300 30.61900
C  19.49000 -1.74700 32.86400
C  15.86500 -0.64200 33.16200
C  15.97900 -0.07600 34.56700
H  17.35700 0.31600 35.17500
N  18.44700 -3.12900 27.71400
C  19.04000 -3.65600 28.84500
C  19.88800 -4.74800 28.45200
C  19.82700 -4.83800 27.04100
C  18.90400 -3.75800 26.60600
C  20.59400 -5.64000 29.43900
C  20.31500 -5.89500 26.15500
O  20.18000 -5.83600 24.90600
C  21.04300 -7.13300 26.74100
N  16.93600 -1.54700 25.66200
C  17.70900 -2.32200 24.87000
C  17.70800 -1.82100 23.44600
C  16.53300 -0.71800 23.39300
C  16.30400 -0.56900 24.91300
C  19.16900 -1.35900 23.00800
C  15.29400 -1.14000 22.46000
C  14.09700 -1.78100 23.18200
N  15.67000 -0.00100 27.77400
C  15.17000 0.71200 26.74800
C  14.34300 1.85100 27.22500
C  14.58200 1.80800 28.63100
C  15.32800 0.68400 28.91000
C  13.47100 2.81600 26.43100
C  14.38400 2.49300 29.83500
O  13.79100 3.58600 29.99500
C  15.02600 1.77600 30.98400
C  16.07400 2.59300 31.68200
O  17.17800 2.78600 31.24400
O  15.49700 3.09800 32.87000
C  16.50000 3.93500 33.56600
H  19.02200 -3.79800 31.00400
H  19.26000 -3.66000 24.44300
H  15.06400 1.23200 24.70300
H  17.63600 0.35100 32.40300
H  17.59200 -2.71400 32.64400
H  19.48600 -0.81700 33.43100
H  20.25200 -1.59400 32.10000
H  19.64300 -2.53800 33.59900
H  15.53600 -1.65800 33.37800
H  15.00500 -0.18800 32.66900
H  15.57900 -0.80200 35.27500
H  15.32800 0.79700 34.61900
H  20.20800 -6.65900 29.39500
H  20.36300 -5.19300 30.40600
H  21.66200 -5.64000 29.22300
H  21.21200 -7.76600 25.87000
H  20.29400 -7.59500 27.38500
H  21.99800 -6.79100 27.13900
H  17.51300 -2.62800 22.73900
H  16.78400 0.21800 22.89400
H  19.90100 -1.44900 23.81000
H  19.14500 -0.30500 22.73000
H  19.59600 -2.00200 22.23900
H  15.56500 -1.76600 21.60900
H  14.86100 -0.21800 22.06900
H  13.28200 -1.07000 23.31400
H  14.48800 -2.08400 24.15300
H  13.79500 -2.70500 22.69000
H  13.03100 3.53000 27.12800
H  12.61400 2.28700 26.01500
H  14.03700 3.27200 25.61900
H  14.16100 1.46900 31.57200
H  16.73400 4.81300 32.96400
H  17.43200 3.42100 33.80500
H  16.06500 4.27000 34.50800
Mg -11.96600 16.65700 42.06200
C  -8.83100 15.06900 41.50000
C  -10.70600 19.44700 40.66000
C  -15.05400 17.84000 42.04000
C  -13.17600 13.41600 43.04800
N  -9.99000 17.15900 41.01100
C  -8.86400 16.38400 41.05300
C  -7.68100 17.23300 40.51800
C  -8.23600 18.71400 40.62400
C  -9.72500 18.40700 40.78400
C  -7.55700 19.66300 41.72000
C  -7.18100 16.82700 39.12300
C  -5.69000 17.34700 38.88900
H  -5.63000 18.16600 37.64100
N  -12.75200 18.39300 41.52200
C  -12.05200 19.44900 40.99200
C  -12.80200 20.60400 40.88800
C  -14.11100 20.20900 41.38500
C  -14.00300 18.78600 41.66100
C  -12.19900 22.03500 40.55400
C  -15.31500 21.06300 41.50800
O  -15.23800 22.22000 41.18900
C  -16.63400 20.73300 42.03900
N  -13.85700 15.68800 42.49000
C  -14.96200 16.44700 42.39500
C  -16.26000 15.67200 42.73400
C  -15.60100 14.29900 43.32500
C  -14.14000 14.42400 42.93200
C  -17.33200 16.27700 43.69400
C  -16.16100 13.01400 42.68900
C  -16.29800 11.83600 43.67800
N  -11.28700 14.65500 42.25400
C  -11.82000 13.42900 42.68300
C  -10.79400 12.42800 42.73800
C  -9.64200 13.06200 42.26000
C  -9.98700 14.35500 42.00400
C  -10.87900 11.03900 43.30200
C  -8.24300 12.87600 42.07000
O  -7.54400 11.85700 42.08800
C  -7.66300 14.16700 41.48500
C  -6.48600 14.55200 42.40900
O  -6.55600 14.62700 43.64500
O  -5.32100 14.74400 41.64300
C  -4.07800 15.02500 42.36500
H  -10.21600 20.39700 40.43300
H  -16.07500 18.19100 41.87900
H  -13.53300 12.48600 43.49600
H  -6.90100 17.05900 41.26000
H  -8.22700 19.18600 39.64200
H  -8.36600 19.91700 42.40400
H  -7.28300 20.60100 41.23600
H  -6.63700 19.25400 42.13900
H  -7.73700 17.44300 38.41600
H  -7.27900 15.75300 38.97000
H  -5.05300 16.46700 38.80100
H  -5.29800 17.91300 39.73400
H  -12.21400 22.41100 39.53000
H  -11.19300 22.07300 40.97300
H  -12.79500 22.72400 41.15100
H  -17.21600 21.59900 42.35400
H  -16.60100 20.10200 42.92700
H  -17.22700 20.22200 41.28100
H  -16.68400 15.47900 41.74800
H  -15.69400 14.32400 44.41000
H  -17.17200 17.33800 43.88600
H  -17.52400 15.74200 44.62400
H  -18.23700 16.15600 43.09900
H  -15.54300 12.77100 41.82500
H  -17.14800 13.22700 42.27800
H  -16.33900 12.08400 44.73800
H  -15.60300 11.00200 43.58000
H  -17.30800 11.45700 43.51800
H  -11.44800 10.35500 42.67300
H  -11.39400 11.16000 44.25500
H  -9.87000 10.69400 43.52800
H  -7.30500 14.06400 40.46100
H  -3.85200 14.06900 42.83800
H  -4.22000 15.78900 43.12900
H  -3.17000 15.31600 41.83700

