158

Mg 9.06300 3.84600 27.64200
C  10.14300 2.10500 30.51800
C  6.68500 5.47100 29.61400
C  7.85400 5.23100 24.80400
C  10.98000 1.55400 25.76400
N  8.42700 3.65800 29.77900
C  9.15800 3.06400 30.85400
C  8.67400 3.49200 32.20800
C  7.58300 4.56100 31.87800
C  7.55900 4.56100 30.32700
C  6.12900 4.19000 32.44100
C  9.69700 4.04100 33.16000
C  9.31600 5.09500 34.16600
H  10.03000 5.06000 35.57300
N  7.51100 5.24400 27.26100
C  6.62000 5.76700 28.21000
C  5.79200 6.75200 27.53900
C  6.17200 6.67600 26.12100
C  7.26900 5.75800 25.99800
C  4.73700 7.51600 28.26900
C  5.64600 7.46700 24.94200
O  5.95100 7.23300 23.77100
C  4.76600 8.53400 25.30300
N  9.38600 3.39500 25.61200
C  8.75400 4.16500 24.63600
C  9.13600 3.75500 23.17100
C  10.16400 2.56800 23.49200
C  10.17900 2.47200 25.02700
C  8.00200 3.46500 22.15200
C  11.50800 2.76500 22.88200
C  11.75300 1.87400 21.69400
N  10.35200 2.22100 28.01000
C  11.13800 1.40300 27.14000
C  11.95500 0.47300 27.83200
C  11.60300 0.69500 29.21600
C  10.64000 1.78500 29.23800
C  12.92500 -0.54100 27.13600
C  11.90600 0.35200 30.62500
O  12.76300 -0.37300 31.05900
C  10.88300 1.26300 31.47400
C  9.99700 0.50400 32.33200
O  8.98200 -0.10800 31.98400
O  10.40800 0.58900 33.63400
C  9.60600 -0.05800 34.67300
H  6.18000 6.20500 30.24600
H  7.58600 5.70100 23.85500
H  11.56100 0.92700 25.08400
H  8.27500 2.57800 32.64700
H  7.80800 5.58900 32.16500
H  6.14600 3.50600 33.29000
H  5.50200 3.88900 31.60200
H  5.75600 5.12300 32.86300
H  10.59300 4.25200 32.57600
H  9.90600 3.22800 33.85400
H  8.25400 5.05900 34.40800
H  9.67300 5.97500 33.63100
H  3.76100 7.57000 27.78600
H  5.16300 8.50700 28.42600
H  4.49700 7.07500 29.23600
H  4.65100 9.10100 24.37900
H  5.28300 9.05500 26.10900
H  3.78000 8.31700 25.71300
H  9.61100 4.65800 22.78700
H  9.77200 1.59200 23.20300
H  7.61200 4.36800 21.68300
H  7.13400 2.87400 22.44300
H  8.52900 2.99000 21.32400
H  12.26400 2.79500 23.66600
H  11.51400 3.80200 22.54700
H  11.06400 1.02900 21.66100
H  12.77400 1.57100 21.46300
H  11.46300 2.48700 20.84000
H  13.02100 -0.39500 26.06000
H  12.65400 -1.57300 27.35900
H  13.84300 -0.50900 27.72200
H  11.51300 1.96400 32.02100
H  10.08400 -0.98800 34.98400
H  8.62400 -0.33400 34.28800
H  9.41200 0.63900 35.48800
Mg 24.27000 -4.91200 46.24900
C  26.39700 -2.77900 44.55800
C  21.76100 -4.15800 43.84200
C  22.55800 -7.63900 47.16500
C  26.96100 -6.06100 48.23300
N  24.10900 -3.61500 44.38500
C  25.04600 -2.74400 44.02900
C  24.54900 -1.93800 42.84700
C  23.05400 -2.16400 42.87400
C  22.92100 -3.34700 43.80100
C  22.24400 -0.90300 43.24400
C  25.23600 -2.36400 41.56000
C  25.78000 -1.19500 40.72900
H  25.07600 -0.84900 39.43100
N  22.30200 -5.65800 45.72900
C  21.47300 -5.25300 44.68500
C  20.29500 -6.14300 44.66900
C  20.48500 -7.13000 45.64000
C  21.88100 -6.87000 46.22100
C  19.15600 -5.95800 43.63300
C  19.52600 -8.24800 45.86900
O  18.47600 -8.20300 45.20500
C  19.69100 -9.33500 46.88700
N  24.72300 -6.56400 47.61300
C  23.80500 -7.51500 47.77800
C  24.33100 -8.57400 48.87300
C  25.71500 -8.05500 49.16700
C  25.82400 -6.80100 48.30000
C  23.46100 -8.87000 50.17100
C  26.91600 -9.11700 48.87900
C  27.83700 -9.21700 50.06500
N  26.24600 -4.49300 46.47800
C  27.21100 -4.92700 47.36500
C  28.42300 -4.14400 47.25200
C  28.15200 -3.32600 46.06000
C  26.79900 -3.48600 45.68800
C  29.63600 -4.30100 48.03800
C  28.75300 -2.36700 45.17700
O  29.88200 -1.92900 45.19200
C  27.59300 -1.90900 44.14400
C  27.30400 -0.47100 44.39900
O  26.38900 -0.06600 45.04700
O  28.27500 0.25200 43.74200
C  28.10300 1.70800 44.04900
H  21.02600 -3.91900 43.07100
H  21.95600 -8.47800 47.52000
H  27.76300 -6.41500 48.88300
H  24.66800 -0.88400 43.09900
H  22.63800 -2.56100 41.94900
H  22.71800 -0.13300 42.63500
H  22.50900 -0.67300 44.27600
H  21.17000 -0.98600 43.08100
H  24.49800 -2.89600 40.96000
H  26.08200 -3.03200 41.72200
H  26.78100 -1.49300 40.41600
H  25.85700 -0.34100 41.40200
H  19.29200 -6.61800 42.77600
H  19.24500 -4.92900 43.28600
H  18.19200 -6.24600 44.05100
H  19.62500 -9.02800 47.93100
H  20.66000 -9.81600 46.75300
H  18.89000 -10.07000 46.80500
H  24.42800 -9.50100 48.30700
H  25.73800 -7.67900 50.19000
H  22.46100 -8.44500 50.08600
H  23.95000 -8.59400 51.10500
H  23.37100 -9.91000 50.48500
H  27.55900 -8.70500 48.10100
H  26.51900 -10.09000 48.58900
H  28.52800 -10.02200 49.81700
H  27.31400 -9.41500 51.00000
H  28.35400 -8.25700 50.05900
H  30.38800 -4.94700 47.58500
H  29.49700 -4.65600 49.06000
H  30.10600 -3.31800 48.04200
H  27.94700 -2.08200 43.12700
H  27.33200 2.01600 43.34300
H  29.11000 2.11300 43.95000
H  27.75800 1.90500 45.06400

