158

Mg 42.87300 4.27100 47.52600
C  40.38400 6.67600 46.96600
C  40.44600 1.86900 47.44100
C  45.18500 1.91400 47.05900
C  45.17300 6.74300 46.32800
N  40.69100 4.30500 47.16300
C  39.84800 5.34600 47.00000
C  38.37700 4.97000 46.74800
C  38.43100 3.43900 47.36800
C  39.96900 3.11800 47.30900
C  37.92900 3.35900 48.80200
C  37.90000 5.10400 45.26600
C  36.91300 6.24200 44.83500
H  37.36700 6.97800 43.59600
N  42.83400 2.15300 47.47500
C  41.75000 1.33800 47.50600
C  42.18500 -0.05300 47.36300
C  43.57400 -0.08300 47.31100
C  43.90800 1.33600 47.22700
C  41.20400 -1.11500 47.28000
C  44.48000 -1.27300 47.24800
O  43.98000 -2.40600 47.37000
C  45.96600 -1.24400 47.12200
N  44.93000 4.36500 46.67000
C  45.67700 3.22900 46.84700
C  47.14200 3.49000 46.37000
C  47.13600 5.09000 46.20800
C  45.68300 5.40900 46.37100
C  48.42200 3.02700 47.08800
C  47.75400 5.67700 44.93100
C  46.98400 5.86300 43.54200
N  42.83400 6.36500 47.09300
C  43.88100 7.24300 46.70300
C  43.34500 8.61200 46.69000
C  41.94000 8.45000 46.73900
C  41.72300 7.06600 47.01200
C  44.13900 9.81700 46.47200
C  40.74200 9.17000 46.78500
O  40.55500 10.39600 46.69000
C  39.64300 8.06600 46.83700
C  38.60500 8.34700 47.86900
O  38.73800 8.28700 49.11800
O  37.48000 8.92200 47.27000
C  36.64200 9.64100 48.24000
H  39.61000 1.17700 47.56200
H  45.91300 1.13500 46.82100
H  45.89700 7.48300 45.98200
H  37.75100 5.62400 47.35600
H  37.90100 2.69500 46.77400
H  37.44500 4.30200 49.05500
H  38.73800 3.11400 49.49000
H  37.23100 2.52200 48.83500
H  37.46700 4.13200 45.03100
H  38.79300 5.19400 44.64600
H  36.68400 7.01000 45.57300
H  35.97600 5.71800 44.64600
H  41.45600 -1.71000 46.40300
H  40.17800 -0.77300 47.14000
H  41.34200 -1.70700 48.18500
H  46.38800 -0.53500 47.83500
H  46.10600 -0.86700 46.10900
H  46.37600 -2.22000 47.38200
H  47.21300 3.14500 45.33800
H  47.67300 5.63100 46.98800
H  49.26700 2.98200 46.40000
H  48.40100 1.98800 47.41700
H  48.71600 3.72000 47.87600
H  48.60100 5.04800 44.65700
H  48.10800 6.67300 45.19900
H  45.93200 5.72900 43.79200
H  47.26100 5.08100 42.83500
H  47.32400 6.79600 43.09200
H  44.90100 9.75800 47.24800
H  43.67700 10.78800 46.65200
H  44.51000 9.85500 45.44700
H  39.11200 7.99100 45.88700
H  36.24300 8.85800 48.88400
H  35.82200 10.17300 47.75600
H  37.09500 10.42400 48.84900
Mg 46.61500 24.95500 28.32000
C  47.04200 27.26700 30.92400
C  45.84000 22.60100 30.63200
C  46.58300 22.85600 25.86400
C  48.04300 27.44800 26.14800
N  46.53600 24.93500 30.54900
C  46.54100 26.03600 31.32900
C  46.22500 25.69300 32.73600
C  46.03600 24.12200 32.70600
C  46.19800 23.77700 31.26600
C  46.88900 23.25800 33.63000
C  44.99700 26.44500 33.48000
C  45.29900 27.03600 34.89100
H  44.26800 26.89600 35.96800
N  46.07000 23.07800 28.26600
C  45.82700 22.20400 29.30500
C  45.45200 20.91500 28.77300
C  45.69500 20.94200 27.40900
C  46.12800 22.32900 27.12000
C  45.06500 19.68700 29.60900
C  45.45100 19.86500 26.25600
O  45.57900 20.14900 25.05700
C  44.89300 18.49700 26.58300
N  47.17200 25.11900 26.26800
C  46.98600 24.12000 25.37800
C  47.31700 24.48600 23.92800
C  47.86400 25.95100 24.06800
C  47.77200 26.17600 25.56300
C  48.29900 23.57800 23.16000
C  46.98200 26.94500 23.23700
C  47.63900 28.22500 22.85200
N  47.33500 26.95500 28.43600
C  47.85000 27.78700 27.49300
C  48.14600 29.07800 28.02100
C  47.77200 28.88500 29.40000
C  47.32400 27.56100 29.60900
C  48.76100 30.24000 27.31100
C  47.69300 29.61000 30.59900
O  48.04300 30.78800 30.90100
C  47.26000 28.55500 31.72900
C  48.36700 28.44000 32.75300
O  49.21200 27.54300 32.78100
O  48.34600 29.44900 33.66500
C  49.24000 29.22600 34.87000
H  45.33100 21.99500 31.38300
H  46.60800 22.10400 25.07300
H  48.52600 28.27900 25.63000
H  47.05500 25.91800 33.40600
H  44.97200 24.02100 32.92200
H  47.73400 22.90800 33.03700
H  46.28800 22.38300 33.87400
H  47.21800 23.77200 34.53300
H  44.10600 25.84300 33.65700
H  44.68600 27.28600 32.85900
H  45.32800 28.12000 34.77500
H  46.22500 26.60800 35.27300
H  44.01700 19.49800 29.37500
H  45.27200 19.78100 30.67500
H  45.50600 18.75000 29.26900
H  43.99400 18.64200 27.18100
H  45.66100 17.86400 27.02900
H  44.69900 17.90000 25.69200
H  46.31900 24.54200 23.49300
H  48.91700 26.15700 23.87900
H  49.11300 24.17800 22.75200
H  47.69900 23.09100 22.39200
H  48.78100 22.84500 23.80600
H  46.15800 27.11600 23.93000
H  46.84000 26.41700 22.29400
H  47.65000 28.24400 21.76200
H  48.67300 28.30500 23.18900
H  46.93900 28.95800 23.25200
H  48.12600 30.38000 26.43700
H  49.75300 29.98000 26.94100
H  48.79500 31.04800 28.04100
H  46.27000 28.77600 32.12800
H  49.06500 30.08300 35.52000
H  50.30400 29.30200 34.64500
H  48.93500 28.27600 35.31000

