158

Mg 1.24500 41.86800 24.86100
C  3.29000 41.97100 27.79100
C  -1.46500 41.40500 26.99700
C  -0.73100 41.70000 22.18900
C  4.09700 42.44200 22.94800
N  0.94500 41.77100 27.08500
C  1.91700 41.77600 28.11700
C  1.34900 41.58700 29.55200
C  -0.15900 41.47800 29.20500
C  -0.25300 41.55800 27.65000
C  -0.85900 40.24600 29.93900
C  1.61400 42.83900 30.49200
C  1.83600 42.58500 32.00000
H  0.62200 42.86800 32.88800
N  -0.82900 41.77200 24.58200
C  -1.75500 41.54600 25.56900
C  -3.03400 41.43000 24.98400
C  -2.92000 41.57200 23.60600
C  -1.45400 41.69300 23.35500
C  -4.31400 41.30200 25.84800
C  -3.93900 41.68400 22.59200
O  -3.69900 41.66100 21.36600
C  -5.32000 41.78900 22.90100
N  1.71000 41.85600 22.84200
C  0.68700 41.80400 21.96100
C  1.30000 42.00800 20.54300
C  2.70500 42.60000 20.79300
C  2.91200 42.23400 22.26700
C  1.29800 40.78100 19.55200
C  2.83800 44.13300 20.59100
C  4.28300 44.59100 20.12900
N  3.34100 42.07500 25.20600
C  4.38700 42.27400 24.31000
C  5.59800 42.24200 25.01600
C  5.27600 42.13500 26.37100
C  3.84400 42.08400 26.45500
C  6.95400 42.46600 24.49700
C  5.77000 41.99700 27.75400
O  6.90200 42.06700 28.15500
C  4.51000 42.00400 28.70400
C  4.62300 40.92600 29.71000
O  4.35300 39.75500 29.65200
O  5.21400 41.48100 30.79500
C  5.49000 40.71000 31.98500
H  -2.26700 41.02100 27.63200
H  -1.24600 41.80100 21.23200
H  4.91300 42.72100 22.27800
H  1.68400 40.63500 29.96500
H  -0.76000 42.28100 29.63400
H  -1.75900 40.57700 30.45800
H  -0.30100 39.79100 30.75800
H  -1.02400 39.43500 29.23000
H  0.86600 43.62000 30.35400
H  2.58200 43.18300 30.12800
H  2.49200 43.39800 32.31100
H  2.27000 41.61800 32.25400
H  -4.74500 40.35400 25.52700
H  -5.02500 42.12200 25.74500
H  -4.03300 41.10700 26.88300
H  -5.59000 40.78800 23.23800
H  -5.79400 42.03000 21.95000
H  -5.56500 42.60000 23.58700
H  0.71800 42.83600 20.13800
H  3.46900 42.17600 20.14100
H  0.61300 40.84200 18.70600
H  0.93400 39.92300 20.11600
H  2.28100 40.62000 19.10900
H  2.73900 44.59200 21.57400
H  2.09400 44.44600 19.85800
H  4.66100 45.33700 20.82800
H  4.21700 45.07500 19.15500
H  4.99900 43.78200 20.28000
H  7.66300 41.96700 25.15700
H  7.26900 43.50500 24.39500
H  7.10600 41.95600 23.54600
H  4.62400 42.95900 29.21800
H  6.35500 40.07600 31.79200
H  4.57100 40.22700 32.31900
H  5.86900 41.32900 32.79800
Mg -2.00100 33.97300 26.70300
C  -3.64000 32.87400 29.49900
C  -0.17600 36.11000 28.70400
C  -0.53200 35.20200 23.94000
C  -3.86700 31.84200 24.70400
N  -1.80200 34.30900 28.93400
C  -2.66900 33.70800 29.83600
C  -2.29500 34.14500 31.23900
C  -1.19600 35.22100 30.99000
C  -0.96800 35.22000 29.41600
C  -1.37200 36.61100 31.58200
C  -1.87300 32.88600 32.05200
C  -2.68200 32.43100 33.28000
H  -2.02500 32.26000 34.63800
N  -0.53700 35.48300 26.33400
C  0.05500 36.27400 27.31200
C  0.92300 37.27900 26.64400
C  0.90000 36.87100 25.29500
C  -0.08400 35.84700 25.11300
C  1.88000 38.25800 27.42000
C  1.55600 37.70000 24.18100
O  1.59100 37.34700 23.03400
C  2.03100 39.03500 24.49100
N  -2.32000 33.72100 24.57000
C  -1.49700 34.26300 23.69300
C  -1.77100 33.79500 22.27700
C  -2.47300 32.48900 22.59500
C  -2.99200 32.68500 24.05300
C  -2.55600 34.77500 21.33100
C  -1.60400 31.21700 22.48800
C  -2.13500 29.97900 21.67500
N  -3.39200 32.63200 26.95700
C  -4.15500 31.79800 26.08500
C  -5.19000 31.14700 26.87500
C  -5.00500 31.53100 28.17300
C  -3.92800 32.38200 28.20200
C  -6.14800 30.11300 26.30500
C  -5.45400 31.26600 29.51100
O  -6.28200 30.51600 29.97300
C  -4.60900 32.18500 30.40000
C  -5.63400 33.03300 31.07700
O  -5.96000 34.14200 30.65100
O  -6.12700 32.40000 32.23600
C  -6.74400 33.26200 33.21500
H  0.47800 36.77300 29.27400
H  -0.18300 35.73800 23.05500
H  -4.27700 31.06600 24.05500
H  -3.22700 34.55800 31.62500
H  -0.29900 34.81400 31.45600
H  -2.30300 36.67200 32.14700
H  -1.44500 37.33800 30.77300
H  -0.51500 36.80200 32.22800
H  -0.85300 32.93500 32.43500
H  -1.75600 32.13400 31.27200
H  -2.95900 31.39600 33.07600
H  -3.63800 32.95400 33.31500
H  1.58200 38.32100 28.46700
H  1.96300 39.28700 27.06900
H  2.89000 37.87500 27.27500
H  1.29200 39.66300 24.99000
H  2.41400 39.52100 23.59400
H  2.95200 38.98600 25.07200
H  -0.76800 33.77700 21.84900
H  -3.35700 32.39300 21.96500
H  -2.88000 35.65700 21.88400
H  -3.53400 34.49500 20.93900
H  -1.93200 35.21500 20.55300
H  -1.42900 30.87700 23.50900
H  -0.64300 31.44800 22.02800
H  -1.41800 29.75900 20.88400
H  -3.05100 30.26200 21.15600
H  -2.30200 29.09400 22.28800
H  -6.91700 30.57800 25.68800
H  -6.73500 29.62200 27.08100
H  -5.48800 29.45900 25.73500
H  -4.08500 31.61700 31.16900
H  -7.36600 34.05800 32.80600
H  -5.94400 33.73000 33.78900
H  -7.50200 32.61500 33.65700

