158

Mg 24.41100 -7.32200 47.41400
C  26.84400 -4.98500 46.46200
C  22.20700 -5.92900 45.20700
C  22.37000 -10.15700 47.66900
C  26.75500 -8.95300 49.24700
N  24.57700 -5.61500 45.98900
C  25.63400 -4.78900 45.75100
C  25.27200 -3.78500 44.70600
C  23.76600 -3.98500 44.45100
C  23.46300 -5.27600 45.26800
C  22.91000 -2.78600 44.80500
C  26.09800 -3.91400 43.40200
C  26.75500 -2.70600 42.84100
H  26.05100 -1.92400 41.69600
N  22.42300 -7.92800 46.59700
C  21.70800 -7.14800 45.70400
C  20.50600 -7.84900 45.34900
C  20.40100 -9.01200 46.23800
C  21.79200 -9.13800 46.84600
C  19.45100 -7.15400 44.42300
C  19.26200 -10.00000 46.33800
O  18.26800 -9.77000 45.67400
C  19.35100 -11.27600 47.07300
N  24.51800 -9.22900 48.35600
C  23.53600 -10.20000 48.42000
C  24.05300 -11.48800 49.02500
C  25.41700 -11.07300 49.58400
C  25.61000 -9.63300 49.06500
C  23.12600 -12.19800 50.05300
C  26.49400 -12.07800 49.03000
C  27.64200 -12.30700 50.11600
N  26.46300 -7.07500 47.75800
C  27.22100 -7.75600 48.65000
C  28.49200 -7.07500 48.71300
C  28.38500 -6.00500 47.89100
C  27.14500 -6.02000 47.27600
C  29.68700 -7.46700 49.51600
C  29.11500 -4.81400 47.34400
O  30.25100 -4.43400 47.52300
C  28.07800 -4.13700 46.40600
C  27.77200 -2.71200 46.76700
O  27.26700 -2.35100 47.79100
O  28.14200 -1.85300 45.75600
C  27.77300 -0.46400 45.89300
H  21.58300 -5.36200 44.51300
H  21.78900 -11.06800 47.82600
H  27.55100 -9.37600 49.86300
H  25.42700 -2.81300 45.17500
H  23.52700 -4.20400 43.41000
H  21.91500 -2.74900 44.36000
H  23.40600 -1.93500 44.34000
H  22.68900 -2.59300 45.85500
H  25.52300 -4.31900 42.57000
H  26.82200 -4.69700 43.62800
H  27.80400 -2.87300 42.59600
H  26.95400 -1.99100 43.63900
H  18.76500 -7.92800 44.07900
H  20.00500 -6.67100 43.61900
H  18.83200 -6.46300 44.99500
H  20.21200 -11.89800 46.83100
H  18.51900 -11.97000 46.95600
H  19.39000 -10.98600 48.12300
H  24.16700 -12.12700 48.14900
H  25.42200 -11.15300 50.67100
H  22.38100 -11.52300 50.47400
H  23.79700 -12.55600 50.83300
H  22.59900 -13.02800 49.58100
H  26.91100 -11.63600 48.12600
H  26.07500 -13.04200 48.74300
H  27.71100 -11.46500 50.80500
H  28.59000 -12.39400 49.58600
H  27.53900 -13.28200 50.59400
H  29.84600 -8.52900 49.33000
H  29.82400 -7.16600 50.55500
H  30.49700 -6.98200 48.97000
H  28.45500 -4.15300 45.38300
H  28.36800 0.08500 45.16400
H  27.81000 -0.00700 46.88200
H  26.77800 -0.25300 45.50000
Mg 36.66700 49.84300 26.09000
C  36.58900 47.92400 28.89100
C  35.94300 52.61000 27.89000
C  36.59900 51.70500 23.08700
C  37.17800 47.03900 24.08400
N  36.33600 50.22300 28.16400
C  36.37200 49.29800 29.19700
C  36.17300 49.98900 30.61600
C  35.81400 51.42000 30.19200
C  36.16700 51.45700 28.67900
C  34.38700 52.02400 30.49400
C  37.47700 49.79800 31.45500
C  37.38400 49.57400 32.94300
H  36.01300 49.68900 33.79800
N  36.32200 51.87300 25.59700
C  36.01600 52.87400 26.47900
C  35.89400 54.14100 25.78700
C  36.14000 53.84400 24.43200
C  36.31600 52.40100 24.32000
C  35.52800 55.43500 26.49900
C  36.10800 54.82300 23.24300
O  36.41200 54.61200 22.08500
C  35.78400 56.24300 23.52200
N  36.94700 49.43700 23.83800
C  36.86100 50.34200 22.88000
C  37.27100 49.78500 21.50200
C  37.63200 48.33100 21.84900
C  37.31900 48.26900 23.38700
C  36.10500 49.97500 20.41900
C  38.97200 47.81100 21.36700
C  40.23000 48.20200 22.12000
N  36.80200 47.86700 26.40300
C  37.08500 46.79900 25.50000
C  37.11100 45.59000 26.24000
C  37.00900 45.94100 27.57700
C  36.75200 47.33600 27.59200
C  37.31500 44.18400 25.61000
C  37.01900 45.49400 28.94100
O  37.18300 44.40700 29.42100
C  36.73200 46.80600 29.83900
C  35.49800 46.63700 30.69700
O  34.36200 46.86900 30.33500
O  35.81800 46.18900 31.90500
C  34.68600 45.95600 32.80000
H  35.60200 53.48500 28.44600
H  36.56800 52.29100 22.16600
H  37.34900 46.15900 23.46200
H  35.35200 49.51500 31.15400
H  36.47100 52.16200 30.64600
H  33.68300 51.25800 30.81900
H  33.94600 52.34200 29.54900
H  34.45000 52.73300 31.31900
H  38.07100 50.71000 31.39500
H  38.11600 48.99400 31.09100
H  38.15400 50.16900 33.43500
H  37.63400 48.56300 33.26200
H  34.61000 55.83600 26.07000
H  36.36100 56.12000 26.34000
H  35.43300 55.28500 27.57500
H  36.00100 56.86800 22.65600
H  36.37300 56.61100 24.36200
H  34.71300 56.30700 23.71400
H  38.15500 50.28900 21.11100
H  36.84400 47.65700 21.51200
H  35.08800 49.92700 20.80900
H  36.21900 49.32500 19.55200
H  36.30700 51.00800 20.13500
H  39.05800 47.91200 20.28500
H  38.88100 46.72500 21.34600
H  40.00100 48.89400 22.93000
H  40.82700 48.82200 21.45000
H  40.72300 47.27400 22.41000
H  37.93100 43.68500 26.35800
H  37.83000 44.09700 24.65400
H  36.31100 43.77700 25.48800
H  37.53100 47.03500 30.54400
H  34.37300 44.91700 32.69500
H  33.83100 46.63000 32.74900
H  34.96500 45.97000 33.85400

