158

Mg 1.73900 -1.58300 42.81100
C  5.30700 -0.92200 42.53100
C  1.25100 1.10100 40.85600
C  -1.38100 -2.65500 42.40700
C  2.62000 -4.77100 43.89700
N  3.12600 -0.04600 41.79500
C  4.56400 0.06600 41.85900
C  4.99400 1.36300 41.20200
C  3.66900 2.06500 40.67700
C  2.62300 1.00100 41.14000
C  3.43500 3.48900 41.15600
C  6.11800 1.15900 40.14800
C  6.18500 -0.06800 39.20400
H  5.54500 -0.00700 37.80500
N  0.12400 -0.79800 41.98200
C  0.12000 0.35400 41.22200
C  -1.22900 0.62700 40.74200
C  -2.05200 -0.37300 41.40700
C  -1.11800 -1.32300 41.95600
C  -1.57100 1.84200 39.93700
C  -3.56400 -0.37300 41.39000
O  -4.16000 0.58400 40.93800
C  -4.43600 -1.37900 41.91900
N  0.73200 -3.47600 43.14400
C  -0.56700 -3.63300 42.96300
C  -1.07600 -4.93400 43.43400
C  0.16100 -5.60300 43.99200
C  1.29000 -4.55300 43.66000
C  -2.40800 -4.89000 44.31000
C  0.45000 -6.96700 43.40900
C  0.46600 -8.11100 44.47100
N  3.53800 -2.62000 43.28400
C  3.69400 -3.91500 43.68700
C  5.09300 -4.23200 43.97300
C  5.78700 -3.01500 43.53000
C  4.74400 -2.14500 43.03100
C  5.76100 -5.58600 44.35000
C  7.12100 -2.45100 43.26900
O  8.20500 -2.90900 43.32000
C  6.82900 -1.04900 42.61500
C  7.49900 0.01600 43.36500
O  8.23600 0.88000 42.84500
O  7.13100 -0.04000 44.66700
C  7.84200 0.95000 45.53300
H  1.09100 1.96400 40.20700
H  -2.43900 -2.91900 42.35100
H  2.83400 -5.76400 44.29700
H  5.49800 1.96600 41.95700
H  3.63100 2.02100 39.58900
H  3.46300 4.07400 40.23600
H  4.23300 3.80700 41.82700
H  2.47300 3.43300 41.66400
H  7.10100 1.33800 40.58300
H  5.93900 1.90500 39.37400
H  5.82800 -0.97900 39.68500
H  7.23300 -0.22500 38.94600
H  -2.44800 1.55300 39.35700
H  -0.85700 2.10400 39.15500
H  -1.72500 2.69400 40.59900
H  -5.44600 -1.02300 42.12200
H  -3.99300 -1.35400 42.91500
H  -4.51900 -2.28600 41.32100
H  -1.21300 -5.43600 42.47700
H  0.06100 -5.83100 45.05300
H  -3.21300 -5.53100 43.95100
H  -2.73700 -3.85100 44.31500
H  -2.17600 -5.13200 45.34700
H  1.44900 -6.94700 42.97400
H  -0.23300 -7.27500 42.61600
H  -0.12400 -8.95000 44.10200
H  0.17400 -7.85100 45.48900
H  1.52000 -8.38700 44.51000
H  6.33100 -5.38700 45.25800
H  6.33200 -5.85400 43.46100
H  4.98100 -6.25300 44.71700
H  7.31800 -1.03500 41.64100
H  7.79100 0.56700 46.55200
H  7.36500 1.92000 45.39300
H  8.91900 0.86000 45.39200
Mg 25.09300 0.87000 29.97000
C  27.18200 0.60400 32.77700
C  22.43800 1.36600 32.20900
C  22.88900 0.52800 27.35500
C  27.66000 -0.33500 27.94800
N  24.85600 1.05100 32.19200
C  25.86200 0.89600 33.10300
C  25.40700 1.23500 34.55200
C  23.83800 1.36200 34.33100
C  23.68900 1.27900 32.80800
C  22.98100 0.28400 35.10600
C  26.10200 2.53400 35.09300
C  26.58300 2.33300 36.54000
H  26.02800 3.20100 37.67800
N  22.98100 0.94600 29.81800
C  22.10300 1.23300 30.87400
C  20.76500 1.31300 30.36800
C  20.90200 0.92400 28.97900
C  22.29100 0.75600 28.65700
C  19.55100 1.59800 31.13700
C  19.74500 0.70700 28.00800
O  19.94000 0.19800 26.90000
C  18.38100 0.94900 28.39300
N  25.24900 0.16900 27.98000
C  24.19200 0.23300 27.06400
C  24.71100 0.04400 25.60100
C  26.24200 0.00200 25.76400
C  26.43900 -0.01900 27.31800
C  24.05100 -1.20900 24.88300
C  27.03100 1.20500 25.13000
C  27.45600 2.46700 25.95800
N  27.08200 0.39500 30.18200
C  27.96300 -0.09200 29.33000
C  29.24800 -0.33200 30.01000
C  28.97800 -0.11600 31.33400
C  27.65300 0.28000 31.43600
C  30.58300 -0.71700 29.29900
C  29.52100 -0.19000 32.63600
O  30.61900 -0.49700 33.05100
C  28.46500 0.40100 33.60700
C  28.26500 -0.55200 34.72800
O  27.61600 -1.58700 34.73900
O  28.97600 -0.12400 35.78000
C  28.67000 -0.80400 37.02800
H  21.60800 1.63100 32.86700
H  22.23600 0.64300 26.48700
H  28.44100 -0.59200 27.22900
H  25.58900 0.42500 35.25900
H  23.42800 2.33800 34.59400
H  22.94400 -0.71000 34.66000
H  21.95200 0.64400 35.11500
H  23.30200 0.04500 36.12000
H  25.39600 3.34800 34.92300
H  27.02300 2.71200 34.53800
H  27.67200 2.29200 36.57600
H  26.27100 1.33100 36.83300
H  19.67100 1.81400 32.19900
H  19.06000 0.62500 31.16700
H  18.94000 2.39700 30.71800
H  17.73500 0.62600 27.57700
H  18.24500 1.98900 28.68800
H  18.15000 0.28100 29.22300
H  24.44800 0.89300 24.97000
H  26.65000 -0.93000 25.37400
H  23.09700 -1.07200 24.37400
H  23.81600 -1.94800 25.64900
H  24.79700 -1.59000 24.18600
H  26.42200 1.67700 24.35900
H  27.91100 0.84700 24.59700
H  28.53500 2.61000 26.02300
H  27.16300 2.30100 26.99500
H  26.87300 3.30400 25.57600
H  30.78300 -0.12900 28.40400
H  30.30500 -1.73600 29.03100
H  31.49300 -0.70300 29.90000
H  28.86900 1.33000 34.00900
H  27.63100 -0.55700 37.24500
H  29.35200 -0.44100 37.79700
H  28.78800 -1.88400 36.93500

