158

Mg -3.35300 17.43100 26.63800
C  -3.72900 15.10500 29.28200
C  -3.20500 19.93400 28.77500
C  -3.41600 19.55900 23.94800
C  -3.94900 14.74800 24.34600
N  -3.44400 17.48200 28.66300
C  -3.55400 16.44600 29.62100
C  -3.42200 16.95200 31.06200
C  -3.30400 18.49900 30.90000
C  -3.41900 18.64000 29.34400
C  -4.43200 19.39500 31.61500
C  -2.25400 16.35000 31.99600
C  -1.88700 17.07800 33.33600
H  -2.03600 16.38300 34.67100
N  -3.33900 19.51100 26.34200
C  -3.19600 20.35900 27.41200
C  -3.13600 21.73000 26.93900
C  -3.05600 21.62900 25.52100
C  -3.22200 20.20500 25.18000
C  -3.16600 22.98600 27.78300
C  -2.77300 22.64000 24.44100
O  -2.58100 22.32400 23.23400
C  -2.64200 24.06400 24.83000
N  -3.77400 17.20800 24.45700
C  -3.65800 18.24100 23.63100
C  -3.79700 17.74000 22.09000
C  -3.88200 16.27400 22.25400
C  -3.88000 16.05000 23.76600
C  -4.99400 18.38500 21.41000
C  -2.68700 15.42800 21.52400
C  -1.24400 15.71400 22.05400
N  -3.82600 15.41800 26.71000
C  -3.87000 14.43900 25.70600
C  -3.97900 13.11400 26.28500
C  -4.05700 13.33600 27.69200
C  -3.88100 14.69200 27.94100
C  -4.09400 11.87100 25.60200
C  -4.26300 12.71900 28.96100
O  -4.36300 11.52900 29.37400
C  -4.14700 13.82300 30.08600
C  -2.99700 13.29900 30.95200
O  -1.79800 13.41000 30.76300
O  -3.49100 12.50400 31.96700
C  -2.60000 11.76600 32.85500
H  -3.10400 20.77600 29.46200
H  -3.36700 20.21000 23.07300
H  -4.11500 13.89400 23.68600
H  -4.31800 16.74100 31.64500
H  -2.35100 18.81000 31.33000
H  -5.41200 18.92300 31.68200
H  -4.55300 20.32900 31.06600
H  -4.08800 19.71000 32.60000
H  -1.35600 16.31100 31.37900
H  -2.53400 15.34700 32.31800
H  -2.56100 17.93100 33.41500
H  -0.85900 17.43900 33.30900
H  -2.22500 23.53600 27.80200
H  -3.42300 22.76900 28.82000
H  -3.85900 23.74300 27.41700
H  -3.58400 24.26300 25.34000
H  -2.44200 24.72100 23.98400
H  -1.75800 24.03800 25.46800
H  -2.89900 18.04300 21.55300
H  -4.84200 15.90600 21.88900
H  -4.66000 18.80600 20.46200
H  -5.41000 19.17800 22.03000
H  -5.78000 17.67400 21.15300
H  -2.64300 15.70500 20.47100
H  -2.96800 14.37500 21.52000
H  -0.67200 15.93300 21.15100
H  -0.71600 14.82100 22.38800
H  -1.13300 16.48300 22.81800
H  -3.44700 11.12200 26.05800
H  -3.68200 11.88300 24.59300
H  -5.12800 11.53900 25.50700
H  -5.03700 14.03600 30.67800
H  -1.91100 11.08700 32.35300
H  -3.09000 11.13900 33.60000
H  -2.10800 12.55500 33.42500
Mg 49.38300 47.03300 43.11000
C  45.98300 47.42000 42.53200
C  49.18000 43.94700 41.59400
C  52.73500 46.97800 43.01600
C  49.35800 50.48200 44.08900
N  47.72900 45.85400 42.08300
C  46.40900 46.18900 42.09200
C  45.56400 45.13600 41.47000
C  46.62000 43.90500 41.44300
C  47.91700 44.57000 41.74200
C  46.34300 42.75300 42.44800
C  44.86500 45.41100 40.10400
C  43.75700 44.44800 39.57800
H  44.23000 43.51800 38.50500
N  50.77700 45.60800 42.52200
C  50.46800 44.37400 42.02400
C  51.65200 43.58700 41.93600
C  52.72600 44.41700 42.31500
C  52.10200 45.75800 42.58500
C  51.65200 42.06100 41.57500
C  54.15600 44.05800 42.40300
O  54.50400 42.88200 42.13200
C  55.30500 45.02300 42.68600
N  50.81200 48.56700 43.45500
C  52.14700 48.26600 43.38400
C  52.99100 49.40500 43.84200
C  51.91700 50.54300 44.11200
C  50.58900 49.82500 43.88700
C  53.93100 49.01600 45.09200
C  52.13600 51.81600 43.19600
C  51.54800 53.09400 43.70400
N  47.96400 48.63100 43.42800
C  48.09500 49.94500 43.86100
C  46.77400 50.57400 43.94800
C  45.92700 49.62300 43.43200
C  46.71600 48.45100 43.15000
C  46.55400 52.02300 44.41800
C  44.53600 49.36600 43.06400
O  43.49000 50.04800 43.15600
C  44.55900 47.99800 42.40200
C  43.66200 47.20500 43.25400
O  43.80800 47.00900 44.43300
O  42.82600 46.50800 42.43500
C  42.12900 45.47600 43.14400
H  49.06100 42.90400 41.29600
H  53.79900 47.03200 43.25400
H  49.41200 51.52000 44.42400
H  44.84100 44.84300 42.23100
H  46.71400 43.49000 40.44000
H  45.40900 42.85500 43.00000
H  47.09400 42.57900 43.21800
H  46.15500 41.85300 41.86300
H  45.69600 45.42200 39.39900
H  44.52700 46.44200 40.21300
H  42.96700 45.07000 39.15800
H  43.31800 43.87800 40.39700
H  52.13800 42.06600 40.59900
H  50.64900 41.63800 41.63400
H  52.21300 41.56500 42.36700
H  55.26500 45.39700 43.71000
H  55.28700 45.78800 41.91000
H  56.22200 44.50500 42.40600
H  53.67400 49.69000 43.04200
H  52.09100 50.78600 45.16000
H  54.89800 48.93900 44.59400
H  53.69500 48.10000 45.63300
H  54.08500 49.82200 45.80900
H  51.70600 51.58300 42.22200
H  53.21100 51.96700 43.09800
H  51.15500 53.02200 44.71800
H  50.79100 53.47900 43.02100
H  52.36500 53.80900 43.79600
H  45.52100 52.21400 44.12500
H  47.17800 52.71000 43.84700
H  46.75300 52.04600 45.48900
H  44.07100 48.21500 41.45200
H  41.41700 45.73500 43.92800
H  42.85200 44.73300 43.48000
H  41.54600 45.01600 42.34500

