158

Mg 2.70200 -1.26200 44.86200
C  5.96400 -0.39000 44.43300
C  1.76100 1.15900 42.48500
C  -0.49800 -2.40500 44.97200
C  3.74500 -4.29000 46.54700
N  3.77500 0.05100 43.39500
C  5.16800 0.32000 43.58900
C  5.59700 1.42000 42.55900
C  4.27800 2.06900 42.20000
C  3.19200 1.04500 42.74200
C  4.15200 3.52900 42.67100
C  6.40000 0.74300 41.36400
C  7.85600 1.31700 41.24500
H  8.22600 1.72300 39.77900
N  0.85800 -0.65400 43.94000
C  0.74300 0.40400 43.05700
C  -0.69200 0.58500 42.81500
C  -1.41600 -0.50600 43.44000
C  -0.34900 -1.24800 44.15500
C  -1.23300 1.77600 42.06900
C  -2.92400 -0.53200 43.54500
O  -3.57000 0.25000 42.91600
C  -3.71000 -1.39100 44.45600
N  1.76300 -3.13700 45.63200
C  0.45800 -3.28200 45.58300
C  -0.06200 -4.54900 46.38300
C  1.35500 -5.21300 46.68300
C  2.38100 -4.18400 46.30800
C  -0.89800 -4.17800 47.65600
C  1.75300 -6.56500 46.05100
C  2.10500 -7.64900 47.08300
N  4.42400 -2.13900 45.56100
C  4.65900 -3.31600 46.28600
C  6.09100 -3.37800 46.53400
C  6.68300 -2.26300 45.89900
C  5.61800 -1.58800 45.19000
C  6.74800 -4.50500 47.36100
C  7.83200 -1.48000 45.62400
O  9.00800 -1.66200 46.03300
C  7.42000 -0.30200 44.65500
C  7.63300 0.99600 45.37600
O  7.47000 1.20500 46.59800
O  8.28300 1.85300 44.45200
C  8.42000 3.23800 44.94600
H  1.49000 1.82800 41.66600
H  -1.48900 -2.82400 44.78600
H  4.09500 -5.23100 46.97700
H  6.24000 2.06100 43.16200
H  4.23500 2.04800 41.11100
H  3.78400 4.16600 41.86700
H  5.14900 3.88000 42.93600
H  3.45400 3.80100 43.46400
H  5.82100 0.85600 40.44700
H  6.48400 -0.31200 41.62300
H  8.57200 0.60600 41.65600
H  8.01000 2.28600 41.71900
H  -2.17800 2.27600 42.28000
H  -1.10400 1.59300 41.00200
H  -0.50300 2.54800 42.31300
H  -4.68600 -0.97900 44.71200
H  -3.09800 -1.63200 45.32600
H  -3.87900 -2.32200 43.91700
H  -0.63000 -5.09000 45.62500
H  1.45400 -5.30400 47.76500
H  -1.87300 -3.91200 47.25000
H  -0.53100 -3.25700 48.11000
H  -0.92700 -5.07700 48.27200
H  2.62100 -6.42200 45.40700
H  0.90800 -6.90800 45.45300
H  3.17300 -7.87100 47.08600
H  1.62900 -8.60700 46.87300
H  1.81600 -7.41100 48.10700
H  6.64900 -5.39400 46.73800
H  6.26800 -4.54400 48.33900
H  7.83100 -4.42000 47.45700
H  7.99400 -0.30000 43.72900
H  7.44800 3.71800 45.06700
H  8.87200 3.85000 44.16600
H  9.15400 3.27900 45.75100
Mg 54.84000 23.36900 44.65700
C  52.42400 25.62400 43.43900
C  52.79900 20.77500 43.68300
C  57.51100 21.31300 44.83500
C  56.72800 26.12800 45.56400
N  52.90600 23.28100 43.59100
C  52.07800 24.29400 43.32600
C  50.77700 23.75700 42.84000
C  50.75800 22.30400 43.30100
C  52.24000 22.07000 43.55600
C  50.02000 21.82800 44.57000
C  50.45800 23.94300 41.32400
C  49.01700 24.32600 41.01200
H  48.55900 23.93600 39.63500
N  55.14600 21.36100 44.28500
C  54.14400 20.42100 43.92000
C  54.65400 19.12100 43.77600
C  56.02000 19.24700 44.14800
C  56.35200 20.64700 44.43000
C  53.90600 17.98900 43.24000
C  56.98200 18.15700 44.00900
O  56.66100 17.05100 43.61200
C  58.44900 18.27700 44.28200
N  56.89600 23.69900 44.94400
C  57.69500 22.66300 45.16500
C  59.01200 23.17100 45.76800
C  58.85400 24.73700 45.92800
C  57.41400 24.90100 45.44800
C  59.30800 22.40700 47.10100
C  59.70600 25.60900 44.87000
C  60.11500 27.03500 45.31400
N  54.68600 25.45200 44.63700
C  55.46600 26.40900 45.02900
C  54.86200 27.75400 44.94000
C  53.62800 27.46400 44.29500
C  53.63000 26.07700 44.03500
C  55.38100 29.06500 45.51900
C  52.39400 28.02100 43.78600
O  52.02300 29.17900 43.89000
C  51.60600 26.83500 43.06400
C  51.62900 27.12600 41.56900
O  52.64000 27.09500 40.86400
O  50.43700 27.56000 41.03800
C  50.42200 28.05400 39.60400
H  52.06500 19.97500 43.80200
H  58.42000 20.72700 44.99100
H  57.22100 27.01800 45.96100
H  50.07500 24.41400 43.35200
H  50.59000 21.58500 42.49900
H  49.37800 22.61500 44.96600
H  50.67700 21.53000 45.38700
H  49.33600 21.00700 44.35400
H  50.58900 23.00300 40.78700
H  51.14600 24.70800 40.96200
H  48.94700 25.40600 41.13400
H  48.29600 23.82100 41.65500
H  52.89300 18.23000 42.91900
H  53.90900 17.28900 44.07600
H  54.54600 17.43400 42.55400
H  58.80600 19.14400 43.72700
H  58.95900 17.43100 43.82200
H  58.58900 18.33500 45.36100
H  59.91100 23.01400 45.17100
H  58.76300 25.05700 46.96600
H  59.69000 23.00600 47.92800
H  60.06000 21.62300 47.01000
H  58.41400 21.86200 47.40500
H  59.16300 25.78600 43.94200
H  60.61000 25.09500 44.54400
H  61.20100 27.11600 45.25100
H  59.89900 27.19300 46.37000
H  59.65800 27.81800 44.70800
H  55.45100 28.86800 46.58900
H  54.66400 29.87400 45.38400
H  56.39800 29.28400 45.19400
H  50.56900 26.77900 43.39400
H  50.97100 28.96900 39.38000
H  49.35200 28.24700 39.52900
H  50.66700 27.30600 38.85000

