158

Mg -2.16200 17.14500 26.18900
C  -2.50300 14.60700 28.72000
C  -3.19900 19.44300 28.60100
C  -1.88300 19.65700 24.02700
C  -1.87800 14.61200 23.86100
N  -2.62700 17.03600 28.30000
C  -2.55900 15.91000 29.18900
C  -2.80800 16.25300 30.64300
C  -3.46700 17.66900 30.44400
C  -3.15700 18.07600 28.96100
C  -4.94700 17.74200 30.73500
C  -1.41700 16.37500 31.43200
C  -1.47400 17.24100 32.75800
H  -1.01600 16.63200 34.03600
N  -2.52000 19.31000 26.25600
C  -2.97300 20.04600 27.37500
C  -3.13400 21.46600 26.96900
C  -2.79200 21.47200 25.59800
C  -2.32500 20.13100 25.25400
C  -3.44400 22.66700 27.95600
C  -2.79100 22.57900 24.55500
O  -2.57500 22.38400 23.39300
C  -3.12300 23.96400 25.05000
N  -2.00600 17.16600 24.23700
C  -1.86500 18.30200 23.47400
C  -1.57400 17.93400 22.06100
C  -1.39300 16.35400 22.12700
C  -1.73100 16.00200 23.52300
C  -2.70600 18.45900 21.10900
C  0.12300 15.97400 21.83700
C  0.27600 15.00500 20.62800
N  -2.06100 15.01500 26.21900
C  -1.99400 14.12100 25.15000
C  -2.00700 12.77000 25.62000
C  -2.23200 12.91300 27.01100
C  -2.28200 14.32100 27.32500
C  -1.80800 11.54600 24.78800
C  -2.31400 12.18700 28.24700
O  -2.07000 10.99000 28.39400
C  -2.76300 13.25900 29.38600
C  -1.82500 12.99500 30.56200
O  -0.66500 12.85800 30.49600
O  -2.57700 12.96800 31.72500
C  -1.96100 12.44800 32.89200
H  -3.59700 19.95100 29.48200
H  -1.56000 20.39000 23.28500
H  -1.74700 13.90100 23.04300
H  -3.54200 15.64500 31.17200
H  -3.16200 18.46800 31.12000
H  -5.28900 18.73100 30.43100
H  -4.93800 17.71900 31.82500
H  -5.52700 16.94200 30.27600
H  -0.56200 16.67600 30.82500
H  -1.22000 15.33700 31.69700
H  -2.51400 17.53500 32.90500
H  -0.98700 18.21600 32.78400
H  -3.20900 22.42600 28.99300
H  -4.48900 22.97600 27.94400
H  -2.90900 23.57400 27.67400
H  -4.06600 23.81300 25.57700
H  -3.20700 24.59200 24.16300
H  -2.31600 24.24100 25.72800
H  -0.63800 18.37700 21.72100
H  -2.06300 15.85000 21.43200
H  -3.55700 18.51600 21.78700
H  -3.00800 17.74800 20.34000
H  -2.37600 19.43700 20.75700
H  0.62500 15.56000 22.71200
H  0.73800 16.85200 21.63700
H  -0.68500 14.55200 20.38600
H  1.08400 14.27500 20.68100
H  0.43300 15.74800 19.84600
H  -1.10800 11.74000 23.97600
H  -2.76400 11.25000 24.35500
H  -1.35700 10.87400 25.51900
H  -3.80700 13.10400 29.66000
H  -0.87400 12.48500 32.82400
H  -2.28600 11.42500 33.08100
H  -2.45600 12.97000 33.71100
Mg 8.97100 48.19900 26.45400
C  6.46600 48.88400 28.85200
C  11.34500 49.10100 28.72100
C  11.29700 47.58100 24.11700
C  6.47600 47.56000 24.09600
N  8.86500 49.03600 28.51800
C  7.71600 49.13000 29.29200
C  8.12600 49.34300 30.77500
C  9.64900 49.60900 30.64600
C  9.96800 49.20000 29.21100
C  9.97100 51.07300 30.97600
C  7.84700 48.15600 31.71500
C  8.67900 47.99600 32.98700
H  8.13800 47.10900 34.18800
N  11.04800 48.23600 26.41900
C  11.79600 48.72400 27.43600
C  13.19800 48.70700 26.98900
C  13.24100 48.21100 25.69100
C  11.83100 48.00400 25.33900
C  14.36500 49.08500 27.94800
C  14.40200 47.92000 24.69900
O  14.24700 47.51000 23.54800
C  15.79300 48.10500 25.16500
N  8.89500 47.73900 24.39300
C  10.01200 47.40000 23.69700
C  9.66600 46.93400 22.28400
C  8.17200 46.97200 22.23100
C  7.76600 47.39300 23.68500
C  10.31800 47.63300 21.09600
C  7.56200 45.54800 21.79800
C  7.27500 45.56000 20.22500
N  6.82100 48.39500 26.37200
C  5.92300 48.02100 25.34800
C  4.56200 48.26300 25.89500
C  4.74900 48.48200 27.23700
C  6.09700 48.62900 27.44100
C  3.30400 47.97500 25.26800
C  4.10200 48.71500 28.45100
O  2.89900 48.74400 28.69500
C  5.12800 48.89300 29.63600
C  5.09200 47.74400 30.50000
O  5.50100 46.60600 30.21900
O  4.62800 48.13900 31.68300
C  4.10400 47.16800 32.57900
H  12.10700 49.30300 29.47600
H  12.01800 47.19300 23.39500
H  5.79100 47.34500 23.27400
H  7.55400 50.21900 31.08000
H  10.32700 49.03600 31.27700
H  9.12300 51.70300 31.24300
H  10.22700 51.47500 29.99600
H  10.79900 51.12900 31.68300
H  7.65900 47.22800 31.17500
H  6.89800 48.45100 32.16300
H  9.03700 48.93900 33.40000
H  9.63200 47.54400 32.71200
H  15.05500 49.73100 27.40500
H  15.03600 48.26600 28.20800
H  13.96700 49.62100 28.81000
H  16.52300 47.75800 24.43400
H  15.97900 47.58700 26.10600
H  15.90300 49.18900 25.19800
H  10.03500 45.91200 22.20000
H  7.65400 47.64200 21.54400
H  9.54000 48.01400 20.43400
H  10.96600 47.02500 20.46400
H  10.93300 48.48600 21.38300
H  6.69800 45.38800 22.44300
H  8.19400 44.66200 21.85300
H  7.76800 46.36200 19.67500
H  6.20600 45.73400 20.09600
H  7.49200 44.57700 19.80800
H  3.53400 47.40700 24.36700
H  2.71800 48.85700 25.01000
H  2.69000 47.33000 25.89700
H  5.05500 49.83700 30.17500
H  3.89400 47.61400 33.55100
H  4.79400 46.32700 32.52400
H  3.14000 46.98700 32.10200

