158

Mg 40.13700 8.82500 28.46500
C  42.02400 10.06300 31.03300
C  38.00900 7.44400 30.63200
C  38.21500 7.85800 25.79800
C  42.45900 9.97900 26.17800
N  40.10500 8.72600 30.57600
C  40.85400 9.44100 31.44700
C  40.29900 9.39300 32.86500
C  39.18400 8.31600 32.76600
C  39.10200 8.06300 31.19600
C  39.49600 7.03100 33.54300
C  39.75600 10.84000 33.33600
C  39.14500 11.04000 34.77600
H  39.39800 12.30600 35.49500
N  38.29200 7.79400 28.25500
C  37.59800 7.26100 29.30000
C  36.41000 6.68800 28.82300
C  36.36700 6.90000 27.43500
C  37.62600 7.57200 27.10700
C  35.29200 5.95400 29.70000
C  35.29900 6.55900 26.33700
O  35.42300 6.66100 25.13200
C  33.89900 6.16400 26.78400
N  40.33300 8.69800 26.29200
C  39.36800 8.45600 25.38800
C  39.82500 8.74000 24.00300
C  41.18200 9.41900 24.18900
C  41.35200 9.34200 25.70100
C  39.82500 7.47200 23.14700
C  41.14500 10.90600 23.60200
C  40.47900 12.03000 24.43500
N  41.90100 9.72700 28.61300
C  42.79100 10.15900 27.56100
C  43.95800 10.86200 28.18200
C  43.63300 10.84900 29.55700
C  42.47100 10.14700 29.64900
C  45.15700 11.39100 27.48100
C  44.05700 11.31000 30.88800
O  44.93900 12.07600 31.22900
C  43.00400 10.83300 31.88800
C  43.69400 9.99500 32.96700
O  44.28800 8.94600 32.76300
O  43.43500 10.53600 34.24200
C  43.70700 9.63100 35.30800
H  37.31200 7.24900 31.45000
H  37.66700 7.61600 24.88400
H  43.21200 10.33500 25.47200
H  41.18100 9.08300 33.42500
H  38.28000 8.76500 33.17600
H  40.50300 6.92100 33.94500
H  39.38500 6.14100 32.92300
H  38.80500 7.03800 34.38600
H  38.82800 11.03200 32.79800
H  40.52900 11.59400 33.18400
H  39.59900 10.21400 35.32300
H  38.07300 10.86000 34.68900
H  35.41900 6.04500 30.77800
H  35.42200 4.91100 29.41200
H  34.32400 6.42200 29.52200
H  33.49600 7.09100 27.19300
H  33.85600 5.42000 27.58000
H  33.40500 5.87200 25.85700
H  39.10800 9.46400 23.61700
H  41.94100 8.85200 23.65000
H  39.83500 6.58300 23.77900
H  40.71400 7.43600 22.51700
H  38.97100 7.44700 22.47000
H  40.73200 10.82500 22.59700
H  42.16500 11.25800 23.45000
H  40.24000 11.62200 25.41700
H  39.55600 12.36800 23.96600
H  41.19000 12.84500 24.56800
H  45.91200 11.30700 28.26300
H  44.91100 12.42900 27.25900
H  45.30100 10.69900 26.65100
H  42.56500 11.68300 32.41200
H  42.78500 9.59000 35.88800
H  44.59600 9.81400 35.91100
H  43.83100 8.62400 34.91000
Mg 47.22100 34.08000 26.61500
C  45.06500 33.08200 29.13100
C  48.24600 36.70500 28.60000
C  48.72800 35.20200 23.86500
C  46.21100 31.23600 24.57500
N  46.66300 34.80000 28.61300
C  45.81800 34.26500 29.50700
C  45.99100 34.81900 30.86800
C  46.65400 36.14000 30.51100
C  47.26500 35.93000 29.17100
C  45.74700 37.41500 30.57800
C  46.89300 33.85300 31.80600
C  46.84300 33.93900 33.32300
H  46.12300 35.09600 33.95500
N  48.21400 35.79200 26.20300
C  48.59800 36.75000 27.17500
C  49.42700 37.69000 26.57000
C  49.55700 37.34800 25.16900
C  48.79700 36.03400 24.98800
C  50.16200 38.80000 27.36200
C  50.07600 38.13500 23.94800
O  50.19400 37.61900 22.76500
C  50.51400 39.53900 24.21200
N  47.56800 33.22300 24.66200
C  48.14100 33.94800 23.72800
C  48.18900 33.23900 22.28200
C  47.72500 31.80800 22.63500
C  47.18000 32.03000 24.05600
C  47.30400 33.92300 21.22000
C  48.82100 30.67300 22.58700
C  49.70500 30.40800 23.79900
N  45.89900 32.42300 26.77900
C  45.56800 31.40300 25.86900
C  44.69700 30.46800 26.59700
C  44.40900 31.16700 27.82700
C  45.11500 32.35800 27.85000
C  44.32700 29.01300 26.17300
C  43.74000 30.93800 29.10000
O  43.02500 30.07300 29.52900
C  44.00500 32.33300 29.87700
C  44.22600 31.87200 31.23300
O  45.11500 31.10000 31.59800
O  43.17900 32.27000 31.99000
C  43.38100 32.05500 33.41800
H  48.64300 37.48000 29.26000
H  49.11800 35.46200 22.87900
H  45.85800 30.36600 24.01700
H  44.99800 34.85900 31.31600
H  47.58400 36.38400 31.02500
H  45.92800 38.06900 31.43000
H  44.67500 37.22300 30.61700
H  45.92100 37.94700 29.64200
H  47.85400 34.27200 31.50600
H  46.87700 32.81000 31.49100
H  47.86000 33.94200 33.71500
H  46.36000 33.04900 33.72500
H  50.78300 38.39100 28.15900
H  49.40400 39.39900 27.86600
H  50.88200 39.34800 26.75400
H  50.53500 39.99900 23.22400
H  51.51500 39.63800 24.63300
H  49.84100 40.04600 24.90400
H  49.15500 33.06900 21.80800
H  46.91500 31.52500 21.96200
H  46.91900 34.91700 21.44500
H  46.45100 33.25300 21.11900
H  47.83800 33.94400 20.27000
H  49.51900 30.97500 21.80600
H  48.34200 29.73500 22.30600
H  49.30200 30.96300 24.64600
H  50.68300 30.77800 23.49000
H  49.67300 29.37200 24.13600
H  44.50300 28.27300 26.95400
H  44.95200 28.75400 25.31900
H  43.27000 29.09400 25.92000
H  43.12000 32.96700 29.93400
H  44.09900 32.74800 33.85700
H  43.52300 30.99600 33.63200
H  42.48800 32.33500 33.97700

