158

Mg 42.87000 41.93800 26.36800
C  42.04800 44.28500 28.82100
C  44.15500 39.93900 28.75400
C  44.09700 39.84400 23.98600
C  42.47900 44.39800 23.96600
N  43.13300 42.21900 28.61900
C  42.60600 43.15000 29.43400
C  42.61500 42.68600 30.87900
C  43.45200 41.35600 30.81200
C  43.64100 41.20900 29.28900
C  44.84000 41.42400 31.49600
C  41.24200 42.61700 31.65200
C  41.42900 41.81000 32.97200
H  40.59700 42.12800 34.15100
N  43.92500 40.16500 26.41400
C  44.36000 39.53500 27.47800
C  44.99600 38.31000 27.07900
C  44.80500 38.14200 25.67600
C  44.23100 39.41400 25.26800
C  45.58700 37.32200 28.09100
C  45.11200 36.97300 24.77400
O  45.01400 37.07900 23.54600
C  45.62500 35.68100 25.30800
N  43.12900 42.05700 24.31400
C  43.62900 41.07600 23.52400
C  43.62700 41.48900 22.05400
C  42.96700 42.82600 22.11100
C  42.79800 43.11300 23.52000
C  45.00400 41.35700 21.34300
C  41.66200 42.89300 21.31800
C  40.37600 42.32700 22.04100
N  42.21200 43.85500 26.32200
C  42.11700 44.73500 25.24900
C  41.55000 45.98200 25.75900
C  41.45500 45.78700 27.16200
C  41.93600 44.55800 27.43800
C  41.28500 47.20400 24.84600
C  41.02000 46.35200 28.44800
O  40.51100 47.41700 28.67300
C  41.40600 45.47400 29.55700
C  42.32400 46.21900 30.34800
O  43.50000 46.54600 30.05400
O  41.82400 46.18700 31.63800
C  42.77800 46.16900 32.77600
H  44.36300 39.14500 29.47300
H  44.39100 39.20900 23.14800
H  42.13800 45.09400 23.19600
H  43.12600 43.49800 31.39500
H  43.02600 40.41900 31.17000
H  45.58800 41.10800 30.76900
H  44.85100 40.79800 32.38900
H  45.05200 42.38600 31.96200
H  40.52600 42.11000 31.00400
H  40.96600 43.62400 31.96200
H  42.40800 41.90900 33.44200
H  41.27200 40.74700 32.79000
H  45.02900 36.39300 28.21100
H  45.79700 37.73600 29.07800
H  46.50900 36.95300 27.64300
H  45.77700 35.02400 24.45100
H  44.95700 35.41900 26.12800
H  46.62900 35.97700 25.61200
H  42.96700 40.79400 21.53500
H  43.60500 43.57100 21.63600
H  45.08900 40.60000 20.56300
H  45.80900 41.26400 22.07200
H  45.21500 42.27900 20.80100
H  41.79600 42.37800 20.36700
H  41.50300 43.93600 21.04500
H  40.49700 41.70100 22.92500
H  39.88600 41.56100 21.43900
H  39.67000 43.11500 22.30500
H  41.32200 48.10500 25.45900
H  40.37100 47.02100 24.28100
H  42.08300 47.08100 24.11400
H  40.50500 45.24000 30.12600
H  43.75000 45.79300 32.45800
H  42.51600 45.45000 33.55200
H  42.80600 47.11500 33.31800
Mg 6.21600 54.11800 40.93300
C  3.93500 51.38700 40.97600
C  8.61400 51.84900 40.03500
C  8.22600 56.67700 40.57700
C  3.37500 56.38900 41.32700
N  6.17700 51.96600 40.42300
C  5.13300 51.11100 40.36200
C  5.57000 49.75500 39.71800
C  7.14700 49.84400 39.69700
C  7.32400 51.31100 40.19900
C  7.84400 48.81000 40.51700
C  4.86300 49.52400 38.29500
C  4.30400 48.10600 38.03500
H  4.97500 47.37000 36.87200
N  8.17800 54.22700 40.31100
C  8.96700 53.19900 39.96100
C  10.29600 53.79600 39.70000
C  10.16300 55.21100 39.85600
C  8.77400 55.44100 40.20100
C  11.49300 52.95900 39.36500
C  11.40400 56.19700 39.60600
O  12.49800 55.72200 39.37400
C  11.20400 57.61400 39.66500
N  5.73900 56.28800 40.73500
C  6.83600 57.11000 40.75000
C  6.41000 58.54800 40.96700
C  4.87000 58.40300 41.26700
C  4.63000 56.93000 41.05300
C  7.15800 59.25500 42.07900
C  3.95900 59.35200 40.47100
C  2.99900 60.16100 41.25200
N  4.06500 54.03100 41.19000
C  3.13400 54.98500 41.42300
C  1.88500 54.36400 41.66700
C  2.07500 52.89100 41.57200
C  3.47900 52.75400 41.18100
C  0.53600 55.10800 41.91800
C  1.49100 51.60100 41.70000
O  0.39100 51.27300 42.13300
C  2.65300 50.55100 41.35300
C  2.25900 49.43800 40.35600
O  1.67900 49.66900 39.29400
O  2.57800 48.18800 40.78200
C  1.87600 46.98000 40.17400
H  9.34000 51.05300 39.85900
H  8.98300 57.46300 40.52700
H  2.53700 57.08900 41.36600
H  5.36300 48.92300 40.39100
H  7.58600 49.73100 38.70700
H  8.15900 49.07400 41.52600
H  8.69700 48.37400 39.99800
H  7.26200 47.90100 40.66500
H  5.63800 49.68200 37.54500
H  4.07000 50.25600 38.14200
H  3.22100 48.22500 37.98100
H  4.58200 47.55500 38.93400
H  12.06100 53.46500 38.58500
H  11.28800 51.95200 39.00000
H  12.14300 52.71500 40.20500
H  10.35800 57.87700 39.02900
H  12.12800 58.02500 39.26000
H  11.09200 57.91400 40.70700
H  6.67300 59.08300 40.05600
H  4.64100 58.55300 42.32200
H  7.86600 59.98700 41.69000
H  7.79900 58.54300 42.60000
H  6.57500 59.73400 42.86500
H  3.46900 58.78000 39.68300
H  4.59900 60.07900 39.97200
H  3.18700 61.20300 40.99200
H  3.06400 60.03500 42.33200
H  1.96900 60.02600 40.92200
H  -0.29200 54.55600 41.47400
H  0.49000 56.14700 41.59300
H  0.26500 55.09500 42.97400
H  2.87700 50.19500 42.35800
H  1.00300 47.15300 39.54500
H  1.45000 46.41100 41.00000
H  2.53300 46.33300 39.59300

