158

Mg 9.21000 48.08700 25.62800
C  6.91200 48.53700 28.32100
C  11.63800 49.13600 27.66800
C  11.22900 47.65400 23.02200
C  6.40500 47.56800 23.50200
N  9.20300 49.01100 27.78200
C  8.21700 48.85500 28.72900
C  8.78500 49.08400 30.12900
C  10.27200 49.34800 29.83600
C  10.40600 49.17600 28.32800
C  10.74900 50.81500 30.25200
C  8.41000 47.95700 31.11200
C  9.40000 47.46900 32.26400
H  8.72500 47.02800 33.63200
N  11.13500 48.48900 25.34600
C  12.01800 48.84100 26.31100
C  13.39400 48.91100 25.78200
C  13.29300 48.32700 24.49700
C  11.84200 48.18500 24.19300
C  14.51700 49.30700 26.71000
C  14.37700 48.07500 23.51500
O  14.17600 47.80700 22.36400
C  15.76100 48.29300 24.03300
N  8.87000 47.45100 23.49600
C  9.92200 47.34400 22.64400
C  9.44000 47.28200 21.23700
C  7.92000 47.54300 21.33900
C  7.68900 47.54000 22.87500
C  10.12300 48.20300 20.10800
C  6.99500 46.47900 20.54600
C  7.48000 45.94000 19.19100
N  7.08100 47.92800 25.80200
C  6.08900 47.80400 24.82600
C  4.77400 47.79200 25.46200
C  5.04500 47.95000 26.81300
C  6.47600 48.16300 26.94600
C  3.53800 47.51700 24.68500
C  4.43600 48.10200 28.17600
O  3.29800 48.08600 28.49100
C  5.64400 48.42200 29.20800
C  5.63900 47.27700 30.09500
O  6.07500 46.16300 29.90300
O  5.13500 47.65200 31.23900
C  4.73600 46.59300 32.21400
H  12.46500 49.35500 28.34600
H  11.93000 47.47500 22.20400
H  5.60200 47.41100 22.77900
H  8.21400 49.97100 30.40400
H  10.89200 48.63500 30.37900
H  9.89000 51.44200 30.48900
H  11.25700 51.33400 29.43900
H  11.43300 50.80900 31.10100
H  8.33400 47.08400 30.46300
H  7.48800 48.19100 31.64400
H  10.06200 48.27800 32.57100
H  9.90300 46.58700 31.86700
H  15.33700 49.83500 26.22100
H  14.82500 48.56300 27.44400
H  13.98000 50.07300 27.27000
H  16.01800 49.31200 24.32500
H  16.45200 47.86000 23.31100
H  15.85800 47.73900 24.96600
H  9.59100 46.26000 20.88900
H  7.62400 48.49000 20.88900
H  10.99900 48.74300 20.46700
H  9.43000 49.01300 19.88200
H  10.57800 47.65200 19.28500
H  6.07100 47.04100 20.40900
H  6.91400 45.54100 21.09400
H  8.36200 46.53900 18.96700
H  6.68400 45.90500 18.44700
H  7.73600 44.90100 19.40100
H  3.42900 46.49900 24.31100
H  3.49500 48.27300 23.90100
H  2.79300 47.78000 25.43700
H  5.38200 49.31400 29.77600
H  4.12600 47.10900 32.95500
H  5.59900 46.19900 32.75100
H  4.10700 45.82000 31.77100
Mg -1.29100 34.40900 26.62300
C  -3.54100 32.78500 28.96600
C  -0.32000 36.53800 29.19400
C  0.61300 36.01200 24.46700
C  -2.61700 32.34900 24.06700
N  -1.89700 34.65200 28.81500
C  -2.69700 33.77700 29.51800
C  -2.72400 34.14400 31.01400
C  -1.76900 35.44800 31.08400
C  -1.33900 35.61100 29.61300
C  -2.46700 36.69000 31.68500
C  -2.36800 32.96200 31.95200
C  -1.62500 33.25300 33.26500
H  -2.20500 32.80700 34.62500
N  0.12900 36.00300 26.80400
C  0.39700 36.71300 27.93500
C  1.25900 37.85000 27.58200
C  1.40300 37.80000 26.19800
C  0.76500 36.54300 25.75500
C  1.58300 38.91500 28.60400
C  2.04200 38.79000 25.34100
O  2.14500 38.60400 24.11200
C  2.64200 40.02700 25.89000
N  -1.01600 34.20000 24.61300
C  -0.12200 34.96000 23.95000
C  -0.13400 34.49600 22.44200
C  -0.96000 33.12900 22.47900
C  -1.58100 33.23800 23.80600
C  -0.77800 35.61400 21.45100
C  -0.14600 31.84900 22.30100
C  -0.85800 30.63300 21.80900
N  -2.82100 32.90100 26.46300
C  -3.28800 32.22500 25.35000
C  -4.29700 31.27500 25.73200
C  -4.45700 31.51600 27.09700
C  -3.54000 32.49200 27.50400
C  -5.10900 30.27800 24.80500
C  -5.23100 31.15300 28.21000
O  -6.22400 30.46900 28.33100
C  -4.65600 31.89200 29.48400
C  -5.67800 32.75600 30.19400
O  -6.32000 33.74700 29.76200
O  -6.00100 32.27000 31.42300
C  -7.21100 32.65300 32.17200
H  -0.08200 37.32200 29.91600
H  1.09100 36.42100 23.57400
H  -2.91400 31.61900 23.31100
H  -3.77000 34.38600 31.20400
H  -0.80900 35.23300 31.55400
H  -3.55000 36.58200 31.75000
H  -2.38500 37.47000 30.92800
H  -2.15900 37.01700 32.67800
H  -1.91700 32.12500 31.41900
H  -3.35100 32.64200 32.29800
H  -1.60300 34.33900 33.35600
H  -0.62400 32.82900 33.19600
H  1.53600 38.55900 29.63300
H  0.92400 39.76900 28.45100
H  2.65600 39.09400 28.52700
H  1.96300 40.58500 26.53500
H  2.90500 40.68200 25.05900
H  3.57200 39.80800 26.41400
H  0.86500 34.33200 22.03800
H  -1.69100 33.11600 21.67000
H  -1.33100 36.46200 21.85500
H  -1.37800 35.20700 20.63700
H  0.11500 36.09400 21.05200
H  0.44500 31.69700 23.20400
H  0.66200 32.07100 21.60400
H  -0.20300 30.36900 20.97800
H  -1.78300 30.87800 21.28800
H  -0.98400 29.88500 22.59100
H  -4.57400 30.09100 23.87400
H  -6.14200 30.58800 24.64600
H  -5.16800 29.36200 25.39200
H  -4.26700 31.15400 30.18500
H  -7.98900 33.05700 31.52400
H  -6.89400 33.33000 32.96600
H  -7.55800 31.72600 32.62800

