158

Mg 23.22600 -6.35200 45.84600
C  25.43300 -3.92600 44.85200
C  20.88800 -5.06700 43.66700
C  21.21700 -9.10800 46.34800
C  25.89400 -8.09500 47.29800
N  23.12800 -4.66600 44.54000
C  24.16300 -3.78600 44.33000
C  23.73700 -2.71100 43.33400
C  22.17600 -2.89700 43.24800
C  22.08000 -4.26800 43.81800
C  21.36600 -1.83800 44.02400
C  24.51800 -2.62400 41.97500
C  25.11700 -1.13400 41.59600
H  24.59200 -0.41000 40.40600
N  21.18800 -6.96600 45.21600
C  20.43800 -6.34900 44.23200
C  19.17400 -7.09900 44.03800
C  19.24600 -8.32100 44.78100
C  20.57900 -8.19400 45.49900
C  18.18100 -6.51400 43.07300
C  18.15200 -9.33200 44.86400
O  17.19700 -9.26400 44.07200
C  18.19800 -10.49600 45.83400
N  23.52700 -8.33500 46.75700
C  22.49300 -9.19800 46.92900
C  22.91700 -10.43300 47.64300
C  24.43600 -10.05600 47.95900
C  24.64700 -8.73800 47.35900
C  22.00600 -10.74800 48.85400
C  25.50400 -11.06700 47.60400
C  26.55300 -11.27800 48.63200
N  25.25500 -6.11300 46.15300
C  26.23800 -6.90900 46.69000
C  27.49200 -6.14300 46.74100
C  27.22700 -4.98000 46.03100
C  25.86300 -4.96800 45.70100
C  28.80600 -6.64900 47.42700
C  27.78000 -3.78600 45.48600
O  28.91100 -3.28200 45.59200
C  26.65700 -3.05200 44.75100
C  26.51000 -1.76200 45.46800
O  25.88400 -1.64800 46.52400
O  27.16900 -0.67200 44.88700
C  26.97700 0.53000 45.62500
H  20.11300 -4.55500 43.09100
H  20.64100 -9.95000 46.73800
H  26.72500 -8.61800 47.77700
H  23.92800 -1.82500 43.93900
H  21.72600 -3.00300 42.26100
H  20.38400 -2.22700 44.29200
H  21.24600 -1.07600 43.25300
H  21.92200 -1.42900 44.86800
H  23.81500 -2.79200 41.16000
H  25.24000 -3.42600 41.81700
H  26.18800 -1.29500 41.46900
H  24.99900 -0.44000 42.42800
H  18.24300 -7.07000 42.13700
H  18.38200 -5.50300 42.71700
H  17.16800 -6.66500 43.44400
H  17.28200 -11.07000 45.97200
H  18.50200 -10.21900 46.84400
H  19.02700 -11.14000 45.54300
H  22.87600 -11.20700 46.87700
H  24.44900 -9.82300 49.02300
H  21.14200 -10.08700 48.92700
H  22.60100 -10.85800 49.76100
H  21.60800 -11.75100 48.69900
H  26.02900 -10.72200 46.71300
H  25.16200 -12.05600 47.29700
H  27.53100 -10.87000 48.37800
H  26.66400 -12.34800 48.81100
H  26.21200 -10.80800 49.55400
H  28.98700 -7.70300 47.21300
H  28.67200 -6.55200 48.50500
H  29.55600 -6.00300 46.97000
H  27.00900 -2.81000 43.74800
H  27.59600 1.27300 45.12200
H  27.41500 0.50200 46.62200
H  25.92600 0.78500 45.48400
Mg 7.49300 52.95800 40.90700
C  6.95300 49.43500 40.87200
C  10.67100 52.22400 39.66500
C  7.98400 56.21300 40.51300
C  4.14900 53.48800 41.49700
N  8.63000 51.05800 40.32800
C  8.20700 49.74800 40.41200
C  9.29000 48.79400 39.88500
C  10.54500 49.68800 39.92600
C  9.88000 51.11600 39.85800
C  11.38400 49.44100 41.17700
C  9.05400 48.24500 38.48600
C  8.54200 49.20900 37.41800
H  8.03200 48.53200 36.14900
N  9.10700 54.10000 40.15000
C  10.32100 53.53200 39.84100
C  11.19600 54.68700 39.50700
C  10.47200 55.91300 39.82100
C  9.11800 55.41200 40.11700
C  12.60800 54.54100 38.90400
C  11.04800 57.29000 39.72000
O  12.06400 57.53200 39.04400
C  10.42600 58.43400 40.38700
N  6.17600 54.71000 40.76100
C  6.66100 55.93400 40.86700
C  5.65800 56.91400 41.47500
C  4.41800 56.00300 41.47400
C  4.89400 54.65400 41.28600
C  6.07500 57.48700 42.80400
C  3.32800 56.34000 40.34700
C  2.33900 57.38700 40.71100
N  5.86200 51.79300 41.15900
C  4.57800 52.12900 41.53500
C  3.82100 50.93000 41.82800
C  4.71800 49.83600 41.54900
C  5.95200 50.40800 41.17100
C  2.31300 50.84400 42.14300
C  4.82900 48.40600 41.54600
O  3.91400 47.66600 41.85600
C  6.35500 48.06000 41.12800
C  6.16400 47.19200 39.92800
O  5.83600 47.55400 38.86800
O  6.67400 45.88900 40.15400
C  6.56500 44.89600 39.08100
H  11.69500 52.02400 39.34400
H  8.06700 57.29400 40.64100
H  3.12300 53.60700 41.85300
H  9.32300 47.96600 40.59300
H  11.23900 49.64000 39.08700
H  12.39500 49.26200 40.81200
H  11.26200 48.45600 41.62600
H  11.35000 50.27300 41.88000
H  8.56400 47.27600 38.39300
H  10.08900 48.05300 38.20100
H  9.30400 49.94200 37.15100
H  7.75200 49.84300 37.82200
H  12.82400 55.02700 37.95300
H  12.93600 53.50200 38.88500
H  13.32300 55.02900 39.56600
H  9.68500 58.97500 39.79800
H  11.23800 59.12300 40.61800
H  9.94900 58.11700 41.31500
H  5.61400 57.74700 40.77400
H  3.97500 56.03300 42.47000
H  6.95800 56.94700 43.14800
H  5.30800 57.46900 43.57700
H  6.29000 58.55100 42.70600
H  2.82700 55.48800 39.88700
H  3.96300 56.84800 39.62100
H  2.20400 57.38100 41.79300
H  1.41200 57.33200 40.14000
H  2.64900 58.37300 40.36500
H  2.32700 50.57700 43.20000
H  1.84600 50.07000 41.53400
H  1.93400 51.86400 42.08700
H  6.85000 47.48900 41.91300
H  7.23000 45.08700 38.23800
H  5.52400 44.74900 38.79200
H  6.89400 43.95300 39.51800

