158

Mg 1.16600 7.51200 26.29000
C  1.46400 9.73300 29.05700
C  1.80400 5.01100 28.42300
C  1.17100 5.64300 23.68400
C  1.19600 10.44600 24.21800
N  1.64200 7.43700 28.54500
C  1.55300 8.36400 29.48400
C  1.63400 7.80400 30.91800
C  2.09200 6.28900 30.60000
C  1.89200 6.23700 29.11300
C  3.53200 5.85800 31.13000
C  0.25400 7.91000 31.67900
C  0.27500 8.05200 33.19900
H  1.40300 7.39600 33.98000
N  1.27800 5.55400 26.08000
C  1.61400 4.67900 27.09300
C  1.58700 3.33000 26.53600
C  1.38900 3.50300 25.09800
C  1.29400 4.95300 24.88700
C  1.71800 2.05500 27.30900
C  1.34300 2.46100 23.92000
O  1.23500 2.70100 22.67900
C  1.48800 0.95300 24.18600
N  1.29300 7.99400 24.19700
C  1.14600 6.98000 23.33500
C  0.99100 7.55900 21.92200
C  0.64200 9.05300 22.16300
C  0.96000 9.19200 23.63900
C  2.35700 7.40800 21.08000
C  -0.87400 9.42200 21.87000
C  -1.13700 10.33300 20.63100
N  1.37900 9.57300 26.50800
C  1.41100 10.64400 25.59000
C  1.49100 11.91300 26.23500
C  1.47600 11.61600 27.56600
C  1.46300 10.21100 27.68300
C  1.34600 13.25800 25.74500
C  1.55800 12.25500 28.87500
O  1.70000 13.39900 29.18300
C  1.56900 10.99700 29.92700
C  2.63800 11.05700 30.91900
O  3.83000 11.25000 30.59300
O  2.26100 10.78400 32.20400
C  3.27100 10.99600 33.20400
H  1.99200 4.16800 29.09200
H  1.16500 5.05500 22.76300
H  1.18200 11.26800 23.49900
H  2.46000 8.30800 31.42000
H  1.55000 5.46100 31.05700
H  4.13600 6.69300 31.48500
H  4.08100 5.35200 30.33600
H  3.52700 5.17600 31.98000
H  -0.34600 7.00900 31.55400
H  -0.30600 8.65800 31.11800
H  -0.63300 7.63300 33.63200
H  0.32500 9.10400 33.48100
H  0.74400 1.76200 27.70200
H  2.38700 2.25500 28.14600
H  2.26500 1.28900 26.75900
H  0.72000 0.68700 24.91200
H  2.37500 0.51500 24.64400
H  1.37900 0.23500 23.37200
H  0.19200 6.99200 21.44300
H  1.44900 9.52500 21.60200
H  2.14900 6.70300 20.27600
H  3.14100 6.92100 21.66100
H  2.70100 8.29600 20.55100
H  -1.21100 9.97800 22.74400
H  -1.44000 8.49300 21.79800
H  -1.92100 9.90300 20.00800
H  -0.20100 10.45800 20.08700
H  -1.45100 11.33700 20.91600
H  2.25200 13.86100 25.69200
H  0.67500 13.77900 26.42800
H  0.97800 13.28000 24.71900
H  0.65100 11.08000 30.50800
H  3.44900 12.06400 33.08400
H  4.16900 10.44500 32.92300
H  3.03400 10.80200 34.25000
Mg 17.21700 -2.86700 28.01600
C  16.58700 -0.73900 30.82200
C  18.69100 -4.99300 30.26900
C  18.21500 -4.65500 25.27600
C  16.21100 -0.30300 25.87700
N  17.47300 -2.81200 30.44300
C  17.27800 -1.82000 31.31600
C  17.83500 -2.11500 32.70100
C  18.70100 -3.34000 32.28600
C  18.27200 -3.80300 30.93100
C  20.28000 -3.21800 32.37100
C  16.67700 -2.34400 33.73000
C  16.76000 -1.51100 34.98400
H  18.16600 -1.19600 35.58900
N  18.24500 -4.63000 27.80200
C  18.75100 -5.35000 28.86900
C  19.34300 -6.52300 28.32200
C  19.21900 -6.44600 26.91400
C  18.50800 -5.16700 26.58400
C  19.71600 -7.67400 29.22800
C  19.57200 -7.46000 25.89400
O  19.39400 -7.23600 24.67300
C  20.18100 -8.80800 26.13900
N  16.90000 -2.60000 25.72000
C  17.60100 -3.40000 24.86400
C  17.68500 -2.69600 23.50400
C  16.87500 -1.36900 23.69800
C  16.67500 -1.39700 25.19200
C  19.15300 -2.33400 22.99700
C  15.54200 -1.35800 22.86300
C  14.14700 -1.52900 23.59300
N  16.47500 -0.94500 28.20400
C  15.95800 -0.13500 27.25600
C  15.22300 0.96200 27.95000
C  15.50300 0.74300 29.31000
C  16.27400 -0.38700 29.43200
C  14.36900 1.95800 27.29400
C  15.23900 1.25400 30.60100
O  14.72000 2.31600 30.97500
C  15.97900 0.38700 31.63000
C  16.99100 1.31100 32.24400
O  18.06500 1.57800 31.74200
O  16.46600 1.96100 33.27900
C  17.24200 3.09200 33.86400
H  19.15200 -5.69700 30.96500
H  18.63500 -5.15800 24.40300
H  15.96300 0.53800 25.22700
H  18.52000 -1.32400 33.00500
H  18.36100 -4.22900 32.81700
H  20.75600 -3.62300 31.47800
H  20.62100 -3.75700 33.25500
H  20.61100 -2.19500 32.55100
H  16.67200 -3.40600 33.97400
H  15.80600 -2.06800 33.13700
H  16.10700 -2.04700 35.67300
H  16.25200 -0.58100 34.72800
H  20.80200 -7.75800 29.18000
H  19.28400 -8.62200 28.90600
H  19.50400 -7.47600 30.27800
H  20.48300 -9.31500 25.22200
H  19.34400 -9.24600 26.68300
H  21.12200 -8.82600 26.68900
H  17.17400 -3.35000 22.79700
H  17.37800 -0.45400 23.38600
H  19.10700 -1.73500 22.08800
H  19.72200 -3.25200 22.85000
H  19.65000 -1.72600 23.75300
H  15.59100 -1.93000 21.93600
H  15.49100 -0.29600 22.62600
H  13.44000 -1.70800 22.78300
H  13.91900 -0.57400 24.06600
H  14.06600 -2.33500 24.32200
H  14.33400 1.64900 26.25000
H  14.69500 2.99700 27.35000
H  13.39600 1.84000 27.77100
H  15.31200 0.04400 32.42100
H  17.84800 2.67800 34.67000
H  16.52700 3.70300 34.41500
H  17.74400 3.62200 33.05400

