158

Mg 42.29700 41.70400 26.20300
C  41.83700 43.96000 28.75200
C  43.28300 39.41400 28.54900
C  43.19600 39.77200 23.68600
C  41.53100 44.22200 23.88700
N  42.49600 41.67500 28.46000
C  42.04300 42.70100 29.28200
C  41.97100 42.22900 30.72700
C  42.72800 40.86700 30.70100
C  42.80900 40.59200 29.16900
C  44.11000 40.85800 31.38600
C  40.46400 42.17100 31.24000
C  40.13600 43.19200 32.34200
H  39.71600 42.61400 33.72400
N  43.05600 39.81400 26.12700
C  43.38000 39.01300 27.16100
C  44.02500 37.75400 26.71700
C  44.01100 37.86500 25.25000
C  43.48900 39.18700 24.92700
C  44.57200 36.63500 27.61100
C  44.51100 36.78200 24.25600
O  44.73900 37.01200 23.07900
C  44.79600 35.46200 24.82500
N  42.17200 41.93800 24.08100
C  42.60100 40.95900 23.24900
C  42.29300 41.30300 21.75300
C  41.51100 42.60000 21.94400
C  41.80100 42.98900 23.38400
C  43.51400 41.50800 20.80800
C  39.96400 42.48100 21.71100
C  39.25400 41.34500 22.54600
N  41.80000 43.65100 26.25500
C  41.45300 44.53300 25.23800
C  41.02100 45.82200 25.78700
C  41.13500 45.57700 27.18700
C  41.62600 44.28100 27.42500
C  40.47300 47.01900 25.15500
C  40.92800 46.18000 28.44900
O  40.52600 47.31900 28.71300
C  41.28800 45.16200 29.50200
C  42.25500 45.67300 30.56500
O  43.48900 45.71700 30.45400
O  41.47800 46.22000 31.54700
C  42.09600 46.85300 32.73300
H  43.74400 38.68800 29.22100
H  43.46600 39.13200 22.84400
H  41.14300 44.94800 23.16900
H  42.51700 42.90800 31.38200
H  42.13500 40.03300 31.07600
H  44.87900 40.22300 30.94700
H  43.98200 40.65500 32.44900
H  44.44700 41.89300 31.32800
H  40.15200 41.20300 31.63100
H  39.83400 42.45600 30.39700
H  39.26900 43.77800 32.03900
H  41.01500 43.81100 32.52100
H  44.02000 35.70400 27.47900
H  44.56700 36.84800 28.68000
H  45.61000 36.42900 27.35200
H  43.94000 35.03600 25.34800
H  45.64800 35.48100 25.50400
H  45.17100 34.79100 24.05200
H  41.60200 40.58800 21.30600
H  41.76700 43.42000 21.27200
H  44.34200 41.10500 21.39100
H  43.75400 42.54800 20.58800
H  43.40800 40.91600 19.89900
H  39.87100 42.17000 20.67100
H  39.43600 43.43500 21.73500
H  39.93800 40.81300 23.20700
H  38.69100 40.66200 21.91000
H  38.53200 41.72200 23.27100
H  39.66000 47.44100 25.74600
H  40.33900 46.69900 24.12200
H  41.27400 47.75700 25.13600
H  40.38700 44.79800 29.99600
H  42.03300 46.00600 33.41600
H  41.55200 47.70900 33.13300
H  43.15100 47.10000 32.61600
Mg 30.75700 59.28800 38.83100
C  27.83200 57.37600 38.10700
C  32.59600 56.52000 38.17600
C  33.37700 61.18900 38.79700
C  28.62600 62.03200 39.26200
N  30.21800 57.26800 37.91700
C  28.94700 56.66700 37.92200
C  29.09500 55.21200 37.43400
C  30.55000 54.86800 37.99900
C  31.20900 56.31700 38.04800
C  30.54700 54.41400 39.48400
C  28.77300 55.14400 35.85600
C  27.55500 54.34100 35.46500
H  26.71100 55.03300 34.33600
N  32.65200 58.98300 38.28100
C  33.23500 57.71900 38.10500
C  34.64400 57.84200 37.82200
C  34.94800 59.26500 38.03000
C  33.62900 59.90500 38.40000
C  35.57900 56.71500 37.53200
C  36.34400 59.90800 37.93600
O  37.23200 59.11700 37.63500
C  36.69800 61.37000 38.26600
N  31.00300 61.32900 38.98300
C  32.19300 61.87000 39.11300
C  32.11000 63.35200 39.43500
C  30.58700 63.60100 39.67700
C  30.02300 62.23600 39.27400
C  33.06200 63.73600 40.64100
C  29.98000 64.73600 38.80900
C  28.87600 65.62400 39.43000
N  28.66200 59.66400 38.83500
C  27.97200 60.80900 39.06200
C  26.58300 60.56300 38.87200
C  26.40400 59.25600 38.51500
C  27.73300 58.72300 38.52300
C  25.43000 61.48900 39.06200
C  25.42800 58.26200 38.09700
O  24.17200 58.28000 38.12100
C  26.37600 56.97300 37.81100
C  26.02000 55.82900 38.67100
O  26.29000 55.71500 39.84800
O  25.23400 54.90400 38.02200
C  24.37200 54.13900 38.90400
H  33.16600 55.58900 38.19700
H  34.20400 61.90000 38.83900
H  27.99900 62.89300 39.50300
H  28.41100 54.60700 38.02900
H  31.11700 54.24200 37.31000
H  29.61900 53.91800 39.76700
H  30.64400 55.30500 40.10400
H  31.39800 53.73800 39.56900
H  29.73200 54.79700 35.47200
H  28.61200 56.11400 35.38600
H  27.00800 54.18900 36.39500
H  27.97500 53.43200 35.03500
H  35.13000 55.80300 37.14000
H  36.19900 56.39100 38.36800
H  36.24500 57.01300 36.72200
H  37.75000 61.47600 37.99900
H  36.51400 61.74600 39.27200
H  36.07800 61.92400 37.56100
H  32.44200 63.94600 38.58400
H  30.32000 63.75500 40.72300
H  34.02600 64.04300 40.23500
H  33.25800 62.89700 41.30900
H  32.59400 64.50200 41.25800
H  29.58700 64.30100 37.89000
H  30.74800 65.44700 38.50500
H  29.16900 66.59100 39.84000
H  28.34400 65.09800 40.22200
H  28.27700 65.83100 38.54300
H  24.87900 61.72700 38.15200
H  25.64700 62.24200 39.81900
H  24.72500 60.83600 39.57500
H  26.27500 56.68900 36.76300
H  23.99900 53.29600 38.32300
H  23.44800 54.70700 39.01400
H  24.72800 53.73100 39.84900

