158

Mg 46.78200 17.10400 29.05100
C  45.23500 16.40900 32.11500
C  49.07000 18.95900 30.61000
C  47.90600 17.87300 26.05500
C  43.82200 15.65600 27.49800
N  46.99700 17.73800 31.12000
C  46.33600 17.29900 32.24500
C  47.06700 17.66900 33.47100
C  48.32100 18.48500 32.98400
C  48.14000 18.37100 31.47400
C  48.35300 19.98700 33.33800
C  47.54400 16.49500 34.40200
C  46.85200 16.52500 35.83700
H  46.99800 17.73900 36.70500
N  48.35400 18.21400 28.36100
C  49.16500 18.89100 29.19700
C  50.14400 19.57900 28.37800
C  49.88800 19.27900 26.95300
C  48.69400 18.42900 27.04800
C  51.34100 20.46000 28.83700
C  50.73700 19.60200 25.69600
O  50.36900 19.07300 24.63800
C  51.88200 20.67000 25.71500
N  46.09700 16.52200 27.06400
C  46.76700 17.08800 26.02400
C  46.07100 16.80800 24.59100
C  44.74500 16.15700 25.08800
C  44.89500 16.17100 26.70900
C  45.94400 18.05800 23.60900
C  44.50800 14.71400 24.53400
C  45.32500 13.56400 25.32200
N  44.95700 16.14900 29.59900
C  43.88300 15.64100 28.84300
C  42.87900 15.23700 29.78900
C  43.42300 15.39200 31.04800
C  44.64200 15.99100 30.86400
C  41.51700 14.74900 29.50900
C  43.09000 15.21200 32.39800
O  42.02400 14.82400 32.91300
C  44.23100 15.94500 33.20600
C  43.62700 17.10300 33.93700
O  43.50300 18.20500 33.47700
O  43.23700 16.64200 35.15100
C  42.54300 17.51700 35.97500
H  49.83900 19.57400 31.08100
H  48.38300 18.02300 25.08400
H  42.86100 15.43200 27.03100
H  46.46900 18.38700 34.03200
H  49.26800 17.97800 33.16800
H  49.38300 20.28300 33.53400
H  47.66300 20.23500 34.14400
H  48.07900 20.58100 32.46600
H  48.62500 16.55300 34.53500
H  47.31000 15.60100 33.82300
H  47.44000 15.77300 36.36200
H  45.80500 16.22300 35.82700
H  52.26700 20.07600 28.41000
H  51.35800 20.21100 29.89800
H  51.10800 21.50600 28.63900
H  51.62900 21.52100 26.34700
H  51.74800 20.91400 24.66100
H  52.87600 20.33000 26.00500
H  46.71400 16.14200 24.01600
H  43.86500 16.74800 24.83700
H  46.14000 17.82200 22.56300
H  46.70700 18.79900 23.84300
H  44.93200 18.44900 23.71700
H  44.74100 14.72000 23.46900
H  43.44200 14.54000 24.67900
H  46.11900 13.16700 24.69000
H  44.65700 12.77800 25.67600
H  45.87300 13.89700 26.20300
H  40.99900 15.42800 28.83100
H  41.16200 14.56600 30.52300
H  41.52200 13.77100 29.02800
H  44.66900 15.14200 33.80000
H  41.53000 17.69000 35.61200
H  43.07600 18.46800 35.99300
H  42.62700 17.09900 36.97800
Mg 1.38900 42.17800 25.52700
C  2.78500 42.02500 28.59400
C  -1.67700 41.23300 26.80700
C  0.15900 42.00400 22.32900
C  4.56200 42.33400 24.13600
N  0.69400 41.62100 27.47100
C  1.39200 41.87700 28.58500
C  0.48600 41.95000 29.79800
C  -0.87100 41.46200 29.24300
C  -0.61700 41.28000 27.77000
C  -1.35000 40.04700 29.92900
C  0.44200 43.29800 30.65900
C  0.93700 42.91800 32.09300
H  0.03100 43.12100 33.36200
N  -0.47100 41.79100 24.71700
C  -1.60700 41.44700 25.37700
C  -2.69900 41.27100 24.53800
C  -2.26200 41.42600 23.21900
C  -0.79900 41.72900 23.39600
C  -4.05900 40.94100 25.00800
C  -3.03700 41.28100 21.91100
O  -2.52200 41.27600 20.81500
C  -4.59600 41.02800 21.90600
N  2.26800 42.17900 23.54500
C  1.51800 42.21900 22.40400
C  2.38800 42.36400 21.14400
C  3.77400 42.72800 21.77800
C  3.53600 42.45200 23.25000
C  2.48400 41.11500 20.22500
C  4.17100 44.16600 21.36600
C  5.04100 44.29600 20.15900
N  3.30500 42.09700 26.21200
C  4.49700 42.17200 25.54200
C  5.60500 42.06000 26.52800
C  4.98900 42.13400 27.79000
C  3.57800 42.06500 27.51800
C  7.10100 42.18500 26.14900
C  5.15600 42.10200 29.22100
O  6.17500 42.04600 29.90500
C  3.68100 42.08300 29.83200
C  3.53300 41.04300 30.82000
O  3.26000 39.86300 30.64100
O  3.98500 41.58400 32.05100
C  4.20200 40.62500 33.13800
H  -2.56100 40.98500 27.39700
H  -0.14500 42.00500 21.28100
H  5.53000 42.72500 23.81500
H  0.92300 41.05000 30.23100
H  -1.68500 42.17300 29.38500
H  -2.43000 40.12200 30.05900
H  -0.77000 39.75700 30.80600
H  -1.09500 39.35700 29.12500
H  -0.54000 43.76600 30.58700
H  1.02100 44.02200 30.08600
H  1.83000 43.53500 32.18700
H  1.27700 41.90100 32.29300
H  -4.28800 39.94000 24.64200
H  -4.84300 41.65500 24.75500
H  -4.04100 40.95300 26.09800
H  -4.95500 41.02500 20.87700
H  -5.07100 41.86000 22.42400
H  -4.90300 40.07200 22.33100
H  1.97600 43.16500 20.53000
H  4.46800 41.94800 21.46700
H  2.28300 40.18400 20.75600
H  3.46700 41.07100 19.75600
H  1.84900 41.15300 19.34100
H  4.55700 44.72000 22.22200
H  3.28700 44.70000 21.01700
H  4.52600 44.42800 19.20800
H  5.62600 43.37700 20.10900
H  5.76500 45.09800 20.30000
H  7.51200 43.18800 26.02800
H  7.31500 41.62500 25.23900
H  7.69600 41.65800 26.89500
H  3.53700 43.06000 30.29200
H  4.65900 41.24900 33.90700
H  4.90100 39.82500 32.89500
H  3.21300 40.29600 33.45800

