158

Mg 26.66000 50.17200 25.91400
C  24.72000 51.38400 28.63100
C  28.80600 48.62200 28.16500
C  28.15600 48.86400 23.34600
C  24.43500 51.92000 23.79800
N  26.72200 50.07900 28.08500
C  25.79800 50.56600 28.99200
C  26.24600 50.22700 30.41600
C  27.69600 49.59800 30.21700
C  27.80200 49.47300 28.72800
C  28.90000 50.38500 30.85100
C  25.22000 49.31500 31.20700
C  24.66100 49.74900 32.54600
H  24.33800 48.81400 33.74300
N  28.44600 49.06600 25.74200
C  29.11100 48.50200 26.80100
C  30.20800 47.78900 26.27200
C  29.94100 47.62500 24.83700
C  28.78200 48.48800 24.57200
C  31.35600 47.31700 27.08200
C  30.77000 46.98400 23.86500
O  30.55200 47.10500 22.66200
C  31.96600 46.24800 24.25800
N  26.45300 50.48600 23.89000
C  27.04300 49.67900 23.03100
C  26.61900 49.82600 21.55300
C  25.37400 50.76500 21.76100
C  25.44500 51.14500 23.25500
C  27.77300 50.32800 20.66300
C  23.90100 50.09500 21.60300
C  22.95800 50.87600 20.67800
N  25.08800 51.59600 26.09200
C  24.22200 52.09400 25.12600
C  23.11900 52.76700 25.82600
C  23.28200 52.51400 27.16100
C  24.45200 51.73200 27.28600
C  21.85700 53.31100 25.25800
C  22.59000 52.63200 28.44100
O  21.59900 53.24400 28.74300
C  23.58500 51.95600 29.43500
C  24.12300 52.86000 30.56400
O  25.24400 53.37500 30.57400
O  23.26000 52.95400 31.63100
C  23.54600 53.66100 32.87900
H  29.33600 47.95300 28.84700
H  28.57300 48.25700 22.54000
H  23.57100 52.24800 23.21500
H  26.34300 51.10200 31.05800
H  27.81000 48.63900 30.72200
H  29.50000 50.66000 29.98400
H  29.41800 49.79800 31.60900
H  28.53000 51.30400 31.30500
H  25.70000 48.33800 31.27300
H  24.34000 49.26800 30.56500
H  23.65700 50.14300 32.38800
H  25.27900 50.52500 32.99800
H  32.27000 47.68000 26.61200
H  31.30000 46.22900 27.10500
H  31.34200 47.75900 28.07900
H  32.13600 45.81900 25.24600
H  32.74900 46.92900 23.92600
H  32.06400 45.44200 23.53100
H  26.16100 48.94400 21.10700
H  25.59400 51.64000 21.14900
H  28.75400 50.07500 21.06500
H  27.85300 51.40600 20.52100
H  27.69500 50.04200 19.61400
H  23.37300 50.04800 22.55600
H  24.05800 49.07900 21.24200
H  22.81500 50.17700 19.85400
H  23.35900 51.82600 20.32700
H  21.96200 51.11800 21.04700
H  21.55400 52.83400 24.32600
H  21.95400 54.37800 25.05700
H  21.05200 53.05400 25.94600
H  23.03900 51.12600 29.88200
H  23.52200 52.95700 33.71100
H  22.83800 54.48500 32.96500
H  24.53400 54.12000 32.91900
Mg 6.04700 54.29000 41.40000
C  5.55000 50.73700 41.22700
C  9.25700 53.60300 40.30400
C  6.40900 57.40100 41.14300
C  2.61900 54.60100 42.06400
N  7.15100 52.35600 40.55500
C  6.74500 51.06900 40.64000
C  7.78100 50.12600 40.12800
C  9.06500 50.97700 40.27200
C  8.44800 52.40500 40.37000
C  10.01500 50.53600 41.45400
C  7.42600 49.65000 38.67100
C  6.82700 50.63300 37.63400
H  5.89600 50.00700 36.55500
N  7.67100 55.39900 40.85200
C  8.90000 54.95800 40.44400
C  9.70300 56.15800 40.28000
C  8.95000 57.27900 40.51900
C  7.58700 56.72100 40.79600
C  11.14800 56.09100 39.85900
C  9.45700 58.77200 40.60200
O  10.65500 59.00000 40.39200
C  8.51100 59.91200 40.95100
N  4.65500 55.73500 41.37500
C  5.10400 57.00400 41.44000
C  4.03200 58.01200 41.89200
C  2.80700 57.12900 41.79700
C  3.36800 55.66500 41.76600
C  4.33900 58.60800 43.37400
C  1.82100 57.41200 40.68900
C  1.93600 56.77100 39.30500
N  4.41300 52.94900 41.63500
C  3.12700 53.26000 42.07200
C  2.49100 51.97000 42.47400
C  3.40000 50.99500 42.05900
C  4.55200 51.64200 41.65300
C  1.05300 51.77000 42.96700
C  3.62300 49.60700 42.13900
O  2.90700 48.64900 42.42600
C  5.03000 49.37600 41.50100
C  4.75000 48.50200 40.33500
O  4.05000 48.88900 39.40200
O  5.23400 47.24600 40.63000
C  4.46700 46.24400 39.83500
H  10.30000 53.28300 40.26200
H  6.45600 58.47000 41.36300
H  1.56700 54.74900 42.31800
H  7.84800 49.22600 40.74000
H  9.56600 50.86000 39.31100
H  11.02000 50.40100 41.05400
H  9.66100 49.55000 41.75500
H  10.01000 51.27300 42.25800
H  6.73600 48.80900 38.75200
H  8.35300 49.34400 38.18600
H  7.62600 51.05000 37.02000
H  6.33800 51.44300 38.17500
H  11.52800 55.06900 39.85100
H  11.59500 56.60500 40.71000
H  11.36800 56.62100 38.93200
H  9.02900 60.84700 41.16500
H  8.07200 59.64900 41.91400
H  7.74500 60.05300 40.18900
H  4.01600 58.81500 41.15500
H  2.19900 57.04300 42.69800
H  4.86000 57.91700 44.03700
H  3.35400 58.84600 43.77600
H  4.84300 59.57400 43.33300
H  1.74700 58.48400 40.50800
H  0.87900 57.14600 41.16800
H  1.05600 56.14400 39.16800
H  2.92600 56.33500 39.17300
H  1.87900 57.57600 38.57300
H  1.05600 50.71500 43.24200
H  0.41100 51.78000 42.08600
H  0.66200 52.37800 43.78200
H  5.46500 48.80700 42.32300
H  4.94300 46.24900 38.85400
H  3.41400 46.52300 39.82900
H  4.69200 45.29700 40.32500

