158

Mg 30.59000 59.67400 39.24500
C  27.76000 58.07000 38.20700
C  32.38500 56.91500 37.85000
C  33.35200 61.57800 39.15900
C  28.68800 62.44500 40.08400
N  30.14600 57.75300 37.93700
C  28.87000 57.31800 37.82900
C  28.85700 55.85100 37.19700
C  30.34300 55.38300 37.59600
C  30.99800 56.77800 37.81600
C  30.35200 54.52500 38.92700
C  28.50500 55.89100 35.62900
C  27.30200 55.08200 35.18000
H  26.37900 55.63800 34.03700
N  32.55800 59.29000 38.67100
C  33.10100 58.09000 38.17000
C  34.54700 58.27100 38.17700
C  34.91500 59.65700 38.39600
C  33.58400 60.22700 38.78000
C  35.46900 57.15000 37.89400
C  36.31700 60.33200 38.18300
O  37.32200 59.71200 37.82600
C  36.46300 61.83800 38.18100
N  30.97200 61.77100 39.42100
C  32.18700 62.31700 39.41700
C  32.18700 63.84100 39.83100
C  30.74700 64.05500 40.30400
C  30.11100 62.65000 39.98000
C  33.28400 64.15500 40.90700
C  30.14300 65.19800 39.50100
C  29.05300 65.92100 40.24200
N  28.60100 60.12700 39.30300
C  27.98500 61.27800 39.70500
C  26.52900 61.03000 39.58300
C  26.43300 59.77200 38.92800
C  27.69300 59.28900 38.82700
C  25.41600 61.89200 40.01500
C  25.46500 58.83100 38.48800
O  24.29700 58.92600 38.41600
C  26.29800 57.64300 37.98600
C  25.81400 56.47700 38.71300
O  26.13000 56.14800 39.85600
O  24.83600 55.86800 38.00300
C  24.00900 54.79300 38.71500
H  33.03000 56.08900 37.54500
H  34.24500 62.20500 39.21600
H  28.09200 63.30300 40.40100
H  28.10400 55.25100 37.70700
H  30.76000 54.89200 36.71700
H  31.22000 53.86800 38.98000
H  29.37400 54.04600 38.98300
H  30.36500 55.20500 39.77900
H  29.33700 55.46100 35.07200
H  28.30700 56.90100 35.26800
H  26.58000 55.01700 35.99400
H  27.71400 54.08600 35.02000
H  35.11700 56.15700 38.17600
H  36.44800 57.32500 38.34000
H  35.65400 57.20600 36.82200
H  37.45500 62.14400 37.84800
H  36.36900 62.36100 39.13300
H  35.81700 62.40900 37.51500
H  32.45100 64.52900 39.02900
H  30.74700 64.26600 41.37400
H  33.70400 63.23400 41.31200
H  32.83500 64.48200 41.84400
H  34.08600 64.81400 40.57200
H  29.73100 64.85400 38.55200
H  30.94000 65.90800 39.27900
H  28.16000 65.75200 39.64100
H  29.31300 66.98000 40.25700
H  28.82500 65.63900 41.27000
H  24.66100 61.38700 40.61700
H  24.82900 62.14000 39.13100
H  25.77300 62.75900 40.57100
H  26.04700 57.60800 36.92600
H  23.75800 55.23900 39.67800
H  24.47300 53.81500 38.84300
H  23.08400 54.66900 38.15100
Mg -10.09600 17.35300 42.49600
C  -6.71100 16.31100 42.18300
C  -9.08400 20.60900 41.85000
C  -13.33200 18.06600 42.21300
C  -10.92400 13.90500 42.60900
N  -8.07900 18.31700 42.03200
C  -6.83500 17.66700 41.97200
C  -5.67900 18.74100 41.73400
C  -6.54600 20.10900 41.90900
C  -7.96800 19.74200 41.95900
C  -6.17600 21.09000 43.09300
C  -4.86400 18.62200 40.39800
C  -5.60200 17.84900 39.26000
H  -5.05800 18.06500 37.82200
N  -11.08000 19.09400 42.11400
C  -10.47200 20.33600 41.83500
C  -11.42600 21.34600 41.64600
C  -12.69100 20.69000 41.91900
C  -12.44200 19.20000 42.11800
C  -11.10400 22.80500 41.27600
C  -14.05600 21.43700 41.97400
O  -14.08700 22.66300 41.81900
C  -15.34900 20.70700 42.21400
N  -11.87900 16.20200 42.35400
C  -13.10500 16.74600 42.28500
C  -14.23100 15.70500 42.30300
C  -13.47600 14.38300 42.58800
C  -12.02000 14.85200 42.41300
C  -15.37700 16.06500 43.35800
C  -13.94400 13.13500 41.83300
C  -15.19900 12.36300 42.32400
N  -9.09900 15.50900 42.49800
C  -9.62000 14.23900 42.63200
C  -8.53700 13.28200 42.81900
C  -7.39700 14.05100 42.59200
C  -7.79400 15.36900 42.40900
C  -8.70600 11.76400 42.89600
C  -5.97600 13.96400 42.49300
O  -5.27100 12.96900 42.46200
C  -5.46400 15.42200 42.28900
C  -4.44800 15.92100 43.35300
O  -3.31000 16.31200 43.06800
O  -4.99000 15.95200 44.63100
C  -4.38100 16.96300 45.52800
H  -8.87500 21.67000 41.69500
H  -14.37600 18.38100 42.25800
H  -11.14400 12.84400 42.74100
H  -5.01700 18.60500 42.58900
H  -6.50300 20.64500 40.96100
H  -7.02500 21.19300 43.76900
H  -6.01000 22.02900 42.56500
H  -5.33300 20.69600 43.66100
H  -3.93600 18.12800 40.68600
H  -4.68200 19.59200 39.93700
H  -6.61000 18.25800 39.32200
H  -5.61000 16.79100 39.52200
H  -10.34400 22.90500 40.50200
H  -10.68000 23.32600 42.13400
H  -11.96400 23.40200 40.97300
H  -15.49900 19.89000 41.50800
H  -16.23100 21.31800 42.02300
H  -15.53700 20.36200 43.23100
H  -14.69900 15.72200 41.31900
H  -13.51700 14.15100 43.65200
H  -15.03400 16.95700 43.88300
H  -15.41700 15.25400 44.08400
H  -16.32900 16.24800 42.86000
H  -13.11700 12.45400 41.63300
H  -14.15800 13.58300 40.86200
H  -16.07600 12.33800 41.67800
H  -15.64900 12.75600 43.23600
H  -14.88500 11.33600 42.51100
H  -7.81000 11.16800 43.06900
H  -9.12600 11.55700 41.91200
H  -9.37200 11.49900 43.71700
H  -4.89700 15.35000 41.36200
H  -4.00700 16.33700 46.33900
H  -5.14100 17.65500 45.89000
H  -3.60600 17.51700 44.99800

