158

Mg -0.26900 7.74200 26.86800
C  0.49300 9.71500 29.75100
C  -0.60300 5.11400 29.06900
C  -0.49300 5.72400 24.25800
C  0.66100 10.46700 24.89800
N  0.03800 7.44700 29.17200
C  0.13200 8.42500 30.10100
C  -0.27000 7.90100 31.49000
C  -0.33200 6.37700 31.29500
C  -0.33700 6.31800 29.76100
C  0.97500 5.57800 31.72000
C  -1.54800 8.54500 32.07000
C  -1.65300 8.40000 33.66600
H  -0.50500 8.01800 34.56500
N  -0.62200 5.72600 26.68100
C  -0.75400 4.78000 27.69900
C  -1.05600 3.50200 27.15900
C  -1.12800 3.70100 25.75400
C  -0.73400 5.06600 25.46900
C  -1.37800 2.25700 28.02000
C  -1.43400 2.71600 24.67900
O  -1.33900 3.04500 23.47700
C  -1.89300 1.32900 25.07200
N  -0.21200 8.19500 24.92200
C  -0.26000 7.13400 23.99900
C  0.05000 7.61800 22.60400
C  0.18000 9.17400 22.72400
C  0.21900 9.33500 24.28900
C  1.29500 6.95400 21.89000
C  -0.84600 10.06800 22.10700
C  -2.35200 9.87100 22.50400
N  0.41600 9.75400 27.22300
C  0.78900 10.70000 26.33800
C  1.31300 11.83200 27.09700
C  1.22200 11.49900 28.44500
C  0.66500 10.20900 28.45100
C  1.63300 13.17300 26.50600
C  1.41500 11.94000 29.77900
O  1.91800 13.02100 30.21500
C  0.85600 10.83500 30.70700
C  1.94700 10.62600 31.70700
O  2.99500 10.03400 31.48700
O  1.63200 11.21000 32.88500
C  2.78200 11.29400 33.87300
H  -0.48900 4.23700 29.70900
H  -0.51800 5.17100 23.31700
H  0.95200 11.30000 24.25400
H  0.50900 8.26900 32.15800
H  -1.16900 5.82000 31.71700
H  1.62800 6.17900 32.35400
H  1.66400 5.27800 30.93000
H  0.67600 4.62700 32.16100
H  -2.30300 7.83100 31.74100
H  -1.67300 9.53600 31.63400
H  -2.43200 7.68500 33.93300
H  -2.11700 9.33700 33.97300
H  -1.31200 2.52700 29.07400
H  -0.65100 1.46100 27.85900
H  -2.33700 1.74000 27.96800
H  -2.88300 1.35600 25.52600
H  -0.97700 0.98700 25.55500
H  -1.95000 0.83900 24.10000
H  -0.76600 7.36900 21.92600
H  1.17100 9.54000 22.45700
H  2.18300 7.58500 21.83800
H  0.94900 6.58500 20.92400
H  1.64200 6.06800 22.42300
H  -0.85700 9.95700 21.02300
H  -0.61600 11.09100 22.40400
H  -2.90500 9.98500 21.57200
H  -2.68700 10.64100 23.19900
H  -2.45400 8.87800 22.94100
H  1.73600 13.19800 25.42100
H  2.51800 13.59800 26.98100
H  0.88800 13.83600 26.94400
H  0.00900 11.24900 31.25300
H  2.36000 11.80100 34.74100
H  3.55000 11.88900 33.37900
H  3.25400 10.33600 34.09100
Mg -3.99300 25.22500 24.90000
C  -3.07900 26.45600 28.06300
C  -6.02500 22.94200 26.39900
C  -4.44100 23.89400 21.95200
C  -1.75000 27.52200 23.55600
N  -4.50600 24.76000 27.03400
C  -4.02900 25.42400 28.16200
C  -4.76700 24.93100 29.37000
C  -5.50700 23.62200 28.87300
C  -5.43200 23.82600 27.34300
C  -4.96300 22.31300 29.46700
C  -5.54700 25.96300 30.22500
C  -5.38800 26.01400 31.74400
H  -4.89000 24.73400 32.45500
N  -5.14600 23.67300 24.23700
C  -5.88600 22.84800 24.97500
C  -6.56100 21.85100 24.17500
C  -5.98200 21.97500 22.86900
C  -5.18900 23.27600 22.96300
C  -7.47500 20.74700 24.64700
C  -6.22200 21.18800 21.55600
O  -5.72400 21.46400 20.46000
C  -7.08600 19.95000 21.52200
N  -3.27900 25.71200 23.03700
C  -3.57600 24.99900 21.96400
C  -2.68900 25.45600 20.82000
C  -2.28300 26.87800 21.15000
C  -2.42900 26.74600 22.65000
C  -1.48400 24.58500 20.66800
C  -3.04900 27.98600 20.48400
C  -2.22100 29.02500 19.76100
N  -2.63300 26.69400 25.56300
C  -1.81900 27.54800 24.93500
C  -1.05600 28.29000 25.88300
C  -1.59000 27.99000 27.14600
C  -2.59100 27.02600 26.85700
C  0.09300 29.18600 25.60600
C  -1.57600 28.28100 28.53300
O  -0.81700 29.07700 29.09200
C  -2.72300 27.36800 29.19800
C  -1.99400 26.71300 30.27900
O  -1.42900 25.63700 30.18400
O  -1.99900 27.42600 31.43800
C  -1.14000 26.98500 32.50500
H  -6.67300 22.22500 26.90600
H  -4.43000 23.30100 21.03600
H  -1.19600 28.33300 23.07800
H  -3.86900 24.59900 29.89100
H  -6.55700 23.61800 29.16800
H  -4.35700 22.46300 30.36000
H  -4.36600 21.75700 28.74500
H  -5.67600 21.56300 29.81000
H  -6.62400 25.85100 30.09500
H  -5.35700 26.99000 29.91300
H  -6.32800 26.31600 32.20500
H  -4.71400 26.83900 31.97400
H  -7.07800 19.75500 24.43200
H  -8.34800 20.97300 24.03500
H  -7.78100 20.73200 25.69400
H  -8.08300 20.36200 21.67300
H  -6.89800 19.18100 22.27100
H  -7.01500 19.55000 20.51000
H  -3.28100 25.31300 19.91600
H  -1.24100 27.03700 20.87000
H  -1.74600 23.71400 20.06700
H  -1.07000 24.40500 21.66000
H  -0.69200 24.90900 19.99300
H  -3.74000 28.50300 21.15100
H  -3.69500 27.59000 19.70000
H  -2.66500 28.97400 18.76700
H  -1.20500 28.63400 19.69900
H  -2.35100 29.98700 20.25700
H  -0.37600 30.01600 25.07800
H  0.82800 28.71100 24.95700
H  0.59300 29.47600 26.53000
H  -3.47100 28.02200 29.64700
H  -1.28600 27.84200 33.16100
H  -0.08900 26.98800 32.21500
H  -1.49000 26.09200 33.02300

