158

Mg 53.09000 25.02100 43.28100
C  50.77600 27.52600 42.71300
C  50.88700 22.68100 41.99800
C  55.64300 22.74600 42.81300
C  55.54200 27.43600 44.09500
N  51.09800 25.10300 42.45900
C  50.24700 26.20500 42.43700
C  48.87600 25.89800 41.93000
C  48.85900 24.25000 41.91000
C  50.33500 23.97800 42.21200
C  47.97100 23.65700 43.11900
C  48.45800 26.38000 40.48100
C  49.54700 26.29300 39.36400
H  49.33700 25.55200 38.08400
N  53.23200 22.95800 42.59000
C  52.19900 22.13500 42.27500
C  52.64300 20.82800 41.95200
C  54.01200 20.81700 42.05300
C  54.35100 22.21000 42.58800
C  51.72500 19.66900 41.52600
C  54.94800 19.65400 41.88200
O  54.54200 18.58700 41.49200
C  56.46400 19.73200 42.14800
N  55.23700 25.15600 43.49600
C  56.06600 24.03200 43.23500
C  57.64000 24.41200 43.55200
C  57.43500 25.86900 44.10800
C  55.96200 26.21800 43.83300
C  58.37300 23.43900 44.53100
C  58.54100 26.78200 43.50400
C  59.39700 27.55500 44.60000
N  53.16600 27.07100 43.45600
C  54.20000 27.92100 43.83200
C  53.58700 29.19800 44.14300
C  52.33900 29.10300 43.56200
C  52.08000 27.79100 43.25400
C  54.29300 30.43900 44.65900
C  51.05400 29.78400 43.37100
O  50.73200 30.93800 43.56800
C  50.04500 28.76700 42.76300
C  49.57500 29.38500 41.44800
O  50.31000 29.55100 40.41300
O  48.20400 29.66400 41.51800
C  47.56300 30.16000 40.33300
H  50.10100 21.99700 41.67200
H  56.52900 22.11400 42.71800
H  56.27700 28.11800 44.52800
H  48.20700 26.21100 42.73100
H  48.47000 23.79800 40.99800
H  47.62700 24.48600 43.73700
H  48.55600 22.93000 43.68300
H  47.12400 23.15300 42.65500
H  48.05900 27.39400 40.44400
H  47.59300 25.78100 40.19600
H  50.40500 25.78800 39.80800
H  49.87200 27.25400 38.96600
H  52.00500 19.27400 40.54900
H  50.71500 20.01000 41.29800
H  51.70900 18.79400 42.17600
H  56.95500 18.79900 41.87400
H  56.61600 20.12700 43.15200
H  56.79600 20.49600 41.44400
H  58.18700 24.33900 42.61200
H  57.58600 25.95700 45.18400
H  57.78000 22.54300 44.71800
H  58.50600 23.97300 45.47200
H  59.33600 23.18400 44.09000
H  58.07800 27.54000 42.87100
H  59.20400 26.24600 42.82500
H  59.08600 28.59900 44.55000
H  60.46900 27.41600 44.46000
H  59.17400 27.37700 45.65200
H  55.08600 30.69800 43.95800
H  54.74000 30.18100 45.62000
H  53.55100 31.23100 44.75300
H  49.15000 28.65200 43.37400
H  47.52900 29.41200 39.54000
H  48.16100 31.01900 40.02800
H  46.56500 30.52100 40.58300
Mg -5.88200 24.84600 26.86300
C  -4.27900 25.93300 29.75100
C  -8.01200 22.93600 28.78400
C  -7.20800 23.59800 24.02500
C  -3.58500 26.70900 25.01400
N  -6.11900 24.50700 28.98800
C  -5.33400 25.00800 30.00600
C  -5.85800 24.57600 31.32800
C  -6.77000 23.36700 31.02500
C  -7.05400 23.67700 29.51300
C  -6.14400 21.97400 31.24700
C  -6.57800 25.73600 32.17400
C  -6.07400 25.98200 33.62100
H  -5.15600 24.98600 34.37100
N  -7.46400 23.51700 26.44400
C  -8.19300 22.83700 27.38700
C  -9.28500 22.15500 26.74500
C  -9.07300 22.36800 25.35500
C  -7.90400 23.19700 25.18700
C  -10.36600 21.33200 27.51200
C  -9.93300 21.90600 24.11700
O  -9.64800 22.12200 22.96400
C  -11.20200 21.02200 24.30500
N  -5.44500 25.12300 24.74000
C  -6.09100 24.41200 23.80500
C  -5.56500 24.64200 22.47000
C  -4.37700 25.68900 22.72600
C  -4.50000 25.91600 24.25800
C  -4.99300 23.46300 21.75200
C  -4.34300 27.04900 21.84500
C  -3.13200 27.17800 20.89500
N  -4.34200 26.16800 27.20900
C  -3.51200 26.95700 26.38300
C  -2.57400 27.62100 27.13400
C  -2.85500 27.31200 28.46600
C  -3.90900 26.39500 28.46500
C  -1.53900 28.51000 26.51900
C  -2.40600 27.56800 29.86800
O  -1.43800 28.21200 30.25500
C  -3.34400 26.58600 30.83600
C  -2.36800 25.71300 31.53100
O  -1.97300 24.65800 31.08000
O  -1.97000 26.26500 32.75000
C  -0.96500 25.57700 33.45700
H  -8.64000 22.40100 29.49900
H  -7.56400 23.11700 23.11100
H  -2.85100 27.26800 24.42900
H  -4.94900 24.33900 31.88200
H  -7.67100 23.32500 31.63700
H  -5.08200 22.18400 31.37700
H  -6.09000 21.36700 30.34400
H  -6.60300 21.41300 32.06100
H  -7.56300 25.29900 32.33800
H  -6.66500 26.61400 31.53500
H  -6.95600 26.16400 34.23500
H  -5.49900 26.90600 33.55600
H  -11.32200 21.83000 27.66900
H  -9.94100 21.11700 28.49300
H  -10.57200 20.41600 26.95800
H  -11.81600 21.50400 25.06600
H  -10.79700 20.08400 24.68200
H  -11.60100 20.90200 23.29700
H  -6.26600 25.04000 21.73700
H  -3.41400 25.18000 22.71100
H  -3.98400 23.39100 21.34600
H  -5.48800 23.41700 20.78200
H  -5.20300 22.53800 22.28900
H  -4.24000 27.83800 22.59000
H  -5.31000 27.17800 21.35800
H  -2.50700 26.30400 21.07900
H  -2.59100 28.04500 21.27400
H  -3.38300 27.30900 19.84200
H  -0.92100 27.78400 25.98900
H  -1.04200 28.95300 27.38100
H  -1.89100 29.27600 25.82800
H  -3.94000 27.13600 31.56500
H  -0.09300 26.20500 33.63900
H  -0.63800 24.67600 32.93700
H  -1.30800 25.22000 34.42800

