158

Mg 16.95500 -0.88900 28.66200
C  15.70500 0.86000 31.48800
C  19.04600 -2.54300 30.80700
C  18.57800 -2.04700 26.01000
C  14.86100 0.98200 26.73300
N  17.31400 -0.88600 30.89900
C  16.66600 -0.13200 31.83700
C  17.05300 -0.53700 33.27600
C  18.40100 -1.35300 32.96800
C  18.19800 -1.70500 31.47600
C  19.81000 -0.68500 33.29600
C  15.87600 -1.22800 34.06200
C  15.69600 -0.93800 35.58000
H  16.94600 -0.49000 36.32000
N  18.53800 -2.24500 28.45000
C  19.20900 -2.89600 29.45100
C  20.13600 -3.90400 28.87000
C  19.87200 -3.83000 27.43400
C  19.01300 -2.62600 27.25000
C  20.88300 -4.93800 29.70400
C  20.36000 -4.77000 26.36000
O  20.17700 -4.67500 25.15400
C  21.13500 -6.01600 26.69400
N  16.78900 -0.51300 26.68400
C  17.58800 -1.12100 25.71100
C  17.18400 -0.76200 24.33800
C  15.99900 0.26200 24.63000
C  15.76200 0.21900 26.09000
C  18.33300 -0.18900 23.51700
C  14.68800 0.01300 23.74100
C  13.65700 -1.02400 24.18600
N  15.61900 0.68500 28.97700
C  14.75100 1.25000 28.07600
C  13.76800 2.12000 28.71800
C  14.12300 1.93400 30.08700
C  15.23700 1.09600 30.20600
C  12.60700 2.79000 28.11400
C  13.75500 2.37300 31.35100
O  12.90300 3.15700 31.74900
C  14.81600 1.73100 32.32400
C  15.65000 2.76100 33.04900
O  16.36700 3.62900 32.49400
O  15.59700 2.62800 34.46200
C  16.52300 3.52400 35.23900
H  19.57600 -3.17300 31.52600
H  18.95300 -2.46600 25.07400
H  14.11900 1.46100 26.09000
H  17.28100 0.44500 33.69100
H  18.45600 -2.31100 33.48400
H  19.64900 0.09300 34.04300
H  20.10500 -0.27700 32.32900
H  20.57800 -1.35400 33.68300
H  16.13900 -2.28600 34.06700
H  15.02600 -1.01900 33.41300
H  15.42400 -1.88400 36.05000
H  14.79700 -0.36100 35.79600
H  21.87800 -5.09200 29.28700
H  20.30200 -5.86000 29.67100
H  21.05300 -4.59500 30.72500
H  21.47500 -6.52900 25.79500
H  20.41100 -6.63200 27.22700
H  22.03300 -5.64600 27.18800
H  16.87900 -1.70200 23.87900
H  16.28100 1.28800 24.39400
H  17.92800 -0.09500 22.50900
H  19.16000 -0.89500 23.58700
H  18.53200 0.77700 23.98200
H  14.82800 -0.23200 22.68800
H  14.20500 0.98600 23.64900
H  12.75500 -0.55900 24.58300
H  14.01400 -1.60200 25.03900
H  13.55800 -1.72200 23.35500
H  11.96900 3.22500 28.88300
H  12.15900 2.06600 27.43400
H  12.90000 3.60500 27.45200
H  14.18300 1.13700 32.98300
H  16.71400 3.16700 36.25100
H  16.23200 4.57500 35.25600
H  17.49400 3.39000 34.76100
Mg -12.32800 15.53300 41.53600
C  -9.33200 13.71900 41.10200
C  -11.03400 18.00300 39.55000
C  -15.31900 17.08900 41.52300
C  -13.76900 12.72000 43.04200
N  -10.39900 15.72600 40.27900
C  -9.29000 14.98000 40.46700
C  -8.04500 15.62700 39.83100
C  -8.64900 17.02700 39.38800
C  -10.11100 16.90300 39.75400
C  -7.92100 18.25300 40.01000
C  -7.43100 14.93000 38.59200
C  -6.12400 15.48100 38.17000
H  -6.20200 16.50000 37.02500
N  -13.02100 17.39600 40.76900
C  -12.31300 18.29500 39.98400
C  -13.15300 19.42000 39.62400
C  -14.42200 19.22200 40.22600
C  -14.34000 17.79700 40.84000
C  -12.69200 20.55500 38.81400
C  -15.62300 20.20600 40.12300
O  -15.53400 21.31600 39.57700
C  -17.01500 19.95400 40.66600
N  -14.27600 14.85100 42.12000
C  -15.32100 15.82600 42.13200
C  -16.58600 15.19000 42.76100
C  -16.10300 13.78200 43.28800
C  -14.67500 13.73800 42.73800
C  -17.25000 16.09200 43.89100
C  -16.89300 12.51200 42.75200
C  -17.28300 11.46500 43.82500
N  -11.66800 13.62700 42.08000
C  -12.38400 12.56700 42.68000
C  -11.45300 11.57900 42.98000
C  -10.21800 11.93200 42.36600
C  -10.42700 13.21000 41.82900
C  -11.72000 10.35600 43.84400
C  -8.84000 11.49400 42.12500
O  -8.23500 10.41600 42.39400
C  -8.21900 12.68100 41.24800
C  -6.84700 13.11700 41.80200
O  -6.69800 13.55500 42.91000
O  -5.86900 13.07700 40.83600
C  -4.73400 13.99100 41.13700
H  -10.55000 18.77600 38.95000
H  -16.34500 17.45800 41.57400
H  -14.20100 12.00900 43.74900
H  -7.37300 15.88400 40.64900
H  -8.65100 17.11300 38.30100
H  -8.62400 18.77200 40.66200
H  -7.64200 18.89500 39.17500
H  -6.97200 18.12400 40.53200
H  -8.16800 15.05500 37.79900
H  -7.32200 13.84700 38.65100
H  -5.48300 14.63200 37.93100
H  -5.73200 16.05100 39.01300
H  -13.26400 20.54300 37.88600
H  -11.60600 20.55700 38.71500
H  -12.95700 21.43600 39.39800
H  -17.76800 20.59700 40.20900
H  -17.07400 20.05100 41.75000
H  -17.23400 18.95700 40.28700
H  -17.30200 15.07400 41.94800
H  -16.02500 13.71600 44.37300
H  -18.20200 16.59500 43.72600
H  -16.47400 16.82000 44.13100
H  -17.33500 15.37800 44.71000
H  -16.38700 12.05400 41.90100
H  -17.83600 12.84500 42.31800
H  -17.10700 10.47100 43.41500
H  -18.36400 11.59100 43.89000
H  -16.73100 11.66600 44.74400
H  -12.47400 10.58900 44.59500
H  -10.75500 10.20300 44.32600
H  -11.97200 9.47600 43.25100
H  -7.85800 12.17500 40.35200
H  -3.95600 13.73200 40.41800
H  -4.27900 13.79100 42.10800
H  -5.08600 15.00100 40.92800

