158

Mg 16.54100 -2.32000 27.77300
C  15.65700 -0.38400 30.43000
C  18.96200 -3.82600 29.93500
C  17.97100 -3.77400 25.12000
C  14.77100 -0.17600 25.58900
N  17.24500 -2.06700 29.89700
C  16.61900 -1.31600 30.80900
C  17.12700 -1.51500 32.24100
C  18.26600 -2.64400 32.05200
C  18.17800 -2.85500 30.50700
C  19.68400 -2.27100 32.64800
C  15.90600 -1.88700 33.21700
C  15.99800 -1.39200 34.68400
H  17.31600 -0.63200 35.16400
N  18.12900 -3.77700 27.56200
C  18.90800 -4.29500 28.57800
C  19.67300 -5.38200 27.99900
C  19.41800 -5.38700 26.54400
C  18.53900 -4.27800 26.31000
C  20.36900 -6.38900 28.92400
C  20.01300 -6.36200 25.53800
O  19.67900 -6.28600 24.42500
C  21.00800 -7.41100 25.98800
N  16.45600 -2.00400 25.71300
C  17.09500 -2.77500 24.82800
C  16.70200 -2.45800 23.31800
C  15.58600 -1.43400 23.54600
C  15.53400 -1.18700 25.05500
C  17.84800 -1.93200 22.50800
C  14.20100 -1.90000 22.92600
C  13.34600 -2.71200 23.93300
N  15.33700 -0.76600 27.92000
C  14.59100 0.00400 26.97500
C  13.84400 1.05000 27.61500
C  14.23000 0.93700 28.99700
C  15.13400 -0.17700 29.09500
C  13.03800 2.12500 26.85700
C  14.03400 1.53700 30.27900
O  13.19700 2.30200 30.68800
C  14.98900 0.72100 31.21200
C  15.92900 1.79500 31.68700
O  16.71000 2.37300 31.02800
O  15.76900 2.04000 33.02500
C  16.68700 3.00600 33.60600
H  19.63800 -4.33900 30.62100
H  18.29100 -4.33300 24.23800
H  14.20800 0.54900 24.99800
H  17.44100 -0.50000 32.48500
H  17.87600 -3.57700 32.46000
H  20.49800 -2.11700 31.94000
H  19.92900 -3.14000 33.25900
H  19.76500 -1.32600 33.18600
H  15.72100 -2.94900 33.05300
H  14.98600 -1.42700 32.85500
H  15.94100 -2.26300 35.33700
H  15.19400 -0.68200 34.87500
H  19.94700 -7.37900 28.75100
H  20.46900 -6.20200 29.99300
H  21.39700 -6.37900 28.56200
H  20.58700 -8.08600 26.73200
H  21.89400 -6.81500 26.20900
H  21.23700 -8.00800 25.10500
H  16.29700 -3.29000 22.74200
H  15.78600 -0.43500 23.15800
H  18.59100 -1.48400 23.16700
H  17.37900 -1.17900 21.87400
H  18.14100 -2.74700 21.84600
H  14.45000 -2.55000 22.08700
H  13.64900 -1.02600 22.57900
H  12.85400 -1.91700 24.49300
H  13.90000 -3.30300 24.66200
H  12.57700 -3.30100 23.43400
H  12.35200 2.66300 27.51100
H  12.45900 1.66700 26.05400
H  13.65600 2.90200 26.40800
H  14.31300 0.26800 31.93700
H  16.45000 3.97600 33.17000
H  17.65700 2.57400 33.36200
H  16.45000 3.19000 34.65500
Mg 35.58100 2.37200 30.29300
C  33.31300 3.59900 32.75000
C  37.95700 2.54000 32.72800
C  37.62800 1.30100 28.02700
C  32.99100 2.65200 28.03600
N  35.54400 3.01400 32.50300
C  34.49700 3.37800 33.30100
C  34.89400 3.47500 34.80200
C  36.50500 3.35200 34.73500
C  36.70700 3.01600 33.25000
C  37.30200 4.59600 35.22500
C  34.13200 2.42400 35.57500
C  33.58500 2.75400 36.92800
H  34.38500 3.86200 37.62600
N  37.50600 2.03100 30.32300
C  38.27200 2.01000 31.47100
C  39.64100 1.54300 31.06500
C  39.59600 1.12900 29.68400
C  38.16700 1.39700 29.31000
C  40.82800 1.50500 32.00000
C  40.63200 0.54400 28.82600
O  40.29000 -0.03800 27.78900
C  42.07200 0.63200 29.18400
N  35.35000 2.21500 28.15800
C  36.40300 1.74000 27.46700
C  35.94400 1.29200 25.98100
C  34.42700 1.80500 26.07500
C  34.19400 2.24600 27.46400
C  36.80500 1.88600 24.90200
C  33.35400 0.85100 25.34900
C  32.56900 1.44500 24.15300
N  33.56500 2.97500 30.29100
C  32.61800 3.04900 29.30800
C  31.38200 3.43300 29.75600
C  31.63300 3.73100 31.07700
C  32.92200 3.40300 31.39600
C  30.19300 3.64300 28.99800
C  30.98400 4.20000 32.32600
O  29.88300 4.71100 32.43700
C  32.03700 4.16800 33.43300
C  32.18300 5.52900 34.18100
O  32.40500 6.63800 33.72200
O  31.89100 5.29100 35.51200
C  31.82500 6.58500 36.28700
H  38.77900 2.32100 33.41200
H  38.32800 0.97100 27.25600
H  32.13000 2.68500 27.36600
H  34.61900 4.46400 35.16800
H  36.80800 2.51200 35.36100
H  36.61800 5.43000 35.38800
H  37.96700 4.93300 34.43000
H  37.92700 4.35700 36.08600
H  34.71600 1.50700 35.64700
H  33.24400 2.11800 35.02400
H  33.44000 1.86600 37.54400
H  32.58300 3.14900 36.76400
H  41.41900 2.38200 31.73500
H  41.38300 0.58200 31.83300
H  40.65500 1.69500 33.06000
H  42.71800 0.42300 28.33100
H  42.19400 -0.16900 29.91300
H  42.32600 1.63300 29.53200
H  35.88800 0.20700 25.89000
H  34.30600 2.78100 25.60600
H  37.65700 2.49600 25.20100
H  36.22900 2.30700 24.07800
H  37.37200 1.08100 24.43400
H  32.69600 0.53700 26.16000
H  33.74500 -0.08700 24.95600
H  33.03700 2.33700 23.73800
H  31.52000 1.62000 24.39100
H  32.48200 0.63200 23.43200
H  29.78300 2.68700 28.67400
H  30.54300 4.20100 28.12900
H  29.38800 4.14800 29.53200
H  31.80500 3.40900 34.18000
H  30.93500 7.16300 36.03600
H  32.75300 7.15500 36.25300
H  31.70300 6.32900 37.34000

