158

Mg 6.22100 54.27900 39.38200
C  5.66900 50.74300 39.50800
C  9.28800 53.53800 38.23200
C  6.55000 57.53700 38.80200
C  2.83000 54.68500 40.09500
N  7.32100 52.26400 38.71000
C  6.91200 50.99400 38.87500
C  8.10700 50.01500 38.58300
C  9.40700 51.00200 38.57000
C  8.63100 52.35000 38.54000
C  10.36600 50.93100 39.74200
C  7.94500 49.31200 37.17500
C  7.47000 50.10100 35.96600
H  6.00400 50.21100 35.48100
N  7.71300 55.37100 38.64100
C  8.90900 54.93500 38.19100
C  9.85300 56.11600 38.06700
C  9.09600 57.25800 38.21700
C  7.69900 56.77600 38.56700
C  11.22900 55.94500 37.55500
C  9.56400 58.70000 38.16700
O  10.74500 58.83100 37.93000
C  8.70900 59.94900 38.22200
N  4.77300 55.84200 39.19200
C  5.23200 57.09300 38.99500
C  4.13800 58.13600 39.34200
C  2.94900 57.17100 39.66600
C  3.53700 55.77100 39.60600
C  4.50100 59.21400 40.47000
C  1.74500 57.36700 38.66500
C  0.82700 58.58100 39.07300
N  4.45800 53.02100 39.66700
C  3.27500 53.34000 40.15400
C  2.53000 52.13600 40.46900
C  3.46600 51.07800 40.28100
C  4.61700 51.64900 39.71600
C  1.03400 52.07800 40.88200
C  3.67000 49.62800 40.46400
O  2.96700 48.73400 40.89300
C  5.13100 49.35100 39.88900
C  4.79700 48.46400 38.68400
O  4.14000 48.81900 37.74100
O  5.41600 47.23600 38.75400
C  4.96200 46.10100 37.91900
H  10.30200 53.37100 37.86200
H  6.75600 58.60900 38.76600
H  1.83900 54.80000 40.54000
H  8.21600 49.26500 39.36600
H  10.05400 50.83800 37.70800
H  11.29700 50.73100 39.21300
H  10.11900 50.16300 40.47500
H  10.51300 51.87700 40.26500
H  7.18600 48.54900 37.34300
H  8.90200 48.80400 37.05700
H  8.09900 49.69200 35.17600
H  7.76800 51.10900 36.25600
H  11.93600 55.94700 38.38500
H  11.39700 56.72600 36.81400
H  11.35200 55.00300 37.02000
H  9.29000 60.84800 38.01200
H  8.19300 59.98000 39.18200
H  7.98100 59.70800 37.44800
H  4.01800 58.68800 38.41000
H  2.72400 57.36400 40.71500
H  5.57600 59.16500 40.64400
H  4.04300 59.01200 41.43800
H  4.39500 60.24500 40.13300
H  1.05700 56.52400 38.61100
H  2.09600 57.51200 37.64300
H  -0.02200 58.10900 39.56900
H  0.27400 59.02500 38.24600
H  1.30000 59.25200 39.79000
H  0.53500 53.04500 40.93700
H  0.88100 51.55800 41.82700
H  0.51900 51.43400 40.16900
H  5.68500 48.58100 40.42500
H  3.90100 45.92200 38.09400
H  5.53500 45.21400 38.18900
H  5.06100 46.33800 36.85900
Mg 9.43400 48.79800 24.65300
C  7.31300 49.46300 27.36500
C  12.04700 50.05900 26.49500
C  11.38500 48.38800 21.96900
C  6.60100 48.09300 22.65300
N  9.58700 49.59000 26.67600
C  8.65300 49.61500 27.70200
C  9.32800 50.07000 29.00500
C  10.57800 50.78800 28.48200
C  10.76100 50.11100 27.15000
C  10.45300 52.31400 28.27400
C  9.56200 48.87600 29.97000
C  8.75500 48.91400 31.26100
H  8.22200 47.54200 31.81300
N  11.52300 48.96300 24.25600
C  12.42500 49.47900 25.20700
C  13.79300 49.41200 24.53400
C  13.60200 48.81200 23.24800
C  12.12300 48.64800 23.14400
C  15.06400 49.66200 25.38700
C  14.57200 48.33800 22.14300
O  14.16000 47.73100 21.21400
C  16.05100 48.54600 22.23400
N  9.11600 48.46900 22.64200
C  10.08600 48.25600 21.68000
C  9.53900 47.92200 20.30600
C  8.03100 47.60200 20.65100
C  7.87400 48.14000 22.03200
C  9.81500 48.87100 19.17900
C  7.55500 46.05900 20.46700
C  8.25300 45.04300 21.34300
N  7.40800 48.95200 24.82400
C  6.38100 48.59700 23.95100
C  5.09900 48.71500 24.65600
C  5.39500 49.05400 25.92200
C  6.83900 49.15800 26.02000
C  3.74100 48.44500 24.12200
C  4.81700 49.25800 27.23600
O  3.66300 49.24300 27.64600
C  6.05700 49.59000 28.19300
C  5.91400 48.55600 29.25100
O  5.89800 47.33100 29.08400
O  5.58700 49.21400 30.43300
C  5.00700 48.39900 31.52200
H  12.86700 50.58100 26.99200
H  12.08500 48.27400 21.13900
H  5.78800 47.66300 22.06600
H  8.70400 50.78500 29.54100
H  11.33500 50.44200 29.18500
H  9.43700 52.54700 27.95600
H  11.12500 52.75200 27.53600
H  10.57100 52.92800 29.16700
H  10.58700 48.77000 30.32600
H  9.28400 47.97800 29.41800
H  7.86000 49.52500 31.14800
H  9.25300 49.49700 32.03600
H  14.85800 49.85500 26.44000
H  15.55000 50.59500 25.10000
H  15.79300 48.85400 25.33900
H  16.30500 48.69700 23.28400
H  16.41500 49.43800 21.72500
H  16.48800 47.60900 21.89000
H  9.96000 46.98400 19.94300
H  7.37900 48.15700 19.97500
H  10.43000 49.68400 19.56300
H  8.88700 49.35500 18.87600
H  10.28800 48.47100 18.28200
H  7.73300 45.81600 19.41900
H  6.48400 45.91700 20.61200
H  8.57900 45.45500 22.29800
H  9.15200 44.61400 20.90100
H  7.61700 44.17300 21.50300
H  3.67700 48.13400 23.07900
H  3.10400 49.32300 24.22800
H  3.17200 47.65200 24.60700
H  5.90800 50.58300 28.61700
H  5.58400 47.47500 31.56900
H  3.95900 48.23500 31.27200
H  5.12400 48.94500 32.45900

