158

Mg 41.41500 8.81100 30.33800
C  43.25600 10.01700 32.92500
C  39.01300 7.69400 32.54800
C  39.82800 7.27700 27.79900
C  44.21300 9.43600 28.22300
N  41.32100 8.61000 32.50200
C  42.05600 9.41500 33.31900
C  41.34200 9.72900 34.62200
C  40.11900 8.70800 34.59900
C  40.16200 8.30000 33.10000
C  40.24300 7.50200 35.54200
C  40.98900 11.20800 34.72200
C  40.31100 11.59300 35.98700
H  41.02600 12.03000 37.31500
N  39.57900 7.85500 30.14600
C  38.78800 7.44900 31.18800
C  37.64500 6.76500 30.61600
C  37.71400 6.85700 29.22900
C  39.05600 7.32200 28.99500
C  36.53700 6.28000 31.57000
C  36.70700 6.37500 28.18100
O  36.92500 6.29900 26.97000
C  35.32500 5.96900 28.70600
N  41.97200 8.37300 28.30200
C  41.10200 7.68600 27.50000
C  41.85600 7.60400 26.08700
C  43.08600 8.47800 26.25700
C  43.09600 8.79200 27.67300
C  42.19900 6.11500 25.79700
C  43.20900 9.58700 25.20200
C  42.50500 10.95500 25.41700
N  43.41500 9.57700 30.48500
C  44.44400 9.87800 29.58200
C  45.47300 10.58500 30.25100
C  45.11500 10.64000 31.62300
C  43.85200 9.97400 31.70200
C  46.75300 11.09200 29.56700
C  45.49300 11.07400 32.89100
O  46.45400 11.66200 33.38900
C  44.32500 10.67000 33.82700
C  44.76300 9.52900 34.76400
O  44.49900 8.30800 34.68900
O  45.57700 10.14600 35.66900
C  45.78700 9.19400 36.74000
H  38.30900 7.55800 33.37200
H  39.32600 6.79900 26.95500
H  45.10600 9.82300 27.72900
H  42.08200 9.52900 35.39700
H  39.11600 9.08200 34.80500
H  39.60800 7.57700 36.42500
H  41.29100 7.38200 35.81700
H  39.82100 6.61700 35.06600
H  40.43700 11.47500 33.82100
H  41.86700 11.85200 34.66700
H  39.76600 10.69500 36.27700
H  39.46300 12.24500 35.77400
H  36.07100 7.22300 31.85700
H  36.95100 5.84200 32.47800
H  35.87000 5.55600 31.10100
H  34.63600 5.95800 27.86200
H  35.00500 6.76000 29.38400
H  35.40000 4.98800 29.17400
H  41.29500 7.99100 25.23700
H  44.00200 7.88700 26.27500
H  41.89800 6.06300 24.75100
H  41.84700 5.44900 26.58500
H  43.26900 5.92600 25.70700
H  42.93100 9.33900 24.17800
H  44.26700 9.84400 25.15400
H  43.22700 11.76600 25.32200
H  42.03400 10.96100 26.40000
H  41.74200 11.12300 24.65600
H  46.56800 11.22000 28.50100
H  47.58400 10.39000 29.63200
H  47.06300 12.08900 29.88300
H  43.93200 11.56000 34.31700
H  44.92300 8.91100 37.34000
H  46.50700 9.68900 37.39300
H  46.25300 8.30700 36.31100
Mg 53.53400 24.66900 44.89500
C  50.88100 26.72500 43.85000
C  51.62900 21.94900 43.90300
C  56.32500 22.82500 45.00100
C  55.26400 27.60200 45.90700
N  51.60600 24.34400 43.89500
C  50.79200 25.37700 43.43800
C  49.64800 24.82700 42.61500
C  49.60000 23.32400 43.16800
C  51.02000 23.16700 43.83700
C  48.49700 23.04000 44.17800
C  50.00200 24.90000 41.14100
C  48.75100 25.07400 40.24300
H  49.14100 25.84900 38.92400
N  53.94100 22.67200 44.26700
C  52.99600 21.66900 44.10000
C  53.66100 20.43100 44.01200
C  55.02500 20.62100 44.31100
C  55.19400 22.13600 44.48600
C  52.92300 19.13800 43.66000
C  56.05300 19.51700 44.48200
O  55.73900 18.35600 44.21600
C  57.46700 19.83900 44.83400
N  55.52500 25.15500 45.47400
C  56.50100 24.20000 45.40300
C  57.86900 24.86700 45.80800
C  57.64400 26.37600 45.74400
C  56.06300 26.39900 45.72800
C  58.43800 24.35500 47.10500
C  58.27500 27.18500 44.49100
C  58.86200 28.56600 44.83600
N  53.00800 26.72100 45.13500
C  53.81300 27.75100 45.67300
C  53.08100 28.98400 45.58100
C  51.88700 28.61900 44.87200
C  52.00400 27.26000 44.51900
C  53.47300 30.31300 46.08700
C  50.62000 29.15000 44.32500
O  50.14300 30.23000 44.37000
C  50.00300 27.86500 43.50800
C  49.80400 28.26200 42.03600
O  50.71200 28.30300 41.25500
O  48.48900 28.64700 41.85400
C  48.23100 29.15100 40.49500
H  50.95300 21.09200 43.87100
H  57.26800 22.28700 45.12100
H  55.75600 28.56900 46.03000
H  48.64300 25.18400 42.84100
H  49.52100 22.59400 42.36400
H  47.95600 23.97300 44.33900
H  48.81100 22.73300 45.17600
H  47.83600 22.26100 43.79700
H  50.46900 23.95300 40.87100
H  50.74200 25.67600 40.94200
H  48.00600 25.62900 40.81400
H  48.23000 24.15200 39.98600
H  53.05200 18.89900 42.60400
H  51.84200 19.21800 43.77500
H  53.26400 18.21000 44.11900
H  58.17600 19.01300 44.77700
H  57.42900 20.13800 45.88100
H  57.98400 20.60100 44.24900
H  58.62600 24.63700 45.05800
H  58.02700 26.94100 46.59400
H  58.84200 25.23600 47.60400
H  59.13900 23.55500 46.86700
H  57.68000 23.81300 47.67100
H  57.48100 27.35600 43.76400
H  59.07200 26.61800 44.01200
H  59.02500 28.79700 45.88800
H  58.16000 29.35400 44.56000
H  59.80900 28.55000 44.29500
H  54.00700 30.84900 45.30200
H  54.10700 30.30300 46.97300
H  52.55100 30.82200 46.36800
H  49.02600 27.62200 43.92600
H  48.91900 29.05000 39.65600
H  48.01600 30.20900 40.64000
H  47.28800 28.71200 40.16600

