158

Mg 47.05700 45.13800 43.06100
C  43.66700 44.12000 43.23900
C  47.76200 41.69800 42.45000
C  50.12600 45.99000 42.61200
C  46.00400 48.51200 43.40800
N  45.78100 43.14700 42.81200
C  44.49000 43.01400 43.01300
C  44.02300 41.52500 42.71800
C  45.40000 40.81000 42.85900
C  46.38700 41.96700 42.70000
C  45.55300 39.79800 44.03000
C  43.20000 41.23100 41.51800
C  43.62300 42.01200 40.30700
H  43.19800 41.50700 38.93700
N  48.73600 43.96900 42.42800
C  48.84500 42.54900 42.23300
C  50.21200 42.21300 41.91700
C  50.89900 43.49300 41.85700
C  49.97700 44.57100 42.33100
C  50.72800 40.86400 41.59900
C  52.40700 43.60100 41.53400
O  53.09900 42.65500 41.23200
C  53.06600 44.95700 41.53600
N  47.95500 47.05400 42.95500
C  49.27500 47.09800 42.92900
C  49.73300 48.54100 43.05700
C  48.47200 49.36300 43.35300
C  47.37600 48.28400 43.27100
C  50.96800 48.81600 43.95900
C  48.14600 50.51900 42.29100
C  47.64700 51.73800 42.99000
N  45.23400 46.12900 43.32300
C  44.99800 47.47300 43.42400
C  43.54500 47.70000 43.62000
C  42.98700 46.37800 43.50800
C  44.09000 45.51900 43.30700
C  42.76700 49.04800 43.83100
C  41.73500 45.63800 43.30800
O  40.62000 46.07200 43.13000
C  42.12800 44.15700 43.40600
C  41.80500 43.66400 44.81700
O  42.31900 44.15200 45.76900
O  41.09100 42.50600 44.77600
C  40.87400 41.87900 46.08900
H  47.98300 40.62900 42.44100
H  51.18400 46.25300 42.65700
H  45.78800 49.57300 43.55100
H  43.41300 41.23200 43.57200
H  45.56200 40.21700 41.95900
H  45.97400 38.89500 43.58800
H  44.61400 39.61100 44.55100
H  46.30500 40.23900 44.68500
H  42.12700 41.34400 41.67400
H  43.34900 40.15200 41.48500
H  44.71100 42.05200 40.26000
H  43.30400 43.04200 40.46800
H  49.80900 40.32300 41.37600
H  51.12400 40.36600 42.48400
H  51.30600 40.95900 40.68000
H  52.47400 45.78500 41.14900
H  53.92800 44.78700 40.89100
H  53.36200 45.12700 42.57100
H  50.06300 48.79000 42.04900
H  48.53700 49.72100 44.38100
H  51.08600 47.96700 44.63200
H  50.83500 49.77700 44.45700
H  51.83500 48.91200 43.30600
H  47.39700 50.14000 41.59600
H  49.09200 50.72300 41.78900
H  48.43600 52.48900 42.96100
H  47.33900 51.60400 44.02600
H  46.83100 52.14900 42.39700
H  41.68400 49.05900 43.71100
H  43.13400 49.75500 43.08700
H  43.03800 49.60100 44.73000
H  41.53600 43.53200 42.73800
H  41.86400 41.70400 46.51100
H  40.48600 40.87700 45.90500
H  40.36600 42.65400 46.66200
Mg 30.68900 59.03800 40.14400
C  27.70300 57.44800 39.37500
C  32.33000 56.15300 39.30700
C  33.48000 60.85800 39.92300
C  28.82100 62.10700 40.38800
N  30.03900 57.02800 39.56600
C  28.79500 56.58100 39.39600
C  28.76800 55.12800 38.88500
C  30.18300 54.68900 39.23800
C  30.91700 56.03000 39.37100
C  30.29400 53.98400 40.67300
C  28.51200 55.18900 37.26400
C  27.51000 54.16300 36.59300
H  26.61600 54.68300 35.42800
N  32.64100 58.58400 39.77100
C  33.10000 57.32000 39.47800
C  34.55900 57.45200 39.24900
C  34.95500 58.79900 39.53500
C  33.66300 59.46500 39.73000
C  35.39100 56.19800 39.06100
C  36.34300 59.35600 39.71200
O  37.27900 58.60300 39.39200
C  36.79200 60.64800 40.34400
N  31.15300 61.14500 40.16600
C  32.32200 61.66100 40.12800
C  32.36700 63.15000 40.17300
C  30.88000 63.57000 40.37800
C  30.19100 62.17000 40.24800
C  33.39400 63.72200 41.16500
C  30.38800 64.61200 39.36900
C  29.75400 65.86500 39.93400
N  28.72300 59.66100 39.98000
C  28.12100 60.98800 40.08300
C  26.72700 60.81500 39.75200
C  26.62100 59.50300 39.45700
C  27.78200 58.81900 39.59300
C  25.58200 61.81400 39.57800
C  25.62300 58.55900 39.04200
O  24.44500 58.77500 38.89400
C  26.29100 57.20700 38.93800
C  25.54300 56.19000 39.78100
O  25.44100 56.11100 41.04000
O  25.10100 55.17700 38.94500
C  24.93100 53.85300 39.52200
H  32.90900 55.24300 39.13500
H  34.42800 61.39900 39.88500
H  28.26700 63.04800 40.33600
H  27.97300 54.51100 39.30500
H  30.66400 54.02400 38.52100
H  29.33500 53.70000 41.10700
H  30.73000 54.63100 41.43400
H  31.00600 53.17100 40.52500
H  29.49000 54.86600 36.90800
H  28.37900 56.18700 36.84600
H  26.79700 53.74500 37.30500
H  28.16600 53.36500 36.24600
H  34.88100 55.64400 38.27300
H  35.14600 55.63500 39.96200
H  36.36900 56.44200 38.64600
H  37.81700 60.46400 40.66500
H  36.11600 60.93500 41.14900
H  36.77300 61.46100 39.61800
H  32.66200 63.53800 39.19800
H  30.74300 63.96900 41.38300
H  33.86900 62.87200 41.65600
H  32.95000 64.39700 41.89700
H  34.15800 64.31600 40.66500
H  29.58100 64.17100 38.78500
H  31.03700 64.92800 38.55200
H  30.09900 66.61100 39.21800
H  30.14600 66.21000 40.89100
H  28.67000 65.77500 39.85900
H  24.80700 61.57200 40.30600
H  25.22000 61.81200 38.55000
H  25.96700 62.79000 39.87200
H  26.20000 56.81000 37.92700
H  25.91300 53.43700 39.74400
H  24.56300 53.21400 38.71900
H  24.26800 53.89600 40.38600

