158

Mg 0.38200 7.45300 25.85300
C  1.39100 9.57700 28.53700
C  0.69200 4.86500 27.99900
C  -0.14900 5.51300 23.27700
C  1.13700 10.12900 23.61000
N  1.30500 7.33300 27.92900
C  1.35800 8.26500 28.86000
C  1.30700 7.71200 30.32900
C  1.27300 6.20300 30.07600
C  1.16500 6.09500 28.53600
C  2.34700 5.33500 30.76100
C  0.11800 8.25100 31.17000
C  -0.04600 7.51500 32.51700
H  1.19300 6.84300 33.21300
N  0.18100 5.46600 25.77600
C  0.22100 4.55000 26.76500
C  -0.11300 3.22200 26.26500
C  -0.37700 3.37300 24.85200
C  -0.17800 4.86500 24.58400
C  0.02200 1.93100 27.15600
C  -0.76400 2.43900 23.83300
O  -1.00400 2.71000 22.64700
C  -0.91100 0.99600 24.28800
N  0.48300 7.81200 23.68200
C  0.27100 6.79500 22.84500
C  0.29600 7.27500 21.36400
C  0.78100 8.67500 21.45200
C  0.72600 8.95400 22.99900
C  1.01600 6.33200 20.36800
C  -0.02000 9.78100 20.63200
C  0.93000 10.67100 19.74200
N  1.05200 9.49800 25.98600
C  1.19200 10.47800 25.07400
C  1.44700 11.75700 25.72000
C  1.57800 11.43900 27.08100
C  1.35800 10.04300 27.14100
C  1.78200 13.01700 24.99400
C  1.84000 11.94700 28.36700
O  2.11500 13.08300 28.78800
C  1.58900 10.78700 29.36000
C  2.59200 10.71100 30.43300
O  3.64900 10.14200 30.32300
O  2.16900 11.34400 31.61500
C  3.16100 11.29000 32.73100
H  0.62000 4.08300 28.75700
H  -0.49900 4.87600 22.46200
H  1.30800 10.90700 22.86300
H  2.29600 7.91200 30.74000
H  0.30800 5.88500 30.47000
H  3.03400 5.89300 31.39700
H  2.95300 4.92400 29.95300
H  1.86900 4.58600 31.39200
H  -0.79900 8.10800 30.59800
H  0.23200 9.30000 31.44300
H  -0.89700 6.85300 32.35400
H  -0.29500 8.32800 33.19800
H  0.88600 1.30600 26.93100
H  -0.92700 1.41600 27.00500
H  0.02700 2.18300 28.21600
H  -1.16900 0.49700 23.35300
H  -1.77100 0.98100 24.95800
H  0.06100 0.72700 24.70100
H  -0.75300 7.26300 21.06800
H  1.80800 8.65300 21.08600
H  1.35900 5.54400 21.03900
H  1.71000 6.99300 19.84800
H  0.26100 5.97900 19.66600
H  -0.57100 10.46100 21.28100
H  -0.84600 9.38600 20.04000
H  0.82100 10.44000 18.68200
H  1.97700 10.51300 20.00000
H  0.70800 11.70700 20.00000
H  2.43000 13.63900 25.61200
H  0.88400 13.56400 24.70900
H  2.32200 12.72800 24.09200
H  0.69000 11.06300 29.91300
H  4.00100 11.85000 32.31900
H  3.28500 10.26600 33.08100
H  2.73100 11.80600 33.58900
Mg 8.59000 3.06900 27.59600
C  9.84100 1.57800 30.52600
C  6.64400 5.01700 29.66100
C  7.18400 4.34300 24.92200
C  10.15400 0.58000 25.79200
N  8.13900 3.04200 29.87400
C  8.90900 2.42700 30.86400
C  8.58600 2.90000 32.29900
C  7.33000 3.94600 31.98400
C  7.41000 4.03500 30.40300
C  5.92500 3.66300 32.57200
C  9.85700 3.55700 32.92200
C  9.62000 4.31600 34.24000
H  10.49100 4.07700 35.45300
N  7.21100 4.54100 27.35300
C  6.52100 5.25800 28.30600
C  5.70200 6.27200 27.68500
C  5.91100 6.15000 26.28100
C  6.79900 4.96800 26.10900
C  4.83400 7.20800 28.38200
C  5.27500 6.91900 25.21100
O  5.46400 6.68400 24.03800
C  4.21400 7.85200 25.44800
N  8.67800 2.55000 25.70900
C  8.02400 3.23000 24.71800
C  8.28300 2.54600 23.24400
C  9.27700 1.41500 23.62600
C  9.40100 1.54700 25.15300
C  6.99100 1.97900 22.58700
C  10.55200 1.49900 22.78300
C  10.94500 0.13500 22.18200
N  9.80200 1.38700 27.98800
C  10.36900 0.47100 27.14600
C  11.21300 -0.49100 27.84500
C  11.02500 -0.09600 29.21500
C  10.19500 1.06800 29.21100
C  12.10000 -1.64600 27.28000
C  11.30800 -0.47400 30.56600
O  12.07300 -1.34900 30.96900
C  10.54900 0.54700 31.44000
C  9.73500 -0.18100 32.37900
O  8.87000 -1.03600 32.07700
O  10.14200 0.20000 33.64400
C  9.44500 -0.60100 34.73400
H  6.06100 5.66800 30.31600
H  6.76300 4.72300 23.98900
H  10.74600 -0.01200 25.09100
H  8.25800 2.08600 32.94700
H  7.56100 4.92200 32.41100
H  5.74800 4.43800 33.31800
H  5.96400 2.73900 33.14900
H  5.15700 3.70100 31.80000
H  10.26900 4.31100 32.25200
H  10.61500 2.81000 33.15600
H  8.57700 4.34500 34.55600
H  9.79900 5.35600 33.96700
H  4.79000 7.03500 29.45800
H  3.78700 7.06700 28.11300
H  5.11500 8.18700 27.99400
H  4.58300 8.70500 26.01700
H  3.42300 7.32200 25.97800
H  3.66000 8.18500 24.57100
H  8.71500 3.29300 22.57800
H  8.72700 0.49700 23.41600
H  6.24800 1.88100 23.37800
H  7.06200 0.98300 22.14900
H  6.55100 2.65300 21.85300
H  11.39300 1.64700 23.46000
H  10.45100 2.29300 22.04300
H  11.69800 -0.32400 22.82200
H  11.43100 0.43300 21.25300
H  10.06600 -0.49200 22.03300
H  11.81900 -1.86000 26.24900
H  11.99100 -2.60000 27.79600
H  13.14000 -1.33300 27.36800
H  11.33600 0.98900 32.05200
H  9.99600 -1.53900 34.79800
H  8.40100 -0.82400 34.51400
H  9.38500 -0.08400 35.69200

