158

Mg 47.89200 25.88300 28.93900
C  48.71900 27.99100 31.69800
C  46.81600 23.42600 31.21800
C  47.49200 23.63200 26.40500
C  49.43300 28.19900 26.75100
N  47.69900 25.83500 31.13600
C  48.10800 26.81300 32.13500
C  47.71900 26.35200 33.55900
C  47.37500 24.86400 33.33500
C  47.27100 24.66800 31.81500
C  48.41400 23.87700 33.93600
C  46.55900 27.25600 34.15800
C  46.75900 27.84000 35.57900
H  47.30500 27.03200 36.81500
N  47.06700 23.86100 28.81300
C  46.74100 23.10300 29.86600
C  46.13500 21.85300 29.33900
C  46.27000 21.91300 27.86800
C  46.95300 23.15000 27.64600
C  45.54800 20.77800 30.26900
C  45.79600 20.96800 26.80600
O  45.91800 21.14900 25.62200
C  45.23100 19.69000 27.30700
N  48.56100 25.81200 26.85000
C  48.15800 24.82400 25.99500
C  48.46200 25.18000 24.50900
C  49.00200 26.67000 24.62700
C  49.01900 26.93600 26.17300
C  49.48700 24.20100 23.83900
C  48.04800 27.75000 24.01700
C  48.60300 28.86200 23.07800
N  48.82000 27.71000 29.07400
C  49.38900 28.56100 28.14200
C  49.84200 29.71500 28.73100
C  49.61500 29.53700 30.14100
C  48.96100 28.31400 30.29600
C  50.47800 30.91900 28.11800
C  49.76300 30.13700 31.46000
O  50.30200 31.20500 31.83800
C  49.25300 29.13000 32.50000
C  50.42300 28.73700 33.26500
O  51.31500 28.04500 32.87700
O  50.47200 29.43100 34.46600
C  51.74000 29.33500 35.24600
H  46.39400 22.81900 32.02100
H  47.27900 23.11000 25.47000
H  50.03600 28.82300 26.08800
H  48.55000 26.52900 34.24100
H  46.39000 24.77100 33.79300
H  48.14400 22.96200 34.46200
H  48.98800 24.49600 34.62600
H  49.03900 23.61200 33.08300
H  45.63000 26.71700 34.34100
H  46.34000 28.13900 33.55700
H  45.78800 28.18700 35.93500
H  47.27200 28.79400 35.46300
H  44.58400 20.40700 29.92100
H  45.35700 21.15200 31.27400
H  46.30800 20.00600 30.39200
H  45.91000 19.15600 27.97200
H  44.93300 19.01900 26.50200
H  44.25800 19.86200 27.76700
H  47.53500 25.18300 23.93700
H  49.94100 26.85400 24.10500
H  49.10600 23.74200 22.92700
H  49.67400 23.34700 24.49000
H  50.46000 24.68200 23.73500
H  47.61200 28.27900 24.86400
H  47.25300 27.21600 23.49700
H  48.90500 29.71300 23.68800
H  47.86200 29.07400 22.30600
H  49.45300 28.62600 22.43800
H  50.01400 31.74400 28.65700
H  50.38600 31.05700 27.04000
H  51.52200 30.80300 28.41000
H  48.44500 29.60800 33.05400
H  52.65000 29.31500 34.64700
H  51.60900 28.46400 35.88800
H  51.79300 30.23100 35.86500
Mg 42.36600 41.57000 26.37200
C  41.14800 43.95200 28.79000
C  43.64900 39.78800 28.90200
C  43.65900 39.67400 24.02500
C  41.64900 43.99700 23.82000
N  42.36300 41.85600 28.60200
C  41.82200 42.84200 29.37200
C  42.07200 42.58700 30.91100
C  43.03700 41.37000 30.87100
C  42.98200 40.90000 29.40200
C  44.46000 41.71500 31.31900
C  40.66200 42.34600 31.65400
C  40.39500 43.02700 32.98200
H  41.53400 43.29700 33.94700
N  43.36300 39.83800 26.48000
C  43.85400 39.30100 27.65000
C  44.53300 38.09300 27.32000
C  44.43500 37.89700 25.89700
C  43.80300 39.17200 25.39400
C  45.15600 37.27200 28.33800
C  44.85000 36.71500 24.95400
O  44.50800 36.74300 23.78300
C  45.68600 35.57400 25.54500
N  42.64900 41.81700 24.21800
C  43.09900 40.81400 23.49500
C  43.06400 41.09100 22.00300
C  42.24700 42.42200 21.93400
C  42.25500 42.79000 23.42300
C  44.44100 41.11300 21.24200
C  40.73500 42.25800 21.44800
C  39.76500 41.62000 22.45000
N  41.47500 43.55200 26.25700
C  41.35300 44.38900 25.15600
C  40.64100 45.52000 25.64000
C  40.51800 45.48300 27.05200
C  41.12000 44.25600 27.41800
C  40.15200 46.68800 24.78800
C  40.18800 46.22900 28.28400
O  39.76200 47.34900 28.45800
C  40.51400 45.16300 29.43300
C  41.56400 45.81100 30.45200
O  42.74200 45.78000 30.18900
O  40.96900 46.45100 31.52200
C  41.80700 46.87900 32.55600
H  44.02800 39.16800 29.71800
H  44.00700 38.91900 23.31600
H  41.41700 44.70900 23.02500
H  42.52300 43.50100 31.29800
H  42.66200 40.52600 31.44900
H  44.56600 42.76400 31.59400
H  45.21600 41.38000 30.60800
H  44.62000 41.11100 32.21200
H  40.48700 41.27900 31.79000
H  39.94700 42.79000 30.96200
H  39.63100 42.44200 33.49300
H  40.04300 44.03400 32.75900
H  44.51000 36.54900 28.83600
H  45.67100 37.86900 29.09200
H  45.98100 36.68600 27.93100
H  45.38700 35.20300 26.52500
H  46.67800 36.01100 25.42800
H  45.74200 34.73800 24.84800
H  42.46600 40.30000 21.55100
H  42.71200 43.27000 21.43000
H  45.30500 40.90100 21.87200
H  44.53000 42.00400 20.62200
H  44.34200 40.35800 20.46200
H  40.75400 41.59100 20.58600
H  40.42400 43.25700 21.14000
H  40.04100 41.66200 23.50300
H  39.60900 40.57600 22.17600
H  38.78400 42.04400 22.23300
H  39.31000 46.35700 24.18000
H  40.96000 47.06900 24.16400
H  39.97900 47.52800 25.46100
H  39.60900 44.98700 30.01500
H  41.62600 46.35500 33.49500
H  41.69900 47.92200 32.85600
H  42.85300 46.65000 32.35500

