158

Mg 41.02000 8.21300 29.84600
C  42.57600 9.69200 32.72100
C  38.80600 6.60000 32.01600
C  39.90100 6.61300 27.26100
C  43.68200 9.56600 27.81800
N  40.67400 8.31100 32.17400
C  41.54300 8.88000 33.10700
C  40.82500 8.75500 34.47100
C  39.70000 7.66600 34.23600
C  39.71100 7.53400 32.70900
C  39.99900 6.32500 34.91700
C  40.26800 10.09700 34.97500
C  39.66000 10.20600 36.37500
H  40.37400 11.21900 37.31500
N  39.50900 6.87000 29.67500
C  38.71500 6.30600 30.63900
C  37.70400 5.50300 30.00000
C  37.90700 5.57800 28.57400
C  39.18000 6.32500 28.43900
C  36.65800 4.58000 30.68600
C  37.07800 4.97200 27.46600
O  37.25600 5.13900 26.31400
C  35.82500 4.24700 27.75300
N  41.83000 8.00800 27.90200
C  41.01100 7.47500 26.99900
C  41.70100 7.52900 25.59500
C  42.63100 8.78600 25.79300
C  42.74700 8.70600 27.32300
C  42.38200 6.23700 25.08000
C  42.28200 10.18100 25.18400
C  40.86000 10.65100 25.06900
N  42.85800 9.37100 30.13900
C  43.74900 9.87000 29.22900
C  44.66600 10.68500 30.02300
C  44.26400 10.76500 31.36000
C  43.16900 9.86700 31.36900
C  45.74700 11.44600 29.33500
C  44.50700 11.21800 32.67700
O  45.46500 11.89900 33.05700
C  43.42100 10.55000 33.65900
C  44.17100 9.75400 34.65700
O  45.14900 9.05000 34.37300
O  43.71400 10.06800 35.87700
C  44.18900 9.30200 37.06800
H  38.00800 6.10800 32.57600
H  39.50400 6.18100 26.34000
H  44.38500 10.14100 27.21300
H  41.60000 8.35800 35.12700
H  38.78600 8.07400 34.66900
H  41.02700 6.28700 35.27500
H  39.90200 5.60300 34.10700
H  39.39200 6.19900 35.81400
H  39.55200 10.22300 34.16200
H  40.93100 10.95800 34.90200
H  39.94900 9.28500 36.88100
H  38.58800 10.39100 36.43700
H  35.57500 4.64700 30.58200
H  36.76600 4.71500 31.76200
H  36.92700 3.58800 30.32400
H  36.00100 3.29500 28.25300
H  35.28800 4.12500 26.81200
H  35.26700 4.89400 28.43000
H  40.91100 7.85700 24.91900
H  43.60600 8.57200 25.35400
H  43.40800 6.40000 24.74900
H  41.75500 5.84200 24.28100
H  42.43300 5.51200 25.89200
H  42.63900 10.18300 24.15400
H  42.82800 10.91400 25.77800
H  40.24400 10.05000 25.73800
H  40.49400 10.50700 24.05300
H  40.65900 11.69100 25.32500
H  45.50600 11.69400 28.30100
H  46.65300 10.86900 29.52100
H  45.86400 12.32500 29.96900
H  42.88600 11.37600 34.12600
H  44.26700 8.23800 36.84500
H  43.58000 9.54900 37.93800
H  45.21800 9.62500 37.22600
Mg 30.20400 60.20900 41.03100
C  27.18300 58.66900 39.92300
C  31.82700 57.38800 40.30600
C  33.07300 62.02700 41.22700
C  28.38600 63.27200 41.24700
N  29.60700 58.35300 39.91700
C  28.31000 57.88200 39.66500
C  28.32200 56.46700 39.23600
C  29.80000 55.97600 39.56100
C  30.48200 57.29000 39.99700
C  30.01200 54.79600 40.55900
C  27.90200 56.44700 37.75500
C  26.94600 55.32500 37.31200
H  27.02500 54.70200 35.90800
N  32.20200 59.70300 40.76000
C  32.71000 58.51300 40.51100
C  34.14300 58.51900 40.63900
C  34.52100 59.91500 40.92400
C  33.24400 60.62500 40.98300
C  34.98500 57.37600 40.59300
C  36.01300 60.37900 41.03900
O  36.96200 59.63000 40.86900
C  36.32600 61.79000 41.47900
N  30.68100 62.33000 41.14300
C  31.91800 62.77900 41.37600
C  31.93600 64.30600 41.67800
C  30.45300 64.70300 41.69700
C  29.77700 63.35200 41.26700
C  32.71700 64.57700 43.05400
C  30.06300 65.95300 40.84600
C  29.58600 67.18200 41.61700
N  28.22900 60.81100 40.87800
C  27.66500 62.05600 41.00100
C  26.21700 62.00400 40.77600
C  26.00500 60.61500 40.48800
C  27.24200 59.98500 40.45000
C  25.13600 63.11100 40.78100
C  24.96700 59.64500 40.12900
O  23.68300 59.66800 40.05300
C  25.72300 58.32300 39.69600
C  25.21100 57.26100 40.65300
O  25.37100 57.25900 41.87500
O  24.33700 56.44800 39.94900
C  23.41200 55.68600 40.79300
H  32.33100 56.42000 40.25700
H  33.97600 62.63100 41.34100
H  27.86000 64.19300 41.50300
H  27.60000 55.86000 39.78400
H  30.27800 55.65500 38.63500
H  29.26100 54.01900 40.69800
H  30.23800 55.27000 41.51500
H  30.85300 54.15100 40.30400
H  28.76000 56.36600 37.08700
H  27.33600 57.33700 37.47900
H  25.89700 55.57500 37.46800
H  27.17200 54.53500 38.02800
H  35.45500 57.44300 39.61200
H  34.42600 56.44000 40.60600
H  35.64400 57.46700 41.45600
H  36.20600 62.38900 40.57700
H  37.32400 61.84000 41.91300
H  35.69600 62.09600 42.31500
H  32.47400 64.71700 40.82400
H  30.09300 64.86800 42.71200
H  33.42700 65.37000 42.81900
H  33.21600 63.72300 43.51100
H  32.10900 65.03200 43.83600
H  29.32000 65.79900 40.06400
H  30.92700 66.27400 40.26500
H  28.56900 67.43300 41.31600
H  30.11000 68.13800 41.58000
H  29.84800 66.96000 42.65200
H  24.98300 63.50100 41.78700
H  24.27300 62.58300 40.37300
H  25.43500 63.91000 40.10300
H  25.55400 57.96700 38.67900
H  22.61200 56.32200 41.17200
H  23.90000 55.16000 41.61300
H  22.89200 54.89200 40.25700

