158

Mg 16.73900 51.82700 26.49100
C  18.55900 50.30100 29.07400
C  14.34600 52.56500 28.83400
C  14.99200 53.09200 24.02600
C  18.97600 50.29000 24.15200
N  16.59500 51.63900 28.67300
C  17.43700 51.00700 29.51800
C  16.99900 51.16800 31.01500
C  15.57200 51.62100 30.87000
C  15.46600 51.95200 29.41100
C  14.42900 50.67300 31.26500
C  17.88900 52.24500 31.65600
C  17.50400 52.76500 33.02000
H  16.48000 51.95300 33.84300
N  14.94800 52.80100 26.38500
C  14.11000 53.08500 27.49000
C  13.02400 53.98900 27.08000
C  13.24800 54.20100 25.69500
C  14.41000 53.39200 25.29600
C  12.05400 54.64000 28.09700
C  12.42800 55.05300 24.74400
O  12.72700 55.20100 23.59800
C  11.15400 55.68100 25.28400
N  17.10600 51.77400 24.35200
C  16.15900 52.39800 23.56700
C  16.56700 52.37300 22.05900
C  17.93300 51.49800 22.07400
C  17.96300 51.11800 23.59000
C  15.51800 51.77400 20.98100
C  19.28400 52.16500 21.64000
C  20.20800 51.33400 20.71100
N  18.54200 50.60300 26.57100
C  19.30700 50.14600 25.52800
C  20.45400 49.51000 26.13900
C  20.23500 49.51600 27.52800
C  19.02600 50.17700 27.76500
C  21.60700 48.91700 25.26200
C  20.73000 49.13700 28.83600
O  21.80400 48.65600 29.24200
C  19.63500 49.65400 29.89500
C  19.33800 48.55500 30.77700
O  18.73700 47.50000 30.50600
O  19.78300 48.85000 32.01900
C  19.55100 47.76300 33.04000
H  13.50400 52.86300 29.46200
H  14.48500 53.50800 23.15200
H  19.68600 49.96100 23.39100
H  16.94800 50.28500 31.65200
H  15.34500 52.62100 31.24000
H  13.87200 50.96600 32.15500
H  14.82200 49.66400 31.39500
H  13.75300 50.49600 30.42800
H  17.76900 53.11300 31.00800
H  18.91800 51.88500 31.68500
H  17.16100 53.78600 32.85300
H  18.48200 52.69500 33.49800
H  12.02100 55.72800 28.03800
H  12.40200 54.54000 29.12500
H  11.03800 54.26100 27.98400
H  10.74900 56.09500 24.36000
H  11.52900 56.53200 25.85100
H  10.56400 55.07800 25.97400
H  16.67700 53.41500 21.76000
H  17.75000 50.56100 21.54900
H  14.77200 51.18200 21.51200
H  16.03100 51.00700 20.40100
H  14.98000 52.45400 20.32100
H  19.91700 52.51100 22.45600
H  19.00100 53.07200 21.10600
H  20.58000 51.91700 19.86900
H  19.58500 50.54200 20.29600
H  20.99500 50.80700 21.25000
H  21.57600 49.55400 24.37800
H  21.39200 47.89100 24.96500
H  22.53200 48.90300 25.83900
H  20.16300 50.43100 30.44800
H  20.39400 47.11500 32.79700
H  18.59100 47.25600 32.94700
H  19.72700 47.96400 34.09700
Mg -3.35400 34.74800 26.88600
C  -4.88400 33.02500 29.49800
C  -1.86500 36.78400 29.28300
C  -2.45200 36.97800 24.45400
C  -5.61500 33.20600 24.61000
N  -3.50000 34.98700 29.18000
C  -3.97600 33.96900 29.97300
C  -3.63400 34.26200 31.43500
C  -2.77600 35.54800 31.42000
C  -2.69200 35.87600 29.87900
C  -3.22400 36.68300 32.32000
C  -2.96500 33.00900 32.13400
C  -3.53900 32.68800 33.49000
H  -2.58500 33.12000 34.59700
N  -2.25800 36.47000 26.83800
C  -1.67400 37.11900 27.95500
C  -0.80900 38.21500 27.46600
C  -0.92800 38.20900 26.05100
C  -1.95300 37.22100 25.70300
C  0.00200 39.05700 28.41700
C  -0.15100 39.14800 25.03600
O  -0.21200 39.04200 23.81900
C  0.86100 40.03400 25.49400
N  -3.90200 35.01200 24.85200
C  -3.39500 35.99700 24.01700
C  -4.12900 36.02400 22.62500
C  -5.00300 34.69900 22.67100
C  -4.84100 34.25600 24.12100
C  -4.91700 37.39200 22.60300
C  -4.47000 33.63000 21.66300
C  -3.20700 32.69100 22.03500
N  -4.79100 33.19500 26.91300
C  -5.68800 32.70200 25.95000
C  -6.40700 31.63900 26.56100
C  -6.08900 31.72400 27.89300
C  -5.18700 32.74300 28.11700
C  -7.38300 30.73600 25.83500
C  -6.36600 31.09400 29.16800
O  -7.00600 30.13700 29.34700
C  -5.63700 31.91000 30.30100
C  -6.71900 32.51600 31.11300
O  -7.72800 33.09000 30.75700
O  -6.46200 32.24400 32.37300
C  -7.50200 32.48600 33.43700
H  -1.19200 37.30500 29.96700
H  -2.18600 37.73500 23.71300
H  -6.39300 32.82100 23.94800
H  -4.55700 34.45700 31.98100
H  -1.74100 35.30200 31.66000
H  -4.10100 36.33300 32.86400
H  -3.41700 37.63600 31.82900
H  -2.35900 36.80900 32.97200
H  -1.95000 33.35900 32.32300
H  -2.81900 32.08900 31.56700
H  -3.64200 31.60400 33.53900
H  -4.49100 33.21000 33.59000
H  1.06300 39.08500 28.17100
H  -0.00200 38.86200 29.49000
H  -0.28900 40.08500 28.20100
H  1.42200 40.39500 24.63100
H  1.63200 39.47800 26.02700
H  0.33700 40.73600 26.14300
H  -3.32600 36.05700 21.88900
H  -6.04700 34.98400 22.53800
H  -5.95000 37.19700 22.31700
H  -4.45800 38.07000 21.88300
H  -5.08800 37.88400 23.56100
H  -4.25800 34.21600 20.76900
H  -5.41100 33.11400 21.47500
H  -2.71600 33.07000 22.93200
H  -2.45700 32.67000 21.24500
H  -3.61500 31.71900 22.31300
H  -8.16300 30.41900 26.52700
H  -6.91900 29.82100 25.46700
H  -7.80400 31.27100 24.98400
H  -4.97400 31.35400 30.96300
H  -6.89200 32.57300 34.33600
H  -8.18000 31.64900 33.59900
H  -8.12900 33.35800 33.25000

