158

Mg -1.99100 17.38700 27.08000
C  -2.54200 15.31800 29.81400
C  -2.82100 20.12600 28.99700
C  -1.82800 19.37500 24.36800
C  -2.09900 14.54600 24.98400
N  -2.74800 17.56100 29.07500
C  -2.64800 16.67000 30.11900
C  -2.83700 17.31200 31.48600
C  -3.15400 18.77300 31.15000
C  -2.85800 18.85400 29.60700
C  -4.54200 19.26200 31.55100
C  -1.64300 17.19200 32.48700
C  -2.01600 16.41000 33.83200
H  -0.85500 16.22700 34.92100
N  -2.06900 19.52800 26.76500
C  -2.46700 20.40900 27.69000
C  -2.55000 21.75400 27.09400
C  -2.04100 21.56100 25.77700
C  -1.98500 20.10600 25.57400
C  -3.01200 23.01100 27.75700
C  -1.72400 22.49600 24.74700
O  -1.60100 22.16200 23.54900
C  -1.48400 23.95600 25.10400
N  -2.01700 17.03500 24.98100
C  -1.90700 17.98100 24.05300
C  -1.69700 17.51800 22.62000
C  -1.54200 15.97300 22.84400
C  -1.88000 15.78800 24.37600
C  -2.77900 18.00600 21.66200
C  -0.21400 15.38000 22.34600
C  1.08600 15.92200 22.95000
N  -2.16500 15.36900 27.36500
C  -2.27500 14.35300 26.37100
C  -2.61500 13.20700 27.03300
C  -2.57400 13.46200 28.37200
C  -2.33400 14.80900 28.54900
C  -2.97700 11.83800 26.38400
C  -2.75900 12.88200 29.67300
O  -3.15800 11.77400 29.99800
C  -2.56700 14.07200 30.69300
C  -1.29700 13.81100 31.50000
O  -0.21900 14.33900 31.25800
O  -1.46200 12.79800 32.39500
C  -0.35600 12.40500 33.28800
H  -2.95400 20.98500 29.65800
H  -1.70200 19.91700 23.42800
H  -2.07300 13.66000 24.34500
H  -3.60800 16.73400 31.99500
H  -2.45400 19.39300 31.71000
H  -5.03500 19.40400 30.59000
H  -4.67100 20.18400 32.11800
H  -5.12900 18.47400 32.02200
H  -1.25200 18.13700 32.86400
H  -0.70500 16.78500 32.11000
H  -2.39900 15.40900 33.63600
H  -2.80600 16.92200 34.38200
H  -3.67700 23.45600 27.01700
H  -2.18700 23.67200 28.02400
H  -3.58400 22.76200 28.65000
H  -0.71100 24.39600 24.47500
H  -1.20900 24.12600 26.14500
H  -2.37700 24.56300 24.95400
H  -0.79900 17.98400 22.21400
H  -2.35200 15.46100 22.32400
H  -3.68000 17.45800 21.93600
H  -2.58800 17.80500 20.60800
H  -2.95600 19.08200 21.67900
H  -0.23600 15.61300 21.28100
H  -0.33400 14.29900 22.41400
H  1.75000 16.47300 22.28400
H  1.64000 15.05200 23.30300
H  0.82100 16.72000 23.64300
H  -2.70200 10.96800 26.98100
H  -2.33200 11.56200 25.55000
H  -4.00800 11.88100 26.03100
H  -3.41400 14.03200 31.37800
H  -0.81200 12.00300 34.19200
H  0.38900 13.13100 33.61400
H  0.12500 11.46000 33.03300
Mg 54.42900 24.45100 44.39800
C  51.70000 26.46500 43.40900
C  52.76900 21.70600 43.24400
C  57.32300 22.64400 44.55400
C  56.14900 27.45100 44.98400
N  52.43200 24.14100 43.46000
C  51.50100 25.07800 43.17200
C  50.31400 24.41200 42.40600
C  50.49700 22.91600 42.82500
C  51.96000 22.89700 43.26900
C  49.55300 22.39000 43.98900
C  50.32200 24.65800 40.90000
C  48.86700 24.51700 40.28300
H  48.80400 24.24200 38.74000
N  54.94300 22.43000 44.09800
C  54.08500 21.47000 43.65500
C  54.77400 20.20400 43.62600
C  56.12500 20.49000 44.00900
C  56.17300 21.89200 44.22800
C  54.09000 18.82800 43.20600
C  57.31200 19.50900 43.87300
O  57.10500 18.34100 43.71300
C  58.71200 19.87500 43.59100
N  56.48600 24.96800 44.44700
C  57.47100 24.01600 44.58900
C  58.83100 24.74000 44.80800
C  58.43300 26.19300 45.10700
C  56.90100 26.19000 44.86300
C  59.85500 24.21800 45.82300
C  59.35000 27.25500 44.44500
C  59.83300 28.43300 45.32000
N  54.03800 26.56500 44.39500
C  54.77000 27.62400 44.73000
C  54.01400 28.83200 44.64900
C  52.75600 28.41200 44.17000
C  52.83900 27.04200 43.97800
C  54.44800 30.24900 45.18000
C  51.47300 28.88000 43.92300
O  50.89000 29.87800 44.17300
C  50.83000 27.71600 43.12000
C  50.74800 28.07400 41.67800
O  51.66500 28.46800 40.92100
O  49.44400 27.99700 41.26300
C  49.17000 28.21700 39.77700
H  52.17500 20.82800 42.98300
H  58.25600 22.08300 44.63200
H  56.79800 28.30400 45.18700
H  49.35800 24.80600 42.75300
H  50.42600 22.29300 41.93300
H  48.59000 22.89200 44.07900
H  50.09200 22.60100 44.91300
H  49.36800 21.32100 43.87600
H  50.87100 23.90300 40.33800
H  50.64300 25.69500 40.79400
H  48.45800 25.52500 40.34600
H  48.25400 23.85600 40.89600
H  54.42300 18.43100 42.24700
H  53.00200 18.83700 43.13800
H  54.44100 18.07900 43.91500
H  58.84800 20.68700 42.87700
H  59.08100 18.95200 43.14300
H  59.25500 20.09500 44.51000
H  59.35400 24.74200 43.85200
H  58.49000 26.43100 46.16900
H  59.33900 24.06400 46.77100
H  60.48400 25.07300 46.07200
H  60.41200 23.35400 45.46100
H  58.70700 27.61500 43.64200
H  60.22100 26.74100 44.03900
H  60.92000 28.49200 45.37500
H  59.45400 28.27900 46.33000
H  59.46600 29.36500 44.89200
H  53.84200 31.07800 44.81300
H  55.47100 30.54200 44.94400
H  54.43200 30.28300 46.26900
H  49.82200 27.54200 43.49500
H  48.93700 29.27300 39.91100
H  48.31400 27.62900 39.44600
H  50.06900 28.15200 39.16400

