158

Mg 39.93900 9.12000 28.91500
C  41.86100 10.25500 31.55200
C  37.65400 7.76600 31.07300
C  38.18400 8.01400 26.25700
C  42.60400 9.90900 26.76300
N  39.90600 8.91600 31.06100
C  40.71800 9.54400 31.92900
C  40.15900 9.51200 33.32800
C  38.92500 8.52100 33.19500
C  38.76700 8.43200 31.67800
C  38.96900 7.19300 33.93800
C  39.85100 10.91700 33.86100
C  39.51000 11.17500 35.34800
H  40.50300 11.96100 36.19400
N  38.16000 8.06000 28.72200
C  37.29700 7.61300 29.72300
C  36.03800 7.12500 29.20800
C  36.22400 7.20900 27.73600
C  37.56800 7.79600 27.49700
C  34.85700 6.58700 30.03100
C  35.23600 6.99200 26.71900
O  35.49700 7.09200 25.51800
C  33.75100 6.59500 27.06300
N  40.41600 8.94300 26.83100
C  39.44900 8.52000 25.86200
C  40.00100 8.41200 24.41600
C  41.42500 9.11300 24.61800
C  41.52600 9.35200 26.15600
C  39.98100 6.98200 23.87500
C  41.45300 10.59600 23.92100
C  40.73800 11.81500 24.52700
N  41.81700 10.04200 29.03000
C  42.77700 10.33000 28.11200
C  43.88000 11.02700 28.71600
C  43.63500 11.00700 30.12700
C  42.34000 10.41100 30.21500
C  45.06900 11.61400 28.01400
C  44.11900 11.29200 31.43800
O  45.18100 11.75700 31.87600
C  42.94600 10.94300 32.42400
C  43.42200 10.10900 33.50500
O  44.16900 9.16600 33.33600
O  42.96000 10.63200 34.67300
C  43.36500 10.04600 35.90500
H  36.96600 7.37200 31.82400
H  37.62300 7.78400 25.34900
H  43.45900 10.05600 26.10000
H  40.83900 9.06600 34.05400
H  38.04300 9.07600 33.51600
H  39.81700 7.22600 34.62200
H  39.05400 6.36700 33.23200
H  38.04300 7.10100 34.50500
H  38.94200 11.22900 33.34700
H  40.74900 11.47900 33.60400
H  39.56200 10.13800 35.67700
H  38.50900 11.60800 35.34000
H  34.89800 6.76400 31.10500
H  34.62500 5.53500 29.86100
H  33.97300 7.14000 29.71100
H  33.59100 5.95500 27.93100
H  33.25300 6.14200 26.20600
H  33.18700 7.49900 27.29400
H  39.46700 9.01000 23.67700
H  42.29900 8.51600 24.35500
H  39.09100 6.85000 23.25900
H  39.88300 6.42100 24.80400
H  40.91000 6.81500 23.33100
H  41.04700 10.40300 22.92900
H  42.52500 10.74800 23.79100
H  40.12000 11.55400 25.38700
H  39.96400 12.13200 23.82900
H  41.41800 12.65800 24.64700
H  44.64200 11.81600 27.03200
H  45.82600 10.83000 27.99400
H  45.46100 12.54200 28.43200
H  42.59100 11.89800 32.81200
H  42.49700 9.88100 36.54300
H  44.03700 10.79200 36.32900
H  43.92900 9.11300 35.90200
Mg -11.81100 38.57900 40.76900
C  -9.55500 35.91200 40.27100
C  -9.37100 40.66900 39.18100
C  -13.99300 41.03900 40.43900
C  -14.15800 36.26200 41.85700
N  -9.63400 38.32400 39.87200
C  -8.97200 37.14100 39.75800
C  -7.73300 37.28100 38.88000
C  -7.46000 38.83000 39.03800
C  -8.91500 39.32800 39.37300
C  -6.28700 39.07100 39.99400
C  -7.96800 36.81000 37.45200
C  -6.95100 35.81600 36.90000
H  -6.02900 36.31200 35.74000
N  -11.68700 40.64500 39.95400
C  -10.65100 41.25000 39.38200
C  -10.98000 42.68600 39.19300
C  -12.29400 42.84400 39.56500
C  -12.74600 41.48700 40.02400
C  -10.15600 43.71200 38.49900
C  -13.19800 44.11200 39.40200
O  -12.76500 45.15200 38.87200
C  -14.60900 44.20700 39.86900
N  -13.78400 38.59800 40.88800
C  -14.49800 39.76700 40.83900
C  -15.89400 39.67500 41.50200
C  -15.90400 38.14000 41.93300
C  -14.54700 37.58900 41.57300
C  -15.99700 40.58700 42.65600
C  -17.06800 37.26800 41.29700
C  -18.21600 37.02200 42.24900
N  -11.87700 36.53400 41.15800
C  -12.90200 35.74500 41.61600
C  -12.35300 34.36700 41.89000
C  -11.07600 34.39000 41.29100
C  -10.81600 35.74100 40.90800
C  -12.97800 33.11000 42.62100
C  -9.84200 33.59200 40.91500
O  -9.61300 32.41200 41.11100
C  -8.88000 34.52900 40.18900
C  -7.62500 34.47100 40.85700
O  -6.63600 33.92800 40.34700
O  -7.70600 35.19100 42.02400
C  -6.64500 35.19800 43.03800
H  -8.58700 41.37700 38.90200
H  -14.83800 41.73100 40.41800
H  -14.96900 35.64400 42.24900
H  -6.93800 36.68000 39.32400
H  -7.23500 39.30300 38.08200
H  -5.52300 38.29700 39.92600
H  -6.71500 38.90400 40.98300
H  -5.84500 40.06700 39.99200
H  -8.04300 37.69800 36.82400
H  -8.97500 36.39300 37.42000
H  -7.36900 34.83000 36.69700
H  -6.24200 35.58900 37.69700
H  -10.43100 43.98700 37.48000
H  -9.12400 43.36200 38.52900
H  -10.07100 44.58200 39.15000
H  -14.64600 43.88500 40.91000
H  -15.24700 43.58300 39.24300
H  -15.08500 45.17800 39.72900
H  -16.60600 39.88300 40.70300
H  -15.93100 38.05400 43.02000
H  -16.53100 41.53100 42.55200
H  -14.99800 40.93600 42.91700
H  -16.45600 40.16400 43.54900
H  -16.69800 36.33500 40.87300
H  -17.52100 37.73700 40.42300
H  -18.19900 37.48800 43.23400
H  -18.26800 35.94500 42.40900
H  -19.14900 37.25400 41.73600
H  -12.58400 32.14100 42.31500
H  -14.06500 33.14100 42.55900
H  -12.74000 33.46100 43.62600
H  -8.84500 34.22600 39.14200
H  -5.93900 34.39800 42.81100
H  -7.17500 35.04000 43.97700
H  -6.11300 36.14600 43.10400

