158

Mg 54.35200 24.68900 44.50000
C  51.45800 26.55700 43.73700
C  52.81300 21.84500 43.50400
C  57.36800 23.15700 44.87900
C  55.84400 27.65300 45.49400
N  52.44700 24.32700 43.55300
C  51.39200 25.22900 43.30400
C  50.13500 24.42200 42.86900
C  50.64900 22.97400 42.97600
C  52.09200 23.05100 43.36400
C  49.81900 22.11200 43.98200
C  49.66200 24.82800 41.38700
C  48.34700 24.17100 40.94900
H  48.25300 23.39600 39.63200
N  55.08000 22.73700 44.10100
C  54.23700 21.67200 43.80000
C  55.07000 20.47600 43.89500
C  56.38400 20.79400 44.25600
C  56.35700 22.27200 44.37700
C  54.51500 19.13200 43.58000
C  57.45500 19.78400 44.50300
O  57.20700 18.61100 44.36200
C  58.80500 20.15100 44.99900
N  56.40200 25.35600 44.97600
C  57.43800 24.54200 45.09800
C  58.76500 25.25100 45.56500
C  58.21200 26.72800 45.54100
C  56.73600 26.60400 45.24800
C  59.28800 24.86300 47.00300
C  58.87000 27.68300 44.47600
C  59.37800 28.99500 45.06500
N  53.77600 26.68500 44.86100
C  54.44700 27.69900 45.34500
C  53.54500 28.87000 45.43100
C  52.36400 28.43400 44.78800
C  52.60000 27.15800 44.40600
C  53.82400 30.17700 46.11300
C  51.01100 28.86500 44.35100
O  50.41200 29.94300 44.37700
C  50.37900 27.66400 43.56900
C  50.07300 28.05200 42.12800
O  50.86500 28.35100 41.22800
O  48.71000 27.97800 42.03400
C  48.14400 28.43100 40.76100
H  52.34400 20.86900 43.35800
H  58.28200 22.68600 45.24600
H  56.40400 28.55500 45.75200
H  49.33100 24.79500 43.50300
H  50.62800 22.54200 41.97600
H  49.12000 22.78400 44.47800
H  50.54800 21.71100 44.68600
H  49.25000 21.31200 43.50900
H  50.40600 24.49800 40.66200
H  49.67600 25.91700 41.35700
H  47.70800 25.03500 40.76600
H  47.89300 23.64900 41.79100
H  55.10600 18.76400 42.74100
H  53.42500 19.13000 43.55200
H  54.76800 18.48300 44.41800
H  59.09200 21.09300 44.53200
H  59.39000 19.30300 44.64400
H  58.90900 20.09900 46.08300
H  59.56700 25.00700 44.86800
H  58.31800 27.27900 46.47600
H  59.54700 25.76800 47.55200
H  60.13100 24.19700 46.81900
H  58.54300 24.38500 47.63900
H  58.10900 27.81600 43.70700
H  59.63800 26.99400 44.12500
H  60.46800 28.98800 45.06100
H  59.06100 29.17400 46.09300
H  58.96400 29.84100 44.51700
H  54.21700 30.78900 45.30100
H  54.57500 30.04100 46.89100
H  52.95900 30.62000 46.60600
H  49.55000 27.31200 44.18300
H  47.84500 29.47800 40.81400
H  47.12500 28.06600 40.63900
H  48.85100 28.31800 39.94000
Mg 0.44300 43.23200 26.40200
C  2.71800 43.50700 29.10800
C  -2.12500 42.75000 28.68800
C  -1.52500 42.96900 23.79800
C  3.16900 43.67000 24.24200
N  0.34000 43.25600 28.62200
C  1.39200 43.36800 29.48500
C  0.83300 43.44000 30.95100
C  -0.64700 42.95400 30.76800
C  -0.86000 43.00100 29.26000
C  -1.07600 41.57600 31.36600
C  0.98000 44.88200 31.56400
C  1.04300 44.97300 33.09200
H  0.75700 43.67100 33.86200
N  -1.43600 42.80800 26.26600
C  -2.36200 42.72600 27.31600
C  -3.72300 42.58600 26.70800
C  -3.57000 42.56700 25.24200
C  -2.15100 42.76200 25.03100
C  -4.95400 42.36000 27.66500
C  -4.66500 42.50900 24.25600
O  -4.48600 42.46700 23.04300
C  -6.09600 42.61800 24.67000
N  0.86200 42.93900 24.19800
C  -0.18500 43.09500 23.37600
C  0.24000 43.14000 21.88800
C  1.73600 43.67000 22.02600
C  1.97400 43.41000 23.53100
C  -0.05100 41.79900 21.17100
C  1.97900 45.17100 21.71900
C  3.24000 45.58700 20.97200
N  2.46500 43.45400 26.64100
C  3.44200 43.56600 25.61900
C  4.76300 43.67100 26.27300
C  4.53600 43.61100 27.63900
C  3.09200 43.56900 27.79700
C  6.03800 44.02600 25.59300
C  5.11100 43.57300 28.89500
O  6.27500 43.52900 29.17900
C  3.96600 43.42700 29.94100
C  4.22100 42.10900 30.73100
O  4.32400 40.95800 30.26100
O  4.24000 42.41100 32.08200
C  4.23500 41.32500 33.02600
H  -2.98600 42.50000 29.31000
H  -2.24400 42.81700 22.99000
H  4.08000 43.84100 23.66500
H  1.39000 42.76000 31.59500
H  -1.36000 43.61300 31.26400
H  -1.94800 41.63700 32.01700
H  -0.22100 41.21300 31.93700
H  -1.32900 41.00900 30.47000
H  0.19300 45.39700 31.01300
H  1.93800 45.20200 31.15600
H  0.37700 45.74200 33.48400
H  2.00400 45.38700 33.39800
H  -5.89500 42.42800 27.11900
H  -4.99200 43.14600 28.42000
H  -4.91000 41.40300 28.18500
H  -6.77700 42.75500 23.83100
H  -6.18100 43.46100 25.35600
H  -6.29300 41.77300 25.33000
H  -0.51700 43.77900 21.43300
H  2.44900 43.01400 21.52700
H  -0.44900 41.95000 20.16800
H  -0.74800 41.18900 21.74600
H  0.86900 41.24700 20.97700
H  1.96600 45.77300 22.62800
H  1.08400 45.53700 21.21500
H  3.14000 45.56700 19.88600
H  4.07200 45.02000 21.38800
H  3.52000 46.59400 21.27900
H  6.64100 44.75400 26.13500
H  5.96700 44.53500 24.63200
H  6.71100 43.20300 25.35500
H  4.06900 44.22800 30.67300
H  5.19500 40.84300 32.83900
H  3.45700 40.60400 32.77500
H  4.36000 41.67500 34.05100

