158

Mg 26.01800 0.95600 28.55400
C  27.80100 0.35700 31.52000
C  23.16500 1.26700 30.40800
C  24.28900 0.81400 25.78300
C  28.91400 0.20500 26.67800
N  25.57900 0.77500 30.83400
C  26.45000 0.68300 31.83900
C  25.83200 0.88400 33.22600
C  24.34000 1.24300 32.81000
C  24.30700 1.07200 31.23100
C  23.27100 0.35500 33.46300
C  26.52700 1.97400 34.10000
C  27.09100 1.50300 35.51300
H  26.76900 2.38400 36.73100
N  24.01500 0.96200 28.14500
C  23.00500 1.21600 29.01200
C  21.72400 1.31500 28.31400
C  22.03000 1.15300 26.92100
C  23.50800 0.98600 26.91500
C  20.39300 1.45100 28.96500
C  21.16700 1.06700 25.68000
O  21.59100 0.93800 24.54300
C  19.62800 0.99400 25.98400
N  26.54100 0.59000 26.50200
C  25.62200 0.61800 25.55500
C  26.16500 0.57000 24.14500
C  27.73500 0.70500 24.41500
C  27.77500 0.41900 25.96300
C  25.62500 -0.58400 23.27900
C  28.25100 2.16200 24.03000
C  28.15000 3.42100 24.91000
N  27.98500 0.55200 28.94200
C  29.03300 0.22200 28.07100
C  30.16800 -0.07900 28.90600
C  29.81100 0.00600 30.20100
C  28.42300 0.35500 30.21400
C  31.61100 -0.51100 28.35800
C  30.23500 -0.15200 31.59000
O  31.28200 -0.53000 32.08300
C  28.94300 0.16800 32.42500
C  28.69700 -0.95700 33.30500
O  27.90900 -1.88900 33.05100
O  29.32700 -0.74400 34.43700
C  29.02000 -1.66300 35.52000
H  22.25900 1.53900 30.95300
H  23.81900 0.84200 24.79800
H  29.82700 -0.01500 26.12200
H  25.79800 -0.09900 33.69500
H  24.19700 2.31600 32.93900
H  23.53100 -0.70100 33.38800
H  22.31900 0.52300 32.96000
H  23.11000 0.62400 34.50700
H  25.78100 2.73000 34.34500
H  27.30100 2.47100 33.51500
H  28.17300 1.63300 35.46700
H  26.75300 0.48800 35.72400
H  20.47000 1.65200 30.03400
H  19.84300 0.52800 28.78000
H  19.73000 2.21700 28.56200
H  19.37300 0.33200 26.81100
H  19.23700 0.37800 25.17400
H  19.27200 2.00600 26.17500
H  25.80100 1.51200 23.73600
H  28.27400 -0.05300 23.84700
H  24.92100 -1.17200 23.87000
H  26.48700 -1.14000 22.91000
H  25.25900 -0.00700 22.43000
H  27.95900 2.53300 23.04700
H  29.32700 2.09600 23.87200
H  28.06900 3.21300 25.97700
H  27.28700 4.02200 24.62400
H  29.02100 4.07600 24.90900
H  32.07700 0.30400 27.80400
H  31.54700 -1.30600 27.61500
H  32.23800 -0.85300 29.18100
H  29.28700 1.04300 32.97800
H  27.94200 -1.60700 35.66800
H  29.60100 -1.41900 36.41000
H  29.09600 -2.72300 35.27400
Mg 48.11800 34.96600 27.86000
C  46.08400 33.25500 30.28700
C  48.43800 37.42100 30.07200
C  49.37200 36.70300 25.42900
C  47.42400 32.18800 25.67700
N  47.44000 35.23800 29.90800
C  46.73600 34.35600 30.76000
C  46.73100 34.87000 32.19400
C  47.10300 36.34500 31.96100
C  47.73800 36.33500 30.58600
C  45.87900 37.40000 32.04600
C  47.71300 34.10300 33.21300
C  47.69600 34.45100 34.66400
H  47.01500 35.64600 35.16200
N  48.88400 36.86400 27.81300
C  49.04600 37.74100 28.83600
C  49.58700 38.89400 28.31400
C  49.78200 38.78000 26.95100
C  49.30400 37.40900 26.62600
C  49.76100 40.17100 29.23000
C  50.32900 39.80200 25.94300
O  50.45800 39.55300 24.73500
C  50.99900 41.07800 26.38900
N  48.28900 34.53000 25.85800
C  48.97200 35.44500 25.07200
C  49.11400 34.93700 23.60400
C  48.52000 33.42800 23.66100
C  48.09300 33.33600 25.16900
C  48.46600 35.83700 22.50600
C  49.54600 32.24000 23.39300
C  49.06300 31.02000 22.60400
N  47.01500 33.04800 27.86200
C  46.81700 32.03900 26.91900
C  46.03500 30.95100 27.51000
C  45.69800 31.43600 28.79600
C  46.37400 32.71600 29.00000
C  45.68700 29.57500 26.92300
C  44.89400 31.08200 29.95000
O  44.31600 30.04100 30.24100
C  44.99400 32.37600 30.86000
C  45.22200 31.84000 32.16600
O  46.20300 31.20900 32.50700
O  44.18500 32.12400 32.99800
C  44.42900 31.83600 34.40100
H  48.56900 38.24300 30.77800
H  49.77200 37.21600 24.55200
H  47.29500 31.29200 25.06600
H  45.72200 34.79300 32.59900
H  47.85100 36.63700 32.69800
H  45.91300 38.12700 31.23500
H  45.92500 38.01300 32.94700
H  44.90900 36.90600 32.09900
H  48.73900 34.25300 32.87700
H  47.40100 33.07500 33.03100
H  48.73200 34.61900 34.95700
H  47.30700 33.66300 35.30800
H  50.78400 40.53300 29.33300
H  49.37800 39.99700 30.23600
H  49.09800 40.88800 28.74400
H  51.19600 41.25000 27.44800
H  50.46500 41.86400 25.85500
H  52.00900 41.00100 25.98600
H  50.16500 34.93200 23.31400
H  47.63000 33.35200 23.03600
H  48.02000 36.73000 22.94500
H  47.77500 35.32200 21.83800
H  49.25600 36.24100 21.87300
H  49.84700 31.97100 24.40600
H  50.34600 32.78600 22.89300
H  49.70900 30.91700 21.73200
H  48.03300 31.24800 22.32700
H  49.05000 30.05800 23.11600
H  45.56600 28.95100 27.80900
H  46.56700 29.27200 26.35500
H  44.83600 29.60200 26.24300
H  44.01800 32.85800 30.91900
H  44.42400 30.76600 34.60600
H  43.62800 32.24700 35.01600
H  45.33400 32.33900 34.74100

