158

Mg -1.06600 7.46800 26.20800
C  -0.01000 9.63000 28.72900
C  -0.90200 4.88600 28.43000
C  -1.59700 5.35900 23.63500
C  -0.59200 10.08300 23.98400
N  -0.28800 7.26000 28.32700
C  -0.15400 8.28200 29.20800
C  -0.41400 7.85800 30.64700
C  -0.30200 6.31400 30.53500
C  -0.45700 6.12900 29.03300
C  0.98400 5.61900 31.10100
C  -1.75200 8.40600 31.29500
C  -1.53500 8.99300 32.69200
H  -0.61700 8.19500 33.69300
N  -1.28900 5.41000 26.05900
C  -1.24500 4.49300 27.12800
C  -1.73200 3.20700 26.62500
C  -1.79600 3.28300 25.17000
C  -1.51000 4.69300 24.86800
C  -1.97000 2.00200 27.48900
C  -2.07100 2.18600 24.13000
O  -1.96000 2.44700 22.94500
C  -2.41400 0.70500 24.52500
N  -0.81000 7.54600 24.08000
C  -1.25000 6.62000 23.24700
C  -1.23100 7.10700 21.77400
C  -1.04000 8.67300 21.93300
C  -0.85500 8.81100 23.48500
C  -0.19100 6.41000 20.83100
C  -2.30100 9.52400 21.41500
C  -3.46200 10.00900 22.35700
N  -0.51000 9.49800 26.29900
C  -0.36100 10.41600 25.31200
C  -0.10700 11.67800 25.83100
C  0.08500 11.42800 27.26500
C  -0.17300 10.12300 27.40400
C  0.03700 12.94500 25.02600
C  0.37600 11.99200 28.53500
O  0.64200 13.12300 28.87400
C  0.26700 10.82600 29.61500
C  1.60200 10.75200 30.39000
O  2.70900 10.34700 30.00700
O  1.26300 11.17400 31.63000
C  2.27100 11.17400 32.65200
H  -1.03700 4.03200 29.09700
H  -1.81800 4.77600 22.73800
H  -0.54200 10.84700 23.20500
H  0.49700 8.20100 31.13700
H  -1.13900 5.84300 31.05100
H  0.75100 4.93800 31.92000
H  1.71400 6.40900 31.28200
H  1.43100 5.01700 30.31100
H  -2.45600 7.57400 31.32400
H  -2.24000 9.20900 30.74300
H  -2.51800 9.04100 33.16000
H  -1.20800 10.00500 32.45400
H  -1.51300 1.09400 27.09600
H  -3.04300 1.82600 27.56600
H  -1.57800 1.95100 28.50500
H  -3.02800 0.64000 25.42400
H  -1.53400 0.09900 24.74400
H  -2.90400 0.20500 23.69000
H  -2.20700 6.85500 21.35900
H  -0.13100 9.06400 21.47600
H  0.48500 7.18700 20.47400
H  -0.80500 5.88000 20.10300
H  0.32100 5.65100 21.42200
H  -2.76300 8.84200 20.70100
H  -1.85800 10.37500 20.89800
H  -4.45800 9.69300 22.04900
H  -3.46800 11.09900 22.36500
H  -3.24100 9.67100 23.36900
H  1.06200 13.30500 25.10800
H  -0.68500 13.55100 25.57200
H  -0.32200 13.03400 24.00000
H  -0.54700 10.96600 30.32600
H  3.31900 10.95000 32.44800
H  1.88500 10.37600 33.28600
H  2.32500 12.08100 33.25500
Mg 35.06500 3.09500 30.20800
C  32.73400 3.94100 32.63800
C  37.40600 2.98200 32.61300
C  37.26100 2.48200 27.74600
C  32.53000 3.52800 27.73200
N  35.06800 3.40400 32.35500
C  33.97800 3.75400 33.14700
C  34.36000 3.75200 34.63100
C  36.00600 3.76200 34.51200
C  36.19500 3.46300 33.04800
C  36.76200 5.02100 35.04200
C  33.80700 2.55700 35.44000
C  33.45600 2.74700 36.92600
H  34.07500 3.90500 37.73000
N  37.13900 2.68200 30.23200
C  37.93000 2.59100 31.32000
C  39.20900 2.12400 30.98700
C  39.14700 1.91900 29.57200
C  37.80300 2.37200 29.10800
C  40.28800 1.72200 31.98100
C  40.23100 1.52400 28.60200
O  40.06500 1.30900 27.38500
C  41.60800 1.14700 29.14900
N  34.94600 3.17900 28.02800
C  35.97600 2.83000 27.26200
C  35.64800 2.76400 25.77700
C  34.12600 2.98900 25.77400
C  33.84700 3.22400 27.23400
C  36.44400 3.72300 24.89600
C  33.29500 1.81900 25.19000
C  32.88100 0.66000 26.18000
N  33.12500 3.76500 30.16000
C  32.20000 3.84900 29.07700
C  30.91300 4.11400 29.60800
C  31.11000 4.16200 30.97900
C  32.41700 3.91800 31.28800
C  29.66000 4.47900 28.77000
C  30.37600 4.48500 32.23200
O  29.24800 4.92000 32.44000
C  31.40500 4.15100 33.37600
C  31.33900 5.35400 34.26100
O  31.88500 6.40900 34.06900
O  30.69700 5.02600 35.50000
C  30.68700 6.22100 36.42000
H  38.19600 2.83400 33.35200
H  37.92600 2.08900 26.97400
H  31.72600 3.46000 26.99600
H  33.97200 4.70300 34.99600
H  36.52000 2.96500 35.04900
H  37.28900 4.77600 35.96400
H  35.97700 5.73800 35.28100
H  37.56600 5.41500 34.42000
H  34.65300 1.87000 35.45600
H  32.98300 2.06000 34.92800
H  33.71500 1.78600 37.37100
H  32.37600 2.81300 37.05500
H  41.21400 2.27300 31.82000
H  40.48200 0.65300 31.88600
H  39.93900 1.90800 32.99700
H  41.90700 2.02200 29.72600
H  42.31000 1.00700 28.32700
H  41.36900 0.22500 29.67900
H  35.86300 1.71100 25.59500
H  33.73800 3.90000 25.31800
H  35.91400 4.41100 24.23700
H  37.13300 3.20700 24.22700
H  37.11600 4.36600 25.46400
H  33.95000 1.52200 24.37000
H  32.34500 2.25100 24.87700
H  31.91900 0.26200 25.85400
H  32.88400 0.82500 27.25700
H  33.59100 -0.14500 25.98800
H  29.72200 5.52100 28.45400
H  28.91900 4.43000 29.56800
H  29.56600 3.69900 28.01400
H  31.11000 3.28100 33.96300
H  30.37800 7.22300 36.12100
H  31.62300 6.19600 36.97700
H  29.82100 6.07900 37.06700

