158

Mg 44.36300 4.20200 47.56000
C  42.16000 6.77400 47.36700
C  41.75800 1.87600 47.29100
C  46.68200 1.65500 47.03400
C  46.99100 6.51500 47.10000
N  42.24800 4.30000 47.27600
C  41.56900 5.50000 47.31300
C  40.04600 5.12500 47.07200
C  40.00500 3.68400 47.69500
C  41.45700 3.27300 47.28100
C  39.54800 3.62900 49.19100
C  39.67100 5.24600 45.53700
C  38.92200 6.41300 44.90100
H  39.59700 7.33500 43.81000
N  44.23000 1.96800 47.36800
C  43.05700 1.25900 47.24000
C  43.44600 -0.16000 47.04400
C  44.89600 -0.24400 47.01400
C  45.30100 1.15000 47.15600
C  42.42500 -1.25400 46.90400
C  45.72100 -1.49400 46.86000
O  45.18700 -2.43000 46.34000
C  47.19100 -1.52900 47.19900
N  46.54500 4.06900 47.09800
C  47.23600 2.92400 47.03000
C  48.76200 3.05800 46.93600
C  48.84200 4.62900 46.84400
C  47.38600 5.12400 47.10800
C  49.47500 2.56800 48.25100
C  49.37600 5.17900 45.50000
C  50.87000 4.74700 45.21900
N  44.59300 6.22400 47.33800
C  45.69000 7.03500 47.15200
C  45.31200 8.41500 46.93500
C  43.95400 8.37200 47.12900
C  43.54500 6.99600 47.30600
C  46.16700 9.68200 46.77200
C  42.77700 9.15200 47.10400
O  42.62800 10.37000 47.02200
C  41.58800 8.13700 47.30400
C  40.88700 8.47000 48.54500
O  40.79700 7.82200 49.62800
O  40.22600 9.63400 48.25100
C  39.35200 10.14600 49.23100
H  40.86500 1.26400 47.14900
H  47.55000 1.04600 46.77400
H  47.76900 7.25000 46.88000
H  39.46700 5.84200 47.65400
H  39.31000 3.07500 47.11700
H  39.53000 4.58400 49.71600
H  40.32300 2.99700 49.62700
H  38.53100 3.24000 49.14600
H  39.16800 4.33700 45.20700
H  40.65600 5.19800 45.07200
H  38.60800 7.10800 45.67900
H  38.06600 6.04100 44.33800
H  42.79300 -2.11100 46.34100
H  41.41500 -0.86100 46.78900
H  42.32000 -1.75700 47.86600
H  47.39500 -2.60000 47.18700
H  47.21300 -1.13300 48.21400
H  47.78600 -0.94800 46.49300
H  49.24100 2.56800 46.08800
H  49.46000 5.08900 47.61500
H  49.83700 1.55800 48.05400
H  48.83400 2.48600 49.12900
H  50.20900 3.34200 48.47400
H  49.31400 6.25400 45.32800
H  48.82100 4.66800 44.71400
H  51.36100 4.21100 46.03100
H  51.44600 5.53000 44.72500
H  50.80500 4.00500 44.42300
H  47.14300 9.40400 47.16900
H  45.75000 10.41800 47.45900
H  46.19100 10.12900 45.77800
H  40.89300 8.24000 46.47000
H  39.98100 10.30800 50.10600
H  38.49500 9.53900 49.52100
H  38.96200 11.08900 48.84800
Mg 0.75100 43.92700 26.43400
C  2.89500 44.10800 29.35700
C  -1.82700 43.07200 28.68900
C  -1.24400 43.16800 23.80800
C  3.47400 44.34300 24.40900
N  0.66600 43.54200 28.80200
C  1.57100 43.90000 29.72900
C  0.95000 43.83800 31.15900
C  -0.45700 43.03100 30.94400
C  -0.56000 43.19900 29.36500
C  -0.44900 41.57100 31.38000
C  0.84200 45.21300 31.94700
C  1.01500 45.18100 33.45500
H  0.61700 43.84800 34.09600
N  -1.25800 43.46200 26.18000
C  -2.17900 43.22700 27.30500
C  -3.49300 43.20700 26.76600
C  -3.32400 43.14100 25.34600
C  -1.92300 43.27300 25.05400
C  -4.80200 43.10500 27.57500
C  -4.43700 43.00400 24.24500
O  -4.26300 43.14600 23.01400
C  -5.84300 42.83800 24.64300
N  1.07300 43.72400 24.45100
C  0.14300 43.35000 23.58500
C  0.69800 43.50400 22.14400
C  2.06700 44.22300 22.34400
C  2.21700 44.06400 23.82400
C  0.83500 42.15000 21.35600
C  2.05700 45.73600 21.95300
C  3.48200 46.17600 21.35600
N  2.77800 44.14600 26.77000
C  3.72800 44.32600 25.78800
C  5.04100 44.32400 26.41100
C  4.72500 44.26500 27.78300
C  3.34100 44.21100 27.99200
C  6.37900 44.29500 25.78400
C  5.30000 44.10200 29.11800
O  6.47300 44.11500 29.42300
C  4.11200 44.15500 30.25400
C  4.32300 43.01800 31.16800
O  4.62900 41.88300 30.88100
O  4.27600 43.46200 32.44300
C  4.63500 42.47000 33.48200
H  -2.62900 42.81500 29.38300
H  -1.86300 42.93000 22.94100
H  4.24400 44.59000 23.67500
H  1.67400 43.21400 31.68400
H  -1.17800 43.61200 31.51800
H  -0.93800 40.90100 30.67300
H  -1.09600 41.38200 32.23600
H  0.58700 41.37200 31.65400
H  -0.06900 45.68700 31.58200
H  1.61600 45.83100 31.49200
H  0.47900 45.96600 33.98700
H  2.08200 45.37900 33.55400
H  -4.51400 43.27900 28.61200
H  -5.53000 42.31700 27.38300
H  -5.48400 43.91500 27.31500
H  -6.11500 43.77900 25.12200
H  -6.03700 42.04500 25.36600
H  -6.51100 42.77700 23.78400
H  0.03900 44.15500 21.56900
H  2.91800 43.68500 21.92500
H  0.16500 41.41000 21.79300
H  1.88000 41.87100 21.22400
H  0.49100 42.25800 20.32800
H  1.86100 46.32500 22.84900
H  1.34400 45.94400 21.15500
H  3.91700 47.11800 21.69000
H  3.37800 46.28900 20.27700
H  4.21800 45.38100 21.47800
H  6.27600 43.60900 24.94300
H  7.14500 44.06200 26.52400
H  6.71700 45.22100 25.32000
H  4.16300 45.11600 30.76700
H  5.30000 41.69500 33.10000
H  3.72000 42.04700 33.89500
H  5.15600 42.99100 34.28500

