158

Mg 48.74100 45.94100 44.16900
C  45.50600 46.21500 42.81600
C  48.85800 42.86900 42.71200
C  51.95800 45.99900 44.80800
C  48.55300 49.41400 44.99300
N  47.29500 44.67200 42.94600
C  46.01000 44.92800 42.57500
C  45.47200 43.83900 41.58300
C  46.45400 42.69000 41.91800
C  47.62600 43.46500 42.56000
C  46.02500 41.55500 42.91500
C  45.58400 44.31700 40.05600
C  44.29400 44.48500 39.24100
H  44.03300 43.42400 38.21300
N  50.23300 44.57500 43.88500
C  50.07600 43.33400 43.31100
C  51.31400 42.57600 43.48900
C  52.31600 43.53400 43.98400
C  51.52600 44.76400 44.25000
C  51.52400 41.18700 42.97600
C  53.79700 43.32300 44.13600
O  54.19200 42.12700 44.00400
C  54.72400 44.30000 44.67100
N  50.02200 47.45700 44.91200
C  51.34100 47.20300 45.11600
C  52.22800 48.47800 45.34400
C  51.05000 49.57200 45.40400
C  49.81300 48.75700 45.12400
C  53.09400 48.44500 46.62900
C  51.22200 50.69400 44.33400
C  51.45800 52.05700 44.97200
N  47.33600 47.51900 44.15600
C  47.42300 48.86200 44.46600
C  46.14700 49.56500 44.13400
C  45.39900 48.53800 43.45200
C  46.18100 47.31000 43.42800
C  45.71500 50.96000 44.36100
C  44.11300 48.34600 42.72900
O  43.23800 49.15700 42.37300
C  44.13000 46.80400 42.33100
C  42.98100 46.14000 43.06300
O  42.81000 46.17200 44.30500
O  42.08200 45.59000 42.18700
C  41.08900 44.73500 42.81300
H  48.75600 41.80500 42.48900
H  53.04800 46.06000 44.84900
H  48.57100 50.48800 45.19000
H  44.45200 43.64200 41.91200
H  46.78500 42.23000 40.98700
H  45.67200 40.67300 42.38000
H  45.15500 41.88300 43.48400
H  46.79100 41.31800 43.65300
H  46.15000 43.52900 39.55900
H  46.20700 45.21100 40.07600
H  44.26900 45.45300 38.74100
H  43.41000 44.55200 39.87400
H  50.74700 40.99800 42.23500
H  51.46400 40.43500 43.76300
H  52.46400 41.19400 42.42300
H  55.77400 44.01100 44.64700
H  54.51600 44.44000 45.73200
H  54.70600 45.14000 43.97700
H  52.89200 48.58900 44.48700
H  50.95700 49.98500 46.40900
H  52.57100 48.91400 47.46300
H  53.88700 49.11000 46.28700
H  53.49100 47.45400 46.84800
H  50.32100 50.90300 43.75800
H  52.04500 50.39600 43.68400
H  52.51500 52.13800 45.22500
H  50.85800 52.11100 45.88100
H  51.12300 52.82400 44.27300
H  44.74800 50.87100 44.85700
H  45.79000 51.59500 43.47900
H  46.34500 51.40900 45.12800
H  43.94300 46.72900 41.25900
H  41.18300 43.71800 42.43400
H  40.09900 45.16100 42.65000
H  41.18600 44.68600 43.89700
Mg 26.82000 51.38000 25.20500
C  24.86900 52.59900 27.85300
C  28.94400 49.97500 27.64500
C  28.75600 50.44700 22.86800
C  24.59200 52.89400 23.06000
N  26.82600 51.22900 27.36300
C  25.91300 51.83500 28.22900
C  26.24700 51.58800 29.65500
C  27.68200 50.95800 29.62400
C  27.84400 50.63500 28.14100
C  28.88300 51.90100 29.99800
C  25.21200 50.60200 30.27100
C  24.66700 51.07500 31.54000
H  25.57200 51.67600 32.64500
N  28.73200 50.31300 25.21000
C  29.46100 49.89500 26.32600
C  30.68400 49.27700 25.84800
C  30.62800 49.45000 24.41300
C  29.30700 50.03800 24.09900
C  31.71100 48.67100 26.76700
C  31.73900 49.07800 23.32400
O  31.64300 49.17200 22.10500
C  33.04500 48.60400 23.86300
N  26.71900 51.73500 23.19000
C  27.67600 51.23400 22.45500
C  27.33900 51.35500 20.93500
C  25.96700 52.11100 21.00600
C  25.70100 52.30800 22.49700
C  28.40300 52.02100 20.07100
C  24.74300 51.31000 20.38400
C  23.91600 52.09200 19.36600
N  25.11600 52.58300 25.37500
C  24.28400 53.08100 24.41800
C  23.16600 53.80700 25.01900
C  23.38400 53.61000 26.39600
C  24.54200 52.87600 26.53300
C  22.14700 54.73200 24.44000
C  22.89200 54.03900 27.70000
O  21.93800 54.76000 27.98900
C  23.81200 53.31300 28.76300
C  24.38800 54.39600 29.63700
O  25.32300 55.07700 29.39700
O  23.59900 54.59100 30.82200
C  23.86400 55.78900 31.68400
H  29.57800 49.52700 28.41300
H  29.05000 49.92700 21.95400
H  23.92500 53.31800 22.30500
H  26.35100 52.53200 30.18900
H  27.78500 50.08800 30.27300
H  28.52000 52.77500 30.54000
H  29.38300 52.23800 29.09000
H  29.58200 51.32700 30.60700
H  25.59300 49.58400 30.34500
H  24.32900 50.41900 29.65900
H  24.16600 50.29400 32.11200
H  23.76000 51.66000 31.38600
H  31.73700 47.59100 26.62100
H  31.45000 48.92400 27.79500
H  32.66000 49.16300 26.55400
H  33.41100 49.50400 24.35700
H  33.75500 48.30800 23.09000
H  33.02800 47.76500 24.55800
H  27.30800 50.34600 20.52500
H  26.17300 53.10400 20.60500
H  27.99400 52.84000 19.47800
H  28.87800 51.31800 19.38800
H  29.15100 52.31300 20.80800
H  24.01900 50.99700 21.13600
H  25.05700 50.43600 19.81300
H  23.98600 51.64500 18.37500
H  24.24800 53.13000 19.35300
H  22.90100 52.24000 19.73600
H  22.24000 54.52600 23.37400
H  22.41500 55.76200 24.67700
H  21.12700 54.50600 24.74900
H  23.23400 52.57800 29.32300
H  24.86600 55.56800 32.05000
H  23.17000 55.86800 32.52100
H  23.92000 56.72600 31.13000

