158

Mg 35.17400 1.49200 29.50000
C  33.16300 3.00500 31.89900
C  37.78200 1.92900 31.55300
C  37.09800 0.81700 26.82100
C  32.48300 1.90500 27.19400
N  35.50400 2.42400 31.46800
C  34.47100 2.75800 32.30500
C  35.01700 2.78900 33.73800
C  36.53600 2.54800 33.60800
C  36.63000 2.24200 32.12100
C  37.38800 3.68200 34.05700
C  34.34100 1.77100 34.67400
C  33.87800 2.26500 36.06400
H  34.73000 3.13500 36.88800
N  37.23300 1.22300 29.28100
C  38.14900 1.47600 30.24200
C  39.47300 1.05000 29.72400
C  39.23300 0.83000 28.33900
C  37.78900 0.95800 28.08500
C  40.72800 1.00300 30.59900
C  40.26500 0.41300 27.23800
O  39.96400 0.25000 26.03900
C  41.73400 0.25400 27.52600
N  34.76200 1.22300 27.27300
C  35.70700 0.87500 26.44400
C  35.16400 0.54900 24.95400
C  33.64800 0.76600 25.06900
C  33.53200 1.19900 26.63000
C  35.85200 1.39200 23.82200
C  32.74000 -0.42000 24.78600
C  32.86000 -1.09800 23.43300
N  33.18800 2.13000 29.49000
C  32.31400 2.32500 28.50400
C  31.18200 3.08700 29.06300
C  31.43800 3.19600 30.42500
C  32.69600 2.69100 30.61900
C  30.00500 3.49300 28.30600
C  30.81700 3.65500 31.65900
O  29.72100 4.12200 31.80300
C  31.92100 3.33400 32.72400
C  32.06900 4.54000 33.59100
O  32.64900 5.54600 33.28800
O  31.30500 4.35700 34.71800
C  31.03500 5.60500 35.52800
H  38.60100 1.96100 32.27400
H  37.71500 0.34000 26.05500
H  31.77600 1.96000 26.36400
H  34.75000 3.78300 34.09800
H  36.91100 1.59600 33.98300
H  37.65000 4.23300 33.15400
H  38.19600 3.22800 34.63000
H  37.00300 4.28400 34.88000
H  34.97100 0.88800 34.78100
H  33.42800 1.39300 34.21500
H  33.77900 1.42700 36.75400
H  32.84400 2.60500 35.99800
H  41.38400 1.86600 30.47800
H  41.19500 0.02300 30.49700
H  40.43000 1.05400 31.64600
H  42.21200 -0.02500 26.58800
H  41.82700 -0.47200 28.33400
H  42.04800 1.20400 27.95800
H  35.34000 -0.48300 24.65100
H  33.38800 1.66600 24.51100
H  36.75700 0.85600 23.53800
H  36.17600 2.31600 24.30100
H  35.18300 1.63600 22.99700
H  31.76600 -0.05500 25.11200
H  33.04800 -1.14000 25.54500
H  31.93800 -1.54600 23.06100
H  33.50500 -1.97700 23.45200
H  33.24200 -0.43000 22.66200
H  30.37600 3.96600 27.39700
H  29.48700 4.29700 28.82800
H  29.32200 2.66700 28.10800
H  31.56500 2.42700 33.21200
H  31.19900 6.51100 34.94600
H  31.77600 5.70900 36.32000
H  30.08700 5.62500 36.06600
Mg 9.75400 48.22900 25.80200
C  7.74400 48.38300 28.73300
C  12.35200 49.43200 27.62700
C  11.51200 47.94800 23.08800
C  6.76600 47.75100 23.99300
N  9.96000 48.79600 27.97400
C  9.05700 48.77600 28.95400
C  9.67100 49.16400 30.31100
C  11.03200 49.80200 29.92300
C  11.17500 49.38200 28.34800
C  11.14200 51.36100 30.03100
C  9.85100 47.96500 31.23200
C  9.27800 48.10100 32.66400
H  8.97800 46.85000 33.43500
N  11.69900 48.43500 25.51700
C  12.62000 48.92400 26.40900
C  13.88900 48.81100 25.80100
C  13.67600 48.38700 24.42000
C  12.25800 48.19200 24.30300
C  15.14200 49.20400 26.57300
C  14.73700 48.23900 23.29500
O  14.42100 48.04000 22.09600
C  16.15700 48.32600 23.63700
N  9.11700 48.10100 23.74600
C  10.15300 47.79000 22.87100
C  9.58200 47.54800 21.46300
C  8.00400 47.44500 21.74600
C  7.89000 47.84700 23.21800
C  9.90900 48.57800 20.40200
C  7.43000 45.99600 21.51300
C  6.14800 45.91500 20.62000
N  7.62100 48.26100 26.19600
C  6.58500 47.91300 25.36500
C  5.41400 47.70700 26.18400
C  5.80800 48.04200 27.46600
C  7.16900 48.22500 27.47000
C  4.03400 47.37000 25.72100
C  5.26800 48.11900 28.77900
O  4.12900 48.01700 29.17000
C  6.51700 48.30400 29.72900
C  6.57500 47.11000 30.65600
O  7.02000 46.00700 30.31300
O  5.99800 47.39600 31.90300
C  5.69900 46.21800 32.69800
H  13.14300 49.81300 28.27600
H  12.13400 47.83500 22.19800
H  5.87000 47.60500 23.38500
H  8.94500 49.75900 30.86600
H  11.87100 49.40700 30.49500
H  10.10600 51.64700 30.21000
H  11.56700 51.92700 29.20200
H  11.72900 51.68400 30.89200
H  10.91100 47.77500 31.40200
H  9.37400 47.04200 30.90500
H  8.29500 48.55700 32.54200
H  9.98400 48.70300 33.23600
H  15.84900 48.38000 26.47500
H  15.05100 49.42200 27.63700
H  15.64400 50.06900 26.14100
H  16.49100 47.32700 23.91700
H  16.25900 49.03300 24.46000
H  16.61500 48.77500 22.75500
H  9.99000 46.57400 21.19400
H  7.43600 48.19100 21.18900
H  9.10300 49.30300 20.29400
H  9.94900 48.11200 19.41700
H  10.84900 49.10900 20.55100
H  7.28000 45.40700 22.41800
H  8.11900 45.52300 20.81300
H  5.50800 46.73400 20.94900
H  5.59100 44.98700 20.75300
H  6.36500 46.01200 19.55700
H  3.58900 46.63700 26.39400
H  4.19800 46.77500 24.82200
H  3.54200 48.31600 25.49600
H  6.48900 49.30400 30.16300
H  4.62400 46.07900 32.81100
H  6.19100 46.45900 33.64000
H  6.06100 45.24500 32.36700

