158

Mg 50.10600 35.52600 29.10200
C  47.45200 34.03300 31.08100
C  50.27800 37.94200 31.53500
C  51.74700 37.43300 27.02600
C  49.30300 33.23100 26.64500
N  48.94600 35.89900 30.95900
C  48.05100 35.13000 31.66400
C  47.87700 35.75000 33.05600
C  48.25600 37.22500 32.85400
C  49.26100 36.99000 31.75000
C  47.04700 38.08900 32.36800
C  48.64900 34.94000 34.10100
C  50.05200 35.37400 34.66800
H  50.12400 35.90100 36.05100
N  51.07500 37.35100 29.36000
C  51.11600 38.12000 30.46700
C  51.98000 39.26200 30.22400
C  52.35000 39.20400 28.84600
C  51.75600 37.97500 28.37000
C  51.97700 40.50700 31.15200
C  53.04200 40.22200 27.91700
O  53.02900 40.08600 26.71900
C  53.74900 41.45500 28.49800
N  50.50400 35.28300 27.08100
C  51.15100 36.30400 26.40100
C  51.34000 35.89300 24.93800
C  50.64900 34.50900 24.78400
C  50.19100 34.28800 26.21700
C  50.93500 36.91500 23.88300
C  51.34800 33.21800 24.15300
C  50.74200 32.73100 22.82900
N  48.75000 33.88100 28.90800
C  48.56000 33.03400 27.81500
C  47.61300 31.97800 28.19400
C  47.10000 32.37100 29.46600
C  47.80000 33.58200 29.79000
C  47.15000 30.87000 27.30100
C  46.12500 32.03500 30.48900
O  45.44000 30.99800 30.65600
C  46.28700 33.18400 31.52400
C  46.40600 32.49200 32.93200
O  46.98800 31.44100 33.23100
O  45.89800 33.31500 33.90500
C  45.78700 32.66500 35.25500
H  50.24800 38.62700 32.38500
H  52.23200 37.93100 26.18400
H  49.06700 32.47000 25.89800
H  46.89100 35.71300 33.52100
H  48.71900 37.74300 33.69300
H  46.21900 37.47300 32.01600
H  47.33200 38.71100 31.52000
H  46.65100 38.75500 33.13500
H  48.81400 33.94400 33.68900
H  48.08100 34.79900 35.02100
H  50.42300 36.22500 34.09600
H  50.74600 34.53400 34.70700
H  51.29000 41.31300 30.89300
H  52.98900 40.90900 31.11300
H  51.74200 40.19700 32.17100
H  54.27700 41.10800 29.38600
H  52.96200 42.16200 28.76300
H  54.38700 42.01300 27.81400
H  52.41600 35.71400 24.92400
H  49.76900 34.53700 24.14200
H  50.22900 37.69800 24.16100
H  50.52600 36.34300 23.05100
H  51.73900 37.52000 23.46400
H  51.23800 32.42500 24.89300
H  52.40400 33.40200 23.95600
H  50.08800 31.88200 23.02800
H  51.53200 32.57800 22.09500
H  50.01400 33.42400 22.40600
H  46.06500 30.78200 27.35600
H  47.67600 29.95000 27.55700
H  47.55500 31.14100 26.32600
H  45.39400 33.80800 31.50600
H  46.73500 32.50900 35.76800
H  45.23500 31.72900 35.33600
H  45.24000 33.20800 36.02600
Mg 29.19600 57.53700 41.52500
C  26.40100 55.75000 40.25700
C  31.14600 55.26700 39.66100
C  31.90500 59.48500 42.05000
C  27.02500 59.86700 42.81800
N  28.80800 55.75700 40.08700
C  27.63400 55.28200 39.77200
C  27.74900 54.16700 38.71800
C  29.18500 53.69800 38.96100
C  29.79800 54.94300 39.59100
C  29.36200 52.42400 39.88400
C  27.48600 54.71600 37.25700
C  26.63600 53.77500 36.37400
H  27.06600 53.74300 34.93400
N  31.24700 57.41100 40.98100
C  31.79100 56.38600 40.30000
C  33.27500 56.49200 40.31900
C  33.51800 57.74500 40.88300
C  32.23500 58.28500 41.31900
C  34.27700 55.48400 39.73000
C  34.89200 58.28900 41.09000
O  35.83900 57.62600 40.71500
C  35.21000 59.65900 41.66500
N  29.38500 59.41400 42.18600
C  30.61700 60.02700 42.38400
C  30.44900 61.45400 42.97100
C  28.90900 61.48100 43.28700
C  28.38400 60.17000 42.70800
C  31.42200 61.88700 44.15000
C  28.27500 62.86900 42.77300
C  27.69500 62.85400 41.37000
N  27.10400 57.68800 41.70000
C  26.34000 58.66200 42.36500
C  24.98100 58.29600 42.35300
C  24.93300 57.10000 41.60200
C  26.23400 56.80400 41.18300
C  23.89200 58.95500 43.09700
C  24.12900 56.06500 41.08500
O  22.94400 55.86600 41.32400
C  25.02700 55.10700 40.04300
C  24.93900 53.63200 40.34300
O  25.20300 53.08700 41.40400
O  24.32200 52.92900 39.26600
C  24.35300 51.44600 39.40700
H  31.86500 54.54000 39.27800
H  32.79300 60.07000 42.29900
H  26.44300 60.60500 43.37500
H  27.09800 53.32300 38.94300
H  29.76400 53.60500 38.04200
H  29.45800 52.74900 40.92000
H  30.28000 51.95000 39.53800
H  28.48200 51.78100 39.85000
H  28.42400 54.90000 36.73200
H  26.99400 55.68400 37.35600
H  25.61800 54.15300 36.27000
H  26.54900 52.76000 36.76000
H  33.85100 54.48400 39.65000
H  35.20300 55.36800 40.29400
H  34.55100 55.65000 38.68800
H  34.70600 60.38200 41.02300
H  36.29600 59.75100 41.68300
H  34.84400 59.68700 42.69100
H  30.51200 62.12300 42.11300
H  28.66600 61.39500 44.34600
H  32.30100 61.24300 44.18200
H  30.93500 61.92400 45.12500
H  31.78800 62.86600 43.84100
H  28.94000 63.71600 42.94400
H  27.41800 63.05400 43.42100
H  27.44000 61.88200 40.94800
H  28.46800 63.30800 40.75000
H  26.80900 63.48800 41.41200
H  22.96400 58.38600 43.02700
H  23.71200 59.89800 42.58200
H  24.16300 59.14300 44.13600
H  24.66700 55.43200 39.06800
H  23.30300 51.18200 39.28800
H  24.77600 51.08100 40.34300
H  25.00500 50.95400 38.68500

