158

Mg 45.14400 4.90500 47.64800
C  42.84800 7.57300 47.26000
C  42.41200 2.76400 47.05200
C  47.25200 2.52200 47.54600
C  47.73600 7.31100 47.86300
N  42.81800 5.19200 47.08400
C  42.14100 6.38400 47.04000
C  40.60000 6.14900 46.96200
C  40.43600 4.57300 47.02200
C  41.97800 4.10600 47.08200
C  39.53000 4.09300 48.19700
C  39.99400 6.80000 45.66800
C  40.91000 6.90900 44.40600
H  40.22100 6.90600 43.05800
N  44.90000 2.98600 47.18000
C  43.72900 2.23200 46.97200
C  44.02400 0.85300 46.85200
C  45.45400 0.77300 46.85600
C  45.94200 2.13000 47.22300
C  43.07100 -0.13400 46.36200
C  46.30400 -0.44700 46.53800
O  45.79500 -1.47900 46.20900
C  47.75400 -0.57100 46.56300
N  47.27800 4.90600 47.49700
C  47.88800 3.77600 47.72700
C  49.40200 3.92500 48.06600
C  49.57800 5.47300 48.07000
C  48.16400 5.94600 47.73700
C  49.74000 3.30900 49.43200
C  50.60600 5.98200 47.00700
C  51.95700 6.43400 47.53800
N  45.31700 7.05000 47.60000
C  46.43400 7.84400 47.73800
C  46.03700 9.24200 47.75800
C  44.58300 9.17100 47.62700
C  44.25500 7.79200 47.45700
C  46.83200 10.44600 47.77400
C  43.46400 9.94000 47.72800
O  43.29200 11.17800 47.81800
C  42.31400 8.91300 47.44800
C  41.36000 8.93100 48.61200
O  41.52800 8.41600 49.73700
O  40.28700 9.64900 48.32500
C  39.40500 9.96800 49.50400
H  41.54900 2.09700 47.01800
H  47.87100 1.62300 47.57400
H  48.62300 7.85700 48.19300
H  40.17400 6.54600 47.88400
H  40.11100 4.17100 46.06200
H  39.05300 3.16800 47.87400
H  38.83300 4.84900 48.55900
H  40.10600 3.86400 49.09400
H  39.69100 7.81800 45.91500
H  39.10500 6.26200 45.34000
H  41.69200 6.15300 44.33100
H  41.49000 7.83200 44.37500
H  43.19700 -1.01000 46.99700
H  43.42700 -0.39800 45.36600
H  42.03600 0.20600 46.33100
H  47.93200 -1.47300 45.97900
H  48.22600 -0.58300 47.54500
H  48.16700 0.27400 46.01200
H  50.08700 3.51600 47.32300
H  49.83500 5.92400 49.02800
H  48.87100 3.55300 50.04200
H  50.71800 3.45700 49.89100
H  49.73600 2.24600 49.19100
H  50.25600 6.83000 46.41800
H  50.82800 5.20700 46.27400
H  52.77700 5.99500 46.97000
H  52.17100 6.03600 48.53000
H  52.01500 7.52300 47.54100
H  47.75600 10.13300 48.26100
H  46.39800 11.37000 48.15500
H  47.09300 10.63300 46.73300
H  41.66200 9.11200 46.59700
H  39.24300 9.03300 50.04000
H  38.46500 10.34100 49.09700
H  39.89700 10.70900 50.13300
Mg 36.54700 48.79400 25.25700
C  36.49400 46.83900 28.18800
C  34.59400 51.04500 26.76800
C  36.17600 50.33900 22.23600
C  38.15200 46.12200 23.62900
N  35.58800 48.90700 27.22800
C  35.83300 48.07300 28.30800
C  35.48900 48.73300 29.66300
C  34.72200 50.02200 29.21000
C  34.97500 49.99400 27.63600
C  33.17100 50.02400 29.53500
C  36.70400 48.83000 30.64500
C  36.69600 48.07400 31.99800
H  35.36000 47.95400 32.66900
N  35.48200 50.46400 24.55200
C  34.73800 51.26200 25.36900
C  34.20700 52.38200 24.59700
C  34.67600 52.32000 23.26000
C  35.50700 51.00600 23.27000
C  33.38800 53.44600 25.30200
C  34.46600 53.18100 22.10400
O  35.21900 52.96500 21.13100
C  33.53200 54.37700 22.11100
N  37.08500 48.30200 23.24500
C  36.84400 49.12800 22.17400
C  37.50200 48.59600 20.88300
C  38.22100 47.32300 21.41900
C  37.89600 47.32900 22.86000
C  36.56500 48.37400 19.58700
C  39.79000 47.27700 21.30300
C  40.35300 46.90000 19.93100
N  37.29500 46.92800 25.77700
C  37.87700 45.95100 25.00500
C  38.15300 44.73600 25.85400
C  37.61600 45.07000 27.12900
C  37.14200 46.39400 26.99900
C  38.68700 43.39800 25.36800
C  37.42700 44.56200 28.45700
O  37.76000 43.51400 28.98900
C  36.73500 45.72500 29.27100
C  35.42600 45.17600 29.77400
O  34.44100 45.26800 29.09800
O  35.53900 44.49700 30.93500
C  34.28200 43.83700 31.37900
H  34.02200 51.76500 27.35800
H  36.12800 50.93100 21.31900
H  38.55200 45.17000 23.27300
H  34.82000 48.06600 30.20700
H  35.23200 50.89700 29.61200
H  32.84700 49.16900 30.12800
H  32.45700 50.07600 28.71300
H  33.04300 50.93800 30.11500
H  37.01500 49.84700 30.88300
H  37.44800 48.38300 29.98600
H  37.21100 48.75500 32.67500
H  37.29100 47.16500 31.90100
H  32.32700 53.23300 25.43500
H  33.49700 54.35900 24.71700
H  33.84300 53.70000 26.25900
H  32.52000 53.97900 22.17700
H  33.44700 54.76500 21.09600
H  33.75200 55.26300 22.70700
H  38.38100 49.15700 20.56500
H  37.79400 46.45900 20.91100
H  35.57100 48.79100 19.74800
H  36.43300 47.30800 19.40700
H  36.93000 48.94500 18.73300
H  40.15700 46.63700 22.10500
H  40.26400 48.22300 21.56300
H  41.02900 47.70000 19.62900
H  39.64100 46.72300 19.12500
H  40.90600 45.97300 20.08700
H  39.41700 43.56600 24.57700
H  37.91800 42.65700 25.14900
H  39.31400 42.95700 26.14300
H  37.40900 46.08500 30.05000
H  33.94400 43.09900 30.65100
H  33.47500 44.56400 31.47100
H  34.39400 43.45500 32.39400

