158

Mg 35.46800 1.42000 29.67400
C  33.12900 2.79500 31.96300
C  37.80000 1.55900 32.31000
C  37.80400 0.90000 27.48000
C  33.14500 2.03300 27.09000
N  35.48300 2.23100 31.83800
C  34.37000 2.55700 32.59000
C  34.64200 2.55100 34.08300
C  36.17000 2.37500 34.07800
C  36.49300 2.02400 32.68600
C  37.07600 3.60500 34.39800
C  33.79900 1.29900 34.69400
C  33.33400 1.41200 36.11600
H  34.05200 2.45400 37.05000
N  37.53600 1.23000 29.85700
C  38.32200 1.17300 30.93900
C  39.70700 0.83400 30.59800
C  39.68900 0.56600 29.23200
C  38.32500 0.92900 28.78100
C  40.76300 0.60700 31.63800
C  40.75700 -0.01900 28.34800
O  40.63900 -0.04100 27.11900
C  41.94700 -0.66000 28.89900
N  35.43500 1.34700 27.60000
C  36.51700 1.06100 26.94100
C  36.22200 1.00300 25.39000
C  34.64900 0.97300 25.35400
C  34.33900 1.49400 26.76800
C  36.94200 1.94400 24.41300
C  33.86900 -0.36500 24.95900
C  33.58900 -0.52300 23.44300
N  33.52600 2.02200 29.52300
C  32.71500 2.36400 28.40000
C  31.38400 2.76000 28.79700
C  31.55000 2.86100 30.22300
C  32.82900 2.54600 30.57100
C  30.23200 3.13000 27.89400
C  30.79700 3.32400 31.32300
O  29.66300 3.74900 31.40900
C  31.75600 3.22700 32.52800
C  31.61600 4.45500 33.33600
O  31.97000 5.60200 33.06900
O  31.03000 4.04900 34.49700
C  30.97800 5.06800 35.62400
H  38.51200 1.77000 33.11200
H  38.53000 0.71700 26.68400
H  32.44800 2.13500 26.25500
H  34.24900 3.47300 34.51100
H  36.41600 1.59200 34.79600
H  38.07900 3.24400 34.62400
H  36.59200 4.11900 35.22800
H  37.09900 4.29100 33.55100
H  34.53200 0.49300 34.65000
H  32.90100 1.15700 34.09400
H  33.35300 0.42800 36.58300
H  32.33100 1.83100 36.04100
H  40.86900 -0.47600 31.69800
H  40.45700 1.11900 32.55000
H  41.74300 0.99000 31.35300
H  42.51900 -1.15800 28.11600
H  41.65100 -1.42200 29.62000
H  42.61400 0.05300 29.38300
H  36.43200 -0.01400 25.05900
H  34.26800 1.73700 24.67700
H  37.93900 1.51900 24.29600
H  37.03400 2.96500 24.78400
H  36.40800 1.91700 23.46300
H  32.91800 -0.27000 25.48100
H  34.35200 -1.26700 25.33600
H  32.74700 0.10400 23.15300
H  33.13700 -1.49700 23.25400
H  34.52100 -0.28900 22.92800
H  30.63500 3.21800 26.88500
H  29.76800 4.01900 28.32200
H  29.43800 2.38400 27.90300
H  31.41300 2.32800 33.04000
H  31.18200 6.11700 35.40800
H  31.74400 4.78300 36.34600
H  30.01800 4.81000 36.07000
Mg 26.97300 50.85000 26.92600
C  24.88100 51.78400 29.52100
C  29.35100 49.86100 29.24700
C  29.01400 49.90700 24.41200
C  24.74400 52.24400 24.65100
N  27.06300 50.81100 29.02600
C  26.06000 51.20600 29.97000
C  26.52900 50.95800 31.38300
C  28.01200 50.69600 31.25200
C  28.13600 50.38000 29.73100
C  28.87000 51.82900 31.83900
C  25.69000 49.67400 31.92100
C  25.18400 49.67300 33.32700
H  25.88800 50.34600 34.51300
N  28.92500 50.01600 26.79400
C  29.77000 49.62000 27.89400
C  30.96500 48.97500 27.47300
C  30.94000 49.04900 26.08600
C  29.57200 49.68600 25.65200
C  31.94700 48.30000 28.42400
C  31.99000 48.65200 25.13300
O  31.91400 48.73300 23.91800
C  33.22500 47.97500 25.56100
N  26.83800 50.88300 24.89200
C  27.78200 50.48300 24.03200
C  27.41800 50.73800 22.52300
C  25.93600 51.29800 22.60900
C  25.85600 51.54100 24.16500
C  28.38100 51.70700 21.75800
C  24.93500 50.27700 22.15200
C  23.47500 50.61200 21.70800
N  25.18200 51.84300 26.93000
C  24.38000 52.36900 25.96700
C  23.27800 53.01400 26.56400
C  23.33200 52.79500 27.98100
C  24.52100 51.98200 28.11200
C  22.22800 53.82000 25.82700
C  22.74900 52.93800 29.31300
O  21.64100 53.38300 29.65300
C  23.70800 52.23000 30.39600
C  24.09300 53.27800 31.39500
O  24.85400 54.26200 31.23200
O  23.58600 52.86000 32.55000
C  23.73500 53.66200 33.79400
H  29.95100 49.56600 30.11100
H  29.50200 49.58900 23.48800
H  24.07000 52.76700 23.97000
H  26.27500 51.79400 32.03500
H  28.23600 49.73600 31.71800
H  29.29900 51.49300 32.78300
H  28.30000 52.74800 31.97500
H  29.78800 51.92900 31.25900
H  26.17500 48.71100 31.76200
H  24.70800 49.60300 31.45300
H  25.07800 48.60000 33.48900
H  24.12100 49.89000 33.43600
H  33.01300 48.48700 28.30400
H  31.67300 47.24600 28.47100
H  31.79300 48.66400 29.44000
H  33.81600 48.62900 26.20200
H  33.84000 47.68500 24.70900
H  32.93400 47.04000 26.04000
H  27.53700 49.75500 22.06800
H  25.82300 52.21700 22.03400
H  29.15600 52.07400 22.43100
H  27.87000 52.60400 21.40700
H  28.87400 51.11100 20.98900
H  24.76900 49.49500 22.89200
H  25.39300 49.78300 21.29500
H  22.70700 49.97300 22.14400
H  23.42000 50.49500 20.62500
H  23.17100 51.63100 21.94700
H  22.10500 54.78800 26.31300
H  21.38900 53.16000 26.04400
H  22.33700 53.93900 24.74900
H  23.18300 51.40600 30.87800
H  22.80300 53.92100 34.29700
H  24.19400 54.63500 33.62000
H  24.30200 53.09300 34.53100

