158

Mg 48.14700 15.74700 27.50900
C  46.33800 15.76100 30.54100
C  50.44400 17.65800 28.89000
C  49.56600 16.08400 24.36700
C  45.27700 14.26900 25.85700
N  48.22400 16.66500 29.51600
C  47.54800 16.38900 30.66300
C  48.13200 17.02400 31.90100
C  49.38300 17.78600 31.28300
C  49.35300 17.40400 29.79500
C  49.29800 19.29400 31.52200
C  48.50500 15.97400 32.97700
C  47.94300 16.38700 34.35100
H  47.82400 17.86500 34.71700
N  49.81400 16.71100 26.73500
C  50.66600 17.40800 27.50100
C  51.82100 17.82900 26.73500
C  51.60100 17.40200 25.38000
C  50.27400 16.69100 25.44100
C  52.98100 18.55200 27.24800
C  52.52300 17.61200 24.13200
O  52.15700 17.30700 23.00500
C  53.88700 18.17900 24.26700
N  47.51000 15.10100 25.44200
C  48.30900 15.46700 24.40300
C  47.73900 14.89100 23.08200
C  46.43400 14.19000 23.53000
C  46.38700 14.50200 25.03000
C  47.57700 15.81300 21.89800
C  46.30000 12.66200 23.11900
C  45.49200 12.48000 21.80500
N  46.27700 15.17200 28.02500
C  45.21900 14.54200 27.27100
C  44.12800 14.29200 28.11800
C  44.49400 14.74400 29.40500
C  45.83300 15.21000 29.30200
C  42.79300 13.59100 27.73500
C  44.07300 14.92000 30.74800
O  42.98000 14.84400 31.22400
C  45.28200 15.47800 31.55500
C  44.85200 16.68000 32.27800
O  44.54200 17.78500 31.84500
O  44.53000 16.36400 33.58300
C  43.87200 17.25900 34.49200
H  51.32400 18.15800 29.29900
H  50.02300 16.15000 23.37800
H  44.49300 13.83100 25.23500
H  47.39100 17.73600 32.26300
H  50.40500 17.50300 31.53500
H  48.85600 19.85000 30.69500
H  50.30900 19.64300 31.73400
H  48.67400 19.39300 32.41000
H  49.58500 15.83100 32.96000
H  47.98800 15.03100 32.79600
H  48.62600 15.93000 35.06700
H  46.91200 16.05000 34.45900
H  53.17100 19.40100 26.59300
H  53.87000 17.93300 27.36600
H  52.69800 19.01200 28.19500
H  54.51200 17.77800 25.06500
H  53.82300 19.26100 24.38400
H  54.27700 18.01400 23.26300
H  48.46600 14.11900 22.83000
H  45.61400 14.74800 23.07800
H  48.55900 15.85400 21.42700
H  47.40800 16.86100 22.14200
H  46.77800 15.57300 21.19600
H  45.65600 12.13800 23.82500
H  47.27700 12.18000 23.15800
H  46.10500 12.02800 21.02500
H  45.14900 13.42000 21.37400
H  44.60500 11.87100 21.97900
H  42.12900 14.31200 27.25800
H  42.44300 13.29700 28.72400
H  42.89900 12.68400 27.14000
H  45.44200 14.70200 32.30500
H  43.76900 16.64200 35.38500
H  42.90900 17.65000 34.16400
H  44.45000 18.14900 34.74200
Mg 5.59200 54.55400 40.99700
C  5.42100 51.00900 41.25100
C  8.90000 54.19000 39.73700
C  5.60100 57.71000 40.25500
C  2.36300 54.75700 42.18400
N  6.93700 52.73100 40.39000
C  6.61800 51.39400 40.65100
C  7.87300 50.55900 40.35200
C  9.03800 51.59100 40.21000
C  8.23700 52.96700 40.08600
C  10.17500 51.70000 41.33500
C  7.83300 49.56000 39.10800
C  6.77600 49.80500 37.97900
H  7.32200 50.49600 36.79900
N  7.05200 55.75400 40.06000
C  8.36200 55.50200 39.71100
C  8.95200 56.72700 39.22400
C  7.98500 57.70500 39.19900
C  6.77100 57.07600 39.80400
C  10.41800 56.82200 38.75300
C  8.18700 59.06900 38.65900
O  9.28500 59.40700 38.24300
C  6.94500 60.08200 38.38300
N  4.10100 56.01900 41.06200
C  4.45800 57.28800 40.96500
C  3.37700 58.30600 41.39500
C  2.26100 57.29500 41.97400
C  2.92900 55.93600 41.72600
C  3.85000 59.32200 42.47400
C  0.84800 57.39500 41.23700
C  -0.36900 57.32700 42.20200
N  4.16100 53.23900 41.60200
C  2.91900 53.45300 42.19100
C  2.35800 52.17600 42.71400
C  3.31600 51.22100 42.40200
C  4.37100 51.87300 41.69400
C  1.16200 51.96000 43.55800
C  3.69500 49.82000 42.51100
O  3.20800 48.90400 43.10800
C  5.05700 49.61500 41.70600
C  4.70800 48.67200 40.62800
O  4.06000 49.03100 39.64300
O  5.23700 47.43900 40.87800
C  5.06800 46.47100 39.79000
H  9.88400 54.08600 39.27400
H  5.65800 58.80000 40.24700
H  1.33900 54.62400 42.54000
H  8.08900 49.96700 41.24200
H  9.59800 51.42900 39.28900
H  10.07600 50.78300 41.91600
H  9.97100 52.58700 41.93500
H  11.16300 51.78700 40.88100
H  7.65000 48.59500 39.58000
H  8.77100 49.37300 38.58600
H  5.96100 50.45800 38.29000
H  6.29200 48.86000 37.73200
H  10.94800 55.87400 38.66700
H  11.07500 57.45700 39.34900
H  10.45800 57.16100 37.71700
H  6.05400 59.49900 38.14700
H  7.28400 60.66600 37.52800
H  6.66300 60.64800 39.27000
H  3.12700 58.83100 40.47300
H  2.20600 57.49000 43.04500
H  3.67600 59.01000 43.50400
H  3.32700 60.27200 42.36000
H  4.91000 59.55400 42.37100
H  0.86000 56.58800 40.50600
H  0.80600 58.37400 40.75900
H  -0.88100 58.28900 42.18000
H  -0.12500 57.21900 43.25900
H  -1.10700 56.57600 41.91900
H  0.88700 50.90900 43.46400
H  0.30500 52.58800 43.31800
H  1.36800 52.13400 44.61500
H  5.80700 49.12200 42.32600
H  5.62100 45.55000 39.97300
H  5.48900 46.85200 38.86000
H  4.01600 46.19500 39.73100

