158

Mg 1.66000 -1.90900 44.06900
C  5.15700 -1.40000 43.46700
C  1.00500 0.83300 42.26700
C  -1.36200 -3.08200 43.88200
C  2.78600 -5.10900 45.42600
N  2.95700 -0.55500 42.97900
C  4.30700 -0.37900 42.97600
C  4.82100 0.98400 42.39800
C  3.45800 1.69800 42.20000
C  2.37500 0.63100 42.52100
C  3.16600 3.01200 43.10400
C  5.86800 0.92800 41.20600
C  5.86100 -0.25700 40.26100
H  5.54700 0.06100 38.73800
N  -0.02100 -1.19500 43.28100
C  -0.09300 0.01800 42.63300
C  -1.51800 0.26800 42.39700
C  -2.26100 -0.87700 42.83000
C  -1.21000 -1.76500 43.38400
C  -1.94000 1.56500 41.84400
C  -3.84500 -1.02600 42.71700
O  -4.55100 -0.14000 42.27100
C  -4.55600 -2.18800 43.39500
N  0.87700 -3.84600 44.55900
C  -0.46900 -4.04000 44.39300
C  -0.99100 -5.44500 44.96500
C  0.30700 -5.96700 45.70900
C  1.41600 -4.94900 45.15100
C  -2.31300 -5.35800 45.86000
C  0.64500 -7.52100 45.49900
C  1.12300 -8.21100 46.76200
N  3.53700 -2.97100 44.59500
C  3.81800 -4.24300 45.14900
C  5.21100 -4.40400 45.33700
C  5.80000 -3.28500 44.74800
C  4.75300 -2.48500 44.24600
C  5.91700 -5.54800 46.08600
C  7.04000 -2.69000 44.50500
O  8.20000 -3.01900 44.77300
C  6.68000 -1.38800 43.72300
C  6.98200 -0.22100 44.56200
O  6.28700 0.31600 45.37500
O  8.24700 0.20700 44.24700
C  8.57900 1.58900 44.75900
H  0.73400 1.68900 41.64500
H  -2.38300 -3.46900 43.87700
H  3.25700 -5.99700 45.85200
H  5.32700 1.58400 43.15400
H  3.39100 1.92800 41.13600
H  2.82300 3.84000 42.48300
H  4.08400 3.26900 43.63200
H  2.36300 2.93100 43.83600
H  6.90700 1.06000 41.50700
H  5.61600 1.81700 40.62800
H  5.21500 -1.08700 40.54900
H  6.85300 -0.70600 40.19500
H  -1.88500 1.66500 40.76000
H  -1.39000 2.42000 42.23900
H  -2.97900 1.66900 42.15900
H  -5.63300 -2.02100 43.36600
H  -4.12900 -2.18900 44.39700
H  -4.30500 -3.13000 42.90800
H  -1.29300 -6.01700 44.08700
H  0.29900 -5.84600 46.79200
H  -2.00800 -5.67400 46.85700
H  -3.04300 -6.11100 45.56300
H  -2.75600 -4.37300 45.70900
H  1.38900 -7.78400 44.74700
H  -0.31600 -7.92900 45.18700
H  0.33300 -8.70100 47.33300
H  1.63100 -7.53800 47.45200
H  1.91000 -8.90600 46.46900
H  5.84000 -6.48400 45.53300
H  5.61800 -5.74100 47.11600
H  6.99300 -5.37200 46.12000
H  7.20400 -1.28500 42.77300
H  7.90700 2.06100 45.47600
H  8.41900 2.30200 43.95100
H  9.64200 1.61400 44.99800
Mg 35.01800 2.66700 30.09700
C  32.56300 3.53300 32.57100
C  37.36300 2.66200 32.52600
C  37.45200 2.27800 27.79100
C  32.59800 3.00600 27.70500
N  34.91800 2.91400 32.23700
C  33.86000 3.21900 33.03800
C  34.27700 3.27700 34.47900
C  35.80500 3.42600 34.44600
C  36.04700 2.92500 32.97000
C  36.39300 4.79800 34.97900
C  33.69800 2.14000 35.42400
C  33.23500 2.55800 36.87300
H  33.88400 3.76200 37.62700
N  37.05300 2.30700 30.19900
C  37.84200 2.37500 31.29500
C  39.29500 2.27500 30.93100
C  39.36400 2.17700 29.51900
C  37.93900 2.27100 29.07500
C  40.42600 2.35800 31.91500
C  40.58600 1.94900 28.58500
O  40.51300 1.83800 27.36800
C  42.04600 1.71900 29.05400
N  35.04500 2.54700 28.07300
C  36.12300 2.32500 27.31200
C  35.73100 2.24700 25.82100
C  34.19700 2.48800 25.81900
C  33.93700 2.68200 27.30400
C  36.48600 3.26100 24.92200
C  33.32300 1.34600 25.16400
C  32.50200 1.69500 23.93700
N  33.05200 3.18900 30.05400
C  32.15000 3.28100 29.07600
C  30.85700 3.68400 29.49300
C  30.99000 3.88600 30.89800
C  32.33100 3.46000 31.19200
C  29.64400 3.98200 28.61700
C  30.29600 4.26700 32.12000
O  29.15200 4.73300 32.30300
C  31.34900 4.09300 33.25000
C  31.55700 5.40500 33.90000
O  32.37800 6.23400 33.53000
O  30.65800 5.58800 34.94200
C  30.57900 6.94600 35.48100
H  38.06600 2.81800 33.34700
H  38.22600 2.24400 27.02000
H  31.91200 3.27600 26.89900
H  33.79900 4.18900 34.83800
H  36.22900 2.65600 35.09100
H  35.81600 5.46300 35.62200
H  36.60000 5.48900 34.16200
H  37.20900 4.50300 35.63900
H  34.35600 1.28000 35.54500
H  32.78700 1.82700 34.91300
H  33.23800 1.64000 37.46100
H  32.16800 2.76400 36.78700
H  41.00600 1.43800 31.84200
H  40.01600 2.33800 32.92500
H  41.04300 3.24000 31.74700
H  42.59500 1.14100 28.31100
H  42.10300 1.14200 29.97700
H  42.63000 2.63000 29.18800
H  35.86700 1.19200 25.58000
H  33.87800 3.36900 25.26200
H  36.79500 4.16400 25.44900
H  35.91200 3.44600 24.01400
H  37.37700 2.82500 24.46900
H  32.70500 0.96000 25.97500
H  33.99300 0.54300 24.85700
H  32.72200 2.69800 23.57200
H  31.44900 1.72200 24.21900
H  32.65400 0.96200 23.14400
H  29.70800 4.89300 28.02100
H  28.81800 4.08200 29.32000
H  29.49500 3.12400 27.96200
H  31.02900 3.50800 34.11200
H  30.42900 7.66600 34.67600
H  31.49500 7.30100 35.95500
H  29.72900 7.09000 36.14700

