158

Mg 6.48900 53.22800 42.28400
C  6.37100 49.71800 42.07400
C  9.46600 53.11800 40.71500
C  6.09800 56.47100 41.70200
C  3.09500 53.05100 43.24000
N  7.64300 51.57700 41.30500
C  7.44800 50.21700 41.37900
C  8.59900 49.40500 40.65800
C  9.61800 50.58800 40.55300
C  8.86800 51.84300 40.84000
C  10.91800 50.31100 41.44700
C  8.27600 48.77000 39.25500
C  7.21300 49.45200 38.28500
H  7.62900 49.73800 36.81300
N  7.58800 54.64800 41.38500
C  8.88400 54.39800 40.98900
C  9.52200 55.67500 40.70200
C  8.55700 56.68700 40.94300
C  7.31400 55.96600 41.31500
C  10.98500 55.79800 40.37200
C  8.82900 58.15600 41.02600
O  9.94900 58.55200 40.75300
C  7.83300 59.09700 41.45700
N  4.83100 54.57000 42.56200
C  4.98500 55.90100 42.32100
C  3.64100 56.71900 42.62100
C  2.65800 55.53900 42.92700
C  3.58000 54.29500 43.01400
C  3.80600 57.65500 43.84800
C  1.67700 55.25300 41.76100
C  0.77400 56.38000 41.35400
N  5.05100 51.80500 42.80800
C  3.77400 51.88000 43.24000
C  3.18200 50.58500 43.48100
C  4.18400 49.70400 43.12900
C  5.32400 50.45200 42.70000
C  1.75500 50.14600 43.91800
C  4.49400 48.30800 43.09800
O  3.95900 47.30500 43.51800
C  5.94000 48.22900 42.32400
C  5.64800 47.52800 41.05800
O  4.77600 47.91100 40.21000
O  6.34200 46.36300 40.92700
C  5.89300 45.43900 39.85000
H  10.46400 53.11000 40.27200
H  5.91700 57.54200 41.59100
H  2.06600 52.94500 43.58900
H  8.86800 48.65900 41.40600
H  9.86100 50.71900 39.49800
H  11.17900 51.24900 41.93700
H  11.78500 50.24800 40.78900
H  10.85400 49.44800 42.11000
H  7.95300 47.77800 39.57000
H  9.26700 48.78400 38.80200
H  6.97400 50.41600 38.73500
H  6.29500 48.88200 38.42900
H  11.34000 56.81400 40.53900
H  11.14200 55.49200 39.33800
H  11.50500 55.14000 41.06900
H  7.06100 59.20000 40.69500
H  8.33600 60.06200 41.52500
H  7.49300 58.70700 42.41700
H  3.39200 57.32600 41.75100
H  2.19200 55.59600 43.91100
H  3.59300 58.68600 43.56400
H  4.80200 57.71800 44.28700
H  3.15900 57.36800 44.67700
H  1.01600 54.48900 42.17100
H  2.14500 54.78700 40.89300
H  0.68000 57.14600 42.12300
H  -0.25600 56.08900 41.15000
H  1.13700 56.79400 40.41200
H  1.37900 50.80600 44.70000
H  1.81900 49.11500 44.26700
H  1.04900 50.16400 43.08700
H  6.65000 47.61400 42.87600
H  5.96000 46.00600 38.92100
H  4.86800 45.07400 39.92100
H  6.56600 44.58100 39.83300
Mg 9.25500 48.27200 25.57300
C  7.33100 48.32700 28.51400
C  11.83700 49.57600 27.39600
C  11.13500 48.27500 22.85000
C  6.38500 47.79100 23.65000
N  9.46100 48.94900 27.66200
C  8.65400 48.81000 28.74900
C  9.33800 49.17900 30.06200
C  10.51000 50.05000 29.57000
C  10.69000 49.47700 28.10300
C  10.13000 51.58600 29.57100
C  9.76400 47.88900 30.83600
C  10.25800 48.09600 32.22700
H  9.90700 46.96500 33.21400
N  11.28200 48.64700 25.23300
C  12.22900 49.14000 26.11200
C  13.54600 49.20500 25.46300
C  13.29400 48.81000 24.13600
C  11.91500 48.55100 24.03000
C  14.79200 49.65100 26.14600
C  14.30500 48.75400 22.93700
O  13.94400 48.33900 21.86500
C  15.73600 49.05500 23.21600
N  8.74000 47.95100 23.50700
C  9.77300 48.08000 22.57300
C  9.17300 47.79000 21.11300
C  7.68800 47.56200 21.38200
C  7.57000 47.84300 22.92100
C  9.62400 48.89700 20.08400
C  7.13900 46.11600 21.07900
C  5.85000 46.05700 20.31700
N  7.27200 48.14500 25.95000
C  6.23500 47.92100 25.07900
C  4.99100 47.82100 25.83500
C  5.38500 47.92800 27.17200
C  6.77600 48.14300 27.14300
C  3.62800 47.45500 25.38400
C  4.96300 47.80500 28.52400
O  3.86600 47.66400 28.97200
C  6.21000 48.02400 29.46400
C  6.46200 46.88600 30.26000
O  6.92500 45.78000 29.96400
O  6.15000 47.27300 31.56800
C  6.29900 46.17000 32.52300
H  12.62300 50.06900 27.97200
H  11.70100 48.27200 21.91600
H  5.45900 47.66400 23.08500
H  8.67800 49.84600 30.61700
H  11.35800 49.92500 30.24300
H  9.10000 51.75800 29.88500
H  10.38700 51.88700 28.55500
H  10.88400 52.04700 30.20800
H  10.45200 47.32400 30.20600
H  8.92800 47.19600 30.73600
H  9.87300 49.05500 32.57600
H  11.34400 48.16600 32.15800
H  14.67700 49.75000 27.22500
H  15.00000 50.63700 25.73200
H  15.62300 48.98200 25.92200
H  16.21100 48.13300 23.55100
H  15.85000 49.89600 23.90100
H  16.03400 49.32300 22.20300
H  9.68600 46.86500 20.85100
H  7.15900 48.34100 20.83300
H  10.11800 49.67900 20.66000
H  8.72900 49.35000 19.65700
H  10.24900 48.50400 19.28200
H  6.98300 45.66200 22.05800
H  7.88000 45.61100 20.46000
H  5.85800 45.74400 19.27300
H  5.36900 47.03200 20.24100
H  5.14800 45.42000 20.85400
H  3.44800 47.34700 24.31500
H  2.93400 48.23100 25.70800
H  3.19800 46.60100 25.90700
H  6.02400 48.92600 30.04700
H  6.95700 46.50100 33.32600
H  6.77200 45.22400 32.26000
H  5.31000 46.02400 32.95900

