158

Mg 48.56800 34.67000 27.38500
C  46.41800 33.23000 29.92300
C  48.58100 37.57100 29.33500
C  49.84700 36.16700 24.70300
C  47.80800 31.82400 25.39900
N  47.60900 35.27000 29.46300
C  46.89100 34.48600 30.36500
C  46.74700 35.26200 31.69600
C  47.04000 36.73300 31.22000
C  47.74800 36.56300 29.90100
C  45.79000 37.55200 31.09600
C  47.72700 34.55200 32.71300
C  48.69300 35.49100 33.46900
H  48.04200 36.45100 34.37500
N  49.31000 36.54900 27.15400
C  49.31400 37.57300 28.06900
C  50.37300 38.47800 27.64900
C  50.61200 38.19900 26.24600
C  49.91500 36.92700 25.96100
C  50.82400 39.62900 28.53200
C  51.40100 39.05400 25.26900
O  51.61800 38.67300 24.11700
C  52.04500 40.35800 25.66800
N  48.70600 34.01900 25.36000
C  49.34300 34.82100 24.45700
C  49.52400 34.14400 23.06000
C  49.29400 32.68100 23.49100
C  48.52800 32.79200 24.80100
C  48.45700 34.63000 22.04600
C  50.61900 31.84700 23.60600
C  50.52400 30.33300 23.70800
N  47.44500 32.82200 27.62800
C  47.32800 31.74500 26.72300
C  46.58000 30.69400 27.40200
C  46.19300 31.25300 28.68000
C  46.72600 32.54500 28.73000
C  46.18600 29.26700 26.90800
C  45.43100 30.89200 29.91000
O  44.85000 29.88400 30.16400
C  45.34500 32.35500 30.63400
C  45.45500 32.00800 32.07500
O  46.52300 31.59400 32.61500
O  44.27500 32.44500 32.66500
C  44.16400 32.19300 34.10800
H  48.76300 38.49600 29.88600
H  50.23200 36.66600 23.81100
H  47.59600 30.95700 24.77100
H  45.73300 35.15000 32.08000
H  47.78000 37.17500 31.88600
H  45.62600 37.96600 32.09100
H  44.95400 36.94700 30.74600
H  45.87900 38.33400 30.34200
H  48.21400 33.77200 32.12600
H  47.26300 34.01800 33.54200
H  49.48300 35.88500 32.82900
H  49.15100 34.79500 34.17200
H  51.86500 39.86600 28.31000
H  50.77100 39.40400 29.59700
H  50.39400 40.59400 28.26400
H  51.35900 40.86900 26.34300
H  52.27800 40.99800 24.81700
H  52.93300 40.12400 26.25500
H  50.48500 34.35400 22.59000
H  48.65000 32.14900 22.79000
H  47.83300 35.37200 22.54500
H  47.70600 33.95400 21.63600
H  49.05400 34.90200 21.17500
H  51.14500 32.10000 24.52700
H  51.19700 32.17400 22.74300
H  50.69400 30.17300 24.77300
H  51.22800 29.85300 23.02700
H  49.49500 30.02900 23.51400
H  46.91500 28.79400 26.24900
H  45.24600 29.37200 26.36700
H  45.99700 28.63500 27.77600
H  44.35700 32.75800 30.40900
H  44.75900 31.40500 34.57000
H  43.10900 31.94200 34.21400
H  44.30200 33.15000 34.61100
Mg -11.24100 16.41000 41.98000
C  -7.89800 15.01900 41.96900
C  -9.88200 19.29900 40.68800
C  -14.38300 17.46600 41.53500
C  -12.34100 13.28400 42.89200
N  -9.13400 16.97700 41.44200
C  -7.92300 16.36100 41.51700
C  -6.76700 17.17900 41.03700
C  -7.43200 18.53700 40.89400
C  -8.91000 18.25000 40.99500
C  -6.88400 19.61600 41.81600
C  -6.25600 16.56600 39.64300
C  -4.83400 16.77000 39.35000
H  -4.19700 15.80400 38.32100
N  -12.00400 18.11500 41.20500
C  -11.31700 19.23800 40.75700
C  -12.32500 20.20700 40.33700
C  -13.67400 19.71400 40.61600
C  -13.39000 18.31600 41.10100
C  -11.87400 21.58200 39.72900
C  -14.95800 20.54800 40.38300
O  -14.91700 21.69900 39.96100
C  -16.36300 19.93800 40.62000
N  -13.11800 15.40100 41.93400
C  -14.27500 16.10800 41.85500
C  -15.48700 15.20000 42.13600
C  -14.85800 13.94300 42.81600
C  -13.39500 14.17900 42.52300
C  -16.72400 15.81300 42.92000
C  -15.45800 12.58000 42.25100
C  -16.10200 11.68300 43.40800
N  -10.35400 14.59700 42.49100
C  -10.91800 13.40700 42.83000
C  -9.92000 12.38300 43.12900
C  -8.66600 12.98400 42.79800
C  -9.03100 14.29200 42.35400
C  -10.18500 11.00000 43.47600
C  -7.24300 12.80600 42.79700
O  -6.55700 11.79100 43.03900
C  -6.66400 14.07000 42.22400
C  -5.92800 14.55300 43.40400
O  -6.43500 14.78200 44.44300
O  -4.57300 14.57700 43.14400
C  -3.81500 15.29500 44.27500
H  -9.55500 20.24200 40.24700
H  -15.36500 17.93300 41.44100
H  -12.58800 12.29000 43.27200
H  -6.04100 17.17100 41.85000
H  -7.22400 18.93200 39.90000
H  -7.66700 20.23600 42.25200
H  -6.12800 20.26700 41.37700
H  -6.23200 19.23200 42.60100
H  -6.84200 16.95500 38.81000
H  -6.40400 15.49100 39.75000
H  -4.23100 16.68900 40.25400
H  -4.62000 17.78300 39.01100
H  -12.57500 21.85900 38.94200
H  -10.92600 21.44200 39.20900
H  -11.83800 22.34400 40.50800
H  -17.11300 20.69300 40.38600
H  -16.48000 19.62500 41.65800
H  -16.37200 19.19600 39.82200
H  -15.78500 14.89100 41.13400
H  -14.83300 13.98700 43.90500
H  -16.96500 15.44000 43.91600
H  -17.60700 15.91600 42.29000
H  -16.54300 16.87700 43.07300
H  -14.68100 12.03400 41.71700
H  -16.10700 12.79300 41.40200
H  -17.14200 11.56500 43.10400
H  -16.02100 12.13000 44.39900
H  -15.50400 10.77500 43.48100
H  -9.28100 10.39100 43.48500
H  -10.88800 10.58400 42.75300
H  -10.56700 10.93100 44.49400
H  -6.03000 14.01700 41.33900
H  -3.21300 14.51100 44.73400
H  -4.36100 15.77000 45.09100
H  -3.22200 16.06500 43.78000

