158

Mg 46.80100 16.79900 27.86700
C  44.97300 16.22400 30.88500
C  48.94800 18.76500 29.71300
C  48.37100 17.65700 25.02800
C  44.24100 15.57400 26.15000
N  46.82100 17.56200 30.12300
C  46.05900 17.06300 31.19200
C  46.58700 17.58800 32.53200
C  47.75100 18.54600 32.10700
C  47.90600 18.18700 30.56200
C  47.83600 20.03500 32.50400
C  46.89300 16.36700 33.47900
C  46.00000 16.29400 34.72100
H  45.69800 17.55900 35.43200
N  48.45100 18.04100 27.45600
C  49.21400 18.74000 28.35900
C  50.28700 19.32400 27.60100
C  50.14700 19.00200 26.25000
C  48.94800 18.18400 26.18200
C  51.31800 20.26600 28.27400
C  51.08200 19.28900 25.03100
O  50.84700 18.91600 23.90800
C  52.37600 19.96400 25.23200
N  46.49700 16.44100 25.92100
C  47.25900 16.85000 24.89700
C  46.65700 16.66500 23.52800
C  45.49000 15.68100 23.83000
C  45.37100 15.89200 25.40300
C  46.28000 17.98000 22.72900
C  45.75200 14.24200 23.26000
C  46.01300 13.10000 24.28300
N  44.95600 15.95600 28.33300
C  44.00200 15.46000 27.51700
C  42.90100 14.91300 28.31200
C  43.22000 15.15600 29.62800
C  44.46900 15.84700 29.58800
C  41.87300 14.09300 27.57600
C  42.76100 14.99300 30.96600
O  41.72300 14.48800 31.43800
C  43.88600 15.71100 31.86100
C  43.14200 16.78200 32.58600
O  43.03700 17.92400 32.22100
O  42.51600 16.25400 33.65800
C  41.64000 17.15300 34.37600
H  49.60400 19.42100 30.28800
H  48.91400 17.83800 24.09900
H  43.47100 15.13700 25.51100
H  45.84500 18.28000 32.93000
H  48.58000 18.09400 32.65300
H  46.96000 20.22100 33.12600
H  47.79800 20.70100 31.64200
H  48.66400 20.15800 33.20200
H  47.94300 16.37000 33.77000
H  46.69200 15.45100 32.92300
H  46.59500 15.65700 35.37500
H  45.05300 15.79400 34.51700
H  51.56900 21.09500 27.61200
H  52.18400 19.65700 28.53400
H  50.85400 20.60200 29.20100
H  53.06700 19.43500 25.88900
H  52.03900 20.92100 25.62900
H  53.04100 20.12600 24.38400
H  47.39100 16.15700 22.90300
H  44.63400 16.06500 23.27600
H  45.31000 17.99800 22.23200
H  47.03500 18.34000 22.03000
H  46.19100 18.77800 23.46600
H  46.64100 14.13900 22.63800
H  44.85300 13.90800 22.74200
H  46.75100 13.49100 24.98300
H  46.32800 12.21600 23.72800
H  45.07100 12.96000 24.81400
H  41.05500 14.66900 27.14400
H  41.46200 13.44300 28.34900
H  42.31100 13.46800 26.79700
H  44.06000 14.85100 32.50800
H  42.16700 18.06000 34.67100
H  41.23300 16.65400 35.25600
H  40.78700 17.40600 33.74600
Mg 42.95100 42.00300 26.64200
C  42.35100 44.24000 29.33500
C  43.96700 39.75700 29.03500
C  43.91500 40.14000 24.23300
C  42.44400 44.77700 24.46000
N  43.12000 42.03100 28.90000
C  42.76800 42.99700 29.83900
C  42.78400 42.49600 31.26800
C  43.64000 41.23000 31.07700
C  43.54200 40.91800 29.57300
C  45.12700 41.19300 31.57800
C  41.46400 42.30800 32.00400
C  41.25300 43.00700 33.36400
H  42.01800 42.40900 34.52000
N  43.81500 40.20500 26.58700
C  44.02900 39.36800 27.66000
C  44.50800 38.11400 27.17200
C  44.40800 38.11300 25.75300
C  44.05800 39.53500 25.45000
C  45.02700 36.95200 28.06400
C  44.59500 37.07100 24.68600
O  44.64900 37.28700 23.48900
C  44.86400 35.68000 24.97600
N  43.34000 42.50800 24.61200
C  43.71000 41.43800 23.76300
C  43.45400 41.82700 22.28400
C  42.97400 43.30500 22.38200
C  42.91900 43.59100 23.87100
C  44.56400 41.53300 21.24300
C  41.51600 43.52800 21.75300
C  40.35500 42.85000 22.54800
N  42.52900 44.07100 26.79100
C  42.23000 44.98600 25.83600
C  41.66700 46.08000 26.38300
C  41.68400 45.93500 27.77600
C  42.24500 44.64000 28.02900
C  41.33300 47.40000 25.71000
C  41.39900 46.56500 29.05500
O  41.04800 47.70600 29.39400
C  41.86700 45.48400 30.13400
C  42.84300 46.00600 31.09900
O  43.95000 46.27900 30.72300
O  42.35100 46.00900 32.38700
C  43.39600 46.51600 33.33600
H  44.26700 39.00100 29.76300
H  44.03500 39.50100 23.35600
H  42.15300 45.48700 23.68400
H  43.36600 43.17700 31.88800
H  43.17500 40.39400 31.60000
H  45.17600 40.48800 32.40700
H  45.57300 42.09400 32.00100
H  45.78200 40.82800 30.78700
H  41.27500 41.26000 32.23700
H  40.57200 42.50900 31.41200
H  40.19000 43.06700 33.59500
H  41.59000 44.04200 33.30400
H  44.26100 36.20200 28.26200
H  45.24200 37.28600 29.07900
H  45.91500 36.57900 27.55400
H  45.76100 35.73700 25.59200
H  45.07200 35.02800 24.12700
H  44.03500 35.30800 25.57700
H  42.64400 41.16200 21.98200
H  43.66700 44.03400 21.96200
H  44.10900 41.00500 20.40400
H  45.37800 40.99200 21.72600
H  45.02000 42.42200 20.80900
H  41.46000 43.25000 20.70000
H  41.29300 44.59100 21.83700
H  39.75700 43.53500 23.15000
H  40.73600 42.14100 23.28400
H  39.77100 42.19000 21.90600
H  40.86200 47.20800 24.74600
H  42.25400 47.93500 25.47800
H  40.70200 47.97100 26.39100
H  40.92600 45.32000 30.65900
H  42.99100 46.27100 34.31800
H  43.52100 47.59100 33.20200
H  44.34700 45.99600 33.22500

