158

Mg -12.12300 16.78700 40.49200
C  -8.89300 15.47600 40.13000
C  -10.70200 19.90200 40.22600
C  -15.19600 18.03200 40.21000
C  -13.38900 13.55600 40.53600
N  -10.04500 17.65700 40.08300
C  -8.90800 16.90000 39.99700
C  -7.59400 17.80000 40.00200
C  -8.18800 19.28100 40.14300
C  -9.71200 18.96100 40.18800
C  -7.73800 20.20600 41.32800
C  -6.76800 17.69900 38.67100
C  -5.36500 17.08700 38.73400
H  -4.80700 15.73200 38.17200
N  -12.85600 18.74400 40.11600
C  -12.11400 19.84900 40.05800
C  -13.08800 20.95100 39.82700
C  -14.37400 20.42100 39.78400
C  -14.23200 18.99800 40.01900
C  -12.54500 22.34000 39.67000
C  -15.57400 21.21400 39.56000
O  -15.51600 22.43800 39.34800
C  -16.95400 20.56300 39.47600
N  -14.01500 15.87200 40.24900
C  -15.14200 16.60200 40.31100
C  -16.40500 15.74900 40.42700
C  -15.86200 14.34000 40.26500
C  -14.27400 14.58100 40.51800
C  -17.13100 15.99700 41.81800
C  -16.08200 13.60000 38.84600
C  -17.51100 13.31800 38.51300
N  -11.38000 14.90600 40.31300
C  -11.98800 13.66700 40.50600
C  -11.06500 12.61500 40.48700
C  -9.79000 13.22900 40.26300
C  -10.04700 14.65900 40.22700
C  -11.47100 11.19500 40.62800
C  -8.35200 13.08600 40.19300
O  -7.67400 12.08000 40.34800
C  -7.74700 14.49000 40.14300
C  -6.82000 14.53100 41.26400
O  -7.09900 14.99800 42.34000
O  -5.55100 14.18000 40.89000
C  -4.57300 14.35500 41.96300
H  -10.23500 20.88300 40.12100
H  -16.23300 18.36500 40.13800
H  -13.80200 12.54500 40.55600
H  -6.99400 17.51000 40.86400
H  -8.10000 19.88400 39.24000
H  -8.60100 20.45500 41.94600
H  -7.40000 21.11900 40.83800
H  -6.95800 19.67900 41.87800
H  -6.74800 18.61700 38.08300
H  -7.29200 17.05300 37.96700
H  -5.11500 17.15500 39.79300
H  -4.63000 17.75800 38.29000
H  -13.08800 22.92200 38.92500
H  -11.53100 22.36200 39.26900
H  -12.49400 22.93700 40.58000
H  -16.80800 19.75000 38.76400
H  -17.73900 21.25300 39.17000
H  -17.20400 20.24700 40.48900
H  -17.06800 16.04200 39.61200
H  -16.18800 13.63700 41.03200
H  -18.05400 16.57500 41.86300
H  -16.41300 16.29000 42.58300
H  -17.55700 15.02800 42.08100
H  -15.39100 12.78000 38.65100
H  -15.68600 14.36500 38.17700
H  -17.69900 12.24500 38.49000
H  -17.82900 13.60100 37.50900
H  -18.18500 13.81100 39.21400
H  -11.84800 10.76200 39.70100
H  -12.11100 10.91400 41.46400
H  -10.46500 10.79300 40.75200
H  -7.14500 14.60000 39.24000
H  -4.40200 15.43000 42.02400
H  -3.58100 13.99200 41.69400
H  -4.83300 13.98500 42.95400
Mg -4.80300 25.73000 26.42100
C  -3.19500 26.85000 29.30700
C  -6.64400 23.58000 28.28300
C  -5.82000 24.29200 23.57600
C  -2.33600 27.68100 24.58300
N  -4.81600 25.18400 28.53000
C  -4.22700 25.92600 29.54700
C  -4.86600 25.58300 30.93000
C  -5.76600 24.28400 30.66300
C  -5.75100 24.30000 29.09900
C  -5.17500 22.91300 31.03500
C  -5.63300 26.69400 31.77200
C  -5.67400 26.57300 33.28400
H  -5.41900 25.24100 34.03100
N  -6.18900 24.23300 26.02200
C  -6.90400 23.48700 26.92000
C  -7.87200 22.65700 26.23700
C  -7.65400 22.86300 24.85000
C  -6.50000 23.79300 24.73800
C  -8.86300 21.88400 27.02800
C  -8.32700 22.23000 23.65400
O  -7.96100 22.34800 22.49800
C  -9.53400 21.37000 23.86100
N  -3.89400 25.72700 24.41700
C  -4.63000 25.04000 23.40100
C  -4.18200 25.60700 21.96500
C  -3.00400 26.60900 22.37900
C  -3.06200 26.67700 23.88300
C  -3.64100 24.59000 20.89000
C  -3.25400 28.04700 21.71100
C  -2.71100 28.16600 20.28200
N  -3.11500 27.07600 26.75800
C  -2.25300 27.77100 25.96100
C  -1.39300 28.55400 26.81700
C  -1.77700 28.26900 28.09800
C  -2.78400 27.33200 27.98100
C  -0.23000 29.53100 26.45500
C  -1.43900 28.53700 29.45100
O  -0.53000 29.23600 29.92100
C  -2.37200 27.64600 30.26200
C  -1.55000 26.79700 31.09500
O  -0.88900 25.77600 30.70600
O  -1.57800 27.34600 32.36500
C  -1.00200 26.46100 33.39100
H  -7.25600 23.00000 28.97700
H  -6.27900 23.99800 22.63000
H  -1.78500 28.42800 24.00800
H  -4.07800 25.23800 31.59900
H  -6.72900 24.50600 31.12300
H  -4.41800 23.03700 31.81000
H  -4.80200 22.27300 30.23600
H  -6.02600 22.44600 31.53100
H  -6.66800 26.66500 31.43300
H  -5.12500 27.61400 31.48300
H  -6.69600 26.81200 33.57600
H  -4.97300 27.33800 33.61700
H  -9.63900 22.59500 27.31400
H  -8.38000 21.52600 27.93700
H  -9.21400 20.98100 26.53000
H  -9.17100 20.61600 24.55900
H  -9.76700 21.00100 22.86200
H  -10.38900 21.97500 24.16500
H  -5.12800 25.94300 21.53900
H  -2.08000 26.22500 21.94700
H  -4.12800 24.68900 19.92000
H  -3.89900 23.56600 21.16000
H  -2.60300 24.82800 20.65900
H  -2.81500 28.91200 22.20900
H  -4.31500 28.08900 21.46100
H  -2.12100 27.28900 20.01900
H  -1.96300 28.95400 20.19400
H  -3.43100 28.52200 19.54500
H  -0.53400 30.24600 25.69100
H  0.62100 28.94000 26.11700
H  0.18500 30.09100 27.29400
H  -3.02300 28.20700 30.93300
H  0.08800 26.47200 33.37200
H  -1.41900 25.46100 33.27900
H  -1.28200 26.74100 34.40600

