158

Mg 7.41700 2.76200 28.21500
C  8.80300 1.47100 31.32600
C  5.47300 4.83400 30.21600
C  5.94200 3.68100 25.48700
C  9.15600 0.22000 26.61900
N  7.13100 3.01600 30.49000
C  7.86800 2.50600 31.48800
C  7.60800 3.20400 32.82700
C  6.38200 4.10000 32.50900
C  6.33400 4.01100 30.95000
C  5.11800 3.83300 33.40900
C  8.84900 4.00400 33.32900
C  8.67600 4.75200 34.69500
H  9.53100 4.18400 35.80300
N  5.88600 4.11900 27.89900
C  5.24800 4.93900 28.83100
C  4.47100 5.87300 28.05900
C  4.56500 5.61300 26.64400
C  5.41500 4.42100 26.63700
C  3.64900 7.05000 28.69500
C  4.03600 6.38200 25.42700
O  4.22100 6.00200 24.25400
C  3.12600 7.56100 25.56700
N  7.57400 2.14700 26.38900
C  6.86400 2.64700 25.35300
C  7.31600 2.12100 24.01100
C  8.49400 1.18100 24.38100
C  8.37800 1.18800 25.92100
C  6.18000 1.40200 23.29500
C  9.86200 1.71400 23.81900
C  10.94800 2.43400 24.69300
N  8.60800 1.08700 28.83000
C  9.24600 0.07900 28.03000
C  9.92000 -0.91000 28.83400
C  9.78500 -0.36200 30.07000
C  8.96600 0.80000 30.08200
C  10.74600 -2.06200 28.33800
C  10.35200 -0.43400 31.36800
O  11.20100 -1.16500 31.81400
C  9.60900 0.61200 32.26700
C  8.68900 -0.16600 33.18900
O  7.64500 -0.76500 32.79500
O  9.08400 -0.07200 34.47100
C  8.46900 -1.00000 35.42800
H  4.89600 5.46600 30.89400
H  5.52900 4.01300 24.53200
H  9.75900 -0.47700 26.03400
H  7.34300 2.45100 33.56900
H  6.78800 5.04100 32.88100
H  4.89300 4.72900 33.98600
H  5.28400 3.00100 34.09300
H  4.29700 3.56200 32.74500
H  9.28900 4.65300 32.57100
H  9.72200 3.36500 33.45800
H  7.62900 4.67300 34.98700
H  8.92800 5.79700 34.51000
H  2.62600 6.68200 28.60800
H  3.59900 8.05600 28.27800
H  3.79300 7.21900 29.76200
H  3.46700 8.42800 25.00100
H  2.76600 7.85400 26.55300
H  2.22100 7.21600 25.06700
H  7.50900 3.00600 23.40500
H  8.36200 0.10900 24.23300
H  5.28000 1.25100 23.89100
H  6.43400 0.42200 22.89100
H  5.92800 1.97400 22.40200
H  9.57200 2.28100 22.93500
H  10.29300 0.78800 23.43700
H  10.56600 2.75400 25.66300
H  11.21900 3.33700 24.14600
H  11.82500 1.80400 24.84300
H  10.70400 -1.95200 27.25500
H  10.24100 -3.00400 28.54900
H  11.73300 -1.99400 28.79600
H  10.31600 1.27700 32.76500
H  9.17200 -1.73600 35.81900
H  7.63700 -1.58400 35.03500
H  7.97700 -0.39200 36.18700
Mg 39.99600 9.82400 29.88300
C  41.87600 11.04700 32.73400
C  37.55200 8.71900 32.06600
C  38.41800 8.49100 27.26200
C  42.72400 10.68600 27.89300
N  39.88800 9.63400 32.20300
C  40.65500 10.40900 33.14400
C  40.02200 10.32100 34.55900
C  38.70800 9.50500 34.26100
C  38.65100 9.31400 32.74100
C  38.58400 8.16800 35.01400
C  39.77000 11.79200 35.15400
C  40.67500 12.19500 36.35800
H  40.12100 12.60300 37.69800
N  38.14800 8.77300 29.66500
C  37.33900 8.43800 30.69300
C  36.21700 7.76900 30.14200
C  36.47100 7.64600 28.78300
C  37.67000 8.36000 28.45600
C  35.11200 7.24000 30.99000
C  35.60800 6.97100 27.69000
O  35.92500 6.78300 26.53100
C  34.32300 6.42200 28.05500
N  40.45800 9.71100 27.81400
C  39.68200 9.03000 26.93300
C  40.23000 9.02800 25.47800
C  41.64600 9.65700 25.74100
C  41.67600 9.99600 27.26800
C  40.40000 7.52500 24.99600
C  41.97500 10.90800 24.87100
C  41.18000 12.18400 25.25400
N  41.95700 10.69400 30.14400
C  42.90200 11.06100 29.20800
C  43.98600 11.74000 29.91400
C  43.60100 11.79800 31.29800
C  42.34100 11.06600 31.38400
C  45.18000 12.38400 29.30700
C  44.01800 12.31000 32.60100
O  45.12100 12.79300 32.91500
C  42.90800 11.78100 33.59500
C  43.63000 10.84100 34.59300
O  43.80700 9.63600 34.50300
O  44.14400 11.61600 35.59600
C  44.56600 10.98200 36.84500
H  36.72400 8.59100 32.76700
H  37.93900 8.06800 26.37700
H  43.71400 10.88900 27.48100
H  40.81500 9.87200 35.15800
H  37.79700 10.09100 34.38000
H  38.51500 7.37400 34.27000
H  37.62300 8.25500 35.52100
H  39.38000 7.98500 35.73500
H  38.73700 11.89000 35.48900
H  39.82500 12.55200 34.37500
H  41.36800 12.97300 36.03800
H  41.24000 11.28400 36.55400
H  34.21200 7.78100 30.69700
H  35.31400 7.23800 32.06100
H  35.07400 6.17600 30.75900
H  34.45900 5.72900 28.88600
H  33.83300 5.97000 27.19200
H  33.65200 7.20100 28.41800
H  39.57100 9.50300 24.75100
H  42.37100 8.86900 25.53700
H  39.98100 6.74800 25.63700
H  41.44900 7.25300 24.88000
H  39.88400 7.27400 24.06900
H  41.88700 10.49800 23.86400
H  43.04900 11.09200 24.85300
H  41.86000 12.97000 25.58400
H  40.50000 11.98500 26.08200
H  40.56200 12.47900 24.40700
H  44.99500 12.74900 28.29800
H  45.94400 11.60800 29.25700
H  45.43600 13.17400 30.01300
H  42.48200 12.65700 34.08400
H  44.21000 11.55600 37.70100
H  45.64300 11.15000 36.86800
H  44.32400 9.92000 36.88200

