158

Mg 43.97500 3.99800 47.17300
C  41.93100 6.72500 46.71800
C  41.37300 1.84400 46.57500
C  46.16200 1.31800 47.21200
C  46.69500 6.22500 47.17100
N  41.96600 4.26500 46.76400
C  41.28300 5.46600 46.59500
C  39.82800 5.28600 46.17900
C  39.66200 3.72200 46.55000
C  41.09500 3.23200 46.64900
C  38.76900 3.52000 47.77800
C  39.59800 5.56900 44.66400
C  38.37800 6.45400 44.34600
H  37.67900 6.19800 43.03700
N  43.82100 1.88600 47.03400
C  42.64400 1.18700 46.82400
C  42.85000 -0.22600 46.90500
C  44.28200 -0.37500 46.90400
C  44.87200 0.96700 47.07300
C  41.71200 -1.25900 46.82000
C  45.03400 -1.70900 46.71500
O  44.33000 -2.77800 46.65800
C  46.40800 -1.82000 46.33600
N  46.18000 3.82200 47.25300
C  46.81100 2.60700 47.31100
C  48.31700 2.81000 47.41000
C  48.42600 4.30200 47.67700
C  47.04100 4.86300 47.22200
C  48.93400 1.90000 48.55500
C  49.75600 4.88600 47.08800
C  50.77100 5.52600 48.04600
N  44.31100 6.02400 46.95000
C  45.45500 6.79800 46.92200
C  45.12300 8.21300 46.91400
C  43.71100 8.26400 46.87900
C  43.30800 6.93100 46.83300
C  46.05300 9.42000 46.90200
C  42.56600 9.07500 46.69500
O  42.53000 10.29600 46.64500
C  41.31400 8.16900 46.68000
C  40.44500 8.53900 47.79700
O  40.48600 8.00800 48.87000
O  39.53800 9.47400 47.55500
C  38.52500 9.81700 48.57500
H  40.50600 1.19900 46.41500
H  46.93900 0.55200 47.24400
H  47.51600 6.94400 47.12400
H  39.32200 5.97500 46.85400
H  39.26400 3.10000 45.74800
H  38.13800 4.38400 47.98900
H  39.34000 3.26100 48.66900
H  38.04500 2.75300 47.50100
H  39.40100 4.56600 44.28600
H  40.45500 5.98000 44.13000
H  38.54500 7.52600 44.45200
H  37.67700 6.30600 45.16700
H  41.90400 -1.80300 45.89500
H  40.69900 -0.86300 46.74500
H  41.73100 -1.93100 47.67800
H  47.16100 -1.84800 47.12400
H  46.76000 -1.16200 45.54200
H  46.49800 -2.81300 45.89600
H  48.77300 2.49800 46.47100
H  48.56000 4.43000 48.75100
H  48.24300 1.38100 49.21900
H  49.58800 2.44200 49.23900
H  49.54100 1.10600 48.12100
H  49.51600 5.65400 46.35300
H  50.24700 4.15900 46.44200
H  51.15600 6.43200 47.57800
H  51.63000 4.94800 48.38900
H  50.30900 5.65800 49.02400
H  46.75700 9.47600 46.07200
H  46.53200 9.30900 47.87400
H  45.39900 10.28100 46.76800
H  40.86500 8.23800 45.68900
H  38.86300 10.33900 49.46900
H  37.96800 8.97100 48.97600
H  37.78600 10.38600 48.01000
Mg 48.11400 44.62500 43.63300
C  44.66400 44.06100 43.21200
C  48.62700 41.39000 42.54700
C  51.42100 45.27800 43.62400
C  47.36700 48.06000 43.39700
N  46.74800 43.02400 42.92200
C  45.38800 42.93200 42.91000
C  44.84600 41.57000 42.66300
C  46.17600 40.66700 42.65900
C  47.31400 41.74000 42.71600
C  46.29400 39.63500 43.81300
C  44.06200 41.34700 41.35300
C  44.47200 42.19900 40.21800
H  44.15700 41.50400 38.90300
N  49.80000 43.41000 43.31600
C  49.79900 42.10100 42.84600
C  51.16900 41.73300 42.72700
C  52.02600 42.77300 43.11300
C  51.09400 43.88900 43.43700
C  51.50200 40.34200 42.33800
C  53.53500 42.74600 43.18800
O  54.15100 41.77500 42.79300
C  54.36300 43.92400 43.73600
N  49.24400 46.44300 43.43200
C  50.55700 46.41700 43.66400
C  51.12200 47.79400 43.70800
C  49.89400 48.71600 43.33300
C  48.76700 47.69100 43.40000
C  51.85200 48.08700 45.09600
C  50.01300 49.44400 41.95800
C  50.31400 50.92200 41.99900
N  46.35500 45.86900 43.62100
C  46.23500 47.23300 43.57400
C  44.75500 47.54300 43.53900
C  44.14100 46.29000 43.36600
C  45.17300 45.33500 43.44000
C  44.00200 48.92600 43.45700
C  42.81800 45.61000 43.16000
O  41.70900 46.16300 43.14200
C  43.13100 44.13300 43.13600
C  42.33900 43.43300 44.27700
O  41.38900 42.66100 44.10600
O  42.68500 43.73200 45.60500
C  41.90000 43.26700 46.75800
H  48.71600 40.36200 42.19000
H  52.49700 45.39600 43.47800
H  47.05100 49.09900 43.50800
H  44.15600 41.18500 43.41400
H  46.36800 40.22600 41.68100
H  45.34800 39.49400 44.33500
H  46.99300 39.94600 44.58900
H  46.50400 38.70500 43.28500
H  43.04400 41.61000 41.64000
H  44.00500 40.26300 41.25800
H  45.55700 42.27900 40.28900
H  44.06800 43.20500 40.33500
H  52.04800 40.21700 41.40300
H  50.66500 39.65800 42.19700
H  52.17600 39.92700 43.08600
H  54.46300 44.67300 42.95100
H  55.36200 43.57300 43.99400
H  53.96300 44.49000 44.57800
H  51.86900 47.87400 42.91900
H  49.74200 49.51800 44.05500
H  51.57700 47.36400 45.86500
H  51.57500 49.09000 45.42300
H  52.93900 48.06400 45.02100
H  49.05400 49.36600 41.44500
H  50.79500 48.97000 41.36400
H  51.16300 51.16200 41.35900
H  50.49500 51.16100 43.04700
H  49.39500 51.49900 41.89800
H  43.89300 49.37900 42.47200
H  44.65900 49.60500 44.00100
H  43.05000 48.91200 43.98800
H  42.78500 43.69200 42.20100
H  41.92000 42.18800 46.91100
H  40.86500 43.60700 46.72200
H  42.44100 43.66500 47.61600

