158

Mg -11.26500 38.00700 42.69500
C  -9.06800 35.40100 41.46800
C  -9.42100 40.19100 40.98600
C  -13.83000 40.00400 42.96700
C  -13.26300 35.32200 44.16400
N  -9.54800 37.74000 41.26100
C  -8.81100 36.61900 40.96700
C  -7.61900 36.97300 40.09900
C  -7.60700 38.57500 40.24600
C  -8.97400 38.89500 40.85600
C  -6.40700 39.13000 41.08400
C  -7.78900 36.46100 38.65400
C  -6.62600 35.60900 38.24200
H  -5.54000 36.26800 37.38200
N  -11.65300 39.88100 42.06400
C  -10.71100 40.66100 41.45700
C  -11.17000 41.97100 41.38800
C  -12.43100 41.99400 42.06600
C  -12.73900 40.59300 42.40900
C  -10.36800 42.96500 40.69200
C  -13.23300 43.21400 42.30200
O  -12.87000 44.34700 41.87500
C  -14.53600 43.14100 43.04000
N  -13.25500 37.65000 43.43600
C  -14.12700 38.70100 43.38100
C  -15.49000 38.28700 43.98200
C  -15.35800 36.72800 44.15900
C  -13.85300 36.52400 43.91000
C  -16.00600 39.11800 45.18500
C  -16.20700 35.81200 43.18700
C  -17.21300 34.86800 43.82000
N  -11.11600 35.85100 42.98100
C  -11.95500 34.94800 43.68800
C  -11.22200 33.64500 43.67400
C  -10.10800 33.78900 42.82800
C  -10.10200 35.13000 42.40200
C  -11.71700 32.49000 44.33900
C  -9.03700 33.05000 42.21300
O  -8.79400 31.82500 42.29500
C  -8.28200 34.08400 41.27300
C  -6.80400 34.02900 41.64000
O  -6.23200 34.83900 42.38700
O  -6.21000 32.98000 41.01000
C  -4.76100 32.75100 41.36100
H  -8.80100 41.03100 40.66600
H  -14.68900 40.67600 43.01800
H  -13.87300 34.52300 44.59100
H  -6.71000 36.55100 40.52700
H  -7.45000 39.08200 39.29400
H  -5.93300 39.78400 40.35200
H  -5.63700 38.42500 41.39800
H  -6.68400 39.73100 41.95000
H  -7.70200 37.33400 38.00800
H  -8.78600 36.04200 38.51600
H  -7.03800 34.70900 37.78400
H  -6.20900 35.18300 39.15500
H  -9.42700 43.19700 41.19000
H  -10.86600 43.91600 40.50200
H  -10.13200 42.69200 39.66300
H  -15.26200 42.66100 42.38300
H  -14.73100 44.18800 43.27300
H  -14.37800 42.67900 44.01500
H  -16.30000 38.38600 43.26000
H  -15.63200 36.38000 45.15500
H  -16.84600 39.63800 44.72500
H  -15.27100 39.86700 45.47900
H  -16.38600 38.49300 45.99200
H  -15.50300 35.22500 42.59600
H  -16.69600 36.37000 42.38800
H  -17.56500 35.37600 44.71900
H  -16.77100 33.92800 44.14800
H  -18.13200 34.79600 43.23900
H  -12.29900 32.49700 45.26100
H  -10.86700 31.96500 44.77500
H  -12.07700 31.66900 43.72100
H  -8.42800 33.78200 40.23600
H  -4.52600 31.73700 41.03600
H  -4.64400 32.89200 42.43500
H  -4.06200 33.47200 40.93700
Mg -2.07700 34.76500 27.22500
C  -3.55900 33.00400 30.00400
C  -0.57300 36.73500 29.24100
C  -0.75700 36.04300 24.44000
C  -3.98600 32.50500 25.17600
N  -2.21400 34.87700 29.29000
C  -2.81100 34.21700 30.28900
C  -2.50000 34.77100 31.70700
C  -1.72500 36.07700 31.38600
C  -1.51500 35.86100 29.88600
C  -2.30800 37.46200 31.74100
C  -1.64300 33.68700 32.49700
C  -2.35300 33.04800 33.68200
H  -1.77900 33.30100 35.13000
N  -0.88700 36.16600 26.90200
C  -0.21300 36.85300 27.88900
C  0.74100 37.75300 27.28400
C  0.74200 37.49900 25.92300
C  -0.34200 36.56200 25.68300
C  1.51800 38.69000 28.19200
C  1.55300 38.23800 24.78100
O  1.29800 38.17600 23.63600
C  2.58700 39.29200 25.22800
N  -2.49300 34.44100 25.05100
C  -1.69000 35.05300 24.13900
C  -2.21700 34.71100 22.74900
C  -2.98700 33.34500 23.02200
C  -3.17800 33.41000 24.53400
C  -3.08900 35.89500 22.23600
C  -2.38500 32.04600 22.50400
C  -1.02300 31.57900 23.08000
N  -3.48200 33.11100 27.45400
C  -4.15000 32.31800 26.53600
C  -4.94200 31.32300 27.13500
C  -4.68000 31.50500 28.48400
C  -3.83500 32.63500 28.68000
C  -5.74600 30.22200 26.46800
C  -4.84400 30.96800 29.83700
O  -5.40300 29.96400 30.19500
C  -4.23700 31.97500 30.84300
C  -5.36500 32.48300 31.67400
O  -6.05200 33.41800 31.31100
O  -5.55300 31.70600 32.75600
C  -6.52800 32.22600 33.68700
H  -0.07900 37.29700 30.03600
H  -0.40100 36.59900 23.57000
H  -4.33400 31.70500 24.52000
H  -3.41600 35.00200 32.24900
H  -0.75800 36.06700 31.88900
H  -2.75100 37.85700 30.82700
H  -1.50500 38.14600 32.01500
H  -3.03700 37.36600 32.54600
H  -0.69700 34.19200 32.69100
H  -1.49100 32.85200 31.81200
H  -2.49400 31.98000 33.52100
H  -3.35600 33.47100 33.62200
H  2.53500 38.47000 27.86500
H  1.36900 38.63300 29.27100
H  1.35300 39.70900 27.84200
H  3.40700 38.65000 25.55000
H  2.30100 39.92100 26.07200
H  2.98800 39.92200 24.43400
H  -1.37400 34.56900 22.07200
H  -4.01700 33.34700 22.66500
H  -2.86100 36.79100 22.81300
H  -4.15800 35.70500 22.32400
H  -2.75800 36.06800 21.21200
H  -2.18000 32.23500 21.45000
H  -3.10600 31.22800 22.51400
H  -0.89400 32.10100 24.02800
H  -0.29500 31.90500 22.33600
H  -1.05500 30.51000 23.29300
H  -5.33200 30.01200 25.48200
H  -6.77300 30.55800 26.32600
H  -5.70300 29.34700 27.11700
H  -3.61000 31.39900 31.52300
H  -6.25000 33.13800 34.21500
H  -6.80000 31.45000 34.40200
H  -7.45600 32.48500 33.17800

