158

Mg 43.52100 3.51400 48.60600
C  41.50800 6.41100 48.10600
C  40.57100 1.65700 48.24100
C  45.37400 0.80200 48.32900
C  46.42900 5.61800 48.33100
N  41.34700 4.01300 48.30900
C  40.75100 5.26700 48.21000
C  39.30000 5.14000 47.85200
C  38.97700 3.63500 48.08300
C  40.40600 3.03300 48.26900
C  37.99000 3.28700 49.19800
C  38.80500 5.66800 46.44200
C  39.83300 5.69500 45.24800
H  39.52300 6.81300 44.27500
N  43.01300 1.51200 48.44100
C  41.78500 0.91900 48.28900
C  41.94100 -0.52800 48.12700
C  43.30800 -0.82400 48.36000
C  43.93400 0.53000 48.37800
C  40.85900 -1.52200 47.90200
C  43.97500 -2.29200 48.49400
O  43.33300 -3.32300 48.32400
C  45.44200 -2.40500 48.86800
N  45.67900 3.25400 48.39300
C  46.16600 1.98300 48.37300
C  47.64300 2.01800 48.42300
C  47.95700 3.51000 48.48800
C  46.64000 4.19300 48.39900
C  48.26600 1.07500 49.46400
C  48.99500 4.06900 47.46700
C  50.22700 4.71900 48.10600
N  43.96700 5.54900 48.27200
C  45.18100 6.25800 48.18900
C  44.83200 7.69900 48.02400
C  43.37600 7.71500 48.00800
C  42.93600 6.43700 48.19900
C  45.70600 8.93500 48.07800
C  42.23400 8.59500 47.79700
O  42.30100 9.80700 47.45700
C  40.98800 7.79600 47.78400
C  39.98500 8.17200 48.82700
O  40.03600 7.93600 50.00400
O  39.02000 8.91400 48.24500
C  38.03800 9.45000 49.15800
H  39.65600 1.11800 47.98500
H  46.04700 -0.05700 48.37100
H  47.36500 6.17200 48.23200
H  38.78100 5.69500 48.63300
H  38.75200 3.26600 47.08200
H  37.51700 4.20900 49.53800
H  38.47600 2.63700 49.92500
H  37.27400 2.69500 48.62800
H  38.55700 6.72100 46.57800
H  37.87000 5.25900 46.05800
H  39.81300 4.80500 44.61900
H  40.80400 5.84300 45.72100
H  41.03200 -2.37300 48.55900
H  40.90600 -1.92800 46.89100
H  39.90800 -1.02400 48.09300
H  45.57700 -1.66800 49.66000
H  46.00600 -2.04600 48.00700
H  45.93900 -3.35300 49.07300
H  47.89200 1.65900 47.42400
H  48.31500 3.69000 49.50100
H  47.46600 0.78100 50.14300
H  49.00500 1.58900 50.07800
H  48.77800 0.19300 49.07800
H  48.50700 4.78300 46.80300
H  49.41700 3.29800 46.82100
H  50.17800 4.84100 49.18800
H  50.28600 5.71600 47.66700
H  51.14900 4.18800 47.87100
H  45.69300 9.56700 47.19000
H  46.72000 8.54600 48.16400
H  45.60500 9.48500 49.01300
H  40.53100 7.85900 46.79700
H  37.30300 8.67800 49.38700
H  37.54400 10.27200 48.64000
H  38.50300 9.90000 50.03500
Mg 35.91600 1.94300 29.59500
C  33.68400 3.33300 32.13900
C  38.32900 1.96600 31.85200
C  38.05100 1.31700 27.13500
C  33.28300 2.41400 27.27900
N  35.96000 2.75000 31.72800
C  34.99000 3.06900 32.58900
C  35.36200 3.01300 34.11800
C  36.94500 2.69800 33.96800
C  37.15300 2.52300 32.39000
C  37.95100 3.75100 34.59700
C  34.56900 1.89900 34.95100
C  34.10600 2.41400 36.30600
H  35.13900 3.28300 37.07500
N  37.84700 1.64300 29.54600
C  38.67200 1.64300 30.53300
C  39.99000 1.05400 30.10500
C  39.91500 0.94100 28.71600
C  38.54100 1.28800 28.43300
C  41.07000 0.70400 31.03600
C  40.97500 0.42700 27.71500
O  40.73700 0.22800 26.50000
C  42.29300 0.12900 28.21700
N  35.69700 1.81500 27.51700
C  36.73500 1.52900 26.67100
C  36.36400 1.49400 25.17100
C  34.92200 1.95700 25.23000
C  34.55300 2.03700 26.74500
C  37.29200 2.40200 24.34600
C  33.89500 1.08300 24.46300
C  33.38700 -0.20500 25.05300
N  33.84300 2.67000 29.65800
C  32.88300 2.68900 28.65000
C  31.65700 3.18700 29.18900
C  31.89700 3.44700 30.58300
C  33.25500 3.18100 30.81700
C  30.32600 3.43100 28.50300
C  31.35200 3.94500 31.81000
O  30.24600 4.40500 32.08900
C  32.46400 3.78100 32.89400
C  32.52200 5.01500 33.82900
O  32.93700 6.11800 33.49700
O  31.88300 4.74900 35.03200
C  31.63400 5.78700 36.01600
H  39.14800 1.88400 32.57000
H  38.70500 1.19800 26.26900
H  32.40600 2.51000 26.63600
H  35.44100 3.99000 34.59400
H  37.28000 1.85000 34.56600
H  37.56100 4.71000 34.93800
H  38.72900 4.08300 33.91100
H  38.41800 3.34200 35.49400
H  35.24500 1.05300 35.07700
H  33.69300 1.54900 34.40400
H  33.82800 1.54100 36.89700
H  33.18600 2.99600 36.34200
H  41.96000 1.33400 31.03200
H  41.29300 -0.36200 31.00100
H  40.72100 0.78700 32.06500
H  42.81100 1.04800 28.49100
H  42.75000 -0.50700 27.45900
H  42.17300 -0.48700 29.10800
H  36.25100 0.46100 24.84100
H  34.68700 2.95800 24.86900
H  37.93600 1.67700 23.84800
H  37.84700 3.04200 25.03200
H  36.75400 2.92300 23.55400
H  34.38800 0.72400 23.56000
H  33.04100 1.65200 24.09400
H  33.97400 -0.41500 25.94800
H  33.56500 -0.99600 24.32500
H  32.31800 -0.09500 25.23200
H  29.48600 3.80400 29.09000
H  29.91400 2.52000 28.06900
H  30.44300 4.08300 27.63700
H  32.08400 2.94800 33.48600
H  31.19900 6.66200 35.53300
H  32.52100 6.26300 36.43400
H  30.98800 5.58500 36.87000

