158

Mg 43.97500 4.40100 46.58900
C  41.80700 7.09700 46.39300
C  41.11400 2.35200 46.37500
C  46.01700 1.70300 46.05500
C  46.66400 6.57200 45.97500
N  41.81400 4.70200 46.39900
C  41.11600 5.90000 46.26600
C  39.60500 5.76100 46.00500
C  39.41100 4.22300 46.33200
C  40.86900 3.73200 46.36000
C  38.89800 3.83600 47.71500
C  39.15500 6.11400 44.58200
C  40.03500 5.68900 43.40400
H  40.23700 6.68400 42.23700
N  43.61600 2.35900 46.28700
C  42.38300 1.73400 46.24100
C  42.54600 0.32000 46.12100
C  43.97600 0.07300 45.82600
C  44.64600 1.37700 46.12200
C  41.43300 -0.68300 46.14000
C  44.57500 -1.23800 45.36200
O  43.84400 -2.17800 45.03000
C  46.09200 -1.34500 45.16700
N  45.99200 4.21100 46.07900
C  46.62600 2.97700 46.17000
C  48.16900 3.04600 46.16700
C  48.33800 4.58200 46.16200
C  46.94100 5.17800 46.09300
C  48.95200 2.32000 47.33700
C  49.26400 5.15000 45.03500
C  48.86500 4.95700 43.56800
N  44.26800 6.45600 46.49300
C  45.41900 7.20500 46.18200
C  45.02500 8.66300 46.27800
C  43.61400 8.65700 46.45600
C  43.22000 7.29500 46.49600
C  45.80400 9.84100 46.18000
C  42.42300 9.46100 46.49600
O  42.30800 10.69300 46.52600
C  41.25400 8.52600 46.53200
C  40.36100 8.78600 47.74900
O  40.35000 8.15000 48.77800
O  39.49300 9.68900 47.35100
C  38.36500 9.92600 48.24100
H  40.22600 1.77300 46.11300
H  46.74800 0.89400 46.01100
H  47.58700 7.15300 46.02800
H  39.07500 6.42100 46.69200
H  38.85400 3.78000 45.50700
H  38.58300 4.77100 48.17800
H  39.58100 3.45200 48.47400
H  38.05100 3.15800 47.60500
H  38.85300 7.16100 44.54100
H  38.32800 5.42400 44.41500
H  39.75400 4.73300 42.96200
H  41.05600 5.60500 43.77600
H  41.81200 -1.61600 46.55600
H  41.13800 -0.89500 45.11200
H  40.59200 -0.23100 46.66600
H  46.51900 -1.23900 46.16400
H  46.56000 -0.59300 44.53100
H  46.39200 -2.35700 44.89500
H  48.56200 2.66600 45.22400
H  48.80600 5.00000 47.05300
H  49.82600 1.83700 46.89900
H  48.33500 1.50700 47.72100
H  49.43500 2.93400 48.09700
H  50.18400 4.57500 45.13900
H  49.31100 6.23100 45.16300
H  48.26000 5.83800 43.35500
H  48.33300 4.03700 43.32500
H  49.78100 4.98600 42.97800
H  45.48900 10.63600 45.50300
H  46.83500 9.58000 45.94500
H  45.84100 10.31500 47.16100
H  40.67800 8.74700 45.63300
H  38.20000 9.06200 48.88500
H  37.43400 10.03600 47.68500
H  38.59100 10.78000 48.88000
Mg 26.45100 50.38400 26.48500
C  24.03800 51.60300 28.74800
C  28.58100 49.75100 29.05900
C  28.61400 49.46500 24.22300
C  24.27200 51.53600 23.89300
N  26.28700 50.70100 28.65800
C  25.19600 51.04100 29.38800
C  25.41900 50.72100 30.87900
C  26.99200 50.53800 30.91600
C  27.31800 50.26100 29.46800
C  27.73300 51.67200 31.58900
C  24.73200 49.37600 31.44000
C  23.91300 49.69300 32.75000
H  24.59800 50.37600 33.96000
N  28.37400 49.58800 26.60600
C  29.10100 49.39800 27.76400
C  30.43000 48.89300 27.43300
C  30.47100 48.92800 26.01800
C  29.07400 49.28300 25.51900
C  31.52900 48.67100 28.43300
C  31.57700 48.50100 25.09800
O  31.63100 48.67200 23.93900
C  32.83400 47.84500 25.73500
N  26.48000 50.68000 24.31900
C  27.43900 49.99200 23.64800
C  27.11500 49.93400 22.16900
C  25.63200 50.46000 22.09700
C  25.39100 50.87900 23.51900
C  28.16200 50.54700 21.09400
C  24.61900 49.51900 21.41000
C  23.96000 48.34900 22.21200
N  24.63900 51.51700 26.27800
C  23.90000 51.85300 25.23900
C  22.71200 52.52500 25.65500
C  22.61600 52.39700 27.01800
C  23.91500 51.82300 27.34700
C  21.75600 53.29500 24.73200
C  21.91500 52.59200 28.28300
O  20.76900 52.99200 28.55800
C  22.79100 52.09500 29.37300
C  22.88800 53.11800 30.39000
O  23.50500 54.18600 30.30500
O  22.11200 52.71800 31.47900
C  22.29900 53.53400 32.62700
H  29.24000 49.52100 29.89900
H  29.32600 49.23100 23.42900
H  23.56300 51.69900 23.07800
H  25.10400 51.56800 31.48800
H  27.12400 49.65600 31.54300
H  27.21200 52.33300 32.28200
H  28.31700 52.33500 30.95200
H  28.43400 51.18500 32.26700
H  25.36900 48.54000 31.72700
H  24.05200 49.10000 30.63400
H  23.45100 48.77100 33.10500
H  23.03700 50.25400 32.42300
H  31.91200 47.68400 28.17500
H  31.26700 48.56200 29.48500
H  32.38600 49.33700 28.32900
H  33.43800 47.30900 25.00300
H  32.52600 47.04100 26.40200
H  33.52500 48.58800 26.13300
H  27.02000 48.86800 21.96200
H  25.71000 51.41900 21.58600
H  28.96000 51.21400 21.42100
H  27.63700 51.26600 20.46500
H  28.57000 49.73400 20.49300
H  25.14900 48.99000 20.61700
H  23.78100 50.14700 21.11000
H  24.30500 48.22800 23.23900
H  24.19000 47.40200 21.72600
H  22.87700 48.46100 22.16600
H  22.11100 54.26600 24.38900
H  20.85000 53.52400 25.29300
H  21.64100 52.74400 23.79900
H  22.52200 51.15800 29.86000
H  22.45800 54.58000 32.36700
H  23.12000 53.07500 33.17800
H  21.44100 53.38600 33.28200

