158

Mg -1.98700 17.35500 26.47400
C  -2.50800 15.01500 29.11300
C  -2.78000 19.84400 28.72500
C  -1.67000 19.41500 23.99000
C  -1.54600 14.53300 24.33500
N  -2.45500 17.36200 28.72600
C  -2.63400 16.33100 29.55200
C  -3.09900 16.85300 30.95500
C  -3.45000 18.37800 30.65700
C  -2.87900 18.59400 29.28900
C  -4.99600 18.67400 30.77800
C  -2.03000 16.59300 32.02700
C  -2.61100 16.10500 33.34200
H  -1.66800 15.89900 34.45500
N  -2.06000 19.39300 26.43000
C  -2.26900 20.24900 27.46800
C  -1.96500 21.61200 27.01200
C  -1.70100 21.43000 25.60800
C  -1.83700 20.03600 25.26900
C  -2.01200 22.77400 27.88800
C  -1.28800 22.47100 24.61900
O  -0.96300 22.27300 23.41400
C  -1.09200 23.79500 25.08900
N  -1.82500 16.97900 24.43200
C  -1.64600 18.03100 23.56500
C  -1.39500 17.57300 22.15600
C  -1.13400 16.07800 22.38100
C  -1.63700 15.84800 23.80200
C  -2.50800 17.91900 21.12900
C  0.36400 15.63200 22.14100
C  1.33500 15.52900 23.40300
N  -2.12800 15.20400 26.58200
C  -1.93500 14.19800 25.61900
C  -2.25500 12.91600 26.22700
C  -2.45300 13.15900 27.54400
C  -2.30800 14.57600 27.76500
C  -2.17300 11.62900 25.57900
C  -2.70600 12.53900 28.82600
O  -2.82000 11.38800 29.20800
C  -2.77400 13.70600 29.89400
C  -1.63000 13.49000 30.90400
O  -0.45500 13.75700 30.68300
O  -2.05100 12.87400 32.03500
C  -1.21800 12.63000 33.20100
H  -2.89500 20.65400 29.44700
H  -1.43700 20.06000 23.14000
H  -1.32000 13.70700 23.65800
H  -4.03100 16.29600 31.05400
H  -2.93500 19.00600 31.38300
H  -5.38100 19.30500 29.97800
H  -5.24000 19.17200 31.71700
H  -5.62300 17.79000 30.65700
H  -1.58600 17.56400 32.24600
H  -1.11000 16.06900 31.76600
H  -3.02900 15.15000 33.02500
H  -3.32500 16.87200 33.64000
H  -2.29300 22.50300 28.90500
H  -2.83300 23.44200 27.62700
H  -1.10100 23.36800 27.96100
H  -1.96200 24.20800 25.59900
H  -0.99800 24.41200 24.19500
H  -0.13400 23.92000 25.59300
H  -0.48800 18.06900 21.80800
H  -1.81200 15.45800 21.79400
H  -3.13500 18.73200 21.49500
H  -3.17400 17.06500 21.00200
H  -2.03300 18.15900 20.17800
H  0.87800 16.38600 21.54600
H  0.31400 14.73400 21.52600
H  0.87900 16.03800 24.25200
H  2.31600 16.00000 23.34400
H  1.50200 14.45900 23.53000
H  -1.17800 11.33700 25.24300
H  -2.79800 11.53300 24.69100
H  -2.51700 10.89300 26.30500
H  -3.70700 13.70600 30.45700
H  -1.60400 13.33200 33.94100
H  -0.14200 12.68200 33.04000
H  -1.41700 11.61500 33.54400
Mg 47.62500 15.40800 28.56800
C  45.54000 15.62900 31.29900
C  50.03200 17.26500 30.49100
C  49.67400 15.51300 26.03700
C  44.96000 14.29200 26.66400
N  47.68000 16.35800 30.58600
C  46.76300 16.22900 31.60500
C  47.31200 16.64300 32.97700
C  48.63300 17.36000 32.60500
C  48.83500 16.93000 31.10700
C  48.62600 18.91500 32.89700
C  47.44200 15.42200 33.92400
C  47.24500 15.67800 35.44600
H  46.78400 17.07000 35.89100
N  49.63400 16.10300 28.25700
C  50.41000 16.82500 29.17400
C  51.64900 17.09700 28.58000
C  51.67000 16.51700 27.28000
C  50.30000 15.99500 27.16800
C  52.77100 17.85900 29.30500
C  52.79100 16.31400 26.22000
O  52.64500 15.88600 25.11900
C  54.13900 16.83900 26.49700
N  47.37100 14.87100 26.62600
C  48.41300 14.94100 25.76800
C  47.90000 14.66500 24.38300
C  46.53200 14.04300 24.56800
C  46.22500 14.44500 26.01000
C  47.93500 15.87000 23.41700
C  46.47600 12.47100 24.42000
C  47.43300 11.60300 25.24500
N  45.63900 14.97400 28.83700
C  44.68100 14.46400 28.03600
C  43.47800 14.22800 28.74700
C  43.71000 14.64500 30.09400
C  45.05000 15.09000 30.09600
C  42.27200 13.62400 28.14000
C  43.22800 14.70900 31.44000
O  42.18500 14.29700 31.92200
C  44.40700 15.29800 32.29300
C  43.87400 16.48800 33.02700
O  44.04900 17.66500 32.71800
O  43.14100 16.08300 34.10500
C  42.27300 16.97000 34.84100
H  50.74300 17.88600 31.03900
H  50.30100 15.64300 25.15200
H  44.21200 13.74500 26.08600
H  46.55100 17.33800 33.33300
H  49.45900 16.99800 33.21600
H  49.43000 19.30400 33.52200
H  47.71700 19.28400 33.37100
H  48.75300 19.43000 31.94500
H  48.40900 14.94800 33.75300
H  46.65600 14.72800 33.62600
H  48.07700 15.43300 36.10600
H  46.54300 14.91700 35.78600
H  53.57400 18.25700 28.68400
H  52.99000 17.28700 30.20600
H  52.25400 18.76000 29.63700
H  54.25800 17.89700 26.26600
H  54.82900 16.37200 25.79400
H  54.42600 16.64800 27.53100
H  48.55200 13.92100 23.92700
H  45.76800 14.54200 23.97100
H  48.17000 16.72400 24.05200
H  46.95900 16.00100 22.95000
H  48.70100 15.76100 22.65000
H  46.61900 12.19100 23.37600
H  45.46200 12.12000 24.61000
H  48.05600 11.05700 24.53700
H  46.89300 10.86600 25.84100
H  48.03200 12.18300 25.94700
H  42.21900 13.74400 27.05800
H  41.43700 13.92900 28.77000
H  42.38900 12.54000 28.14400
H  44.71700 14.59700 33.06800
H  42.41900 17.99400 34.49500
H  42.58200 17.01900 35.88500
H  41.21100 16.74200 34.75500

