158

Mg 24.71500 -7.11700 47.30700
C  27.19600 -4.95100 46.04300
C  22.62100 -5.88500 44.99100
C  22.66500 -9.77600 47.82900
C  27.29000 -8.77600 49.01500
N  24.91300 -5.68300 45.71700
C  26.00000 -4.87100 45.41600
C  25.75300 -3.98000 44.25600
C  24.15700 -4.12300 44.01000
C  23.87500 -5.30700 44.94600
C  23.24100 -2.88400 44.35000
C  26.69100 -4.31500 42.99700
C  27.62500 -3.04700 42.66000
H  27.62600 -2.51500 41.26500
N  22.79000 -7.65100 46.61500
C  22.01800 -6.90600 45.77900
C  20.76400 -7.57400 45.62500
C  20.75200 -8.70800 46.44500
C  22.09500 -8.76700 47.02700
C  19.66200 -7.14900 44.68200
C  19.55700 -9.62400 46.52600
O  18.46100 -9.39700 45.94500
C  19.57400 -10.88600 47.35200
N  24.84500 -8.99600 48.38700
C  23.94000 -9.99800 48.36500
C  24.44700 -11.19100 49.22100
C  25.84100 -10.79300 49.63400
C  26.07600 -9.43200 48.97800
C  23.42400 -11.58300 50.41300
C  27.05100 -11.80700 49.30700
C  27.93000 -12.25800 50.45900
N  26.85800 -6.94500 47.45200
C  27.75400 -7.70400 48.23900
C  29.09000 -7.08200 48.21800
C  28.83400 -5.97900 47.35700
C  27.52800 -6.00500 46.93700
C  30.40800 -7.58800 48.84500
C  29.47600 -4.87400 46.71200
O  30.60100 -4.43800 46.80100
C  28.44900 -4.10500 45.97500
C  28.35500 -2.75900 46.55500
O  28.45600 -2.44700 47.73800
O  28.17800 -1.76500 45.63300
C  27.83500 -0.41400 46.05700
H  21.94000 -5.43400 44.26600
H  22.04100 -10.64800 48.03300
H  28.12700 -9.29500 49.48700
H  25.97300 -2.95600 44.55900
H  24.01200 -4.29500 42.94300
H  23.03100 -2.54400 43.33600
H  23.77600 -2.09800 44.88400
H  22.38100 -3.31000 44.86500
H  26.03200 -4.55000 42.16100
H  27.32800 -5.14500 43.30300
H  28.67500 -3.32100 42.76200
H  27.52500 -2.22300 43.36700
H  19.79900 -6.13900 44.29500
H  18.66700 -7.14000 45.12600
H  19.79300 -7.87300 43.87800
H  18.56400 -11.27400 47.48400
H  20.07300 -10.79300 48.31700
H  20.00800 -11.70200 46.77400
H  24.43500 -12.09400 48.61000
H  25.70000 -10.72400 50.71300
H  22.91800 -12.51700 50.16500
H  22.52900 -10.96200 50.44100
H  23.93200 -11.62800 51.37700
H  27.79600 -11.49200 48.57700
H  26.54000 -12.70700 48.96700
H  27.81900 -13.31400 50.70500
H  27.73700 -11.71700 51.38600
H  28.97700 -12.08500 50.21000
H  30.28600 -7.97500 49.85600
H  31.21200 -6.85400 48.77900
H  30.68800 -8.49400 48.30800
H  28.90300 -4.05400 44.98600
H  28.67400 0.11500 46.50800
H  27.01800 -0.27200 46.76500
H  27.68100 0.00600 45.06300
Mg 0.77300 43.49600 26.14700
C  2.93100 42.98500 28.86000
C  -1.78900 42.46800 28.09100
C  -1.27300 43.49200 23.40600
C  3.63500 43.88900 24.10300
N  0.61700 42.94800 28.25700
C  1.62600 42.83800 29.24100
C  1.02400 42.71100 30.60200
C  -0.47400 42.29800 30.26500
C  -0.57700 42.58100 28.74200
C  -0.76100 40.76500 30.42300
C  1.12400 44.00600 31.44200
C  1.63000 43.87700 32.88200
H  1.01000 42.86400 33.82600
N  -1.28500 43.12800 25.77500
C  -2.18400 42.76200 26.80700
C  -3.49400 42.78700 26.30000
C  -3.36400 43.15600 24.89200
C  -1.95300 43.26200 24.60900
C  -4.78900 42.49000 27.16900
C  -4.48100 43.35800 23.82100
O  -4.22600 43.55700 22.65900
C  -5.92500 43.48100 24.24500
N  1.16000 43.62300 24.08200
C  0.12600 43.71600 23.18700
C  0.69300 43.81500 21.72900
C  2.16900 44.28100 21.96900
C  2.34900 43.90300 23.48300
C  0.59400 42.43700 20.99200
C  2.51800 45.70700 21.67300
C  1.55900 46.79600 22.12600
N  2.87400 43.55700 26.42300
C  3.92100 43.76500 25.52300
C  5.12600 43.68500 26.18100
C  4.82600 43.40400 27.50600
C  3.42400 43.31600 27.60600
C  6.51300 43.78900 25.58800
C  5.43900 43.16400 28.78000
O  6.62300 43.10900 29.10800
C  4.20000 43.04100 29.73000
C  4.29500 41.77100 30.58500
O  4.06200 40.67000 30.10300
O  4.59000 42.09900 31.85800
C  4.52100 41.07200 32.83800
H  -2.60600 42.17600 28.75300
H  -1.80700 43.79400 22.50200
H  4.43900 44.05300 23.38300
H  1.47100 41.90500 31.18300
H  -1.19200 42.90100 30.82000
H  -1.09900 40.28000 29.50700
H  -1.37700 40.45900 31.26800
H  0.17300 40.28400 30.71500
H  0.20500 44.58800 31.37700
H  1.77000 44.74700 30.97300
H  1.65800 44.85100 33.36900
H  2.69900 43.67900 32.81100
H  -5.76300 42.77200 26.76700
H  -4.69800 42.72700 28.22900
H  -4.72700 41.40300 27.22600
H  -6.23000 42.44400 24.38900
H  -6.44800 43.85200 23.36400
H  -6.01300 44.18700 25.07100
H  0.15800 44.63400 21.24700
H  2.83900 43.61100 21.43100
H  0.45100 41.63900 21.72000
H  1.45300 42.28000 20.34000
H  -0.28000 42.38700 20.34200
H  2.54000 45.82600 20.59000
H  3.46800 45.99500 22.12200
H  1.20400 47.30200 21.22700
H  1.99100 47.54100 22.79400
H  0.69200 46.35700 22.61900
H  7.01300 44.72400 25.84100
H  6.38500 43.71700 24.50800
H  7.11600 42.94400 25.92000
H  4.30200 43.93000 30.35300
H  3.92800 41.50900 33.64100
H  5.52900 40.89200 33.21300
H  4.07300 40.14900 32.46900

