158

Mg 55.03800 23.36200 44.39800
C  52.30800 25.61300 43.70800
C  52.94300 20.70900 43.28800
C  57.67600 21.27300 44.42600
C  57.03100 26.04600 45.22000
N  52.89400 23.23700 43.49000
C  52.02900 24.30100 43.37000
C  50.71600 23.72700 42.71400
C  50.82300 22.23000 43.03900
C  52.34300 21.97500 43.37300
C  49.84300 21.78600 44.18700
C  50.65400 23.90100 41.14800
C  49.36200 24.56800 40.61300
H  48.98900 24.17600 39.15000
N  55.24700 21.27300 43.89400
C  54.31700 20.39000 43.37100
C  54.92700 19.12200 43.09300
C  56.26800 19.20400 43.64400
C  56.45700 20.60600 44.04200
C  54.23300 17.95600 42.47600
C  57.21300 18.09600 43.70000
O  56.88800 16.98500 43.26400
C  58.57700 18.21500 44.38500
N  57.01800 23.59400 44.82700
C  57.95700 22.57900 44.78000
C  59.38100 23.05600 45.06600
C  59.17800 24.59400 45.36200
C  57.69100 24.77900 45.01900
C  60.14400 22.31600 46.18100
C  60.09700 25.62400 44.60000
C  61.46200 25.14700 44.12500
N  54.75700 25.42600 44.59900
C  55.65100 26.34400 44.96400
C  54.97500 27.62800 45.08700
C  53.68500 27.40000 44.59900
C  53.57300 26.00800 44.31200
C  55.55100 28.93600 45.37800
C  52.41600 28.06900 44.30200
O  52.12800 29.26500 44.30400
C  51.43200 26.88800 43.65600
C  51.24600 27.43300 42.23100
O  52.12800 27.53700 41.38000
O  49.97600 27.73100 41.97000
C  49.56400 28.34500 40.68200
H  52.28300 19.84500 43.19000
H  58.66000 20.81000 44.32600
H  57.74100 26.84700 45.43800
H  49.84500 24.12300 43.23700
H  50.40400 21.66100 42.20800
H  49.89500 20.70000 44.26700
H  48.82300 22.16200 44.11800
H  50.27900 22.21200 45.09100
H  50.93200 23.01900 40.57100
H  51.40700 24.65600 40.92200
H  49.51700 25.64500 40.67500
H  48.48200 24.23600 41.16500
H  53.37300 18.36000 41.94200
H  53.85500 17.29000 43.25100
H  54.87200 17.46000 41.74500
H  59.21900 18.84300 43.76700
H  59.11400 17.26800 44.33300
H  58.41500 18.65800 45.36800
H  59.88800 23.03200 44.10100
H  59.22500 24.84000 46.42300
H  61.19000 22.13200 45.93400
H  59.65400 21.39400 46.49400
H  60.29700 22.96100 47.04600
H  60.14900 26.48600 45.26500
H  59.51500 26.04100 43.77800
H  62.22400 25.91000 44.28900
H  61.49500 25.00800 43.04400
H  61.63800 24.22500 44.67800
H  55.26300 29.25200 46.38100
H  55.18100 29.66000 44.65200
H  56.62500 29.03500 45.22500
H  50.43300 26.74000 44.06600
H  49.68600 27.69000 39.82000
H  50.18700 29.21700 40.48200
H  48.59000 28.83400 40.68700
Mg -11.03500 40.23500 38.76200
C  -9.98300 37.01700 37.83400
C  -7.74000 41.27700 37.96800
C  -12.05200 43.52100 38.59600
C  -14.32700 39.23700 38.72300
N  -9.15800 39.24000 38.01900
C  -8.95000 37.93100 37.88700
C  -7.50800 37.50000 37.62400
C  -6.78400 38.89800 37.93500
C  -7.97700 39.88500 37.93700
C  -5.89500 38.92100 39.24400
C  -7.36500 36.84300 36.25800
C  -7.76800 37.68700 35.03400
H  -8.74600 37.02900 34.03600
N  -10.03300 42.16000 38.45300
C  -8.68200 42.33300 38.11000
C  -8.43800 43.70900 37.99900
C  -9.63000 44.46400 38.34100
C  -10.68300 43.35600 38.39200
C  -7.10200 44.21400 37.65100
C  -9.65300 45.98200 38.44100
O  -8.61700 46.61100 38.41800
C  -10.98700 46.68000 38.59500
N  -12.87500 41.30300 38.73400
C  -13.08700 42.63600 38.82800
C  -14.51900 43.04800 39.09900
C  -15.26900 41.67300 39.15200
C  -14.14000 40.66200 38.86600
C  -14.69300 43.90700 40.31100
C  -16.56700 41.57100 38.22500
C  -17.86300 40.78500 38.77900
N  -11.99400 38.41900 38.48000
C  -13.31100 38.18600 38.45500
C  -13.50700 36.77000 38.28300
C  -12.22800 36.26800 38.03800
C  -11.34700 37.30200 38.13000
C  -14.78700 35.97300 38.33100
C  -11.43100 35.07700 37.80500
O  -11.71900 33.87900 37.88400
C  -9.95500 35.52600 37.57600
C  -8.98000 34.82500 38.43200
O  -9.01500 34.90500 39.71500
O  -8.11400 33.95100 37.78400
C  -7.16900 33.25400 38.66500
H  -6.69500 41.45500 37.70400
H  -12.34200 44.57400 38.58100
H  -15.36800 38.90500 38.72300
H  -7.18200 36.74100 38.33600
H  -6.07000 39.11900 37.14000
H  -4.83300 38.81800 39.02400
H  -6.19000 38.11200 39.91300
H  -5.97300 39.92200 39.66800
H  -7.85200 35.86900 36.20500
H  -6.28300 36.73300 36.18500
H  -6.78300 37.77900 34.57500
H  -8.00600 38.69000 35.38900
H  -7.27100 44.88600 36.81000
H  -6.29200 43.50100 37.49500
H  -6.70100 44.77100 38.49800
H  -11.52100 46.24800 39.44100
H  -11.51900 46.46100 37.67000
H  -10.81000 47.72800 38.83900
H  -14.92800 43.65200 38.28900
H  -15.54500 41.41400 40.17400
H  -13.91700 44.07300 41.05800
H  -15.60000 43.57100 40.81300
H  -14.98000 44.84000 39.82800
H  -16.24100 40.95600 37.38600
H  -16.83200 42.54000 37.80400
H  -17.73100 39.88100 38.18500
H  -18.78900 41.28800 38.49700
H  -17.81500 40.69500 39.86400
H  -15.66100 36.51700 38.68800
H  -14.63100 35.20200 39.08600
H  -14.92300 35.46800 37.37500
H  -9.77600 35.28300 36.52800
H  -7.18800 33.46800 39.73400
H  -6.20800 33.67600 38.37300
H  -7.17800 32.17900 38.48500

