158

Mg 8.98900 2.62000 26.92800
C  10.52000 1.00700 29.70400
C  7.07500 4.49800 29.23700
C  7.68000 4.22900 24.38900
C  10.59900 0.44300 24.81800
N  8.79500 2.66600 29.25800
C  9.60600 1.99000 30.12600
C  9.23000 2.33400 31.58000
C  8.13300 3.55000 31.42100
C  7.86900 3.53600 29.89500
C  6.84600 3.41800 32.26400
C  10.46100 2.76200 32.42500
C  10.32900 3.79200 33.55300
H  11.33800 3.65100 34.70900
N  7.61100 4.20000 26.83200
C  7.04800 4.80800 27.86600
C  6.43500 6.03500 27.36600
C  6.51200 6.04900 25.93900
C  7.23100 4.78700 25.64000
C  5.70200 6.95800 28.36800
C  5.93400 6.96900 24.84800
O  6.12800 6.75300 23.66800
C  5.20300 8.21400 25.21900
N  9.01100 2.26600 24.88400
C  8.35700 3.05100 24.01200
C  8.58800 2.60000 22.53100
C  9.75500 1.58200 22.74900
C  9.71800 1.31000 24.22200
C  7.36700 2.05600 21.77600
C  11.18400 1.98600 22.24300
C  11.28600 2.11300 20.65900
N  10.21400 0.94000 27.19900
C  10.77400 0.13900 26.19000
C  11.65700 -0.72800 26.81800
C  11.56700 -0.43800 28.22500
C  10.66200 0.61500 28.38900
C  12.45500 -1.67200 26.13000
C  12.00000 -0.85800 29.57600
O  12.77800 -1.73900 29.88900
C  11.45000 0.14300 30.50400
C  10.77700 -0.64700 31.56400
O  9.71200 -1.25800 31.46900
O  11.64700 -0.63800 32.68800
C  11.00200 -0.94400 33.98300
H  6.53500 5.14200 29.93500
H  7.40500 4.88300 23.55900
H  11.07700 -0.24400 24.11600
H  8.77200 1.45400 32.03000
H  8.57100 4.51200 31.68700
H  6.88000 2.52700 32.88900
H  5.96800 3.47700 31.62000
H  6.74000 4.33300 32.84800
H  11.27400 2.93100 31.71900
H  10.77500 1.82100 32.87600
H  9.31700 3.79800 33.95700
H  10.70500 4.77200 33.25700
H  6.34300 7.29400 29.18300
H  4.77800 6.57900 28.80600
H  5.63100 7.89800 27.82100
H  4.96500 8.67800 24.26200
H  5.94600 8.78100 25.78000
H  4.31200 7.97700 25.80200
H  8.98400 3.45900 21.98900
H  9.58900 0.66600 22.18100
H  6.57000 2.02700 22.51900
H  7.63400 1.16200 21.21400
H  7.09300 2.74800 20.98000
H  11.92700 1.26300 22.57800
H  11.45200 2.96500 22.63900
H  10.37700 1.97800 20.07300
H  11.90500 1.28300 20.31600
H  11.74900 3.03700 20.31300
H  13.34200 -2.01900 26.66000
H  12.77600 -1.35700 25.13700
H  11.94100 -2.61600 25.94900
H  12.22900 0.76100 30.95000
H  10.59400 -1.94700 33.85900
H  10.15000 -0.28700 34.15800
H  11.85700 -0.78000 34.63900
Mg 42.22400 41.43200 26.51500
C  41.37900 43.82400 29.06000
C  43.02300 39.21900 29.00900
C  43.33200 39.45000 24.17900
C  41.77000 44.04400 24.12100
N  42.11600 41.51000 28.74700
C  41.76300 42.55000 29.58600
C  41.92200 42.15000 31.06900
C  42.41000 40.70100 30.97800
C  42.62500 40.48700 29.45100
C  43.67000 40.19100 31.75900
C  40.65300 42.37900 31.97000
C  40.87400 41.95400 33.44100
H  40.40800 43.00500 34.52200
N  43.09800 39.56800 26.60600
C  43.24600 38.77700 27.67900
C  43.55000 37.44500 27.33200
C  43.70900 37.43300 25.87600
C  43.39400 38.88400 25.51100
C  43.73200 36.27300 28.36800
C  43.90800 36.27600 24.83900
O  44.07500 36.49300 23.70600
C  43.97000 34.84500 25.36200
N  42.40500 41.66600 24.38200
C  42.90900 40.64800 23.63100
C  42.77400 40.98300 22.11500
C  42.17500 42.42900 22.16600
C  42.16800 42.80700 23.65100
C  44.08700 40.86500 21.32100
C  40.74200 42.52600 21.66900
C  39.62900 41.62600 22.24200
N  41.74100 43.44400 26.52800
C  41.57400 44.36100 25.46000
C  41.19600 45.67700 26.03100
C  41.10900 45.48800 27.38700
C  41.44400 44.13800 27.67000
C  40.94500 46.95900 25.31100
C  40.84000 46.18800 28.64000
O  40.53500 47.29700 28.91000
C  41.00100 45.11400 29.76900
C  42.04300 45.66200 30.61800
O  43.21500 45.88300 30.28000
O  41.54100 45.72900 31.89100
C  42.49500 46.33900 32.78300
H  43.30200 38.50300 29.78500
H  43.61000 38.69800 23.43700
H  41.51400 44.78000 23.35700
H  42.66200 42.79100 31.55000
H  41.65300 39.93200 31.13200
H  43.29300 39.44600 32.45800
H  44.03800 41.03100 32.34800
H  44.49400 39.81400 31.15300
H  39.83700 41.75200 31.61000
H  40.35700 43.42600 31.91300
H  41.93600 41.75000 33.57900
H  40.39000 40.99300 33.61800
H  44.25400 35.42300 27.92700
H  42.78000 35.85800 28.69800
H  44.34800 36.62200 29.19600
H  43.17500 34.62000 26.07400
H  44.98100 34.71000 25.74500
H  43.99600 34.09500 24.57200
H  42.17000 40.18800 21.67800
H  42.84200 42.97100 21.49500
H  44.90000 40.54100 21.97000
H  44.27700 41.67700 20.61800
H  43.87900 40.02500 20.65800
H  40.82900 42.29200 20.60800
H  40.42500 43.56600 21.75600
H  39.99000 41.16600 23.16200
H  39.24100 40.87900 21.54900
H  38.90800 42.38100 22.55300
H  40.01300 47.40200 25.66000
H  40.94000 46.69700 24.25300
H  41.80100 47.59700 25.53100
H  40.05000 45.02000 30.29300
H  42.59000 47.39500 32.53000
H  43.50900 45.95400 32.67400
H  42.14300 46.21600 33.80700

