158

Mg 16.98900 -1.01400 27.34200
C  16.25400 0.92400 30.09900
C  19.16600 -2.87600 29.32200
C  18.40200 -2.45500 24.54900
C  15.33000 1.19700 25.28700
N  17.72500 -0.81900 29.41000
C  17.14600 -0.05700 30.41900
C  17.65600 -0.43100 31.78900
C  18.76000 -1.54000 31.51700
C  18.56900 -1.75400 29.92300
C  20.26900 -1.26200 31.89300
C  16.48900 -0.89200 32.71300
C  16.32600 -0.23400 34.01400
H  17.56700 0.49200 34.66900
N  18.41500 -2.57900 26.98400
C  19.12500 -3.27700 27.97400
C  19.74700 -4.42200 27.38900
C  19.53000 -4.33600 25.93900
C  18.78700 -3.06200 25.75600
C  20.57100 -5.43900 28.20900
C  19.89400 -5.25400 24.82900
O  19.74900 -4.86800 23.65100
C  20.69200 -6.63800 25.07600
N  16.85800 -0.69600 25.24500
C  17.49600 -1.40700 24.28500
C  17.06000 -1.02500 22.84700
C  15.99600 0.05300 23.09000
C  16.09900 0.28200 24.65100
C  18.13600 -0.66000 21.81800
C  14.55400 -0.21300 22.51200
C  14.14400 0.77600 21.44500
N  15.81400 0.64300 27.59700
C  15.16500 1.42700 26.67300
C  14.46300 2.43700 27.38900
C  14.74000 2.25700 28.77800
C  15.61700 1.14400 28.84400
C  13.59000 3.49700 26.70200
C  14.60800 2.80900 30.14400
O  14.00700 3.81500 30.49900
C  15.52000 1.89100 31.05200
C  16.48700 2.76900 31.84700
O  17.53400 3.15400 31.48800
O  15.90600 3.11100 33.05700
C  16.44700 4.30700 33.69400
H  19.79000 -3.49500 29.97100
H  18.75500 -2.91200 23.62200
H  14.82600 1.82100 24.54600
H  18.06000 0.46600 32.25700
H  18.49100 -2.44800 32.05700
H  20.61200 -2.21800 32.28900
H  20.28500 -0.63100 32.78100
H  20.82800 -0.91300 31.02500
H  16.72600 -1.93700 32.90800
H  15.54500 -1.00700 32.18100
H  15.97800 -0.96800 34.74100
H  15.54400 0.51300 33.87600
H  20.32800 -6.50000 28.15200
H  20.57500 -5.21000 29.27400
H  21.62100 -5.26800 27.96900
H  21.58100 -6.53400 25.69800
H  21.04800 -7.15700 24.18600
H  19.95600 -7.32700 25.48900
H  16.46600 -1.86600 22.49100
H  16.40600 1.02200 22.80600
H  17.96700 0.33800 21.41500
H  18.23000 -1.52600 21.16200
H  19.07700 -0.55600 22.35700
H  13.80600 -0.01300 23.28000
H  14.36300 -1.23000 22.17200
H  14.88600 1.51700 21.14900
H  13.22900 1.26400 21.78200
H  13.79100 0.22000 20.57600
H  13.54600 3.41600 25.61600
H  13.95900 4.48800 26.96500
H  12.59700 3.34800 27.12700
H  14.91300 1.40900 31.81800
H  17.32000 4.02400 34.28100
H  15.80400 4.69200 34.48600
H  16.71000 5.06500 32.95600
Mg -2.76300 34.60000 27.03700
C  -4.39300 32.63600 29.35600
C  -1.48200 36.54800 29.66700
C  -1.38700 36.66500 24.74500
C  -4.60900 32.99700 24.56300
N  -3.05300 34.70800 29.29000
C  -3.65800 33.68500 29.97400
C  -3.38400 33.91800 31.51400
C  -2.57000 35.23300 31.62400
C  -2.35800 35.49300 30.13000
C  -3.22900 36.31500 32.52400
C  -2.65500 32.68200 32.07700
C  -3.39500 31.84000 33.15600
H  -2.85300 31.90800 34.56800
N  -1.45500 36.27700 27.17000
C  -1.12200 36.95600 28.29800
C  -0.09600 37.95100 27.99500
C  0.02100 38.00100 26.57300
C  -0.98800 37.00700 26.06300
C  0.63600 38.75800 28.96300
C  0.79400 38.89400 25.58800
O  0.81200 38.66500 24.41900
C  1.76400 39.95300 26.13900
N  -3.18100 34.92500 25.00500
C  -2.29900 35.67300 24.26600
C  -2.67900 35.65900 22.85800
C  -3.58700 34.36700 22.74900
C  -3.87700 34.11100 24.21900
C  -3.40400 36.91300 22.26400
C  -2.81100 33.25400 21.98500
C  -2.77600 33.45500 20.46000
N  -4.17600 33.08900 26.91900
C  -4.76600 32.46000 25.83300
C  -5.45400 31.19800 26.27300
C  -5.42800 31.29100 27.67100
C  -4.59600 32.45800 27.99700
C  -6.06300 30.25000 25.35200
C  -5.87100 30.72100 28.87200
O  -6.56300 29.73200 29.10700
C  -5.20100 31.47300 30.00300
C  -6.25800 32.07500 30.82600
O  -6.85200 33.09900 30.67700
O  -6.61700 31.16000 31.82500
C  -7.67700 31.57900 32.74500
H  -0.94100 37.06300 30.46400
H  -0.95800 37.23400 23.91700
H  -4.92300 32.35200 23.73900
H  -4.31100 33.93200 32.08600
H  -1.57700 35.06000 32.03800
H  -2.58500 36.73800 33.29500
H  -4.12900 35.98300 33.04300
H  -3.44600 37.11600 31.81800
H  -1.80300 33.15500 32.56600
H  -2.28400 32.11900 31.22100
H  -3.37400 30.80500 32.81400
H  -4.41200 32.20000 33.31100
H  0.30500 38.52700 29.97600
H  0.44300 39.80900 28.75100
H  1.69900 38.53400 28.86400
H  2.53100 39.50100 26.76800
H  1.13300 40.60200 26.74600
H  2.27200 40.54800 25.38000
H  -1.74900 35.46100 22.32600
H  -4.45000 34.60900 22.12900
H  -4.13900 37.24700 22.99600
H  -3.99000 36.57600 21.40900
H  -2.66800 37.58500 21.82300
H  -3.14600 32.24400 22.22100
H  -1.73800 33.24400 22.18000
H  -3.28700 34.34000 20.08000
H  -3.30000 32.62700 19.98300
H  -1.72100 33.37700 20.19800
H  -6.21200 29.31200 25.88600
H  -5.33300 30.13100 24.55200
H  -7.01200 30.62800 24.97100
H  -4.67400 30.65000 30.48600
H  -8.18500 32.47400 32.38600
H  -7.27000 31.77900 33.73600
H  -8.45900 30.82600 32.84900

