158

Mg 41.71500 41.05000 26.51300
C  40.99500 43.44100 28.98800
C  43.13300 38.96700 28.83300
C  42.56400 39.11300 23.91800
C  41.07400 43.74100 24.09500
N  42.09800 41.24000 28.65200
C  41.56500 42.20100 29.45900
C  41.76500 41.84600 30.97200
C  42.74900 40.62700 30.86500
C  42.66400 40.26200 29.35000
C  44.15400 40.73100 31.46400
C  40.39400 41.63500 31.72600
C  40.17000 42.82400 32.79000
H  39.52700 42.49400 34.19300
N  42.72600 39.28800 26.37300
C  43.21100 38.55000 27.41100
C  43.70000 37.27100 26.86200
C  43.38100 37.24900 25.52100
C  42.89000 38.61700 25.21500
C  44.38900 36.29200 27.74500
C  43.44000 36.04600 24.52600
O  43.19200 36.12300 23.30500
C  43.86600 34.69000 25.04000
N  41.61700 41.34300 24.28000
C  42.00200 40.37200 23.45700
C  41.68900 40.67400 21.99000
C  41.25800 42.22200 22.05400
C  41.23800 42.46600 23.52900
C  42.86200 40.46600 20.99000
C  39.86900 42.68800 21.52800
C  39.84400 43.86900 20.54200
N  41.09300 43.11500 26.50700
C  40.90500 44.03800 25.43800
C  40.47800 45.26600 26.00900
C  40.50900 45.05900 27.37700
C  40.89400 43.71800 27.60700
C  40.27500 46.53600 25.41700
C  40.25000 45.71800 28.57900
O  39.84500 46.85400 28.84100
C  40.38600 44.65500 29.70700
C  41.33200 45.25600 30.68700
O  42.53600 45.24700 30.56700
O  40.74800 45.79200 31.74200
C  41.49900 46.42600 32.81800
H  43.56500 38.23800 29.52100
H  42.77900 38.36600 23.15100
H  41.00000 44.53400 23.34700
H  42.38400 42.66800 31.33100
H  42.38500 39.76500 31.42500
H  44.36500 39.80000 31.99000
H  44.34600 41.61500 32.07100
H  44.86900 40.73600 30.64100
H  40.45200 40.68100 32.25000
H  39.61200 41.75400 30.97600
H  39.56300 43.54700 32.24600
H  41.11200 43.28900 33.08200
H  45.38500 36.03200 27.38900
H  43.79300 35.38100 27.81400
H  44.59100 36.52000 28.79200
H  43.85000 34.00000 24.19700
H  43.22600 34.35400 25.85600
H  44.89900 34.77300 25.38000
H  40.80200 40.11100 21.69800
H  42.14400 42.80800 21.81200
H  42.56200 39.72200 20.25200
H  43.71500 40.06800 21.53900
H  43.26800 41.32000 20.44900
H  39.18000 42.78500 22.36700
H  39.50900 41.86400 20.91200
H  38.84000 43.78600 20.12600
H  40.66300 44.02400 19.84000
H  39.76600 44.76600 21.15600
H  40.83900 46.64900 24.49100
H  40.46900 47.34400 26.12200
H  39.20700 46.59300 25.20900
H  39.39800 44.51400 30.14400
H  42.10000 47.26900 32.47700
H  42.23800 45.79700 33.31500
H  40.74500 46.74000 33.54000
Mg 26.84000 50.35000 26.49700
C  24.56600 51.36300 29.01600
C  29.14100 49.34000 28.79700
C  28.76700 49.46700 23.91500
C  24.68200 52.08700 24.19100
N  26.90200 50.46500 28.62200
C  25.82900 50.76100 29.48300
C  26.16000 50.24400 30.91500
C  27.59400 49.73300 30.76800
C  27.97000 49.86600 29.32700
C  28.65700 50.37800 31.77700
C  25.13600 49.14600 31.27400
C  24.26800 49.47300 32.51100
H  24.44500 48.72000 33.82900
N  28.65400 49.46200 26.40600
C  29.45500 49.05200 27.46100
C  30.56500 48.31600 26.89400
C  30.39700 48.28100 25.44700
C  29.23500 49.14300 25.20900
C  31.54700 47.66000 27.85900
C  31.13800 47.57400 24.37900
O  30.77200 47.46600 23.22400
C  32.27600 46.84700 24.95500
N  26.74300 50.67400 24.40800
C  27.68700 50.17900 23.53200
C  27.42200 50.48500 22.05400
C  26.01700 51.11800 22.18300
C  25.78000 51.34100 23.69800
C  28.50300 51.36800 21.35300
C  24.93600 50.27500 21.46700
C  24.15500 49.18800 22.23000
N  25.04000 51.53500 26.54300
C  24.38900 52.21400 25.56300
C  23.31700 52.94900 26.16100
C  23.21900 52.52700 27.48300
C  24.34000 51.70400 27.66600
C  22.34600 53.84700 25.40700
C  22.46400 52.66000 28.76600
O  21.50300 53.31200 29.14000
C  23.27400 51.78400 29.77000
C  23.37700 52.59800 31.05700
O  24.16900 53.50900 31.28400
O  22.31900 52.25100 31.86700
C  22.19800 53.15000 33.06400
H  29.76900 48.77200 29.48700
H  29.34300 49.09400 23.06500
H  24.10600 52.61400 23.42700
H  26.10900 51.02700 31.67100
H  27.59800 48.64300 30.75300
H  29.60500 49.84600 31.69100
H  28.24700 50.21200 32.77300
H  28.76800 51.45400 31.64400
H  25.65100 48.19800 31.43300
H  24.42000 49.04200 30.45900
H  23.25000 49.32400 32.15400
H  24.30700 50.53300 32.76100
H  31.50800 46.57100 27.88800
H  31.48700 48.07500 28.86500
H  32.60700 47.83900 27.68300
H  31.92700 46.06600 25.63000
H  32.86600 47.61700 25.45200
H  32.65400 46.22600 24.14200
H  27.46200 49.59600 21.42500
H  26.05500 52.08300 21.67700
H  29.39800 51.31400 21.97400
H  28.25300 52.42500 21.27100
H  28.69300 50.92800 20.37400
H  25.46800 49.75800 20.66800
H  24.24600 50.93200 20.93800
H  24.40000 49.16500 23.29200
H  24.41500 48.18400 21.89200
H  23.07100 49.29600 22.18500
H  21.94800 53.35200 24.52100
H  22.87400 54.71600 25.01400
H  21.54400 54.20400 26.05200
H  22.77900 50.85600 30.05800
H  21.11400 53.25500 33.09900
H  22.52200 54.18200 32.92500
H  22.59800 52.76300 34.00100

