158

Mg 53.48600 24.33000 44.68400
C  50.72700 26.26000 44.16000
C  51.55200 21.58400 43.67800
C  56.26800 22.38500 44.20600
C  55.37300 27.06600 45.23100
N  51.32400 23.91700 44.07900
C  50.44500 24.95400 43.81500
C  49.11600 24.41300 43.19500
C  49.27100 22.95600 43.61700
C  50.79300 22.80300 43.76100
C  48.40100 22.60200 44.80500
C  49.10100 24.62600 41.68500
C  47.66700 24.83500 41.19500
H  47.41500 24.47700 39.74800
N  53.85400 22.28000 44.23800
C  52.92200 21.33400 43.86100
C  53.49500 20.10000 43.74200
C  54.83600 20.16400 43.99100
C  55.05200 21.65300 44.22200
C  52.66300 18.91500 43.36100
C  55.80100 19.13500 43.99900
O  55.52600 17.98800 43.64500
C  57.10800 19.42600 44.43100
N  55.58500 24.61000 44.61700
C  56.54500 23.72400 44.38100
C  57.96400 24.43900 44.34700
C  57.63700 25.91600 44.65700
C  56.14400 25.88600 44.91200
C  58.91100 23.78800 45.43000
C  57.90500 26.84000 43.38200
C  59.00300 27.95000 43.73500
N  53.10500 26.20600 44.89500
C  53.98300 27.22600 45.21900
C  53.21600 28.39600 45.50000
C  51.84300 28.09500 45.12000
C  51.89200 26.72000 44.67800
C  53.70900 29.74100 45.94300
C  50.59900 28.63100 44.85300
O  50.08300 29.71200 45.19100
C  49.81300 27.48300 44.22200
C  49.20200 27.96900 42.90600
O  49.70700 27.97600 41.76000
O  47.93600 28.33500 43.10100
C  47.22900 28.88900 41.91600
H  50.89300 20.74800 43.43300
H  57.10500 21.75700 43.89300
H  55.96500 27.94100 45.50700
H  48.22800 24.90800 43.58700
H  48.91400 22.42300 42.73500
H  47.68300 21.80400 44.61800
H  47.92900 23.48200 45.24300
H  49.10300 22.36200 45.60300
H  49.48300 23.73000 41.19700
H  49.72600 25.45700 41.35700
H  47.38500 25.88100 41.30900
H  47.00100 24.23600 41.81500
H  52.31000 18.85600 42.33100
H  51.84900 18.99400 44.08100
H  53.18500 17.96400 43.47300
H  57.79900 19.70400 43.63500
H  57.48900 18.43500 44.67800
H  57.20200 20.07600 45.30000
H  58.45400 24.30800 43.38200
H  58.09300 26.33100 45.55700
H  59.95100 23.81100 45.10500
H  58.61100 22.80500 45.79400
H  58.86800 24.40200 46.33000
H  56.97600 27.28300 43.02200
H  58.24000 26.25500 42.52600
H  59.81500 27.61500 44.38000
H  58.62100 28.74600 44.37500
H  59.40000 28.37000 42.81100
H  53.20500 30.62700 45.55800
H  54.76100 29.82700 45.66800
H  53.43700 29.89800 46.98700
H  48.94900 27.28300 44.85500
H  46.94200 27.95800 41.42600
H  47.74200 29.47200 41.15100
H  46.39800 29.50600 42.25600
Mg -1.90200 34.58500 27.24400
C  -3.44500 32.60400 29.89000
C  -0.55400 36.52600 29.84000
C  -0.07500 36.01900 24.88400
C  -3.15500 32.29900 24.98100
N  -2.15500 34.65600 29.63500
C  -2.64600 33.67000 30.41100
C  -2.37200 33.95200 31.92900
C  -1.72700 35.36900 31.86100
C  -1.47600 35.58900 30.42100
C  -2.48900 36.59200 32.51600
C  -1.57400 32.80300 32.52900
C  -1.00600 32.95800 33.99500
H  -1.52900 32.05500 35.03300
N  -0.75100 36.13100 27.27500
C  -0.22900 36.76200 28.43500
C  0.69000 37.74800 27.93000
C  0.69600 37.75700 26.46000
C  -0.14000 36.65700 26.11000
C  1.49300 38.59800 28.86700
C  1.42200 38.70900 25.49600
O  1.38200 38.58500 24.27400
C  2.37900 39.87600 25.94600
N  -1.76100 34.33700 25.08300
C  -0.82300 34.95400 24.36300
C  -0.61300 34.25500 22.97000
C  -1.75900 33.18900 23.03900
C  -2.25200 33.23700 24.50800
C  -0.77500 35.22500 21.71300
C  -1.26000 31.80900 22.62200
C  -0.16000 31.11400 23.47800
N  -3.15500 32.98000 27.31500
C  -3.61700 32.16900 26.31000
C  -4.54800 31.16700 26.89200
C  -4.47500 31.40800 28.22900
C  -3.55800 32.42500 28.44500
C  -5.37100 30.15800 26.19200
C  -5.07700 30.86000 29.45600
O  -5.90800 30.02000 29.63400
C  -4.34600 31.59100 30.57400
C  -5.39400 32.14800 31.54000
O  -6.32900 32.86200 31.28100
O  -5.13400 31.69400 32.81000
C  -6.07500 32.00900 33.83900
H  -0.06400 37.14000 30.59800
H  0.77000 36.34400 24.27300
H  -3.55200 31.52900 24.31500
H  -3.22600 33.83700 32.59500
H  -0.81200 35.21600 32.43300
H  -3.55300 36.37500 32.41800
H  -2.44600 37.49700 31.90900
H  -2.20600 36.89000 33.52500
H  -0.77700 32.64500 31.80200
H  -2.18900 31.90900 32.42800
H  -1.33400 33.91100 34.41100
H  0.08100 32.88500 34.02800
H  1.67600 38.10400 29.82100
H  0.91800 39.50100 29.07300
H  2.45900 38.85000 28.43000
H  2.89100 40.44500 25.16900
H  3.15900 39.35300 26.49900
H  1.79100 40.52600 26.59300
H  0.34300 33.76900 23.16700
H  -2.55400 33.49200 22.35800
H  0.13100 35.35700 21.12000
H  -1.08900 36.20600 22.06800
H  -1.53200 34.87100 21.01300
H  -0.99400 31.73600 21.56700
H  -2.09600 31.11200 22.66300
H  0.00500 31.61300 24.43300
H  0.74700 31.06100 22.87600
H  -0.45900 30.10200 23.74900
H  -6.45200 30.22600 26.31900
H  -5.05100 29.17400 26.53600
H  -5.10000 30.09000 25.13900
H  -3.84400 30.83300 31.17500
H  -6.87700 32.65600 33.48400
H  -5.39200 32.49500 34.53500
H  -6.54300 31.07400 34.14700

