158

Mg 48.92400 36.32100 28.16300
C  46.83900 34.52300 30.32700
C  48.87200 39.06700 30.25700
C  50.83100 38.04100 25.98000
C  48.54200 33.75000 25.89300
N  48.00400 36.69600 30.05800
C  47.32700 35.75100 30.83400
C  47.21900 36.29100 32.26100
C  47.56500 37.82500 32.17200
C  48.23300 37.89800 30.75000
C  46.28200 38.74900 32.21600
C  48.33100 35.60100 33.14200
C  47.84100 35.34300 34.61100
H  46.75600 36.24500 35.17000
N  49.63900 38.33300 28.04200
C  49.54900 39.29500 29.04400
C  50.12600 40.51100 28.57900
C  50.79100 40.24100 27.38400
C  50.44800 38.78800 27.09600
C  50.13500 41.78400 29.38500
C  51.80000 41.08800 26.62700
O  52.52300 40.58600 25.77600
C  51.95800 42.55500 26.92800
N  49.66300 35.88900 26.28000
C  50.41500 36.75600 25.57600
C  50.96000 36.11900 24.32900
C  50.32100 34.65600 24.36300
C  49.39000 34.81400 25.54700
C  50.64700 36.89900 22.96200
C  51.31200 33.42200 24.46600
C  51.17500 32.23100 23.41500
N  47.92000 34.47300 28.08200
C  47.85600 33.52500 27.11400
C  47.10500 32.36700 27.66000
C  46.67800 32.73100 28.92800
C  47.16800 34.03400 29.07700
C  46.87900 31.06500 27.00600
C  45.85200 32.32600 30.05300
O  45.28300 31.28300 30.28600
C  45.88100 33.60100 30.96100
C  46.07800 33.24500 32.41500
O  46.98000 32.51300 32.74900
O  44.90500 33.58500 33.16500
C  44.76300 32.78100 34.42300
H  49.00200 39.92200 30.92400
H  51.53700 38.45500 25.25800
H  48.47900 32.93100 25.17400
H  46.22500 35.94500 32.54300
H  48.20200 38.16200 32.99000
H  46.17900 39.43500 33.05700
H  45.34800 38.18800 32.22500
H  46.21800 39.28800 31.27000
H  49.19000 36.27100 33.19900
H  48.76200 34.72000 32.66700
H  48.68200 35.36900 35.30300
H  47.61400 34.27800 34.63100
H  50.09000 42.77800 28.94000
H  51.08900 41.79700 29.91300
H  49.40000 41.77800 30.18900
H  52.33100 42.75600 27.93200
H  51.00800 43.08500 26.85300
H  52.63900 42.82200 26.12000
H  52.01700 35.92800 24.51000
H  49.71900 34.47600 23.47300
H  50.03400 37.77500 23.17500
H  50.12500 36.26600 22.24500
H  51.47500 37.37200 22.43400
H  51.26600 33.05100 25.49000
H  52.34000 33.77600 24.37700
H  50.41400 32.40100 22.65200
H  50.92800 31.29300 23.91400
H  52.14900 32.09900 22.94400
H  47.15100 30.23400 27.65700
H  47.41000 30.81600 26.08700
H  45.81200 30.88700 26.86500
H  44.92300 34.10100 30.82200
H  45.56800 32.11400 34.73000
H  43.79100 32.28900 34.45000
H  44.75100 33.46300 35.27300
Mg 36.22600 49.59400 24.76400
C  36.33200 47.98700 27.95500
C  34.91000 52.37100 26.38700
C  35.97500 50.97000 21.83700
C  37.17900 46.54300 23.33200
N  35.55100 50.08600 26.88400
C  35.86800 49.30200 28.03200
C  35.57000 50.11200 29.28500
C  34.87900 51.42800 28.66500
C  35.00800 51.22800 27.19500
C  33.35000 51.61900 29.16000
C  36.83500 50.18800 30.26000
C  36.64300 49.64500 31.66200
H  36.66300 50.68200 32.78500
N  35.74100 51.47300 24.21200
C  35.20300 52.47200 24.96700
C  35.02500 53.64000 24.16200
C  35.37700 53.26900 22.80900
C  35.78700 51.85200 22.86500
C  34.35000 54.91000 24.67000
C  35.30400 54.06900 21.51600
O  35.57600 53.67800 20.40300
C  34.87500 55.49500 21.45900
N  36.40600 48.78300 22.87300
C  36.20400 49.53200 21.79900
C  36.58600 48.87500 20.51500
C  37.27500 47.53200 21.00200
C  36.92600 47.58700 22.50400
C  35.33300 48.71200 19.59100
C  38.75100 47.43600 20.72500
C  39.15900 46.19500 19.77000
N  36.50700 47.61200 25.41100
C  37.03000 46.55300 24.73200
C  37.18600 45.45300 25.67000
C  36.96100 45.96600 26.89600
C  36.52400 47.28500 26.72600
C  37.61600 44.08900 25.27400
C  36.99700 45.62400 28.30700
O  37.39500 44.62500 28.86400
C  36.52900 46.89000 29.06300
C  35.21700 46.54800 29.71600
O  34.16400 46.44100 29.15400
O  35.41200 46.31200 31.03100
C  34.23000 45.81800 31.70800
H  34.53000 53.23900 26.93100
H  35.99900 51.43000 20.84700
H  37.52700 45.62000 22.86500
H  34.77100 49.54000 29.75600
H  35.47900 52.30000 28.92900
H  33.00600 50.87600 29.88000
H  32.59200 51.57700 28.37800
H  33.27800 52.62700 29.56900
H  37.16800 51.21900 30.37800
H  37.66300 49.59700 29.86700
H  37.49600 48.98800 31.82700
H  35.72800 49.05400 31.71000
H  34.68100 55.73900 24.04400
H  34.56500 55.14500 25.71300
H  33.27300 54.82800 24.52600
H  35.02800 55.94600 20.47900
H  35.46900 56.11000 22.13500
H  33.79900 55.53200 21.62700
H  37.23300 49.59900 20.01900
H  36.66600 46.69800 20.65400
H  34.37600 48.53700 20.08200
H  35.46800 47.77800 19.04600
H  35.19000 49.50200 18.85300
H  39.13500 47.26800 21.73100
H  39.12200 48.37300 20.30900
H  39.87300 46.61400 19.06100
H  38.20200 45.82000 19.40600
H  39.68600 45.40300 20.30100
H  37.00900 43.86900 24.39500
H  37.45400 43.42200 26.12100
H  38.68000 44.07100 25.04000
H  37.27400 47.16900 29.80800
H  34.46200 45.94700 32.76500
H  34.03800 44.76700 31.48900
H  33.33100 46.37900 31.45400

