158

Mg 54.42500 25.25900 44.93800
C  51.67500 27.49600 44.37200
C  52.20000 22.72600 43.96700
C  57.02600 23.21900 44.69800
C  56.47000 27.91900 45.47600
N  52.15800 25.14700 44.28000
C  51.25000 26.19400 44.13900
C  49.87000 25.75100 43.57800
C  49.94200 24.23700 44.01300
C  51.52300 24.00300 44.00500
C  49.27200 23.83100 45.33400
C  49.67600 25.87800 42.07800
C  48.21700 25.83300 41.56500
H  47.99100 25.49700 40.07400
N  54.58400 23.21100 44.48600
C  53.54600 22.37300 44.07100
C  54.08100 20.99800 43.94200
C  55.46100 21.13600 44.31500
C  55.78700 22.57200 44.54200
C  53.16100 19.83000 43.71500
C  56.33900 19.86700 44.57800
O  56.01400 18.68300 44.33900
C  57.93100 19.97500 44.83600
N  56.51400 25.65800 44.84600
C  57.33600 24.62100 44.94200
C  58.78100 25.13200 44.97300
C  58.58100 26.57400 45.47200
C  57.14500 26.77500 45.24000
C  59.79200 24.26100 45.81100
C  59.49100 27.53900 44.65700
C  59.94000 28.75500 45.48400
N  54.16700 27.30400 45.07900
C  55.08900 28.21800 45.25500
C  54.48100 29.55400 45.27400
C  53.14700 29.33000 44.88200
C  52.96500 27.91400 44.79900
C  55.08700 30.90000 45.74200
C  51.83300 29.93600 44.62300
O  51.48800 31.12800 44.65500
C  50.84600 28.82800 44.18700
C  50.43600 29.14100 42.75300
O  51.20600 29.22000 41.79800
O  49.12100 29.32800 42.66200
C  48.74300 29.60300 41.21600
H  51.63700 21.79900 43.83900
H  57.83700 22.51300 44.89000
H  57.04100 28.82000 45.70500
H  49.05100 25.97900 44.26000
H  49.45600 23.68700 43.20700
H  48.29300 23.38100 45.17000
H  49.29700 24.72700 45.95300
H  49.90100 23.19600 45.95700
H  50.25300 25.12300 41.54600
H  50.09300 26.86100 41.85900
H  47.77700 26.81700 41.72700
H  47.71900 25.01500 42.08700
H  52.49000 19.81700 44.57400
H  53.67900 18.87600 43.81100
H  52.55500 19.92500 42.81400
H  58.40500 19.02900 44.57300
H  58.02900 20.37000 45.84700
H  58.33900 20.74600 44.18200
H  59.10200 25.08600 43.93200
H  58.84000 26.70500 46.52300
H  60.34300 23.63100 45.11200
H  59.34000 23.59700 46.54700
H  60.51800 24.84800 46.37200
H  58.85100 27.84600 43.82900
H  60.41300 27.05300 44.34000
H  59.72200 29.66400 44.92300
H  60.97900 28.73300 45.81300
H  59.35700 28.67100 46.40100
H  55.96400 31.10500 45.12800
H  55.23000 30.75400 46.81300
H  54.30500 31.62200 45.50600
H  49.95700 28.96100 44.80400
H  47.66700 29.43700 41.15700
H  49.12500 28.93000 40.44900
H  48.98200 30.64200 40.98900
Mg -1.37900 34.31800 27.98500
C  -3.02900 32.24300 30.14200
C  -0.09100 36.08500 30.58000
C  0.02600 36.48900 25.73500
C  -3.09300 32.74600 25.30300
N  -1.58900 34.17500 30.06000
C  -2.29300 33.20200 30.84000
C  -2.01900 33.38100 32.35800
C  -1.32600 34.79300 32.42900
C  -0.93400 35.00600 30.94600
C  -2.25200 35.99300 32.84200
C  -1.11500 32.19000 32.98000
C  -1.78100 31.57300 34.15100
H  -0.98300 31.66900 35.43700
N  -0.14100 35.99000 28.12000
C  0.27100 36.57100 29.29200
C  1.29800 37.65400 29.02000
C  1.40900 37.69100 27.61700
C  0.42600 36.67800 27.07200
C  2.02200 38.46400 30.14900
C  2.34100 38.69400 26.83100
O  2.45100 38.58500 25.57700
C  3.19500 39.67000 27.47300
N  -1.67400 34.62900 25.89200
C  -1.06900 35.64800 25.24900
C  -1.49600 35.71600 23.74300
C  -1.88700 34.21100 23.55200
C  -2.23500 33.78900 24.97300
C  -2.71300 36.65800 23.55700
C  -0.67800 33.40800 22.99400
C  -0.96100 31.96700 22.39400
N  -2.78600 32.86000 27.71200
C  -3.36500 32.28600 26.61200
C  -4.05900 31.06400 26.96000
C  -3.95300 30.98300 28.34700
C  -3.22600 32.09400 28.80400
C  -4.84100 30.18600 26.08100
C  -4.29500 30.24500 29.50800
O  -5.08000 29.31300 29.70800
C  -3.56300 30.96100 30.71800
C  -4.72300 31.17000 31.71100
O  -5.54300 32.03600 31.73600
O  -4.60300 30.13700 32.66800
C  -5.77600 30.05200 33.49900
H  0.38700 36.61600 31.40600
H  0.47700 37.18400 25.02400
H  -3.44500 32.20600 24.42200
H  -2.98500 33.41500 32.86100
H  -0.44900 34.78000 33.07500
H  -2.43500 36.71800 32.04900
H  -1.77500 36.40600 33.73100
H  -3.25800 35.69000 33.13300
H  -0.15400 32.61900 33.26600
H  -0.92100 31.44700 32.20600
H  -1.88900 30.53100 33.85300
H  -2.82300 31.84200 34.32500
H  1.53000 38.38900 31.11900
H  1.89600 39.49800 29.83000
H  3.06900 38.16100 30.17000
H  2.63400 40.45500 27.98100
H  3.75300 40.11900 26.65200
H  3.97400 39.32000 28.15100
H  -0.69900 36.08800 23.10000
H  -2.64100 34.02900 22.78600
H  -3.17000 37.00900 24.48200
H  -3.46900 36.21900 22.90600
H  -2.45500 37.56900 23.01500
H  -0.05100 33.20400 23.86100
H  -0.14900 34.05000 22.28900
H  -2.03700 31.84300 22.27300
H  -0.58200 31.29700 23.16400
H  -0.34300 31.84400 21.50400
H  -4.62900 29.19000 26.47000
H  -4.54800 30.23200 25.03300
H  -5.89900 30.35100 26.28800
H  -2.69200 30.43700 31.11200
H  -5.87400 28.97600 33.64500
H  -6.74800 30.28200 33.06100
H  -5.39200 30.58100 34.37100

