158

Mg 42.04400 41.64700 26.27300
C  41.06000 44.05700 28.56900
C  42.76400 39.42000 28.91800
C  43.29500 39.39000 24.01000
C  42.08600 44.05200 23.77300
N  42.04400 41.77500 28.51700
C  41.40900 42.79300 29.18300
C  41.35000 42.51300 30.66400
C  41.89500 41.01300 30.80900
C  42.25800 40.67200 29.31300
C  43.15700 40.81800 31.69100
C  39.88200 42.72600 31.35300
C  39.68900 41.92600 32.69100
H  38.87200 42.61500 33.80800
N  42.80600 39.63400 26.40100
C  43.05800 38.95600 27.58800
C  43.68300 37.68500 27.26100
C  43.78000 37.63200 25.84900
C  43.36200 38.91600 25.36200
C  44.03600 36.61600 28.28600
C  44.17200 36.47200 24.94500
O  44.32500 36.54400 23.72400
C  44.50900 35.11700 25.48600
N  42.67500 41.67900 24.19900
C  43.08400 40.60700 23.48000
C  43.29800 40.97300 21.98200
C  42.81900 42.50700 21.95100
C  42.48600 42.80200 23.40000
C  44.79600 40.72500 21.48600
C  41.58400 42.64100 20.91900
C  41.51000 44.04100 20.20300
N  41.63800 43.67100 26.13800
C  41.60900 44.43200 25.01900
C  40.91700 45.72500 25.39600
C  40.78900 45.61800 26.80000
C  41.15500 44.34000 27.19900
C  40.51600 46.70700 24.41400
C  40.30400 46.31600 27.99000
O  39.77300 47.39100 28.05800
C  40.50500 45.30700 29.21000
C  41.43300 45.94000 30.15700
O  42.62900 46.14100 29.90200
O  40.80400 46.13000 31.36900
C  41.55700 46.73100 32.49400
H  42.76900 38.64700 29.68900
H  43.55400 38.60600 23.29500
H  42.05100 44.83800 23.01600
H  42.07300 43.17400 31.14200
H  41.14200 40.25500 31.02300
H  43.95700 41.25100 31.09000
H  43.28500 39.74900 31.85900
H  43.04100 41.40200 32.60400
H  39.13400 42.48500 30.59800
H  39.70600 43.76900 31.61600
H  40.60500 41.81300 33.27100
H  39.19800 41.00300 32.38200
H  44.07300 36.99200 29.30800
H  45.05700 36.34100 28.02200
H  43.33700 35.78200 28.22400
H  43.63100 34.92500 26.10300
H  45.43500 35.21300 26.05300
H  44.68700 34.35500 24.72700
H  42.62700 40.27400 21.48100
H  43.63500 43.19100 21.71600
H  45.47900 40.60800 22.32800
H  45.26800 41.52700 20.91700
H  44.89400 39.96500 20.71200
H  40.65900 42.47800 21.47200
H  41.67800 41.86900 20.15500
H  40.46900 44.36500 20.21700
H  41.96800 43.99800 19.21500
H  42.15700 44.70300 20.77700
H  39.60700 47.23500 24.70000
H  40.11200 46.24600 23.51300
H  41.34900 47.38600 24.23000
H  39.54500 45.07600 29.67200
H  42.59300 47.06500 32.43500
H  41.61400 45.98800 33.28800
H  40.86500 47.43900 32.95000
Mg -9.77100 38.71700 41.17500
C  -9.12700 35.28900 40.68500
C  -6.68600 39.44900 39.91100
C  -10.83300 41.90700 40.73000
C  -13.13700 37.82200 42.20500
N  -8.07700 37.46900 40.47400
C  -7.92000 36.05100 40.33000
C  -6.57500 35.58900 39.78500
C  -5.82000 36.98700 39.71000
C  -6.89200 38.00700 40.08800
C  -4.56000 37.14300 40.61500
C  -6.75600 34.85900 38.48900
C  -5.46700 34.12300 38.09700
H  -4.79300 34.59600 36.73200
N  -8.86100 40.36400 40.48700
C  -7.60700 40.51700 40.10000
C  -7.32500 41.87500 39.66000
C  -8.57100 42.57000 39.67400
C  -9.48500 41.59600 40.29900
C  -5.97200 42.22700 39.16100
C  -8.86800 43.95600 39.07900
O  -7.97400 44.77600 38.68000
C  -10.24900 44.56400 39.10500
N  -11.90100 39.66900 41.23300
C  -11.86100 41.05700 41.14500
C  -13.16900 41.58300 41.86300
C  -13.90000 40.32900 42.32700
C  -13.02300 39.19100 41.82500
C  -12.95800 42.65300 43.01200
C  -15.37800 40.12300 41.80100
C  -16.50300 39.79000 42.81900
N  -10.88300 37.00900 41.46700
C  -12.22800 36.80000 41.81400
C  -12.48800 35.37000 41.98700
C  -11.26000 34.76900 41.53900
C  -10.35600 35.82200 41.12000
C  -13.78700 34.71500 42.56800
C  -10.71700 33.49900 41.39600
O  -11.16700 32.41300 41.70200
C  -9.35300 33.78500 40.71400
C  -8.34000 32.94500 41.36500
O  -7.64000 32.07200 40.82000
O  -8.18000 33.34600 42.66900
C  -7.09200 32.65000 43.39000
H  -5.70800 39.56600 39.43900
H  -11.17100 42.94500 40.73800
H  -14.05700 37.58400 42.74300
H  -6.23500 34.90800 40.56500
H  -5.51400 37.16100 38.67800
H  -4.04700 36.24600 40.96300
H  -4.66600 37.80400 41.47500
H  -3.84800 37.63700 39.95400
H  -7.06400 35.49700 37.66100
H  -7.56500 34.13300 38.56600
H  -5.76100 33.09200 37.90200
H  -4.78500 34.11900 38.94700
H  -5.37900 41.87300 40.00400
H  -5.74600 43.29200 39.10900
H  -5.71200 41.77000 38.20600
H  -10.95700 43.88500 38.62900
H  -10.19700 45.50100 38.55000
H  -10.72100 44.83000 40.05000
H  -13.81100 42.13800 41.17900
H  -13.82100 40.31800 43.41400
H  -11.90700 42.76700 43.27600
H  -13.58500 42.51900 43.89300
H  -13.39500 43.55700 42.58600
H  -15.41100 39.32000 41.06500
H  -15.69600 40.99200 41.22600
H  -16.84000 38.77400 42.61400
H  -17.37800 40.43700 42.87900
H  -16.07500 39.82300 43.82100
H  -14.71800 34.80400 42.00800
H  -13.97500 35.08300 43.57600
H  -13.69400 33.62900 42.54800
H  -9.39300 33.38800 39.69900
H  -7.26800 31.57700 43.32000
H  -7.13500 32.97500 44.42900
H  -6.15500 32.91000 42.89700

