158

Mg -0.06900 7.71800 26.23000
C  0.86700 9.62900 29.16500
C  -0.22500 4.98400 28.10700
C  -0.36300 6.04300 23.34300
C  0.28300 10.76700 24.36900
N  0.24400 7.38000 28.38000
C  0.45600 8.30700 29.40100
C  0.24700 7.55600 30.80400
C  0.31200 6.03300 30.35100
C  0.05700 6.11700 28.86400
C  1.70000 5.37000 30.71600
C  -1.08700 7.99200 31.43200
C  -1.06000 8.30800 32.88300
H  0.13900 7.99500 33.78900
N  -0.22900 5.75000 25.73900
C  -0.29900 4.76200 26.69100
C  -0.53700 3.49700 25.97800
C  -0.57000 3.78300 24.57900
C  -0.33100 5.27300 24.49200
C  -0.58900 2.19100 26.70100
C  -0.77500 2.80300 23.38600
O  -0.88900 3.17100 22.21300
C  -0.80700 1.28100 23.60900
N  0.04000 8.30300 24.17700
C  -0.08800 7.41000 23.21800
C  -0.05900 8.13300 21.84100
C  -0.35900 9.65900 22.24700
C  -0.05500 9.61000 23.70900
C  1.27200 7.77100 21.06300
C  -1.84400 10.05600 21.98300
C  -2.00500 11.45500 21.31500
N  0.44400 9.80200 26.61900
C  0.61500 10.86100 25.75900
C  1.12300 12.01100 26.50500
C  1.19600 11.56800 27.85500
C  0.86500 10.20700 27.87100
C  1.32900 13.39600 25.96400
C  1.49300 11.98400 29.22100
O  1.90100 13.05800 29.66200
C  1.16000 10.76300 30.18300
C  2.17200 10.49700 31.22900
O  3.14600 9.79800 31.05000
O  1.89200 11.33700 32.27900
C  3.10300 11.51300 33.14700
H  -0.48900 4.10900 28.70500
H  -0.53300 5.62300 22.35000
H  0.10900 11.66900 23.77900
H  1.14000 7.78400 31.38400
H  -0.46800 5.49800 30.89300
H  2.17700 5.19100 29.75200
H  1.55000 4.37500 31.13600
H  2.36500 5.93000 31.37300
H  -1.78000 7.15500 31.34500
H  -1.45700 8.89000 30.93800
H  -1.93700 7.92100 33.40200
H  -1.24400 9.38200 32.85700
H  0.21400 1.58100 26.28900
H  -1.52000 1.69700 26.42400
H  -0.53500 2.31500 27.78300
H  -0.79600 0.64900 22.72000
H  -1.73200 1.09400 24.15400
H  -0.04900 0.87300 24.27800
H  -0.87700 7.77700 21.21400
H  0.41100 10.22000 21.71800
H  1.10000 7.01000 20.30200
H  1.96900 7.31500 21.76700
H  1.78900 8.63600 20.64800
H  -2.40700 10.14500 22.91200
H  -2.30700 9.28100 21.37300
H  -2.40800 11.27300 20.31800
H  -1.06100 11.96900 21.13200
H  -2.59600 12.16000 21.90000
H  2.41400 13.48600 25.91500
H  0.97500 14.04000 26.76800
H  0.75300 13.55200 25.05200
H  0.20000 10.91000 30.67600
H  3.08100 12.57900 33.37400
H  4.06900 11.22500 32.73300
H  3.01000 10.89800 34.04200
Mg 50.01900 47.34300 43.37500
C  46.50600 47.69600 42.95500
C  49.91200 44.52500 41.67400
C  53.35100 47.29200 43.37300
C  50.06200 50.56200 44.84300
N  48.35400 46.41200 42.22800
C  47.03000 46.60000 42.28700
C  46.19700 45.50000 41.64500
C  47.24700 44.33100 41.50000
C  48.59700 45.12600 41.77500
C  47.04600 43.16800 42.56500
C  45.62600 45.92500 40.27000
C  44.24300 45.29000 39.96400
H  43.85800 45.07600 38.55300
N  51.50200 46.05400 42.56900
C  51.21600 44.89100 41.99900
C  52.40600 44.15500 41.77300
C  53.53100 44.97600 42.11800
C  52.84000 46.17400 42.76400
C  52.51300 42.86200 41.15600
C  54.96200 44.60900 42.09500
O  55.26700 43.56000 41.63000
C  56.12100 45.37200 42.50200
N  51.52600 48.73600 43.95700
C  52.83900 48.39300 43.98200
C  53.72200 49.42100 44.68200
C  52.66900 50.44400 45.13700
C  51.32400 49.89800 44.54900
C  54.71700 48.90600 45.74200
C  53.07300 51.89900 44.77300
C  54.03000 52.56500 45.80800
N  48.57700 48.87400 43.90800
C  48.78000 50.11400 44.44700
C  47.44700 50.70000 44.58300
C  46.53500 49.77300 44.09300
C  47.28400 48.70600 43.62700
C  47.07600 51.92600 45.29100
C  45.10600 49.43700 43.92400
O  44.04800 50.00900 44.23500
C  45.03300 48.08000 43.12900
C  44.40100 46.99600 43.99800
O  44.74600 46.60700 45.05300
O  43.25600 46.48000 43.36500
C  42.42100 45.55300 44.00200
H  49.86300 43.45800 41.44700
H  54.43400 47.15600 43.40600
H  50.19800 51.49200 45.39800
H  45.34500 45.34100 42.30600
H  47.32500 43.99600 40.46600
H  47.23800 42.21600 42.07000
H  45.97700 43.06700 42.75200
H  47.55300 43.38000 43.50600
H  46.31400 45.65300 39.47000
H  45.52800 47.00900 40.21300
H  43.50100 46.04500 40.22400
H  44.18400 44.35800 40.52700
H  53.06100 42.94100 40.21700
H  51.57700 42.46900 40.75900
H  52.91700 42.00800 41.69900
H  56.16900 46.34300 42.00900
H  56.99000 44.79700 42.18400
H  56.06300 45.70200 43.53900
H  54.25200 49.89700 43.85800
H  52.57800 50.36700 46.22100
H  55.73100 48.89800 45.34100
H  54.33300 47.93900 46.06700
H  54.70300 49.45900 46.68200
H  52.10800 52.40200 44.84600
H  53.55600 52.01900 43.80400
H  53.70600 53.56900 46.07900
H  54.96800 52.65600 45.26200
H  54.34300 51.89300 46.60700
H  46.78900 51.73100 46.32500
H  46.18900 52.26700 44.75700
H  47.92000 52.61500 45.26800
H  44.62300 48.23200 42.13100
H  42.43600 45.54500 45.09200
H  42.63000 44.53800 43.66300
H  41.39500 45.73600 43.68200

