158

Mg 30.10200 57.88000 40.85600
C  27.44000 56.08300 39.54800
C  32.30900 55.51200 39.36000
C  32.70700 59.95800 41.37700
C  27.79000 60.24700 41.84900
N  29.84000 56.00400 39.63800
C  28.68900 55.46900 39.22900
C  28.86800 54.21400 38.37700
C  30.33200 53.80100 38.78400
C  30.89400 55.18900 39.27600
C  30.48600 52.80700 40.01900
C  28.69000 54.50200 36.96400
C  27.71100 53.53800 36.25900
H  26.92400 54.20200 35.11600
N  32.20800 57.67700 40.45900
C  32.86100 56.61900 39.89400
C  34.32600 56.90000 39.84100
C  34.42700 58.21600 40.44500
C  33.12200 58.70800 40.80500
C  35.32400 55.91600 39.24000
C  35.70600 58.97100 40.64600
O  36.75800 58.51900 40.20400
C  35.89000 60.22600 41.48200
N  30.24600 59.75500 41.68000
C  31.45700 60.46200 41.71100
C  31.20200 61.80200 42.48300
C  29.68200 61.88300 42.51600
C  29.14800 60.50000 42.00800
C  31.82200 61.85200 43.87900
C  29.09600 63.22900 41.99500
C  29.09900 64.31700 43.06100
N  28.01800 58.15500 40.85500
C  27.17000 59.13600 41.22200
C  25.78600 58.90500 40.98800
C  25.86400 57.64400 40.28300
C  27.26400 57.29900 40.27500
C  24.64200 59.65400 41.42200
C  25.07300 56.58700 39.59100
O  23.90400 56.58200 39.23600
C  26.03800 55.51800 39.10400
C  25.60900 54.31000 39.82200
O  25.68800 54.10600 41.04900
O  24.88600 53.48300 38.93700
C  24.48000 52.11100 39.49000
H  32.93300 54.70500 38.97000
H  33.43300 60.77200 41.44200
H  27.12300 61.05400 42.15700
H  28.23400 53.41000 38.75000
H  30.96600 53.47700 37.95900
H  30.60000 53.41100 40.92000
H  31.35600 52.22700 39.71300
H  29.61700 52.15700 40.11800
H  29.67900 54.52000 36.50700
H  28.33700 55.51200 36.75500
H  26.90100 53.27000 36.93700
H  28.34700 52.72800 35.90300
H  35.74300 56.34600 38.33100
H  34.92000 54.97500 38.86700
H  36.11500 55.76900 39.97600
H  35.50000 60.95800 40.77500
H  36.95400 60.39300 41.65200
H  35.26500 60.23000 42.37500
H  31.63300 62.66300 41.97100
H  29.37200 61.87700 43.56000
H  32.74400 61.27300 43.91900
H  31.13600 61.56600 44.67700
H  32.22900 62.85500 44.00700
H  28.11000 63.13600 41.54100
H  29.84500 63.58600 41.28800
H  29.48000 65.30000 42.78400
H  29.45400 64.07400 44.06300
H  28.04200 64.49500 43.26000
H  23.75600 59.06800 41.17700
H  24.63200 60.58600 40.85800
H  24.53700 59.82800 42.49200
H  25.74600 55.31700 38.07400
H  24.59300 51.37700 38.69300
H  23.40100 52.15800 39.63500
H  25.08900 51.65600 40.27200
Mg -10.60900 17.38400 41.90600
C  -7.10400 17.37600 42.14500
C  -10.54600 20.67700 40.96400
C  -14.01700 17.25300 41.36100
C  -10.57100 13.95100 42.14300
N  -8.97600 18.88800 41.63300
C  -7.68600 18.62000 41.72800
C  -6.84300 19.84100 41.14400
C  -7.93100 20.99400 41.21400
C  -9.28800 20.15900 41.22600
C  -7.70600 21.91000 42.57400
C  -6.35600 19.50200 39.64800
C  -4.81800 19.50900 39.40600
H  -4.37500 18.32500 38.52300
N  -12.09000 18.84100 41.34200
C  -11.82400 20.12800 41.11100
C  -13.08800 20.92100 41.07800
C  -14.13200 19.95500 41.23000
C  -13.53900 18.60000 41.28300
C  -13.19900 22.40100 40.67200
C  -15.65000 20.22500 41.29100
O  -16.01800 21.39500 41.19900
C  -16.59500 19.17900 41.48300
N  -11.94400 15.76800 41.51200
C  -13.34200 16.01400 41.38800
C  -14.12000 14.71400 41.44900
C  -12.96400 13.62400 41.34600
C  -11.76500 14.50500 41.78100
C  -15.04100 14.64800 42.73400
C  -12.83300 12.96000 39.87000
C  -12.66300 11.42300 39.75200
N  -9.15300 15.96700 42.28000
C  -9.37200 14.57900 42.36800
C  -8.09500 13.95300 42.68200
C  -7.15400 15.02000 42.53100
C  -7.90500 16.22300 42.29200
C  -7.76400 12.51600 42.93000
C  -5.75000 15.43600 42.54900
O  -4.79500 14.70200 42.72700
C  -5.67500 16.91500 42.28000
C  -4.88500 17.60800 43.40800
O  -4.93600 17.30800 44.60800
O  -4.13700 18.65600 42.89400
C  -3.57300 19.55800 43.87900
H  -10.59500 21.73700 40.70600
H  -15.09100 17.07700 41.26500
H  -10.50400 12.86100 42.13700
H  -6.05500 20.00500 41.87800
H  -7.90700 21.65000 40.34400
H  -8.61800 21.68000 43.12400
H  -7.60700 22.94100 42.23400
H  -6.81300 21.63500 43.13700
H  -6.79100 20.28300 39.02500
H  -6.75500 18.57300 39.24100
H  -4.27500 19.51400 40.35100
H  -4.63600 20.37600 38.77100
H  -14.00500 22.93600 41.17600
H  -13.37700 22.42500 39.59700
H  -12.33300 23.00800 40.93600
H  -16.71300 18.61300 40.55900
H  -17.53600 19.72500 41.55000
H  -16.38700 18.49500 42.30600
H  -14.74200 14.70200 40.55400
H  -13.05200 12.91200 42.16700
H  -14.68300 13.93900 43.48000
H  -16.05900 14.40600 42.42800
H  -15.15400 15.64500 43.15800
H  -12.03500 13.39000 39.26500
H  -13.75300 13.17000 39.32500
H  -12.20800 11.14900 40.70400
H  -11.79700 11.23500 39.11700
H  -13.58200 10.87900 39.53600
H  -7.76600 12.33000 44.00400
H  -6.77000 12.37400 42.50500
H  -8.51100 11.87000 42.46800
H  -5.16000 17.08900 41.33600
H  -2.59900 19.19400 44.20700
H  -4.20900 19.58100 44.76400
H  -3.38700 20.48900 43.34500

