158

Mg 6.12800 55.01500 41.14900
C  3.71800 52.51100 41.14800
C  8.35400 52.59300 40.04800
C  8.32100 57.44000 40.46700
C  3.72000 57.35900 41.84900
N  5.93200 52.83400 40.43400
C  4.88500 52.06600 40.52900
C  5.27700 50.61100 40.10900
C  6.75000 50.53900 40.11400
C  7.05500 52.10500 40.18600
C  7.44700 49.63700 41.16900
C  4.61100 50.44900 38.67500
C  4.19200 49.07200 38.24300
H  4.95600 48.47600 37.04400
N  8.17700 55.04400 40.45900
C  8.90000 53.97500 40.11400
C  10.22900 54.30200 39.75900
C  10.30500 55.71200 39.90400
C  8.94400 56.19700 40.33500
C  11.20900 53.18300 39.31400
C  11.47300 56.49100 39.59700
O  12.49900 55.96500 39.20400
C  11.36700 57.97400 39.72200
N  5.99800 57.04600 40.96100
C  6.99600 57.88100 40.65000
C  6.58800 59.29200 40.62900
C  5.11200 59.26800 40.98400
C  4.88500 57.79100 41.24600
C  7.44500 60.09200 41.62900
C  4.16000 59.69000 39.80700
C  2.96500 60.61500 40.09700
N  4.12300 55.00000 41.44600
C  3.29500 56.01200 41.94700
C  2.06500 55.44100 42.37300
C  2.20500 54.08600 42.09800
C  3.42900 53.86800 41.50900
C  0.92200 56.24700 42.90200
C  1.52200 52.87700 42.12700
O  0.47100 52.58200 42.63800
C  2.50700 51.75800 41.46500
C  1.77200 51.05400 40.42400
O  1.17800 51.62300 39.51300
O  1.71500 49.65400 40.56400
C  0.86000 48.99700 39.60800
H  8.98700 51.73900 39.79900
H  8.89800 58.24300 40.00300
H  2.91600 58.05800 42.08700
H  4.80600 49.84500 40.72500
H  7.08500 50.26400 39.11300
H  6.93900 48.69400 41.37200
H  7.60300 50.29400 42.02500
H  8.43700 49.56600 40.72000
H  5.33800 50.78700 37.93600
H  3.70800 51.04000 38.52600
H  3.14500 49.10100 37.93900
H  4.31800 48.41800 39.10600
H  10.63500 52.53600 38.65100
H  11.51400 52.57200 40.16400
H  12.02000 53.49000 38.65300
H  12.34200 58.44700 39.83800
H  10.77500 58.14000 40.62300
H  10.90300 58.38900 38.82800
H  6.75700 59.81100 39.68500
H  4.89400 59.71700 41.95400
H  7.95100 59.44900 42.34900
H  6.90300 60.92900 42.06900
H  8.26600 60.55800 41.08300
H  3.61800 58.81300 39.45100
H  4.64300 59.99400 38.87900
H  2.10900 60.10800 39.65300
H  3.17400 61.47500 39.46100
H  2.79700 60.90400 41.13500
H  0.55100 56.97200 42.17700
H  1.24100 56.71700 43.83100
H  0.16900 55.47700 43.07700
H  2.69200 51.06900 42.28900
H  1.46200 48.15400 39.26900
H  0.54800 49.54800 38.72100
H  0.05500 48.55000 40.19100
Mg -11.21300 38.16800 42.60800
C  -8.95000 35.46400 42.21100
C  -9.00400 40.32200 41.08500
C  -13.67500 40.44900 42.29700
C  -13.58500 35.74200 43.68100
N  -9.22300 37.82200 41.57700
C  -8.52900 36.65600 41.56700
C  -7.29000 36.84400 40.69600
C  -7.16500 38.46500 40.58400
C  -8.50400 38.96900 41.15000
C  -5.84600 39.03900 41.08300
C  -7.34100 36.14100 39.28400
C  -6.20000 35.05700 39.10100
H  -5.12200 35.58800 38.16600
N  -11.24900 40.10500 42.06500
C  -10.24900 40.83000 41.46800
C  -10.67800 42.17700 41.25000
C  -12.05100 42.29400 41.55100
C  -12.41100 40.91300 42.00000
C  -9.70000 43.14700 40.71900
C  -12.91300 43.54200 41.34800
O  -12.36500 44.53900 40.91200
C  -14.38200 43.62900 41.68800
N  -13.33500 38.09500 42.86300
C  -14.13000 39.13300 42.67800
C  -15.65600 38.76900 43.00000
C  -15.50100 37.25000 43.35300
C  -14.01300 37.02000 43.41300
C  -16.35800 39.69500 44.11000
C  -16.14000 36.23700 42.41900
C  -16.79800 34.96600 42.97200
N  -11.28200 36.00100 42.92200
C  -12.29500 35.19300 43.43900
C  -11.81900 33.77100 43.48400
C  -10.45300 33.93800 43.15400
C  -10.20100 35.27000 42.77800
C  -12.59700 32.56000 43.99100
C  -9.15400 33.23000 43.00200
O  -8.84300 32.09800 43.28000
C  -8.19600 34.13500 42.29000
C  -6.89100 34.22100 43.00800
O  -6.04300 33.35500 42.91200
O  -6.63700 35.49200 43.56600
C  -5.29400 35.66000 44.21600
H  -8.22500 40.98900 40.71000
H  -14.46800 41.19900 42.25900
H  -14.33200 34.99700 43.96300
H  -6.40400 36.56900 41.26800
H  -7.11700 38.71600 39.52400
H  -5.10100 39.18300 40.30000
H  -5.33100 38.41200 41.81000
H  -6.02600 39.95500 41.64600
H  -7.43500 36.79000 38.41300
H  -8.22000 35.50300 39.19000
H  -6.51100 34.08600 38.71500
H  -5.79400 34.82800 40.08600
H  -9.62400 42.82000 39.68200
H  -8.73500 43.01200 41.20700
H  -10.07100 44.16100 40.86800
H  -14.51800 43.61500 42.76900
H  -15.04700 42.88300 41.25300
H  -14.73000 44.58900 41.30700
H  -16.22500 38.76400 42.07100
H  -15.94600 37.02000 44.32100
H  -17.24700 40.24900 43.80900
H  -15.74300 40.55300 44.38100
H  -16.44900 38.97400 44.92200
H  -15.39500 35.78100 41.76600
H  -16.96800 36.67400 41.86200
H  -17.86200 35.04800 42.74800
H  -16.68600 34.87600 44.05200
H  -16.34400 34.10600 42.48000
H  -12.70400 31.82600 43.19300
H  -13.61400 32.93100 44.11900
H  -12.09900 32.13800 44.86400
H  -8.00700 33.69800 41.31000
H  -4.50900 35.65500 43.45900
H  -5.15100 34.84900 44.92900
H  -5.33700 36.60800 44.75300

