158

Mg 1.14000 7.78900 28.16800
C  1.66500 9.93100 30.91300
C  1.52000 5.19000 30.36900
C  1.30100 5.76200 25.54000
C  1.30300 10.54900 26.00100
N  1.54400 7.58400 30.41700
C  1.54400 8.59500 31.28400
C  1.24200 8.06800 32.69600
C  1.54500 6.51600 32.56500
C  1.53800 6.43500 31.02900
C  2.89700 6.07400 33.09100
C  -0.21800 8.25000 33.17400
C  -0.57100 8.84100 34.62500
H  0.47400 8.59000 35.74000
N  1.12200 5.80000 27.95200
C  1.29100 4.85500 29.02000
C  1.18900 3.51500 28.47300
C  1.05100 3.65000 27.04400
C  1.19300 5.07300 26.80800
C  1.27300 2.39500 29.34900
C  0.84500 2.57200 25.97200
O  0.83200 2.85200 24.76300
C  0.58800 1.17100 26.42800
N  1.24000 8.12400 26.05900
C  1.30400 7.13000 25.19200
C  1.28000 7.62900 23.69000
C  0.99000 9.18400 23.87300
C  1.14100 9.26900 25.39000
C  2.59400 7.36200 22.95100
C  -0.30600 9.83000 23.20200
C  -1.41700 10.46600 24.00300
N  1.44700 9.82300 28.30300
C  1.44300 10.83700 27.41000
C  1.69300 12.12300 28.10300
C  1.74300 11.75700 29.41200
C  1.62900 10.41000 29.54200
C  1.79800 13.35800 27.43100
C  1.95000 12.29500 30.70200
O  2.20400 13.45200 31.03600
C  1.79200 11.16300 31.71400
C  2.81600 11.23100 32.74100
O  3.96700 10.85100 32.52300
O  2.39800 11.85800 33.84600
C  3.51800 12.14800 34.86100
H  1.79600 4.36900 31.03500
H  1.23800 5.12100 24.65900
H  1.33700 11.35500 25.26500
H  2.04300 8.48800 33.30400
H  0.77700 5.87900 33.00400
H  3.60600 5.87800 32.28700
H  2.58300 5.15000 33.57700
H  3.40700 6.74900 33.77800
H  -0.78100 7.32200 33.27200
H  -0.73800 8.83600 32.41600
H  -1.53500 8.45100 34.95300
H  -0.78400 9.88900 34.41600
H  1.80700 1.63800 28.77500
H  0.28600 2.02800 29.63100
H  1.92100 2.50400 30.21800
H  1.40800 0.63300 26.90300
H  0.26700 0.46200 25.66500
H  -0.29300 1.23900 27.06700
H  0.50200 7.09700 23.14200
H  1.86400 9.75900 23.56800
H  3.28200 6.90900 23.66400
H  3.00800 8.27100 22.51400
H  2.43600 6.60300 22.18500
H  -0.67800 9.02400 22.57000
H  -0.01700 10.65800 22.55500
H  -1.09900 10.31500 25.03400
H  -2.33400 9.88000 23.94700
H  -1.59800 11.51300 23.76000
H  0.78700 13.76100 27.36400
H  2.24800 13.18900 26.45400
H  2.39700 14.00100 28.07600
H  0.86800 11.41500 32.23400
H  4.43100 12.56000 34.43300
H  3.79400 11.23200 35.38300
H  3.26800 12.82000 35.68100
Mg 17.12000 -0.56900 27.21600
C  16.26100 1.23300 30.20000
C  19.02300 -2.51600 29.13200
C  18.18100 -1.92400 24.39300
C  15.36400 1.79600 25.39900
N  17.59100 -0.58600 29.48500
C  17.10700 0.16200 30.51600
C  17.75800 -0.26600 31.87000
C  18.78100 -1.42000 31.38900
C  18.36500 -1.58900 29.91600
C  20.27500 -1.25600 31.68900
C  16.78900 -0.78500 32.92800
C  16.99000 -0.12100 34.29300
H  18.42800 0.16600 34.78900
N  18.38500 -2.01600 26.83100
C  19.04000 -2.72700 27.76400
C  19.80400 -3.72200 27.08300
C  19.60300 -3.63100 25.70300
C  18.60300 -2.53900 25.57800
C  20.68500 -4.70200 27.81200
C  20.19700 -4.39600 24.52500
O  19.93800 -4.20400 23.34600
C  21.08600 -5.51900 24.72400
N  16.88800 -0.02600 25.20100
C  17.42800 -0.72900 24.16100
C  17.16000 -0.09900 22.77200
C  16.11400 0.93700 23.06000
C  16.09100 0.93000 24.64900
C  18.35000 0.63400 22.21200
C  14.67200 0.67600 22.56200
C  14.18600 1.73000 21.57000
N  15.86700 1.05800 27.65000
C  15.31500 1.98000 26.78200
C  14.76000 3.02800 27.56800
C  14.95000 2.69800 28.90800
C  15.73000 1.56400 28.90200
C  14.10000 4.23200 26.99800
C  14.66700 3.13700 30.35700
O  14.04500 4.04600 30.83100
C  15.58900 2.21500 31.17800
C  16.59300 2.93300 31.99200
O  17.77400 3.13100 31.66500
O  16.05200 3.24800 33.24300
C  16.88900 3.87800 34.28600
H  19.65000 -3.27100 29.61000
H  18.59300 -2.30300 23.45600
H  14.70400 2.54100 24.94800
H  18.26800 0.59600 32.30100
H  18.47100 -2.35100 31.86400
H  20.64700 -2.22700 32.01500
H  20.57000 -0.40600 32.30400
H  20.86400 -1.03600 30.79800
H  16.66700 -1.83200 33.20700
H  15.79600 -0.41700 32.66900
H  16.49100 -0.71000 35.06200
H  16.51100 0.85800 34.28600
H  20.36900 -5.69900 27.50600
H  20.65600 -4.78400 28.89800
H  21.73600 -4.50400 27.60100
H  22.08200 -5.32200 25.12000
H  21.21800 -6.10200 23.81200
H  20.51900 -6.23300 25.32100
H  16.87000 -0.87000 22.05800
H  16.40500 1.95900 22.81800
H  18.20400 1.59800 21.72500
H  18.87700 -0.05800 21.55500
H  19.06000 0.73700 23.03300
H  13.90900 0.46900 23.31200
H  14.83100 -0.21200 21.95000
H  13.56500 2.39500 22.17000
H  13.61000 1.29300 20.75400
H  15.07300 2.19500 21.14000
H  13.04600 3.95900 26.95200
H  14.39300 4.42700 25.96700
H  14.33800 5.15700 27.52400
H  14.98700 1.66500 31.90200
H  16.42500 4.62900 34.92500
H  17.79100 4.25500 33.80400
H  17.40600 3.17200 34.93600

