158

Mg 8.83700 3.12400 27.05100
C  10.30400 1.67700 30.00700
C  7.02200 5.18500 29.26000
C  7.22200 4.27400 24.32000
C  10.34400 0.66100 25.15800
N  8.49800 3.26000 29.45300
C  9.37700 2.64300 30.38000
C  9.03300 3.29000 31.78300
C  7.90000 4.33600 31.46200
C  7.83100 4.26800 29.96400
C  6.51500 4.39000 32.20500
C  10.39700 3.87000 32.44100
C  10.24600 4.92400 33.49400
H  11.19200 4.78900 34.66300
N  7.33100 4.54100 26.76500
C  6.76600 5.29200 27.81000
C  5.84900 6.18900 27.16800
C  5.93700 6.02300 25.76300
C  6.82300 4.88900 25.53600
C  4.99500 7.22000 27.91400
C  5.43000 6.86200 24.53900
O  5.75900 6.68000 23.35600
C  4.51000 8.03000 24.87000
N  8.89300 2.66900 24.91900
C  8.15600 3.25700 24.05100
C  8.31200 2.60700 22.63500
C  9.38300 1.43400 22.93300
C  9.52500 1.56900 24.42200
C  7.00300 2.02800 22.04500
C  10.79300 1.60400 22.29300
C  11.53200 0.32400 21.85900
N  10.19900 1.63100 27.37800
C  10.74200 0.73700 26.50500
C  11.82700 0.03000 27.16000
C  11.64500 0.32800 28.53800
C  10.63000 1.27000 28.63300
C  12.67300 -1.10400 26.57300
C  12.14600 0.09400 29.92700
O  12.93500 -0.71400 30.22600
C  11.35800 1.00000 30.94600
C  10.89600 0.17100 32.07800
O  10.00400 -0.66400 32.08200
O  11.66300 0.45400 33.19100
C  11.53100 -0.26400 34.40700
H  6.60300 5.99700 29.85800
H  6.75400 4.60600 23.39100
H  10.77800 -0.15900 24.58200
H  8.64500 2.42400 32.31900
H  8.28500 5.33100 31.68200
H  6.25600 3.49300 32.76800
H  5.65900 4.64700 31.58200
H  6.56000 5.13100 33.00300
H  10.81700 4.32000 31.54200
H  10.92000 2.99400 32.82600
H  9.22400 4.88900 33.87000
H  10.32200 5.93300 33.08800
H  5.16900 8.23200 27.54600
H  5.09400 7.25900 28.99900
H  3.99400 6.93800 27.58900
H  5.18700 8.79600 25.24700
H  3.77200 7.78300 25.63400
H  3.91200 8.37500 24.02700
H  8.74200 3.32800 21.94000
H  8.88300 0.50000 22.67700
H  7.00600 0.94600 22.17500
H  6.89000 2.35000 21.01000
H  6.18300 2.50800 22.58000
H  11.44700 2.13100 22.98900
H  10.70700 2.20600 21.38800
H  12.00200 0.66500 20.93600
H  10.76700 -0.44500 21.74600
H  12.28600 0.08500 22.60800
H  12.99000 -0.87100 25.55600
H  12.13200 -2.05000 26.58200
H  13.57300 -1.15500 27.18600
H  12.12100 1.70100 31.28500
H  11.06700 -1.24000 34.26300
H  11.08500 0.19600 35.28900
H  12.56100 -0.43200 34.72200
Mg 17.25100 -1.83200 27.15100
C  16.29100 0.43900 29.64500
C  19.19600 -3.40500 29.43700
C  18.79000 -3.40800 24.55400
C  15.74600 0.34400 24.80700
N  17.56100 -1.59000 29.33900
C  17.08700 -0.55800 30.08500
C  17.52800 -0.76400 31.58900
C  18.56400 -1.91900 31.45800
C  18.51100 -2.32800 29.98600
C  20.07100 -1.36500 31.79200
C  16.38800 -1.14100 32.63200
C  16.50200 -0.58400 34.06800
H  17.96800 -0.32400 34.61300
N  18.75100 -3.36500 27.00800
C  19.36000 -3.89200 28.09000
C  20.06500 -4.97600 27.64500
C  19.88900 -5.09100 26.24100
C  19.06600 -3.91000 25.81600
C  20.88400 -5.91900 28.58500
C  20.38500 -6.17900 25.29600
O  20.07200 -6.25700 24.12000
C  21.29000 -7.23100 25.72700
N  17.28200 -1.49400 25.04000
C  18.01300 -2.28400 24.15400
C  17.80500 -1.88200 22.70300
C  16.71600 -0.71900 22.73300
C  16.67800 -0.54400 24.30400
C  19.11900 -1.38300 22.03300
C  15.39500 -1.02300 22.14700
C  15.28500 -0.56600 20.64900
N  16.09700 -0.17500 27.18600
C  15.49000 0.59400 26.14900
C  14.78600 1.70100 26.75600
C  15.11200 1.75000 28.14400
C  15.92600 0.62900 28.30300
C  14.00400 2.73800 25.95600
C  15.06100 2.39100 29.38100
O  14.31600 3.31300 29.63900
C  15.69600 1.56300 30.46500
C  16.53700 2.42500 31.39800
O  17.39500 3.26400 31.02100
O  16.11200 2.26500 32.70800
C  16.51500 3.19800 33.65400
H  19.69900 -3.88200 30.28100
H  19.26000 -3.97100 23.74400
H  15.16700 1.03100 24.18600
H  17.96700 0.17300 31.93400
H  18.25200 -2.70400 32.14700
H  20.38000 -1.93300 32.66900
H  20.02400 -0.33000 32.13200
H  20.77400 -1.52000 30.97400
H  16.19700 -2.20700 32.75500
H  15.42200 -0.81300 32.25000
H  15.93000 -1.15700 34.79800
H  15.91300 0.32800 33.96300
H  21.89500 -6.21700 28.30700
H  20.37500 -6.87600 28.70100
H  21.03200 -5.41400 29.54000
H  22.32100 -6.88800 25.81300
H  21.49900 -7.90400 24.89500
H  20.91600 -7.75800 26.60500
H  17.44900 -2.74500 22.14100
H  17.19800 0.20900 22.42500
H  18.81000 -0.52900 21.43100
H  19.60000 -2.06500 21.33100
H  19.70400 -0.95800 22.84800
H  14.54400 -0.84400 22.80400
H  15.36200 -2.09800 21.97100
H  14.78100 -1.29200 20.01000
H  16.29100 -0.24500 20.37700
H  14.68200 0.34100 20.60900
H  14.76700 2.92900 25.20100
H  13.68500 3.56200 26.59600
H  13.18300 2.14200 25.55700
H  14.94800 1.13300 31.13300
H  16.99700 2.70200 34.49700
H  15.65100 3.79700 33.93900
H  17.24000 3.94300 33.32600

