158

Mg 0.92600 7.64700 25.74900
C  1.75200 9.46000 28.50100
C  0.62500 4.84600 27.70300
C  -0.01900 6.00000 22.95500
C  1.45600 10.52700 23.70000
N  1.29200 7.24500 27.78700
C  1.50000 8.13300 28.79300
C  1.54400 7.39900 30.19000
C  1.55400 5.92700 29.74500
C  1.11700 5.99800 28.29700
C  2.82800 5.11400 29.85800
C  0.28600 7.86800 30.95500
C  0.33500 8.02900 32.52100
H  1.52500 7.38900 33.23000
N  0.38500 5.64500 25.39000
C  0.23700 4.64600 26.38800
C  -0.44400 3.50600 25.80800
C  -0.55200 3.84400 24.38300
C  -0.09600 5.18500 24.18300
C  -0.76600 2.26700 26.61500
C  -1.20400 2.94900 23.26300
O  -1.31700 3.28000 22.09800
C  -1.57900 1.51700 23.52900
N  0.93100 8.20200 23.59600
C  0.54600 7.25100 22.64100
C  0.46600 7.94300 21.22200
C  1.07500 9.31400 21.46100
C  1.15100 9.40100 22.97700
C  1.19700 7.11800 20.16700
C  0.22800 10.50100 20.87200
C  -0.94400 11.03300 21.75700
N  1.54000 9.59000 26.00500
C  1.56200 10.65600 25.12500
C  1.83500 11.83300 25.95200
C  1.88300 11.46500 27.25300
C  1.67100 10.06100 27.24300
C  2.09300 13.23000 25.39600
C  2.10300 11.84800 28.58100
O  2.40100 12.93300 28.96700
C  1.92800 10.57600 29.44100
C  3.07900 10.65000 30.41600
O  4.20600 10.33700 30.19200
O  2.58100 11.23700 31.56300
C  3.51500 11.16500 32.63000
H  0.49700 4.04700 28.43600
H  -0.41500 5.61100 22.01500
H  1.65700 11.30000 22.95500
H  2.44800 7.85200 30.59800
H  0.70900 5.54800 30.32000
H  3.32800 4.84100 28.92800
H  2.77400 4.16400 30.39000
H  3.51100 5.66600 30.50400
H  -0.42600 7.04700 30.87100
H  0.10800 8.87000 30.56600
H  -0.61300 7.71400 32.95500
H  0.35700 9.09100 32.76600
H  -1.79500 1.97000 26.41100
H  -0.53800 2.39200 27.67400
H  -0.10900 1.42600 26.39900
H  -2.30600 1.41000 24.33400
H  -0.64800 0.97000 23.68100
H  -2.06700 1.19500 22.61000
H  -0.60000 7.93300 20.99300
H  2.10400 9.32900 21.10000
H  0.62000 6.19600 20.08900
H  2.20400 6.84900 20.48500
H  1.15800 7.69700 19.24400
H  -0.24200 10.25400 19.92000
H  0.99900 11.25500 20.71200
H  -1.87100 10.94000 21.19200
H  -0.62700 12.07200 21.84900
H  -1.13200 10.49400 22.68600
H  1.92400 13.18900 24.32000
H  3.02700 13.67500 25.74000
H  1.25000 13.85600 25.69000
H  0.97500 10.73200 29.94600
H  3.81200 10.14400 32.87300
H  3.08500 11.39800 33.60500
H  4.34100 11.83200 32.38600
Mg 24.44600 -6.38200 47.07900
C  27.07400 -4.15400 46.02000
C  22.43800 -4.63300 44.76600
C  22.02900 -8.65600 47.42700
C  26.71400 -8.30300 48.77100
N  24.76800 -4.60500 45.56300
C  25.89600 -3.86200 45.31200
C  25.69300 -2.83700 44.28900
C  24.14100 -2.77800 44.29500
C  23.70700 -4.07800 44.92900
C  23.46600 -1.62800 45.04200
C  26.30400 -3.35200 42.99200
C  27.31500 -2.38800 42.23900
H  27.17300 -1.96300 40.77300
N  22.45300 -6.56900 46.21900
C  21.86600 -5.75400 45.33800
C  20.50300 -6.22300 45.09000
C  20.32900 -7.41500 45.87400
C  21.61100 -7.60300 46.56200
C  19.46900 -5.70300 44.10600
C  19.13300 -8.32000 45.85700
O  18.23300 -8.24600 45.03600
C  18.86900 -9.30000 46.99900
N  24.38000 -8.21200 47.97600
C  23.25800 -8.92000 48.08600
C  23.54700 -10.32500 48.65300
C  24.91500 -10.12700 49.23700
C  25.40200 -8.76600 48.73300
C  22.50400 -10.91800 49.63600
C  25.94000 -11.28800 48.90000
C  26.71500 -11.73900 50.11700
N  26.49600 -6.23900 47.45200
C  27.26400 -7.10100 48.25600
C  28.58500 -6.56200 48.28900
C  28.57000 -5.40600 47.47800
C  27.26300 -5.24900 46.90500
C  29.73400 -7.18200 49.05900
C  29.45100 -4.36700 46.95700
O  30.62500 -4.07400 47.12000
C  28.48700 -3.50800 45.94000
C  28.55000 -2.10900 46.38500
O  28.34200 -1.61400 47.48000
O  28.94400 -1.44000 45.26800
C  28.78300 0.03500 45.29600
H  21.72600 -4.05300 44.17600
H  21.19400 -9.30800 47.69100
H  27.41400 -8.96700 49.28200
H  26.05200 -1.86000 44.61300
H  23.72500 -2.80000 43.28800
H  24.25100 -0.96800 45.41200
H  22.77000 -1.90500 45.83400
H  22.94200 -1.05300 44.28000
H  25.52900 -3.49700 42.24000
H  26.82900 -4.29200 43.15900
H  28.14400 -3.09500 42.23800
H  27.70600 -1.62900 42.91700
H  19.63900 -4.67200 43.79700
H  18.48800 -5.68800 44.58200
H  19.48300 -6.33000 43.21500
H  17.84600 -9.65300 47.12800
H  19.08400 -8.76600 47.92500
H  19.51500 -10.14000 46.74300
H  23.60500 -10.98600 47.78800
H  24.84600 -10.01000 50.31900
H  22.11700 -11.84700 49.21700
H  21.73700 -10.18500 49.88500
H  22.99500 -11.30600 50.52800
H  26.54400 -10.99000 48.04200
H  25.40800 -12.19800 48.62200
H  27.62200 -11.18700 50.36300
H  27.07800 -12.73700 49.86900
H  26.08600 -11.88800 50.99500
H  29.39300 -7.92100 49.78400
H  30.13700 -6.36400 49.65500
H  30.52800 -7.58700 48.43100
H  28.92000 -3.63000 44.94700
H  28.93300 0.34100 44.26100
H  29.35100 0.54600 46.07200
H  27.74100 0.04100 45.61600

