158

Mg 5.81200 53.86000 38.80700
C  5.05600 50.42900 39.02200
C  9.07100 53.10000 38.00100
C  6.28300 57.12200 38.18200
C  2.38400 54.57500 39.59900
N  6.87200 52.01100 38.28900
C  6.34600 50.73600 38.53500
C  7.44800 49.67300 38.32500
C  8.72700 50.49600 38.35800
C  8.22100 51.96000 38.20000
C  9.54800 50.19900 39.71100
C  7.39700 48.93000 36.94800
C  7.00400 49.75700 35.73500
H  5.74100 49.50100 34.94900
N  7.44300 54.97900 38.16600
C  8.72400 54.45300 38.05300
C  9.60300 55.56100 37.84200
C  8.88100 56.80000 37.90500
C  7.47900 56.32300 38.10900
C  11.13100 55.43500 37.60600
C  9.40400 58.23500 37.61200
O  10.61300 58.46300 37.43100
C  8.49300 59.36800 37.47200
N  4.47300 55.56200 38.71000
C  4.90700 56.80800 38.41100
C  3.80500 57.86800 38.68500
C  2.57700 56.97300 39.00600
C  3.18200 55.61500 39.16400
C  4.04100 58.87300 39.73400
C  1.45000 56.98200 37.82000
C  -0.02000 57.01500 38.30400
N  4.06900 52.77900 39.35100
C  2.76700 53.23900 39.65100
C  2.03200 52.09500 40.07500
C  2.80500 50.92700 39.91300
C  4.06900 51.42800 39.37200
C  0.59800 52.12900 40.55500
C  2.97400 49.46100 39.98300
O  2.12100 48.63600 40.35700
C  4.38100 49.14500 39.32300
C  4.06200 48.23600 38.18000
O  3.80100 48.62900 37.02500
O  4.13300 46.93600 38.58000
C  4.24400 45.91400 37.52400
H  10.13200 52.85700 38.09100
H  6.48400 58.19000 38.07600
H  1.33400 54.79500 39.80200
H  7.46500 48.95600 39.14500
H  9.41300 50.25800 37.54500
H  10.46800 49.67500 39.45200
H  9.05900 49.51800 40.40800
H  9.70200 51.07700 40.33800
H  6.81500 48.01000 36.99700
H  8.39100 48.49900 36.82600
H  7.75100 49.61400 34.95400
H  7.01100 50.81200 36.00700
H  11.34300 55.45200 36.53700
H  11.46200 54.47900 38.01200
H  11.64500 56.18700 38.20500
H  7.70200 59.07600 36.78200
H  8.96500 60.28500 37.11900
H  8.03800 59.56900 38.44100
H  3.75900 58.33000 37.69900
H  2.00900 57.18700 39.91100
H  4.95700 58.58400 40.25000
H  3.22900 59.09700 40.42600
H  4.32400 59.75700 39.16300
H  1.71300 56.08400 37.26000
H  1.53300 57.84700 37.16300
H  -0.73800 56.32700 37.85900
H  -0.42400 57.94600 37.90500
H  -0.12600 57.00100 39.38800
H  0.51100 51.60100 41.50400
H  0.00000 51.68700 39.75800
H  0.23200 53.14900 40.66800
H  4.92100 48.50200 40.01900
H  3.26100 45.78500 37.07300
H  4.63700 45.06300 38.08000
H  4.99000 46.30400 36.83000
Mg -12.02600 37.97400 42.37500
C  -9.46600 35.61000 41.76300
C  -10.32600 40.18000 40.58100
C  -14.78800 39.88400 42.21200
C  -13.77700 35.40100 43.92400
N  -10.16200 37.79000 41.26100
C  -9.29500 36.75900 41.09100
C  -8.21400 37.07600 40.05700
C  -8.33300 38.64900 39.94600
C  -9.68900 38.90700 40.63600
C  -7.19600 39.56400 40.59600
C  -8.26000 36.21800 38.76600
C  -6.85600 35.54100 38.46600
H  -5.99000 36.30400 37.47300
N  -12.44800 39.81300 41.61100
C  -11.59700 40.60900 41.03000
C  -12.08800 41.94700 40.97300
C  -13.38000 41.86300 41.43800
C  -13.64500 40.48500 41.73200
C  -11.27800 43.18700 40.58900
C  -14.26700 43.09800 41.75300
O  -13.72100 44.18600 41.59200
C  -15.78800 43.03900 42.11700
N  -14.01700 37.74000 42.93400
C  -14.97000 38.66300 42.82000
C  -16.27200 38.24300 43.38500
C  -15.98000 36.79200 43.97600
C  -14.48300 36.63600 43.61100
C  -16.90600 39.05900 44.51300
C  -16.92100 35.70000 43.45100
C  -17.34700 34.63900 44.46300
N  -11.65800 35.96400 42.96600
C  -12.47500 35.00300 43.54900
C  -11.73200 33.73000 43.76000
C  -10.50400 33.98400 43.06300
C  -10.59400 35.26100 42.53300
C  -12.08400 32.60000 44.65100
C  -9.30000 33.33100 42.69000
O  -8.98400 32.18000 42.89400
C  -8.54100 34.42900 41.80500
C  -7.27600 34.68700 42.60300
O  -6.42500 33.78600 42.71400
O  -7.06800 35.99300 43.00400
C  -5.66100 36.20100 43.49200
H  -9.71900 40.85000 39.96900
H  -15.72000 40.45200 42.24700
H  -14.34900 34.62300 44.43200
H  -7.30300 36.85100 40.61200
H  -8.42000 39.03900 38.93200
H  -6.88500 40.31400 39.86800
H  -6.31000 38.96900 40.81400
H  -7.48100 39.94800 41.57500
H  -8.59200 36.77800 37.89200
H  -9.02100 35.46600 38.97400
H  -7.06000 34.58700 37.98000
H  -6.26400 35.33600 39.35800
H  -11.23500 43.84700 41.45500
H  -11.81700 43.74000 39.81900
H  -10.22500 42.99000 40.39000
H  -16.27700 42.59000 41.25200
H  -16.15800 44.05000 42.28700
H  -16.01700 42.54100 43.06000
H  -16.87500 38.19400 42.47800
H  -15.84300 36.77500 45.05700
H  -17.65800 39.63200 43.97200
H  -16.21900 39.73300 45.02600
H  -17.40300 38.49700 45.30400
H  -16.42700 35.17200 42.63500
H  -17.83600 36.19100 43.11700
H  -17.34900 33.64700 44.00900
H  -18.38700 34.92300 44.62200
H  -16.68300 34.68400 45.32600
H  -13.03700 32.84200 45.12100
H  -11.32500 32.42700 45.41300
H  -12.30800 31.71400 44.05700
H  -8.28800 33.84000 40.92300
H  -5.13900 36.30600 42.54100
H  -5.22100 35.48100 44.18200
H  -5.71000 37.17800 43.97400

