158

Mg 26.16500 0.90500 29.36400
C  27.87600 0.55200 32.31300
C  23.16600 1.29200 31.18600
C  24.39600 0.94300 26.48500
C  29.14200 -0.03500 27.52900
N  25.62100 0.75900 31.57300
C  26.49500 0.73300 32.54300
C  25.78300 1.17100 33.88000
C  24.23900 1.07300 33.48100
C  24.32100 1.06200 31.92700
C  23.38200 -0.14100 34.05700
C  26.15200 2.56400 34.38000
C  27.03000 2.64400 35.64600
H  26.54600 3.63900 36.69300
N  24.06200 1.14300 28.84300
C  22.99600 1.27400 29.77700
C  21.74200 1.41900 29.03100
C  22.12100 1.42700 27.62500
C  23.54900 1.10900 27.58300
C  20.36800 1.50800 29.70500
C  21.21900 1.71700 26.43000
O  21.66000 1.67400 25.26200
C  19.79700 2.11800 26.52500
N  26.63400 0.45000 27.32700
C  25.74600 0.59800 26.31900
C  26.46900 0.23200 24.97800
C  27.88600 -0.25000 25.36300
C  27.90700 0.06700 26.83100
C  25.62000 -0.66400 24.02400
C  28.97900 0.30600 24.52200
C  29.27000 1.78500 24.79200
N  28.14500 0.43300 29.73700
C  29.25200 0.13100 28.97900
C  30.45500 0.14700 29.75700
C  29.93100 0.27900 31.07900
C  28.57000 0.47300 30.98100
C  31.81400 -0.30100 29.35100
C  30.25300 0.36200 32.44500
O  31.31300 0.16700 33.02400
C  28.97500 0.59600 33.30300
C  28.75600 -0.46800 34.39000
O  28.55900 -1.64500 34.21800
O  29.01200 0.13700 35.58400
C  28.85700 -0.73900 36.74500
H  22.21600 1.58100 31.64100
H  23.87600 0.99900 25.52700
H  30.07200 -0.00300 26.95800
H  26.09600 0.56500 34.72900
H  23.71100 2.00500 33.68400
H  22.75000 -0.60600 33.30100
H  22.73600 0.27400 34.83000
H  23.89100 -0.94000 34.59600
H  25.21900 3.06700 34.63700
H  26.70100 3.15000 33.64400
H  28.05900 2.89500 35.38900
H  27.02700 1.67300 36.14000
H  19.92800 2.48800 29.52300
H  20.49400 1.43000 30.78500
H  19.64500 0.77200 29.35200
H  19.82300 3.02400 27.13100
H  19.26700 1.27600 26.97100
H  19.44000 2.46000 25.55400
H  26.62300 1.15400 24.41900
H  27.85800 -1.33900 25.40400
H  26.11900 -1.58200 23.71300
H  25.38700 -0.08000 23.13400
H  24.70900 -1.01400 24.51000
H  28.76200 0.15700 23.46500
H  29.86300 -0.28700 24.75800
H  28.36500 2.29100 25.13000
H  29.70500 2.32900 23.95300
H  30.15200 1.78500 25.43200
H  31.88200 -0.45500 28.27400
H  31.89000 -1.27500 29.83300
H  32.51600 0.45800 29.69500
H  28.99900 1.62400 33.66600
H  27.84900 -1.15300 36.73100
H  29.20000 -0.28600 37.67600
H  29.65800 -1.47600 36.67900
Mg 6.29700 54.53800 40.50300
C  5.55700 51.10000 40.48200
C  9.46200 53.96700 39.43900
C  6.50800 57.77900 39.99400
C  2.59000 55.06200 40.73500
N  7.34000 52.76600 39.95500
C  6.80800 51.48600 40.02800
C  7.89700 50.51900 39.61100
C  9.24700 51.34800 39.62200
C  8.70300 52.77400 39.73300
C  10.30300 51.15000 40.69900
C  7.64700 49.84200 38.24100
C  6.91200 50.61400 37.05500
H  5.99100 49.90200 36.07600
N  7.77500 55.75200 39.76900
C  9.03300 55.33500 39.39700
C  9.86000 56.51500 39.13100
C  9.01500 57.62800 39.18300
C  7.70300 57.09200 39.70300
C  11.35800 56.38400 38.83100
C  9.45000 59.01700 38.92700
O  10.61000 59.26800 38.51800
C  8.53800 60.09300 39.16900
N  4.74400 56.11100 40.13400
C  5.18400 57.35400 40.21500
C  4.00200 58.41100 40.40300
C  2.74800 57.57700 40.25400
C  3.40600 56.17600 40.36000
C  4.08900 59.42000 41.60000
C  1.88400 57.73800 38.94900
C  2.20000 56.82700 37.73800
N  4.45800 53.36700 40.72000
C  3.16200 53.76400 40.86600
C  2.45000 52.53600 41.15700
C  3.30800 51.46300 41.13900
C  4.52300 52.02000 40.80300
C  0.92200 52.40100 41.36300
C  3.47300 50.04200 41.28300
O  2.65400 49.17800 41.55600
C  4.91500 49.74400 40.79100
C  4.83900 48.89100 39.63600
O  4.42900 49.14700 38.50900
O  5.16000 47.53900 40.03800
C  5.10500 46.49300 38.99800
H  10.48500 53.74800 39.12700
H  6.60200 58.86600 40.04700
H  1.54400 55.28600 40.95700
H  8.01600 49.69900 40.32000
H  9.71700 51.22900 38.64600
H  10.44500 52.06100 41.28000
H  11.27300 50.82700 40.32100
H  9.86400 50.44800 41.40700
H  7.13500 48.89300 38.39700
H  8.61000 49.47800 37.88300
H  7.61800 50.80600 36.24700
H  6.40600 51.52800 37.36400
H  11.63100 55.42200 38.39900
H  11.89500 56.44800 39.77800
H  11.67200 57.19500 38.17400
H  7.70000 59.84700 38.51600
H  8.96100 60.96600 38.67100
H  8.52100 60.16600 40.25600
H  4.00300 59.07300 39.53800
H  2.06100 57.49800 41.09700
H  3.18900 59.42600 42.21600
H  4.31700 60.39500 41.16800
H  4.83200 59.07600 42.32000
H  1.96100 58.76900 38.60400
H  0.83600 57.81900 39.23900
H  2.52500 57.42200 36.88500
H  1.36700 56.22800 37.36900
H  3.11200 56.24300 37.86500
H  0.40600 53.36000 41.33200
H  0.74300 51.90500 42.31700
H  0.36500 51.80800 40.63700
H  5.55800 49.29600 41.54900
H  5.43900 46.88700 38.03800
H  4.12000 46.04100 38.88100
H  5.80900 45.72700 39.32400

