158

Mg 41.13000 8.71800 29.56800
C  43.13900 10.13600 32.10200
C  39.06000 7.52600 31.98700
C  39.21600 7.24500 27.17400
C  43.41500 9.67300 27.34200
N  41.20900 8.79600 31.81600
C  42.12300 9.40600 32.67400
C  41.56800 9.36700 34.15200
C  40.45300 8.27500 34.05200
C  40.23200 8.12800 32.55400
C  40.71500 6.93400 34.74000
C  41.03600 10.85700 34.44100
C  40.34500 11.06800 35.82000
H  41.18200 11.78300 36.89100
N  39.45200 7.47300 29.57500
C  38.74100 7.25800 30.69900
C  37.41300 6.71200 30.22400
C  37.34300 6.80500 28.83900
C  38.68200 7.21000 28.47100
C  36.50700 6.07900 31.31400
C  36.17400 6.50900 27.83500
O  36.28400 6.62600 26.68400
C  34.84800 6.18500 28.46300
N  41.27700 8.47900 27.51900
C  40.48400 7.70200 26.75100
C  40.89000 7.89500 25.25100
C  42.28200 8.43700 25.43800
C  42.37100 8.88200 26.88100
C  40.88700 6.68400 24.38000
C  42.67500 9.55000 24.38900
C  43.85400 9.27400 23.44800
N  42.85600 9.86900 29.63400
C  43.73600 10.21600 28.59900
C  44.82600 11.00000 29.01100
C  44.61700 11.05900 30.45600
C  43.50100 10.25900 30.71500
C  45.84200 11.65900 28.12900
C  45.11700 11.53500 31.65300
O  46.11200 12.11500 31.94700
C  44.24400 10.92100 32.85100
C  44.89300 10.24300 34.00700
O  45.81000 9.48400 33.86200
O  44.45400 10.76800 35.18100
C  45.09100 10.21600 36.41500
H  38.41000 7.24100 32.81700
H  38.58000 6.85900 26.37500
H  44.09900 9.80800 26.50100
H  42.40200 9.04200 34.77400
H  39.61500 8.73900 34.57200
H  41.71200 6.78600 35.15500
H  40.62200 6.08700 34.06000
H  40.02100 6.73200 35.55600
H  40.27300 11.18600 33.73500
H  41.94600 11.42000 34.23700
H  40.08800 10.10300 36.25500
H  39.48900 11.70700 35.60200
H  36.29700 5.06100 30.98600
H  35.57700 6.64600 31.31500
H  36.90900 5.91500 32.31400
H  34.59400 7.10400 28.99100
H  34.94500 5.33500 29.13900
H  34.07200 5.95900 27.73200
H  40.23900 8.68400 24.87600
H  43.08400 7.70200 25.35900
H  41.91300 6.41100 24.13500
H  40.28100 6.67600 23.47400
H  40.44100 5.84000 24.90700
H  42.82100 10.53700 24.82900
H  41.88700 9.56500 23.63700
H  44.45800 10.17800 23.36700
H  43.43600 9.05300 22.46600
H  44.54300 8.45400 23.64900
H  45.98500 10.93100 27.33000
H  46.66800 11.79200 28.82800
H  45.47300 12.63600 27.82000
H  43.89700 11.87500 33.24800
H  44.37400 10.14200 37.23200
H  45.87700 10.85000 36.82500
H  45.39500 9.18200 36.24800
Mg 35.67800 48.28300 26.76100
C  36.23900 46.25200 29.60200
C  34.65200 50.80100 28.86000
C  35.03100 50.13100 24.09000
C  36.89700 45.71600 24.72600
N  35.29900 48.36800 28.97900
C  35.75500 47.49100 29.91000
C  35.63700 48.05700 31.33100
C  34.86200 49.42900 31.03900
C  34.96100 49.58900 29.56200
C  33.51200 49.48600 31.75800
C  37.03000 48.34100 32.02600
C  37.13800 48.04600 33.51900
H  35.94400 48.43300 34.45700
N  35.01300 50.22600 26.52800
C  34.69400 51.14900 27.50000
C  34.34100 52.42400 26.95900
C  34.26400 52.20900 25.53200
C  34.80900 50.83600 25.30600
C  34.01900 53.60500 27.75000
C  33.79400 53.14600 24.36800
O  33.81900 52.77200 23.20700
C  33.18700 54.50300 24.66900
N  36.03000 48.02900 24.69700
C  35.65300 48.90900 23.81800
C  35.72300 48.30500 22.42800
C  36.58400 47.07300 22.67000
C  36.50000 46.92100 24.13400
C  34.38400 47.97700 21.71100
C  38.06900 47.16300 22.29400
C  38.85600 45.96100 21.80500
N  36.22700 46.32300 27.02300
C  36.69100 45.38000 26.06000
C  37.08400 44.11000 26.68400
C  36.88500 44.46000 28.12200
C  36.42600 45.76700 28.21700
C  37.50700 42.84300 26.05400
C  37.02700 43.93200 29.44500
O  37.36600 42.83700 29.86500
C  36.72200 45.08300 30.41300
C  35.54800 44.55500 31.34600
O  34.42700 44.15700 31.03500
O  35.95600 44.63400 32.68400
C  34.98300 44.32100 33.77200
H  34.37600 51.56000 29.59500
H  34.84900 50.53100 23.09000
H  37.25900 45.08400 23.91300
H  35.03500 47.36900 31.92400
H  35.43300 50.21200 31.53800
H  32.87900 50.07000 31.09000
H  33.63300 50.02600 32.69700
H  33.22600 48.45900 31.98700
H  37.28400 49.39900 31.95900
H  37.75200 47.81500 31.40100
H  37.97100 48.57500 33.98200
H  37.31500 46.97800 33.64400
H  34.96600 54.13900 27.82700
H  33.70100 53.24800 28.73000
H  33.18100 54.24200 27.46800
H  33.49800 55.01800 25.57800
H  32.10700 54.36000 24.64600
H  33.43400 55.13700 23.81800
H  36.12500 49.05400 21.74500
H  36.24500 46.13300 22.23500
H  34.00400 47.00300 22.02000
H  34.58700 47.96300 20.64000
H  33.66400 48.76600 21.93000
H  38.55700 47.55000 23.18800
H  38.14900 47.99100 21.59100
H  39.27800 46.15200 20.81800
H  38.25400 45.05700 21.88900
H  39.65300 45.83600 22.53900
H  38.25200 42.39200 26.71000
H  38.04100 43.05000 25.12700
H  36.68000 42.16400 25.84700
H  37.58200 45.28100 31.05300
H  35.17200 44.98900 34.61200
H  35.19900 43.30900 34.11300
H  33.94400 44.48900 33.48800

