158

Mg -2.21900 34.97300 26.36500
C  -3.69400 33.27000 28.94400
C  -0.83300 37.15200 28.70700
C  -1.07200 36.92400 23.84300
C  -4.07200 33.13500 24.09600
N  -2.23500 35.21900 28.61200
C  -2.95100 34.36500 29.43400
C  -2.71800 34.72900 30.93000
C  -1.85400 36.07300 30.82000
C  -1.59000 36.16000 29.29700
C  -2.58000 37.36000 31.30100
C  -1.95700 33.56100 31.69900
C  -2.67600 33.20000 33.01800
H  -1.69300 33.05100 34.21400
N  -1.05300 36.78700 26.23800
C  -0.51400 37.46100 27.34400
C  0.22000 38.59400 26.89900
C  0.19900 38.54500 25.46400
C  -0.70000 37.39100 25.09200
C  0.73800 39.67700 27.79500
C  0.83400 39.46100 24.38600
O  0.78000 39.22500 23.15700
C  1.71700 40.61200 24.83400
N  -2.48100 35.10200 24.33100
C  -1.85600 35.91400 23.43800
C  -2.20200 35.60600 21.99000
C  -2.85900 34.16800 22.15100
C  -3.21600 34.12600 23.62200
C  -3.20700 36.66000 21.31800
C  -1.85800 33.01700 21.75500
C  -1.00600 32.26000 22.89400
N  -3.59400 33.57600 26.43500
C  -4.27500 32.83600 25.50700
C  -4.80700 31.61100 26.08100
C  -4.71100 31.80200 27.44300
C  -3.94800 32.99400 27.58900
C  -5.54800 30.58200 25.34400
C  -5.06200 31.25000 28.70100
O  -5.75500 30.28900 28.96200
C  -4.51000 32.20900 29.73100
C  -5.58800 32.72000 30.66000
O  -6.29800 33.64800 30.28500
O  -5.62000 32.15000 31.93500
C  -6.48100 32.71400 32.98500
H  -0.52100 37.80400 29.52500
H  -0.78900 37.54100 22.98900
H  -4.61200 32.51500 23.37700
H  -3.65000 34.95500 31.44900
H  -1.02600 35.97800 31.52300
H  -3.61900 37.15900 31.56600
H  -2.67500 38.09800 30.50500
H  -2.08900 37.92800 32.09100
H  -0.95700 33.93500 31.91600
H  -1.80600 32.66700 31.09300
H  -3.14100 32.21500 32.99900
H  -3.43900 33.94300 33.25300
H  1.80000 39.63000 27.55400
H  0.47900 39.52100 28.84200
H  0.31600 40.57400 27.34300
H  2.53900 40.22800 25.43800
H  1.02600 41.34100 25.25700
H  2.20900 41.05500 23.96900
H  -1.31100 35.55500 21.36300
H  -3.84700 34.11600 21.69400
H  -4.10800 36.25300 20.85900
H  -2.78600 37.39600 20.63200
H  -3.75900 37.26900 22.03400
H  -1.16500 33.44000 21.02700
H  -2.36900 32.24800 21.17500
H  -0.89400 32.98900 23.69600
H  0.04100 32.25000 22.59300
H  -1.35400 31.26600 23.17400
H  -5.03900 30.33100 24.41300
H  -6.53800 30.96700 25.10200
H  -5.64600 29.69300 25.96700
H  -3.81100 31.56500 30.26500
H  -7.10100 31.84000 33.18000
H  -6.97500 33.62800 32.65200
H  -5.94100 32.97100 33.89600
Mg -11.46800 15.65000 41.15000
C  -7.88600 15.13000 40.90200
C  -10.91600 18.86400 40.15500
C  -14.70100 15.83000 40.72800
C  -11.68700 12.15500 41.66500
N  -9.57700 16.79700 40.51900
C  -8.24500 16.43600 40.56900
C  -7.32900 17.50900 39.98500
C  -8.35600 18.72100 39.91900
C  -9.73300 18.08500 40.18200
C  -8.12800 19.79400 41.00600
C  -6.67200 17.10400 38.67800
C  -5.23800 17.36500 38.52500
H  -4.62600 17.52200 37.15800
N  -12.63200 17.16200 40.61300
C  -12.25400 18.46200 40.31200
C  -13.33900 19.29800 40.31200
C  -14.50600 18.51500 40.39600
C  -14.01400 17.07000 40.57800
C  -13.18800 20.74000 40.01800
C  -15.96500 18.99800 40.26500
O  -16.15300 20.21000 40.16700
C  -17.18400 18.08300 40.40200
N  -12.92700 14.11400 41.09900
C  -14.27800 14.47900 40.95600
C  -15.12100 13.38400 41.38800
C  -14.17600 12.15500 41.19400
C  -12.84700 12.86800 41.35800
C  -15.80000 13.62600 42.76800
C  -14.49100 11.28900 39.95300
C  -15.13900 9.92400 40.29900
N  -10.12900 13.94800 41.29300
C  -10.39600 12.62700 41.58300
C  -9.14900 11.85300 41.74000
C  -8.12700 12.85400 41.49100
C  -8.81700 14.10000 41.22600
C  -9.00500 10.36600 42.18200
C  -6.69700 13.06800 41.45200
O  -5.73800 12.40000 41.80600
C  -6.54700 14.53700 41.03300
C  -5.76700 15.16900 42.14900
O  -6.19600 15.36900 43.27000
O  -4.39900 15.27800 41.87200
C  -3.39200 15.47500 42.94100
H  -10.74500 19.87600 39.78200
H  -15.78300 15.93400 40.82500
H  -11.93300 11.10800 41.85200
H  -6.56200 17.70500 40.73400
H  -8.36600 19.18300 38.93200
H  -7.05900 20.00600 40.98100
H  -8.43500 19.41300 41.98000
H  -8.69200 20.70700 40.81500
H  -7.22900 17.68900 37.94700
H  -6.82400 16.03700 38.51500
H  -4.66200 16.69500 39.16200
H  -5.11900 18.29500 39.08100
H  -14.07400 21.35000 39.84400
H  -12.50300 20.91100 39.18800
H  -12.76800 21.25800 40.88000
H  -18.07000 18.68700 40.20700
H  -17.21200 17.69100 41.41900
H  -17.01900 17.20700 39.77400
H  -16.01600 13.31600 40.77000
H  -14.24300 11.65300 42.15900
H  -15.24500 13.29500 43.64600
H  -16.86400 13.39200 42.79500
H  -15.63600 14.69600 42.89400
H  -13.57900 11.07500 39.39500
H  -15.15600 11.96500 39.41500
H  -14.38400 9.14200 40.37800
H  -15.92000 9.72500 39.56500
H  -15.62200 9.97400 41.27500
H  -9.63000 9.86000 41.44700
H  -9.55700 10.31600 43.12000
H  -7.94400 10.12200 42.11600
H  -6.00200 14.48800 40.09000
H  -2.85100 16.39800 42.73200
H  -2.83200 14.55800 43.12700
H  -3.90200 15.68600 43.88100

