158

Mg 35.31200 1.77000 29.74500
C  32.91600 2.46900 32.18200
C  37.78100 2.43300 32.23000
C  37.76800 1.53300 27.42400
C  32.95600 2.24900 27.30700
N  35.31000 2.20200 31.93100
C  34.23500 2.42000 32.68400
C  34.60300 2.48700 34.15900
C  36.11000 2.66400 34.13300
C  36.46300 2.35900 32.68600
C  36.58900 4.15200 34.51200
C  33.98200 1.34800 35.05300
C  33.04000 1.85600 36.19400
H  33.60700 3.10200 36.93800
N  37.49000 1.77200 29.83200
C  38.30400 2.18500 30.92800
C  39.66200 1.84700 30.61200
C  39.69900 1.67500 29.17500
C  38.30100 1.56300 28.71000
C  40.80500 1.87600 31.62100
C  40.93200 1.56300 28.25300
O  40.81900 1.34700 27.05300
C  42.33300 1.53700 28.77500
N  35.38000 1.71800 27.65600
C  36.46600 1.61800 26.94100
C  36.08900 1.57500 25.42700
C  34.52900 1.62800 25.45200
C  34.25000 1.85300 26.88100
C  36.82400 2.63600 24.54200
C  33.82800 0.36500 24.93100
C  32.53100 0.50900 24.14600
N  33.34500 2.22800 29.69800
C  32.53500 2.28400 28.62500
C  31.20000 2.64500 29.13400
C  31.31600 2.66600 30.48900
C  32.61000 2.42400 30.80300
C  29.97300 2.84400 28.32500
C  30.52000 2.79100 31.70300
O  29.34700 3.07300 31.99300
C  31.58500 2.77900 32.87000
C  31.59000 4.12800 33.48800
O  32.11100 5.15200 33.09000
O  30.75700 4.18600 34.59000
C  30.41000 5.49900 35.15700
H  38.51800 2.67300 32.99900
H  38.41400 1.70500 26.56000
H  32.21200 2.31600 26.51000
H  34.17000 3.41200 34.54100
H  36.57100 1.96600 34.83200
H  35.76100 4.76100 34.87700
H  37.16600 4.56800 33.68700
H  37.18800 3.95500 35.40200
H  34.88400 0.85700 35.41900
H  33.45300 0.63000 34.42600
H  32.87100 1.12300 36.98300
H  31.99800 2.10400 35.99400
H  41.56400 2.59300 31.30800
H  41.25000 0.88100 31.61300
H  40.51100 2.12900 32.64000
H  42.36700 0.83600 29.60800
H  42.56600 2.51600 29.19500
H  43.12200 1.19700 28.10400
H  36.43400 0.60700 25.06300
H  34.20300 2.54900 24.96800
H  37.59100 2.04700 24.03900
H  37.44500 3.33200 25.10600
H  36.27100 3.17500 23.77300
H  33.81900 -0.25100 25.83000
H  34.51100 -0.24800 24.34300
H  31.80200 -0.27700 24.34700
H  32.71300 0.42300 23.07500
H  32.11300 1.48200 24.40200
H  29.54100 3.84500 28.32700
H  29.39200 2.13200 28.91100
H  30.11600 2.46000 27.31500
H  31.23400 2.00200 33.55000
H  29.52300 5.44600 35.78800
H  30.29900 6.17100 34.30600
H  31.15900 5.95600 35.80400
Mg 9.59800 47.09300 26.82200
C  7.52800 47.05400 29.76500
C  12.20600 47.76400 28.96800
C  11.35000 47.76600 24.13000
C  6.58100 47.07100 24.87600
N  9.77900 47.43600 29.10300
C  8.86800 47.22800 30.11200
C  9.49800 47.54400 31.53600
C  10.98400 48.05000 31.25300
C  10.97800 47.76600 29.67400
C  11.25400 49.56200 31.63900
C  9.21200 46.34400 32.57900
C  10.16600 46.23500 33.76100
H  9.61900 45.77900 35.11100
N  11.51900 47.37800 26.61200
C  12.44000 47.69900 27.58000
C  13.72900 48.01500 26.94500
C  13.43300 48.15100 25.55500
C  12.05400 47.68800 25.38500
C  14.96800 48.33000 27.73900
C  14.34900 48.63600 24.37600
O  13.98500 48.74100 23.18400
C  15.80800 48.82900 24.68200
N  9.02100 47.50400 24.75300
C  9.99800 47.63900 23.81500
C  9.27100 47.81700 22.40900
C  7.76300 47.46800 22.64700
C  7.79400 47.28100 24.16100
C  9.63700 49.22800 21.82800
C  7.28100 46.23700 21.78400
C  8.01900 44.91000 22.12900
N  7.48800 47.08000 27.13300
C  6.42900 47.00900 26.27400
C  5.19500 47.09300 27.02500
C  5.63400 46.97700 28.34400
C  6.98000 47.01800 28.40500
C  3.84300 47.05000 26.49800
C  5.08600 46.76600 29.70100
O  3.93800 46.69400 30.15600
C  6.38400 46.85000 30.66700
C  6.38800 45.52000 31.36600
O  6.95500 44.46300 31.02600
O  5.66100 45.61800 32.46400
C  5.54700 44.39700 33.31400
H  13.02600 47.94100 29.66600
H  11.82400 48.08900 23.20100
H  5.65700 46.93300 24.31000
H  8.91200 48.41400 31.83200
H  11.70100 47.39300 31.74500
H  11.98500 49.69500 32.43700
H  10.39400 50.03500 32.11300
H  11.53300 50.06900 30.71600
H  9.30100 45.45400 31.95600
H  8.19900 46.42100 32.97400
H  10.72300 47.15600 33.93100
H  10.79400 45.41200 33.41900
H  15.38300 49.24000 27.30400
H  15.70500 47.53400 27.63200
H  14.82300 48.57300 28.79100
H  15.93000 49.82400 25.11100
H  16.40400 48.67100 23.78300
H  16.12000 48.05100 25.38000
H  9.77800 47.18100 21.68400
H  7.19300 48.37900 22.46100
H  10.12300 49.78000 22.63300
H  8.82700 49.76300 21.33200
H  10.39000 49.14800 21.04300
H  7.32300 46.52600 20.73400
H  6.24900 46.06800 22.09200
H  8.63000 44.46000 21.34700
H  7.34400 44.13000 22.48300
H  8.74800 45.03100 22.93000
H  3.71100 48.01100 26.00200
H  3.19100 46.93900 27.36500
H  3.77100 46.31300 25.69700
H  6.30300 47.59100 31.46200
H  5.50500 43.42200 32.82700
H  4.59700 44.39900 33.84800
H  6.42400 44.38300 33.96100

