158

Mg 8.56500 5.01600 27.58700
C  9.86500 3.29900 30.35300
C  6.60500 6.91200 29.59900
C  7.49400 6.63400 24.85100
C  10.09600 2.59400 25.49400
N  8.06400 4.91500 29.75500
C  8.84900 4.23900 30.65800
C  8.41000 4.67700 32.04300
C  7.45700 5.89600 31.80800
C  7.38700 5.95200 30.27100
C  5.96300 5.81100 32.43600
C  9.42700 4.89600 33.12900
C  8.82700 4.80200 34.52800
H  9.76200 5.00600 35.76900
N  7.28600 6.61500 27.29400
C  6.47200 7.12000 28.22700
C  5.48400 8.16700 27.55400
C  5.96200 8.24200 26.16800
C  6.99800 7.19300 26.06200
C  4.34200 8.98800 28.35900
C  5.52900 9.12600 25.05300
O  6.00900 9.06600 23.91900
C  4.46300 10.12000 25.32400
N  8.81500 4.73500 25.46300
C  8.31200 5.58000 24.57100
C  8.65100 5.16300 23.14300
C  9.48100 3.85700 23.24600
C  9.49400 3.68700 24.79600
C  7.39000 4.98100 22.19200
C  10.98000 3.86200 22.68100
C  11.28400 2.68300 21.75100
N  9.81600 3.29300 27.79600
C  10.29400 2.36700 26.89800
C  11.03100 1.30000 27.58300
C  10.97400 1.68400 28.91700
C  10.19900 2.89000 29.00800
C  11.56400 0.07600 26.95300
C  11.38500 1.38300 30.33200
O  12.13700 0.50800 30.71400
C  10.72900 2.46000 31.24600
C  9.93700 1.53500 32.16000
O  8.82800 1.03100 32.00100
O  10.51800 1.65400 33.38100
C  9.98500 0.85500 34.49000
H  6.06700 7.59600 30.25900
H  7.00800 7.10300 23.99200
H  10.59600 1.88800 24.82800
H  7.83400 3.78800 32.29900
H  7.98000 6.74300 32.25300
H  6.01800 4.99200 33.15300
H  5.27500 5.68800 31.60000
H  5.75900 6.70700 33.02300
H  10.06300 5.75500 32.91700
H  10.10900 4.04600 33.15800
H  8.65100 3.74100 34.70600
H  7.91200 5.38800 34.60800
H  3.38700 9.16500 27.86300
H  4.60200 10.03000 28.55100
H  4.17000 8.67200 29.38800
H  4.76200 10.64300 26.23300
H  3.47800 9.66000 25.40200
H  4.50700 10.87800 24.54200
H  9.24400 5.98300 22.73700
H  8.86200 3.00100 22.97600
H  7.49000 4.13000 21.51800
H  7.40100 5.84600 21.53000
H  6.39800 4.95500 22.64400
H  11.68300 3.91200 23.51300
H  11.19300 4.72100 22.04500
H  11.42400 2.93100 20.69900
H  10.47300 1.95600 21.79000
H  12.15000 2.12900 22.11200
H  11.93800 -0.49600 27.80200
H  12.27800 0.55800 26.28500
H  10.79600 -0.35800 26.31200
H  11.55400 2.84100 31.84800
H  9.53200 1.46800 35.26900
H  10.90200 0.45600 34.92400
H  9.33000 0.03600 34.19200
Mg 17.17300 -0.56500 27.54200
C  16.06800 1.55900 30.06700
C  19.24200 -2.22700 29.60000
C  18.66400 -1.76600 24.77400
C  15.27100 1.68600 25.35800
N  17.66800 -0.27600 29.61600
C  17.09400 0.58600 30.45800
C  17.61900 0.34000 31.86700
C  18.68300 -0.88000 31.74700
C  18.56800 -1.15900 30.23400
C  20.15800 -0.62000 32.35800
C  16.55900 0.08800 32.91700
C  16.71700 0.68300 34.28400
H  18.03600 1.03800 34.85100
N  18.59000 -2.01900 27.24200
C  19.37400 -2.60800 28.23100
C  20.24200 -3.51700 27.63700
C  20.04000 -3.41100 26.21800
C  19.06000 -2.37100 25.98400
C  21.02100 -4.41700 28.53200
C  20.73100 -4.23200 25.07700
O  20.47100 -4.11700 23.86300
C  21.71900 -5.33300 25.43700
N  16.95600 -0.13800 25.39300
C  17.65600 -0.82900 24.50600
C  17.41400 -0.35100 23.11100
C  16.23200 0.61300 23.21700
C  16.20000 0.81600 24.74700
C  18.66600 0.16400 22.40600
C  14.88400 0.08100 22.61100
C  13.75700 -0.27900 23.56200
N  15.85800 1.17600 27.68300
C  15.10400 1.97600 26.69400
C  14.30100 3.01800 27.34700
C  14.72300 2.88100 28.68300
C  15.61400 1.80200 28.79200
C  13.39900 4.08900 26.86100
C  14.55400 3.51200 29.98000
O  13.93400 4.57900 30.27400
C  15.39500 2.63400 30.92000
C  16.35400 3.47200 31.67000
O  17.50800 3.62300 31.33100
O  15.75500 4.01400 32.74500
C  16.45500 5.06200 33.45800
H  19.84900 -2.85000 30.26000
H  19.16500 -2.08500 23.85800
H  14.56700 2.30000 24.79200
H  18.25800 1.20600 32.03500
H  18.36200 -1.81000 32.21500
H  20.12800 0.26900 32.98900
H  20.97500 -0.42000 31.66400
H  20.45700 -1.49000 32.94300
H  16.38900 -0.98800 32.93600
H  15.63700 0.52300 32.52900
H  16.42400 -0.08900 34.99500
H  16.11600 1.59200 34.33000
H  21.09500 -5.44100 28.16700
H  20.66000 -4.62400 29.53900
H  21.99600 -3.97300 28.73100
H  21.22400 -6.27000 25.69300
H  22.43700 -5.11500 26.22700
H  22.42000 -5.64500 24.66200
H  17.09100 -1.22200 22.54100
H  16.42000 1.56600 22.72100
H  19.41700 0.70600 22.98000
H  18.38200 0.77400 21.54800
H  19.24300 -0.73800 22.20400
H  15.07800 -0.52500 21.72600
H  14.34400 0.87400 22.09300
H  13.35400 0.60100 24.06500
H  14.09200 -0.95600 24.34700
H  12.94600 -0.73200 22.99000
H  12.63100 4.19600 27.62700
H  13.05500 3.99500 25.83200
H  13.95400 5.02700 26.88500
H  14.71200 2.26100 31.68300
H  17.34300 4.64400 33.93300
H  15.87300 5.50800 34.26500
H  16.69100 5.79400 32.68500

