158

Mg 49.28600 44.79400 42.01000
C  45.84900 45.36600 41.19900
C  48.76600 41.68600 40.69800
C  52.54600 44.45300 41.94400
C  49.59900 48.31500 42.27400
N  47.43100 43.66500 41.16800
C  46.16000 44.05800 40.91400
C  45.31700 43.05000 40.15100
C  46.20200 41.81100 40.27100
C  47.59200 42.42200 40.69300
C  45.78800 40.79500 41.35000
C  45.12900 43.69700 38.75300
C  43.75200 43.68200 38.07600
H  43.52100 42.63100 37.00300
N  50.50300 43.18900 41.63700
C  50.11600 42.00800 41.04900
C  51.26000 41.16900 40.94000
C  52.42700 41.93500 41.35900
C  51.86500 43.23800 41.73200
C  51.13000 39.73900 40.34700
C  53.83300 41.39300 41.58100
O  54.08600 40.24600 41.26200
C  54.98000 42.16300 42.14400
N  50.85900 46.18100 42.04300
C  52.10700 45.75900 42.06800
C  53.15000 46.94500 41.91900
C  52.22600 48.15500 42.21800
C  50.79100 47.52200 42.19600
C  54.33400 46.78700 42.87800
C  52.56100 49.42900 41.40800
C  52.29300 50.75000 42.16900
N  48.04800 46.55200 41.99900
C  48.26600 47.89200 42.21500
C  47.08100 48.61100 42.34200
C  46.12000 47.69800 41.91600
C  46.74600 46.41600 41.70700
C  46.87900 50.04700 42.76400
C  44.62800 47.53100 41.59200
O  43.71800 48.36800 41.50000
C  44.47700 45.99300 41.18300
C  43.63400 45.42500 42.19400
O  44.00500 44.70700 43.13400
O  42.32900 45.69900 41.90400
C  41.36200 45.13900 42.76900
H  48.68600 40.64100 40.39200
H  53.60000 44.35700 41.67500
H  49.70200 49.40300 42.26400
H  44.36500 42.97900 40.67500
H  46.19400 41.35700 39.28000
H  44.79300 41.14000 41.63200
H  46.44600 40.84100 42.21700
H  45.70500 39.80300 40.90600
H  45.84400 43.15500 38.13500
H  45.40500 44.74800 38.67200
H  43.52500 44.70500 37.77500
H  43.09000 43.45300 38.91100
H  50.71800 39.05500 41.08800
H  51.99600 39.17100 40.00700
H  50.35200 39.76300 39.58400
H  54.53100 42.76800 42.93200
H  55.32600 42.77600 41.31200
H  55.75100 41.52400 42.57500
H  53.52800 46.90300 40.89800
H  52.37400 48.51800 43.23500
H  55.29300 46.45800 42.47800
H  54.01700 46.14000 43.69600
H  54.57700 47.73200 43.36400
H  51.98500 49.39800 40.48300
H  53.64500 49.53300 41.35100
H  51.92100 50.52000 43.16800
H  51.51800 51.25200 41.58900
H  53.18000 51.38100 42.22200
H  47.72400 50.33200 43.39200
H  45.94000 50.12000 43.31400
H  46.88400 50.53400 41.78900
H  44.10400 45.84200 40.17100
H  41.72900 44.20700 43.19700
H  40.49900 44.89400 42.15000
H  41.02700 45.81400 43.55600
Mg 34.94500 48.62000 26.42800
C  35.34100 46.74500 29.37100
C  33.66600 51.20600 28.27100
C  34.04600 50.10900 23.54100
C  35.81300 45.70100 24.60100
N  34.49600 48.81200 28.62000
C  34.91200 48.04700 29.59700
C  34.90900 48.74600 30.98000
C  34.17100 50.09000 30.61300
C  34.08600 50.01600 29.03200
C  32.71900 50.10900 31.26700
C  36.33500 48.98000 31.60400
C  36.38000 48.60100 33.16500
H  35.15300 48.40200 33.92600
N  34.17900 50.46700 26.01700
C  33.77100 51.48500 26.86200
C  33.51400 52.73700 26.13300
C  33.49300 52.31100 24.75200
C  33.89300 50.89500 24.72800
C  33.19100 54.05300 26.81800
C  33.06400 53.16200 23.57100
O  33.19300 52.67400 22.42300
C  32.56400 54.62700 23.63900
N  35.00500 48.10200 24.43700
C  34.51800 48.77100 23.43800
C  34.50900 48.07600 22.05800
C  35.40700 46.86700 22.47000
C  35.46900 46.94600 23.97600
C  33.16800 47.68200 21.44000
C  36.75200 46.73400 21.77500
C  37.64800 48.00000 22.00600
N  35.56200 46.60500 26.87200
C  35.88200 45.58500 26.01100
C  36.21800 44.41800 26.79500
C  36.00300 44.77100 28.14500
C  35.59200 46.17400 28.12500
C  36.66100 43.15500 26.27600
C  36.01400 44.36900 29.51800
O  36.21300 43.25600 29.92600
C  35.62300 45.61000 30.36700
C  34.39000 45.07300 31.00600
O  33.25800 45.11600 30.52100
O  34.63000 44.52300 32.19900
C  33.47100 43.85300 32.85000
H  33.31700 52.06100 28.85400
H  33.72200 50.50100 22.57400
H  36.02900 44.90500 23.88400
H  34.30400 48.11400 31.62900
H  34.81000 50.91800 30.91800
H  32.44800 49.22800 31.84900
H  32.00700 50.20100 30.44700
H  32.51700 50.92800 31.95700
H  36.53100 50.05200 31.59900
H  37.17500 48.51300 31.09000
H  36.98200 49.34600 33.68400
H  37.05000 47.75000 33.04400
H  33.73200 54.88100 26.35900
H  33.50000 54.06100 27.86300
H  32.10700 54.16500 26.80500
H  32.54500 55.10000 22.65700
H  33.30800 55.19200 24.20100
H  31.56500 54.64600 24.07400
H  35.04900 48.87200 21.54500
H  34.87600 45.93600 22.27300
H  33.03700 46.62400 21.21500
H  33.15100 48.21800 20.49100
H  32.33200 47.95400 22.08500
H  36.72900 46.63300 20.69000
H  37.32200 45.87400 22.12700
H  38.16300 48.09700 21.05000
H  38.27600 47.80000 22.87400
H  37.12300 48.94500 22.14800
H  36.93600 43.32100 25.23400
H  36.01400 42.27900 26.32200
H  37.52800 42.79900 26.83200
H  36.27600 45.93300 31.17700
H  33.50500 42.78800 32.62500
H  32.49600 44.28900 32.63400
H  33.61500 43.86900 33.93100

