158

Mg 48.78300 45.62900 42.72300
C  45.53400 46.19800 41.81400
C  48.42600 42.45300 41.13800
C  52.20000 45.29800 42.64500
C  49.28000 48.99100 43.41000
N  47.25200 44.55100 41.45800
C  45.96300 45.01800 41.20000
C  45.16100 44.09400 40.25800
C  45.94400 42.77000 40.51700
C  47.27700 43.26400 41.07000
C  45.26000 41.70900 41.47000
C  45.15100 44.60600 38.77300
C  43.76500 44.55100 38.10000
H  43.70300 44.30800 36.61700
N  50.14500 43.98700 42.24100
C  49.73300 42.80300 41.64600
C  50.90100 41.96800 41.60400
C  52.02100 42.68100 42.10900
C  51.46100 44.07200 42.38200
C  50.81300 40.59000 41.18900
C  53.44900 42.30100 42.23200
O  53.69100 41.15800 41.92500
C  54.57000 43.18200 42.88400
N  50.47200 46.94900 43.08800
C  51.80100 46.55700 42.95900
C  52.78200 47.70500 43.01300
C  51.80300 48.87900 43.33200
C  50.44500 48.27300 43.21400
C  53.96300 47.54500 43.98100
C  51.97300 50.16500 42.49200
C  51.54500 51.45100 43.22300
N  47.65100 47.22000 42.88500
C  47.92400 48.53700 43.30400
C  46.69200 49.27200 43.45800
C  45.73700 48.36400 42.82500
C  46.36500 47.16500 42.54300
C  46.51600 50.55800 43.80500
C  44.32100 48.21200 42.46600
O  43.36400 49.00700 42.72700
C  44.17300 46.83500 41.75900
C  42.99400 46.08100 42.21900
O  42.19500 45.61000 41.40100
O  42.93600 45.94600 43.53300
C  41.68700 45.24800 43.97300
H  48.16000 41.44800 40.80300
H  53.28900 45.22800 42.62500
H  49.36200 50.06300 43.60300
H  44.14700 43.85700 40.58100
H  46.11100 42.30800 39.54400
H  44.78500 40.96400 40.83100
H  44.55400 42.22300 42.12300
H  45.96200 41.24700 42.16500
H  45.70600 43.94100 38.11200
H  45.50700 45.63700 38.76800
H  43.43700 45.55900 38.35200
H  43.11400 43.81300 38.57000
H  51.29700 40.44800 40.22300
H  49.82400 40.17600 40.99100
H  51.29400 40.01900 41.98300
H  54.92700 43.94300 42.19000
H  55.39400 42.50200 43.10000
H  54.22100 43.63900 43.81000
H  53.15700 48.08300 42.06300
H  51.83700 49.26100 44.35200
H  54.02100 46.63000 44.57000
H  54.14200 48.45700 44.55100
H  54.87300 47.51200 43.38100
H  51.33500 50.25500 41.61300
H  53.00500 50.37500 42.21400
H  50.73400 51.93000 42.67300
H  52.30200 52.23100 43.31000
H  51.15600 51.25900 44.22300
H  46.46400 50.52900 44.89400
H  45.49100 50.84500 43.56900
H  47.28200 51.16900 43.32700
H  43.92900 47.18500 40.75600
H  41.39800 44.43400 43.30800
H  40.87300 45.97200 43.94300
H  41.78800 44.79700 44.96000
Mg 9.91400 47.36500 26.13500
C  7.85700 47.60000 29.02000
C  12.49100 48.87300 27.83400
C  11.77900 47.20000 23.35700
C  7.08000 46.52500 24.31200
N  10.15700 48.08600 28.26700
C  9.16400 48.09100 29.25400
C  9.86600 48.61000 30.60800
C  11.09800 49.43400 30.07100
C  11.29800 48.81200 28.61300
C  10.93200 50.98500 30.05300
C  10.32800 47.33900 31.43900
C  10.69400 47.52200 32.95000
H  10.39700 46.43800 34.01400
N  11.93700 47.75900 25.74500
C  12.81000 48.37500 26.60100
C  14.07200 48.56700 25.88200
C  13.83000 48.01000 24.58800
C  12.48400 47.61800 24.49900
C  15.31000 49.18400 26.53300
C  14.84700 47.81300 23.40500
O  14.60900 47.18600 22.32000
C  16.21500 48.30600 23.56000
N  9.52600 46.91700 24.08200
C  10.42200 46.95800 23.14000
C  9.82200 46.57500 21.70700
C  8.31200 46.40100 22.09900
C  8.31100 46.62100 23.58000
C  9.96000 47.69600 20.71900
C  7.58800 45.12300 21.56400
C  6.05700 45.22600 21.25100
N  7.81500 47.12200 26.51100
C  6.79500 46.71700 25.66300
C  5.62500 46.50100 26.45100
C  5.97600 46.82000 27.78800
C  7.28700 47.24100 27.73900
C  4.25100 46.16700 25.80500
C  5.45900 46.96800 29.15200
O  4.35600 46.73800 29.61600
C  6.69300 47.38200 30.05500
C  6.98100 46.21500 30.91500
O  7.36200 45.14600 30.48300
O  6.75000 46.52600 32.23700
C  6.97300 45.44800 33.20000
H  13.25600 49.42500 28.38400
H  12.18400 47.29100 22.34600
H  6.21100 46.20000 23.73500
H  9.21400 49.27100 31.17900
H  12.00700 49.25700 30.64500
H  11.16900 51.48700 29.11500
H  11.59900 51.44400 30.78200
H  10.00100 51.33100 30.50100
H  11.21500 46.99100 30.91000
H  9.65100 46.49400 31.31100
H  10.26900 48.47600 33.26300
H  11.77600 47.62900 33.03100
H  15.12500 49.69200 27.48000
H  15.91200 49.87400 25.94300
H  15.91100 48.32800 26.83900
H  16.28200 49.35000 23.87000
H  16.76100 48.29000 22.61700
H  16.64200 47.63500 24.30600
H  10.16200 45.57600 21.43500
H  7.74900 47.26900 21.75600
H  10.12300 48.62300 21.26900
H  9.07300 47.88100 20.11200
H  10.86100 47.50300 20.13700
H  7.64800 44.38100 22.36000
H  8.13800 44.66500 20.74100
H  5.50300 46.12800 21.51000
H  5.52600 44.44100 21.79000
H  5.91300 44.94800 20.20600
H  4.22300 45.41700 25.01500
H  3.88100 47.14300 25.48900
H  3.72000 45.81100 26.68700
H  6.47100 48.24900 30.67800
H  6.80500 44.42700 32.85800
H  6.28500 45.68600 34.01100
H  7.99100 45.45600 33.58900

