158

Mg 26.80500 49.94900 26.53700
C  24.51000 51.06400 29.02500
C  28.95300 48.93700 29.08100
C  29.10000 49.25700 24.27600
C  24.60800 51.26700 24.13700
N  26.73200 49.97500 28.81400
C  25.61700 50.34800 29.53500
C  26.00300 50.24100 31.01600
C  27.56300 49.82500 31.00300
C  27.74200 49.47400 29.52200
C  28.50000 50.94800 31.55900
C  25.04200 49.41300 31.84000
C  24.47100 49.99000 33.12000
H  24.52000 49.12900 34.43000
N  28.67800 49.14500 26.68500
C  29.38900 48.76900 27.79600
C  30.63000 48.12900 27.39200
C  30.69200 48.19300 25.95000
C  29.41100 48.80600 25.56000
C  31.60200 47.57100 28.33800
C  31.81000 47.80000 25.06800
O  31.82000 48.00400 23.85100
C  33.03000 47.21100 25.53800
N  26.84100 50.11300 24.60700
C  27.92800 49.80200 23.83800
C  27.62600 49.83100 22.35700
C  26.15700 50.28900 22.37800
C  25.83200 50.62100 23.80300
C  28.50400 50.78600 21.57200
C  25.26500 49.16900 21.75600
C  24.70100 49.66000 20.40700
N  24.92400 50.99200 26.56800
C  24.21200 51.44200 25.48100
C  23.04500 52.07100 25.98000
C  23.14800 52.02500 27.38300
C  24.31900 51.29500 27.63200
C  21.93800 52.76900 25.17100
C  22.50800 52.36000 28.49500
O  21.39600 52.82700 28.57400
C  23.35500 51.71900 29.64300
C  23.78600 52.86500 30.44400
O  24.69800 53.70600 30.17100
O  22.88100 52.86600 31.50200
C  22.99800 53.96700 32.42100
H  29.50500 48.57900 29.95200
H  29.74400 48.96900 23.44200
H  23.90200 51.62200 23.38400
H  25.87500 51.21400 31.49100
H  27.69200 48.98400 31.68500
H  28.89000 51.43100 30.66300
H  29.23400 50.40000 32.15000
H  27.95100 51.72900 32.08500
H  25.54600 48.46600 32.03400
H  24.28100 49.11400 31.11900
H  23.38500 50.05500 33.04900
H  24.92200 50.95900 33.33300
H  32.53500 47.99500 27.96600
H  31.59000 46.48600 28.23100
H  31.42100 47.80300 29.38800
H  32.80700 46.35800 26.17900
H  33.50700 48.03400 26.06900
H  33.75500 46.98700 24.75600
H  27.76100 48.82000 21.97200
H  25.99500 51.21400 21.82400
H  29.32000 51.15200 22.19500
H  27.86700 51.53700 21.10400
H  29.09000 50.30600 20.78800
H  24.37900 48.90000 22.33200
H  25.74900 48.19900 21.64000
H  23.64700 49.88200 20.57400
H  24.83300 48.84400 19.69600
H  25.27900 50.48000 19.97900
H  22.38900 52.95300 24.19500
H  21.70900 53.76300 25.55700
H  21.07800 52.10100 25.14600
H  22.79300 51.04600 30.29100
H  23.35400 54.89200 31.96600
H  23.74200 53.72400 33.18000
H  22.07400 54.08300 32.98700
Mg 17.32900 51.13400 25.96000
C  19.23800 50.27500 28.75100
C  14.80000 52.10900 28.20600
C  15.59100 52.16800 23.38700
C  19.66500 49.72200 23.84500
N  17.22300 51.32900 28.27600
C  18.07600 50.88800 29.17500
C  17.54000 51.14700 30.64800
C  16.02100 51.42500 30.46700
C  15.98300 51.64800 28.84200
C  15.09400 50.28900 30.82600
C  18.27400 52.20800 31.41300
C  17.72400 52.57200 32.83700
H  16.77900 51.65800 33.61700
N  15.41500 51.91400 25.84800
C  14.62800 52.36000 26.83200
C  13.67500 53.25000 26.32900
C  13.79700 53.28900 24.87800
C  14.99100 52.43100 24.63800
C  12.60600 53.98100 27.16200
C  13.05000 54.05500 23.78100
O  13.31700 53.87800 22.60200
C  11.78400 54.84500 24.07600
N  17.48600 50.68800 23.87900
C  16.73200 51.49500 23.06000
C  17.28500 51.35400 21.60200
C  18.79800 50.81900 21.83000
C  18.64500 50.34200 23.29100
C  16.46300 50.59600 20.55600
C  19.97300 51.86000 21.62200
C  21.18300 51.35300 20.87600
N  19.13600 50.12500 26.18100
C  19.94400 49.54000 25.27700
C  21.12000 48.97500 25.97100
C  20.88600 49.12700 27.33200
C  19.65100 49.95800 27.40600
C  22.26200 48.41700 25.29000
C  21.37000 48.92900 28.66300
O  22.37800 48.37600 29.10000
C  20.27200 49.60000 29.65600
C  19.62100 48.60400 30.57600
O  18.73600 47.84400 30.30100
O  20.06300 48.83200 31.88700
C  19.31900 48.14500 32.92500
H  13.97000 52.29300 28.89100
H  15.19500 52.66100 22.49700
H  20.44700 49.43600 23.13900
H  17.73400 50.21100 31.17200
H  15.75400 52.36700 30.94500
H  14.17100 50.64800 31.28100
H  15.63600 49.60500 31.47900
H  14.68400 49.75700 29.96800
H  18.37200 53.12800 30.83700
H  19.29100 51.81800 31.46100
H  17.24200 53.52300 32.60900
H  18.55800 52.76300 33.51200
H  12.92600 55.01200 27.30900
H  12.39800 53.48400 28.10900
H  11.62900 53.97400 26.67900
H  11.94900 55.66600 24.77400
H  11.21400 54.11600 24.65200
H  11.06100 54.92900 23.26500
H  17.37200 52.39000 21.27700
H  18.86700 49.92600 21.20900
H  16.55600 51.00900 19.55200
H  15.40200 50.64500 20.80100
H  16.83400 49.57100 20.52800
H  20.17100 52.32900 22.58600
H  19.58000 52.68300 21.02500
H  21.32500 52.01900 20.02500
H  21.24200 50.31600 20.54400
H  22.07500 51.60100 21.45100
H  22.12800 48.38600 24.20900
H  22.32200 47.38900 25.64500
H  23.21000 48.88600 25.55500
H  20.69900 50.36700 30.30200
H  19.14200 48.90700 33.68400
H  20.11800 47.52800 33.33800
H  18.42100 47.56000 32.72900

