158

Mg 26.85000 50.39400 26.95400
C  24.79300 51.65600 29.46700
C  29.06100 49.54500 29.58000
C  28.77900 49.24000 24.68900
C  24.47800 51.55500 24.60300
N  26.96200 50.71400 29.31000
C  25.82500 51.04800 30.01800
C  26.05200 50.79600 31.52200
C  27.56300 50.37200 31.58200
C  27.92700 50.20300 30.09500
C  28.51900 51.27100 32.42900
C  25.17200 49.67200 32.19100
C  24.58900 49.92100 33.62100
H  25.46400 50.83000 34.53000
N  28.67500 49.49900 27.11000
C  29.34000 49.15500 28.28500
C  30.50300 48.46500 27.84400
C  30.54500 48.35400 26.45800
C  29.31500 49.06800 26.03500
C  31.61000 47.91100 28.74800
C  31.55100 47.67100 25.46800
O  31.47200 47.80200 24.25200
C  32.59900 46.77900 26.01600
N  26.70500 50.52800 24.88500
C  27.58100 49.81700 24.12600
C  27.18500 49.65800 22.64700
C  25.75400 50.42200 22.68500
C  25.62700 50.87500 24.12400
C  28.06600 50.22400 21.54700
C  24.52900 49.52900 22.23900
C  23.53900 50.13000 21.19800
N  25.10800 51.57700 26.99900
C  24.18700 51.86200 25.97000
C  23.01900 52.45500 26.60400
C  23.33800 52.52900 27.95400
C  24.53400 51.86500 28.19900
C  21.79600 52.82800 25.82000
C  22.82800 52.86000 29.22300
O  21.81000 53.45000 29.48000
C  23.70900 52.27600 30.30100
C  24.26600 53.47400 31.04700
O  24.91500 54.38200 30.59300
O  23.73400 53.40300 32.32900
C  24.09600 54.51500 33.16500
H  29.64300 49.09800 30.38900
H  29.41900 48.98200 23.84300
H  23.75700 51.86800 23.84500
H  25.83100 51.73300 32.03300
H  27.76100 49.35000 31.90400
H  29.07400 50.70100 33.17400
H  27.97900 52.08300 32.91500
H  29.30700 51.71200 31.81800
H  25.63800 48.68700 32.20300
H  24.31800 49.64900 31.51300
H  24.17500 48.97700 33.97500
H  23.61800 50.39700 33.48400
H  32.45000 48.57600 28.54900
H  31.83100 46.85900 28.57200
H  31.34100 47.96600 29.80300
H  33.38100 46.55900 25.28900
H  32.19100 45.82400 26.34900
H  33.22400 47.25900 26.76900
H  27.01800 48.63600 22.30500
H  25.66800 51.40100 22.21400
H  29.08500 50.42900 21.87500
H  27.71900 51.13600 21.06200
H  28.13600 49.58200 20.66900
H  24.10500 49.24300 23.20100
H  25.01300 48.67000 21.77500
H  22.56500 50.22400 21.67900
H  23.39700 49.38400 20.41500
H  23.90700 51.06200 20.77000
H  21.81500 53.82300 25.37700
H  20.92500 52.80800 26.47500
H  21.61400 52.02800 25.10200
H  23.19100 51.58700 30.96800
H  25.13600 54.83900 33.14200
H  23.77300 54.30600 34.18500
H  23.55400 55.38800 32.80100
Mg -0.30700 42.40300 26.75300
C  2.01000 42.61400 29.43900
C  -2.82400 41.73600 29.14800
C  -2.35200 42.02500 24.29200
C  2.30900 42.84500 24.49200
N  -0.37200 42.34200 29.03500
C  0.68800 42.50500 29.90800
C  0.22200 42.77100 31.34600
C  -1.27100 42.27300 31.22200
C  -1.51600 41.99800 29.70100
C  -1.63400 40.99900 32.03100
C  0.49900 44.20800 31.84700
C  1.28500 44.34600 33.15300
H  1.39000 43.21300 34.06000
N  -2.33600 42.00700 26.73700
C  -3.18500 41.70000 27.80600
C  -4.54500 41.58200 27.30800
C  -4.47900 41.83700 25.91700
C  -3.03700 41.90500 25.56600
C  -5.80000 41.36700 28.18500
C  -5.53400 42.05600 24.81500
O  -5.33500 42.27400 23.59300
C  -6.97400 42.08900 25.25200
N  0.03600 42.14500 24.72800
C  -1.03200 42.06700 23.89200
C  -0.62600 42.30600 22.43200
C  0.81200 42.79800 22.51200
C  1.05900 42.64600 24.00500
C  -0.79000 40.99100 21.70900
C  1.21100 44.18400 21.83600
C  2.50000 44.17100 20.96000
N  1.75100 42.67600 26.88400
C  2.64300 42.84700 25.90300
C  3.97200 42.97800 26.45600
C  3.73500 43.00800 27.88700
C  2.45100 42.68500 28.05900
C  5.21200 43.13500 25.73300
C  4.37300 43.22900 29.15600
O  5.43900 43.65500 29.47100
C  3.31700 42.83600 30.25100
C  3.88600 41.66800 30.98900
O  3.97000 40.52500 30.49400
O  4.36600 42.03400 32.24300
C  5.09600 41.02300 32.98700
H  -3.63600 41.71700 29.87800
H  -2.95600 41.94100 23.38600
H  3.12800 43.02400 23.79200
H  0.61800 41.95800 31.95500
H  -2.01100 43.01900 31.51300
H  -2.71200 41.05500 32.17900
H  -1.14200 40.98100 33.00300
H  -1.29400 40.10700 31.50400
H  -0.51700 44.60100 31.87600
H  1.07300 44.71600 31.07200
H  0.85200 45.09900 33.81200
H  2.27400 44.65500 32.81500
H  -6.53100 40.70500 27.72000
H  -6.25300 42.29200 28.54000
H  -5.45800 40.81500 29.06100
H  -7.17100 42.23800 26.31400
H  -7.45600 41.15600 24.95800
H  -7.54300 42.93100 24.85800
H  -1.36000 43.00100 22.02500
H  1.40600 42.06500 21.96600
H  -0.28900 41.09500 20.74700
H  -1.86200 40.82200 21.61300
H  -0.38100 40.18700 22.32100
H  1.16800 44.92600 22.63400
H  0.37400 44.46900 21.19900
H  2.97500 43.19100 20.91600
H  3.19100 44.88000 21.41600
H  2.33600 44.54300 19.94900
H  5.33700 42.38100 24.95500
H  6.02900 43.14500 26.45400
H  5.24100 44.06400 25.16400
H  3.12000 43.61800 30.98500
H  5.74100 41.43900 33.76200
H  5.89000 40.62800 32.35300
H  4.43100 40.21000 33.27800

