158

Mg -1.71100 17.58600 26.54800
C  -2.43700 15.10700 28.98100
C  -2.62900 19.87900 28.89000
C  -1.83700 19.92400 24.09800
C  -2.05500 15.05100 24.15100
N  -2.31300 17.54600 28.67200
C  -2.42400 16.41900 29.51500
C  -2.79100 16.75100 30.96100
C  -2.85500 18.36000 30.82900
C  -2.66600 18.61600 29.40900
C  -4.06000 19.12200 31.45800
C  -1.68200 16.27000 31.90800
C  -1.28400 17.12400 33.15900
H  -0.78100 16.43000 34.43700
N  -2.09500 19.68500 26.53900
C  -2.41000 20.42700 27.62100
C  -2.57600 21.74700 27.30000
C  -2.42600 21.78600 25.85900
C  -2.09900 20.43500 25.42100
C  -2.88400 22.86200 28.33800
C  -2.71000 22.98300 24.84100
O  -2.63400 22.76500 23.60600
C  -3.01800 24.28100 25.39500
N  -1.82100 17.52800 24.41900
C  -1.68900 18.63600 23.62400
C  -1.54800 18.14800 22.14600
C  -1.55600 16.61800 22.21300
C  -1.87200 16.36900 23.68100
C  -2.67000 18.66000 21.21500
C  -0.22000 15.85300 21.98400
C  -0.38400 14.55400 21.12600
N  -1.86100 15.49100 26.55100
C  -2.06600 14.60700 25.48800
C  -2.19000 13.21700 25.96700
C  -2.39500 13.40000 27.34800
C  -2.24900 14.78900 27.64200
C  -2.19700 12.03000 25.11900
C  -2.66400 12.65500 28.51600
O  -2.82800 11.46900 28.67800
C  -2.56400 13.78900 29.70000
C  -1.44000 13.39800 30.61300
O  -0.27200 13.65500 30.54300
O  -1.88000 12.46600 31.53500
C  -1.00100 12.16200 32.66800
H  -2.83700 20.59000 29.69200
H  -1.57500 20.65700 23.33200
H  -2.02400 14.31200 23.34700
H  -3.71400 16.31900 31.34800
H  -1.97500 18.78100 31.31700
H  -4.72900 18.31100 31.74500
H  -4.61400 19.87800 30.90100
H  -3.75500 19.58300 32.39800
H  -0.72400 16.16300 31.40000
H  -2.11600 15.34500 32.28800
H  -2.10300 17.74900 33.51500
H  -0.46500 17.77800 32.86000
H  -3.84200 23.33700 28.12500
H  -2.04400 23.55500 28.38800
H  -2.85300 22.44300 29.34300
H  -3.10800 24.98900 24.57200
H  -2.26000 24.56600 26.12400
H  -3.98000 24.32500 25.90600
H  -0.58700 18.55800 21.83800
H  -2.35500 16.20900 21.59400
H  -3.26000 19.47600 21.63200
H  -3.32900 17.83500 20.94600
H  -2.04700 19.01200 20.39300
H  0.24500 15.57900 22.93100
H  0.52600 16.45400 21.46500
H  -1.41200 14.19600 21.07100
H  0.29000 13.71700 21.30900
H  -0.18400 14.66900 20.06100
H  -3.25600 11.87000 24.91500
H  -1.74700 11.17000 25.61500
H  -1.62000 12.22300 24.21500
H  -3.40700 13.66000 30.37900
H  -0.22000 12.90500 32.83200
H  -0.55900 11.16700 32.63800
H  -1.61100 12.30500 33.56000
Mg -1.92000 35.04300 26.80500
C  -3.73800 33.24900 29.44900
C  -0.22100 36.80000 29.18800
C  -0.81200 37.12900 24.43800
C  -3.93000 33.41100 24.55600
N  -2.04100 35.08100 29.03900
C  -2.74900 34.27800 29.90600
C  -2.34300 34.59500 31.32000
C  -1.42700 35.81500 31.22300
C  -1.21000 35.94500 29.72500
C  -1.91100 37.07500 31.96800
C  -1.60900 33.33700 31.99600
C  -2.36700 32.71900 33.19300
H  -1.53100 32.28000 34.44400
N  -0.58600 36.63100 26.77900
C  0.02000 37.19100 27.85900
C  0.95500 38.21600 27.43200
C  0.82700 38.29500 26.07800
C  -0.26800 37.41700 25.71800
C  1.80300 38.98600 28.43100
C  1.50500 39.18700 25.16000
O  1.33400 39.34300 23.96800
C  2.59400 40.04800 25.78700
N  -2.31500 35.27100 24.78200
C  -1.74200 36.22400 23.98500
C  -2.21300 36.15100 22.55500
C  -3.10700 34.88700 22.51100
C  -3.18700 34.49600 24.05500
C  -2.94400 37.42300 22.07200
C  -2.61400 33.71300 21.66900
C  -1.18200 33.32200 21.96500
N  -3.50100 33.60000 26.88800
C  -4.13100 32.98700 25.90800
C  -4.97200 31.91700 26.45000
C  -4.87100 32.00400 27.85000
C  -3.98800 33.01000 28.08700
C  -5.67700 30.95900 25.55500
C  -5.34300 31.46300 29.16900
O  -6.16100 30.59900 29.42300
C  -4.65000 32.36400 30.29000
C  -5.72200 33.08300 30.95600
O  -6.25900 34.07200 30.58600
O  -6.12200 32.40900 32.07200
C  -7.13600 33.12400 32.84800
H  0.33400 37.30500 29.98200
H  -0.37700 37.65700 23.58600
H  -4.43200 32.71400 23.88300
H  -3.21200 34.87100 31.91700
H  -0.40200 35.56400 31.49500
H  -2.62800 36.78100 32.73400
H  -2.53600 37.63000 31.26800
H  -1.17600 37.77100 32.37300
H  -0.55100 33.39900 32.25100
H  -1.53200 32.63000 31.17000
H  -2.81900 31.79700 32.82800
H  -3.21100 33.32900 33.51300
H  2.86800 38.97200 28.19900
H  1.89800 38.41800 29.35700
H  1.51200 40.02600 28.57600
H  2.20800 40.63700 26.61800
H  3.06100 40.69700 25.04700
H  3.46300 39.52100 26.18300
H  -1.31400 36.08100 21.94300
H  -4.15800 35.04000 22.26500
H  -2.87200 38.12800 22.90000
H  -4.00500 37.25800 21.88100
H  -2.41300 37.79700 21.19700
H  -2.68300 33.97600 20.61400
H  -3.28500 32.88000 21.88000
H  -1.00300 32.29800 22.29200
H  -0.87300 34.00300 22.75800
H  -0.62600 33.55600 21.05700
H  -5.94100 30.02500 26.05200
H  -4.99000 30.81500 24.72100
H  -6.56000 31.48000 25.18500
H  -4.05000 31.70300 30.91600
H  -6.77300 33.89400 33.52900
H  -7.64500 32.35900 33.43600
H  -7.93200 33.49600 32.20500

