158

Mg 49.16600 45.83900 43.61700
C  45.85100 46.68300 42.57500
C  48.50500 42.65400 42.11600
C  52.41000 45.12300 43.58200
C  49.65700 49.00800 44.62600
N  47.37200 44.83200 42.51900
C  46.13400 45.40500 42.15700
C  45.25600 44.45800 41.29900
C  46.08000 43.11200 41.23900
C  47.38000 43.50800 42.04500
C  45.41200 41.76400 41.57600
C  44.94600 45.05500 39.91300
C  43.68200 44.54200 39.14800
H  43.97700 43.19500 38.29300
N  50.29300 44.03500 43.11200
C  49.84200 42.83500 42.54600
C  50.98000 41.87700 42.46100
C  52.12200 42.57900 42.95200
C  51.63500 43.99700 43.22100
C  50.66900 40.50900 41.94700
C  53.60600 41.93500 42.98400
O  53.81000 40.76300 42.61300
C  54.80300 42.80300 43.38400
N  50.86900 46.94500 43.83900
C  52.14300 46.47300 43.88200
C  53.14800 47.50300 44.40700
C  52.23100 48.76500 44.79000
C  50.82900 48.25500 44.42500
C  54.09700 47.01800 45.49500
C  52.66400 50.09200 44.18900
C  52.29600 51.35700 44.95000
N  47.99400 47.51000 43.72800
C  48.28600 48.72900 44.28700
C  47.07600 49.60000 44.24800
C  46.12200 48.78000 43.67700
C  46.72500 47.57400 43.25200
C  47.00800 51.00100 44.82600
C  44.73700 48.67800 43.35900
O  43.91200 49.55100 43.59300
C  44.43500 47.37400 42.55700
C  43.45400 46.52800 43.33900
O  43.61500 46.05700 44.45200
O  42.42500 46.24600 42.49300
C  41.49600 45.21800 42.95000
H  48.20400 41.69900 41.68100
H  53.46200 44.83100 43.58900
H  49.90400 50.00900 44.98600
H  44.25200 44.22000 41.65100
H  46.49300 43.06500 40.23200
H  45.57100 41.08000 40.74300
H  44.38200 41.91300 41.90000
H  45.93300 41.22100 42.36500
H  45.80300 44.88400 39.26200
H  44.84500 46.13100 40.05500
H  43.29600 45.39200 38.58500
H  42.99200 44.21400 39.92500
H  50.09800 40.47900 41.01900
H  50.34100 39.77700 42.68500
H  51.67000 40.14700 41.71200
H  54.67400 43.30100 44.34600
H  54.88400 43.58600 42.63000
H  55.71500 42.20900 43.33900
H  53.70000 47.74200 43.49800
H  52.27400 48.87700 45.87400
H  53.59700 46.76900 46.43200
H  54.87100 47.74100 45.75100
H  54.69700 46.15300 45.21100
H  52.18900 50.27600 43.22500
H  53.72500 50.07300 43.93800
H  51.58700 51.99600 44.42300
H  53.22100 51.92900 45.01800
H  51.85600 51.17600 45.93000
H  46.35600 51.56000 44.15500
H  48.00800 51.42900 44.75900
H  46.51700 50.97700 45.79900
H  43.94700 47.57300 41.60300
H  41.89400 44.29000 43.36000
H  40.84000 44.93300 42.12800
H  40.90000 45.72800 43.70700
Mg 42.01900 41.18400 27.16700
C  41.29200 43.41900 29.56200
C  43.18300 38.99300 29.48400
C  42.55700 38.82900 24.71000
C  41.29700 43.47000 24.74300
N  42.17200 41.22500 29.32500
C  41.75300 42.24800 30.14400
C  42.00000 41.95600 31.63500
C  42.70700 40.49200 31.53800
C  42.67000 40.18800 30.00300
C  44.09400 40.54300 32.15500
C  40.66400 42.02800 32.51000
C  40.69500 42.94300 33.70700
H  39.63300 42.49900 34.82000
N  42.85600 39.24400 27.08200
C  43.26000 38.51600 28.17300
C  43.73100 37.18400 27.75300
C  43.45200 37.10400 26.37100
C  42.85800 38.40300 26.00800
C  44.48600 36.15900 28.61500
C  43.73900 35.96900 25.41600
O  43.39800 35.96400 24.23800
C  44.34300 34.66800 25.92600
N  42.11600 41.20500 25.05400
C  42.32600 40.14000 24.20500
C  42.27900 40.48700 22.78000
C  41.75400 41.90300 22.78400
C  41.73300 42.21900 24.29000
C  43.66700 40.26000 21.90300
C  40.34500 42.19100 22.05800
C  39.01700 42.03400 22.83400
N  41.38000 43.08300 27.11700
C  41.10900 43.87200 26.05400
C  40.62500 45.19000 26.51000
C  40.66700 45.06300 27.95600
C  41.13000 43.77400 28.18400
C  40.44800 46.46200 25.69000
C  40.48900 45.72400 29.24500
O  40.18300 46.88000 29.45700
C  40.96100 44.74700 30.28700
C  42.11800 45.33700 30.96400
O  43.21600 45.46800 30.47200
O  41.71900 45.66500 32.21600
C  42.73000 46.08100 33.13800
H  43.63400 38.28500 30.18200
H  42.75700 38.12800 23.89700
H  41.02700 44.08900 23.88500
H  42.65000 42.75200 32.00000
H  42.10500 39.73000 32.03400
H  44.13500 39.75600 32.90800
H  44.23300 41.52000 32.61900
H  44.79700 40.39600 31.33500
H  40.58000 41.07200 33.02600
H  39.78000 42.36300 31.96800
H  40.40400 43.94300 33.38600
H  41.70800 43.08800 34.08400
H  43.96400 35.20300 28.65300
H  44.65200 36.47500 29.64500
H  45.48100 35.93800 28.22900
H  45.37000 34.83300 26.24900
H  44.18200 33.88300 25.18700
H  43.70500 34.42900 26.77700
H  41.42300 39.91700 22.41800
H  42.54000 42.55900 22.40900
H  43.96600 41.19100 21.42000
H  43.33900 39.49500 21.20000
H  44.45300 39.91600 22.57600
H  40.32000 41.37100 21.34000
H  40.39900 43.16800 21.57700
H  38.41900 42.94200 22.75600
H  39.22400 42.00500 23.90400
H  38.40900 41.18600 22.52000
H  39.40700 46.77500 25.60700
H  40.83100 46.36000 24.67500
H  41.01800 47.24000 26.19700
H  40.21700 44.60800 31.07100
H  42.62600 45.47400 34.03700
H  42.66300 47.13100 33.42200
H  43.74400 45.95500 32.75600

