158

Mg 24.09200 -5.38100 46.40500
C  26.00100 -2.88200 44.64600
C  21.43200 -4.30100 44.61400
C  22.62500 -8.30000 47.18300
C  27.14100 -6.74000 47.42400
N  23.82500 -3.85500 44.68400
C  24.67800 -2.85500 44.31400
C  23.98700 -1.87500 43.36500
C  22.46200 -2.09100 43.76900
C  22.55900 -3.54000 44.34100
C  21.91900 -1.07700 44.76300
C  24.28700 -2.24100 41.84400
C  24.93100 -1.17500 40.96900
H  24.54300 -1.35900 39.44800
N  22.31700 -6.17200 46.11100
C  21.36100 -5.51600 45.38600
C  20.18200 -6.27500 45.54400
C  20.40500 -7.40600 46.33200
C  21.81200 -7.40500 46.57800
C  18.87100 -5.77900 44.83000
C  19.35900 -8.48500 46.77600
O  18.19700 -8.38900 46.38500
C  19.67200 -9.65400 47.62800
N  24.79600 -7.18500 47.33800
C  23.95100 -8.22100 47.56700
C  24.68900 -9.40100 48.28400
C  26.16200 -9.00100 48.25200
C  26.04100 -7.53800 47.62700
C  24.29600 -9.74700 49.73600
C  27.14800 -9.95200 47.55100
C  27.34900 -9.75100 46.00200
N  26.16300 -4.83500 46.22800
C  27.24700 -5.47000 46.81900
C  28.41800 -4.72300 46.54100
C  28.01400 -3.65400 45.62000
C  26.64800 -3.79700 45.50400
C  29.89400 -4.94200 47.02700
C  28.47800 -2.56300 44.75300
O  29.58500 -2.19700 44.44300
C  27.19300 -2.08500 44.10000
C  27.13900 -0.70900 44.46900
O  26.75000 -0.18700 45.50600
O  27.57500 0.04300 43.38400
C  27.85900 1.47000 43.80100
H  20.49000 -3.97700 44.16600
H  22.23800 -9.30200 47.37700
H  28.10800 -7.16100 47.70800
H  24.33200 -0.85700 43.54400
H  21.82500 -2.03900 42.88600
H  20.94600 -0.70900 44.43600
H  22.60100 -0.22900 44.82000
H  21.73000 -1.52200 45.74000
H  23.35500 -2.56500 41.38200
H  25.00500 -3.06000 41.79800
H  26.01600 -1.20400 41.06700
H  24.58100 -0.20400 41.31800
H  18.75500 -4.71500 45.03500
H  17.96700 -6.26100 45.20100
H  19.06400 -5.84400 43.75900
H  18.87200 -10.36300 47.84200
H  20.14500 -9.25300 48.52400
H  20.37700 -10.19600 46.99700
H  24.58900 -10.31900 47.70600
H  26.65800 -8.78000 49.19700
H  23.81500 -10.72500 49.71900
H  23.59400 -8.98700 50.08000
H  25.13200 -9.62100 50.42300
H  26.76100 -10.95800 47.71500
H  28.11600 -9.86300 48.04200
H  27.02200 -10.71100 45.60200
H  28.39500 -9.55500 45.76900
H  26.63900 -9.03400 45.58900
H  30.15400 -3.94500 47.38100
H  30.51700 -5.21500 46.17500
H  29.92100 -5.66200 47.84400
H  27.26700 -2.27500 43.03000
H  26.89900 1.97100 43.92200
H  28.30600 2.07200 43.00900
H  28.51000 1.51500 44.67300
Mg 16.78300 51.67600 26.08600
C  18.62700 50.22100 28.66300
C  14.28100 52.45000 28.40900
C  15.02200 52.94000 23.66300
C  19.45800 50.89300 23.96600
N  16.51600 51.37300 28.27400
C  17.44300 50.85500 29.12700
C  17.07600 51.22000 30.56600
C  15.60200 51.57800 30.41900
C  15.42100 51.84500 28.93000
C  14.70200 50.42600 31.00800
C  17.99400 52.27900 31.15300
C  18.20200 52.33100 32.63100
H  17.07200 51.70800 33.49400
N  14.93100 52.53800 26.01700
C  14.04800 52.76800 27.04900
C  12.84300 53.47200 26.60900
C  13.08300 53.73700 25.21700
C  14.35900 53.05100 24.89100
C  11.81700 54.20700 27.48900
C  12.41800 54.62500 24.19500
O  12.85900 54.84900 23.09000
C  11.09700 55.30300 24.53200
N  17.09200 51.76300 24.06800
C  16.26900 52.43000 23.30000
C  16.80700 52.70700 21.94400
C  18.39000 52.36600 22.21300
C  18.34500 51.62700 23.49400
C  16.09800 51.86700 20.83100
C  19.31500 53.57100 22.31400
C  20.68700 53.53500 21.52000
N  18.62900 50.68600 26.22200
C  19.53600 50.37500 25.27000
C  20.55000 49.50400 25.85900
C  20.23500 49.46200 27.18600
C  19.06400 50.11000 27.33700
C  21.75900 49.06700 25.09600
C  20.68500 49.04000 28.52000
O  21.71500 48.49800 28.89900
C  19.65000 49.56500 29.55700
C  19.10900 48.49400 30.41800
O  18.60000 47.44200 30.00600
O  19.19000 48.83000 31.74900
C  18.63900 47.80600 32.68700
H  13.46400 52.71900 29.08100
H  14.50800 53.23700 22.74700
H  20.33600 50.66700 23.35800
H  17.13000 50.28700 31.12700
H  15.32500 52.50700 30.91700
H  14.25900 49.92100 30.15000
H  13.85900 50.74400 31.62100
H  15.20400 49.67600 31.61900
H  17.70700 53.22000 30.68400
H  19.01000 52.13000 30.78700
H  18.39700 53.35200 32.96000
H  19.05700 51.70700 32.89100
H  10.82400 54.17300 27.04100
H  12.11200 55.25600 27.48000
H  11.72700 53.94800 28.54400
H  11.24500 55.82000 25.48000
H  10.39400 54.49600 24.74000
H  10.72300 56.00200 23.78400
H  16.74900 53.76800 21.70200
H  18.82700 51.66700 21.49900
H  16.74500 51.01700 20.61200
H  15.90700 52.45500 19.93300
H  15.09900 51.60900 21.18100
H  19.64900 53.64500 23.34900
H  18.78900 54.48400 22.03500
H  21.03800 54.52700 21.23400
H  20.59900 53.00600 20.57100
H  21.41900 53.01500 22.13800
H  22.18900 49.65300 24.28300
H  21.51600 48.06300 24.74800
H  22.45800 48.87400 25.90900
H  20.11900 50.21900 30.29300
H  19.46900 47.44400 33.29500
H  18.14300 46.94700 32.23600
H  17.99800 48.21000 33.47000

