158

Mg 23.90200 -4.85200 45.42000
C  26.25500 -2.66000 43.86000
C  21.43900 -3.66300 43.33900
C  22.10100 -7.51300 46.25700
C  26.81400 -6.37600 46.99600
N  23.81400 -3.21500 43.82400
C  24.93800 -2.58100 43.31900
C  24.44800 -1.85200 41.99000
C  22.91400 -1.95200 42.02000
C  22.64900 -2.94400 43.17900
C  22.32800 -0.59500 42.40600
C  25.09900 -2.52800 40.76200
C  25.75200 -1.50600 39.67000
H  25.49700 -1.83900 38.18400
N  21.94100 -5.42900 45.14300
C  21.04800 -4.78100 44.23700
C  19.76000 -5.47300 44.29300
C  19.96600 -6.55100 45.24300
C  21.36000 -6.55600 45.54800
C  18.56000 -5.10300 43.48000
C  18.87400 -7.42400 45.74100
O  17.75700 -7.34800 45.17000
C  19.04700 -8.45600 46.84100
N  24.31300 -6.67400 46.55400
C  23.40800 -7.63700 46.64900
C  23.88000 -8.82800 47.55800
C  25.41200 -8.39700 47.77200
C  25.52700 -7.06300 47.03100
C  23.02200 -8.86000 48.93300
C  26.41800 -9.48800 47.27900
C  27.46000 -10.05000 48.26000
N  26.08000 -4.46000 45.61000
C  27.07200 -5.20100 46.28100
C  28.32600 -4.49300 46.13600
C  28.05600 -3.51200 45.15000
C  26.72800 -3.45400 44.90900
C  29.58600 -4.75900 46.84400
C  28.67300 -2.42200 44.31200
O  29.85800 -2.01500 44.26300
C  27.54400 -1.94600 43.35200
C  27.48600 -0.39900 43.30900
O  27.41200 0.36800 42.36900
O  27.53700 0.07300 44.59900
C  27.24200 1.52400 44.72300
H  20.71500 -3.25600 42.63000
H  21.54000 -8.42500 46.47100
H  27.58900 -6.88000 47.57600
H  24.82200 -0.83600 42.11800
H  22.40400 -2.10100 41.06800
H  21.98200 -0.00600 41.55700
H  23.11800 0.05400 42.78500
H  21.46200 -0.61900 43.06700
H  24.38500 -3.20800 40.29800
H  25.95000 -3.10500 41.12500
H  26.78200 -1.54400 40.02600
H  25.40100 -0.50100 39.90500
H  18.72200 -4.19300 42.90300
H  17.76800 -4.84800 44.18400
H  18.19700 -5.83700 42.76000
H  19.72800 -9.22300 46.47400
H  18.03800 -8.81700 47.04300
H  19.43600 -7.93900 47.71900
H  23.75700 -9.78100 47.04300
H  25.47600 -8.13100 48.82700
H  22.09600 -8.28800 48.90200
H  23.63500 -8.51700 49.76700
H  22.81300 -9.89600 49.20100
H  26.94700 -9.10100 46.40800
H  25.77000 -10.29000 46.92500
H  28.44800 -9.67300 47.99300
H  27.37800 -11.13700 48.24600
H  27.36600 -9.62100 49.25800
H  30.35700 -4.01700 46.63600
H  29.83800 -5.72900 46.41700
H  29.32500 -4.93800 47.88700
H  27.88000 -2.42900 42.43400
H  27.09000 1.81600 45.76200
H  26.30000 1.77200 44.23400
H  28.04100 2.20400 44.42700
Mg 0.79100 42.79400 26.79000
C  2.90600 42.69400 29.61600
C  -1.83200 42.12900 29.09700
C  -1.24700 42.45100 24.21100
C  3.47900 43.37400 24.84000
N  0.62200 42.50700 29.07100
C  1.60800 42.66500 30.05300
C  1.09500 42.60900 31.48100
C  -0.39200 42.22600 31.22300
C  -0.55400 42.27200 29.64600
C  -0.95500 40.90300 31.82300
C  1.41200 43.88900 32.20300
C  1.36400 43.77200 33.74400
H  1.03800 42.49600 34.53000
N  -1.23400 42.19000 26.62000
C  -2.14800 42.13700 27.66800
C  -3.45100 41.86400 27.13700
C  -3.33400 41.90900 25.66100
C  -1.91800 42.18600 25.43500
C  -4.75300 41.72400 27.96000
C  -4.37800 41.64600 24.56100
O  -4.10000 41.44400 23.34400
C  -5.89600 41.39800 24.94600
N  1.07500 42.82900 24.76600
C  0.03700 42.79800 23.85800
C  0.58200 42.88200 22.38200
C  2.14100 43.21300 22.61800
C  2.25300 43.12500 24.14000
C  0.26100 41.61300 21.53900
C  2.70600 44.51200 21.94700
C  2.37800 45.91200 22.64900
N  2.74800 43.05000 27.10400
C  3.74500 43.25900 26.21900
C  5.05000 43.30200 26.87400
C  4.77100 42.97900 28.19000
C  3.36700 42.83600 28.27100
C  6.32500 43.67600 26.23200
C  5.39800 42.82300 29.49100
O  6.58200 42.87200 29.80100
C  4.15900 42.67600 30.52800
C  4.24300 41.46600 31.40600
O  4.12600 40.32000 31.01200
O  4.57400 41.83900 32.68400
C  4.79700 40.68500 33.52700
H  -2.65300 42.05500 29.81400
H  -1.96400 42.62900 23.40600
H  4.33800 43.67200 24.23600
H  1.44300 41.70600 31.98300
H  -0.96000 43.09100 31.56700
H  -1.30100 40.29700 30.98600
H  -1.82700 41.20700 32.40300
H  -0.22600 40.33500 32.40100
H  0.58700 44.56200 31.97200
H  2.36400 44.29000 31.85600
H  0.91600 44.67000 34.17000
H  2.39600 44.07100 33.93200
H  -5.43400 40.97100 27.56300
H  -5.14400 42.73900 28.04000
H  -4.46700 41.40700 28.96300
H  -5.96900 40.39400 25.36500
H  -6.42300 41.41700 23.99300
H  -6.42500 42.17000 25.50500
H  0.11500 43.70800 21.84600
H  2.60000 42.34600 22.14200
H  -0.14400 40.79700 22.13700
H  1.22700 41.37300 21.09300
H  -0.61300 41.79500 20.91500
H  2.32200 44.56800 20.92800
H  3.75500 44.21600 21.97200
H  3.37300 46.24700 22.94100
H  1.81300 45.73600 23.56400
H  1.81800 46.58200 21.99600
H  6.24400 44.55900 25.59900
H  6.73800 42.84300 25.66400
H  6.89900 43.95300 27.11700
H  4.08800 43.50700 31.23000
H  5.81200 40.32300 33.36300
H  4.07500 39.87200 33.44700
H  4.89200 41.02800 34.55800

