158

Mg 35.85300 1.62600 30.52000
C  33.58900 2.71500 33.15000
C  38.28200 1.57000 32.88500
C  38.01600 1.20400 28.08100
C  33.16600 2.04600 28.27300
N  35.91800 2.18900 32.82900
C  34.86300 2.42700 33.65400
C  35.27800 2.48300 35.17300
C  36.87300 2.50500 34.93000
C  37.10600 2.03700 33.51400
C  37.58500 3.86200 35.20100
C  34.64400 1.29900 35.96000
C  33.80100 1.51600 37.22500
H  34.11100 2.76800 38.01500
N  37.85400 1.47300 30.46600
C  38.62100 1.29400 31.62000
C  39.96700 0.80200 31.23800
C  39.92400 0.77500 29.77400
C  38.61300 1.25500 29.34800
C  41.10300 0.53300 32.16500
C  41.05000 0.41800 28.75700
O  40.90800 0.59500 27.57100
C  42.27600 -0.05500 29.35100
N  35.52500 1.67300 28.44300
C  36.66200 1.45100 27.67200
C  36.24700 1.44700 26.12300
C  34.68000 1.37700 26.27900
C  34.38800 1.68600 27.71300
C  36.75700 2.61700 25.29300
C  34.12700 -0.05600 25.91800
C  32.90900 0.01900 24.95200
N  33.76000 2.26800 30.61800
C  32.80600 2.24100 29.64400
C  31.52500 2.62600 30.15900
C  31.74500 2.74500 31.55400
C  33.19200 2.57500 31.77400
C  30.25500 2.60700 29.42600
C  31.16000 2.99800 32.82800
O  29.97500 3.12300 33.13300
C  32.29400 3.10500 33.84900
C  32.21000 4.53100 34.27700
O  32.71200 5.49500 33.64200
O  31.46700 4.68800 35.42500
C  31.46200 6.05000 36.05600
H  39.11500 1.56200 33.59100
H  38.66900 0.94200 27.24600
H  32.23200 2.03100 27.70700
H  34.96900 3.43300 35.60800
H  37.28400 1.74400 35.59300
H  36.93900 4.54200 35.75600
H  37.79100 4.20500 34.18700
H  38.48600 3.69900 35.79200
H  35.44800 0.64500 36.29900
H  34.05900 0.76200 35.21300
H  33.95800 0.63800 37.85200
H  32.75200 1.40300 36.94900
H  42.00500 1.06600 31.86100
H  41.33900 -0.53100 32.17600
H  40.81900 0.91300 33.14600
H  42.83400 0.78300 29.76900
H  42.82300 -0.49900 28.51900
H  42.25700 -0.85300 30.09400
H  36.67500 0.53800 25.70100
H  34.21800 2.20900 25.74600
H  37.09800 2.30700 24.30500
H  37.62500 2.99000 25.83700
H  35.99800 3.39800 25.25800
H  33.83000 -0.53100 26.85300
H  34.92500 -0.67700 25.51100
H  33.23100 -0.51800 24.06000
H  32.52400 1.00600 24.69400
H  32.11500 -0.58200 25.39600
H  29.43400 2.24900 30.04800
H  30.33500 1.81700 28.68000
H  29.99600 3.54400 28.93200
H  32.03000 2.57600 34.76400
H  31.70700 6.06300 37.11800
H  30.43400 6.38300 35.91300
H  32.11700 6.84700 35.70300
Mg 36.19100 49.49100 25.60600
C  36.42600 47.53100 28.73100
C  35.05200 52.03700 27.42800
C  35.70700 50.99600 22.74800
C  36.85300 46.43900 23.94700
N  35.78500 49.66100 27.85300
C  36.04900 48.83600 28.93100
C  35.94900 49.58500 30.28400
C  35.33500 50.89300 29.78800
C  35.34300 50.92100 28.25200
C  33.86900 51.22700 30.22700
C  37.42100 49.76800 31.05500
C  37.56400 49.71900 32.59900
H  36.44500 49.95300 33.59100
N  35.47900 51.28100 25.09100
C  35.05800 52.22700 26.03300
C  34.78200 53.46300 25.32400
C  35.20500 53.26700 23.95900
C  35.50300 51.81800 23.87300
C  34.15800 54.58400 26.00000
C  35.26900 54.19400 22.69800
O  35.55600 53.71200 21.60400
C  35.04200 55.73200 22.81700
N  36.37500 48.79400 23.62600
C  35.97300 49.64000 22.58900
C  36.19600 48.91500 21.15200
C  36.80400 47.54100 21.61400
C  36.73500 47.59700 23.19800
C  34.87400 48.97800 20.25800
C  38.24200 47.20700 21.08100
C  38.34500 45.88100 20.24000
N  36.59200 47.40100 26.13100
C  36.81600 46.32500 25.38300
C  37.06800 45.12100 26.08000
C  36.97900 45.56300 27.45500
C  36.63200 46.94300 27.42600
C  37.47300 43.80400 25.60700
C  37.07100 45.20100 28.86700
O  37.38200 44.09000 29.40200
C  36.77900 46.44700 29.69700
C  35.75600 46.10100 30.70200
O  34.56000 46.08300 30.50900
O  36.36100 46.01800 31.91200
C  35.43300 46.05500 33.06600
H  34.93700 52.98100 27.96500
H  35.69200 51.42000 21.74200
H  37.05200 45.47500 23.47500
H  35.29100 49.06500 30.98100
H  35.88000 51.76500 30.15000
H  33.21600 51.48200 29.39200
H  33.94700 52.09800 30.87700
H  33.43100 50.41700 30.81100
H  37.87300 50.63200 30.56700
H  38.07900 49.03500 30.58900
H  38.42400 50.36900 32.76000
H  37.95100 48.73300 32.85800
H  33.67200 55.26400 25.30100
H  35.01000 55.05700 26.48700
H  33.49100 54.23800 26.79100
H  35.45700 55.99500 23.79000
H  33.96400 55.89100 22.85100
H  35.52900 56.19600 21.96000
H  36.99300 49.52000 20.72000
H  36.21300 46.75200 21.15000
H  34.44300 48.04300 19.89800
H  34.96500 49.53700 19.32700
H  34.16200 49.60900 20.79000
H  38.91500 47.16100 21.93700
H  38.55500 48.07700 20.50400
H  38.89000 46.13100 19.33000
H  37.39900 45.41300 19.96900
H  38.86700 45.18700 20.89900
H  36.60200 43.36500 25.12100
H  37.79600 43.24900 26.48800
H  38.27100 43.77300 24.86500
H  37.67600 46.75000 30.23800
H  35.05500 45.03500 33.12200
H  34.60700 46.74100 32.87800
H  35.88400 46.25100 34.03900

