158

Mg 17.27600 -0.88000 27.89000
C  16.35100 0.83300 30.68200
C  19.44600 -2.89000 29.81900
C  18.66500 -2.16200 25.11400
C  15.52800 1.41300 25.87200
N  17.84100 -1.03400 29.97400
C  17.24700 -0.18700 30.93800
C  17.64400 -0.62600 32.32600
C  18.98200 -1.52900 31.98900
C  18.82500 -1.86400 30.50200
C  20.33900 -1.03400 32.45600
C  16.54600 -1.49300 33.08500
C  16.42000 -1.19100 34.64500
H  17.56200 -0.42900 35.35900
N  18.72800 -2.49000 27.51800
C  19.38900 -3.20300 28.44200
C  20.10100 -4.22300 27.78400
C  19.92500 -4.05200 26.38000
C  19.12700 -2.87500 26.24100
C  20.84200 -5.24000 28.52500
C  20.52000 -4.80700 25.14700
O  20.25500 -4.63900 24.01000
C  21.41600 -6.10700 25.38400
N  17.27100 -0.32200 25.81900
C  17.79900 -1.09300 24.92900
C  17.37500 -0.69000 23.45300
C  16.20500 0.32900 23.67600
C  16.28000 0.46100 25.22200
C  18.70100 -0.10400 22.72500
C  14.72000 -0.22400 23.29000
C  13.92400 0.52500 22.20300
N  16.18300 0.74100 28.10500
C  15.44200 1.53800 27.26900
C  14.59200 2.38000 28.04100
C  14.90600 2.10800 29.39000
C  15.88700 1.13900 29.40100
C  13.76600 3.53100 27.55100
C  14.56600 2.43900 30.75300
O  13.66600 3.16300 31.24300
C  15.43900 1.57400 31.67700
C  16.21800 2.55300 32.59600
O  17.32200 2.96100 32.41200
O  15.42300 2.68900 33.72700
C  15.92400 3.62000 34.76900
H  20.07100 -3.55500 30.41700
H  18.99800 -2.62500 24.18200
H  14.92400 2.14000 25.32700
H  18.07000 0.23200 32.84500
H  18.88400 -2.51600 32.44200
H  21.06900 -1.29200 31.68800
H  20.65600 -1.58800 33.34000
H  20.32300 0.02400 32.71700
H  16.65800 -2.57300 32.98700
H  15.58200 -1.20800 32.66500
H  16.30900 -2.11300 35.21600
H  15.53800 -0.56400 34.77200
H  21.85700 -4.86600 28.66100
H  20.89800 -6.21400 28.04000
H  20.37700 -5.44400 29.49000
H  21.71100 -6.76900 24.56900
H  20.91000 -6.79200 26.06500
H  22.41200 -5.80900 25.71100
H  17.11000 -1.59900 22.91300
H  16.33500 1.27700 23.15200
H  18.55600 0.90100 22.32800
H  19.05000 -0.71100 21.89000
H  19.55600 -0.01800 23.39600
H  14.12200 -0.27000 24.20000
H  14.90200 -1.21200 22.86800
H  13.29300 -0.14000 21.61400
H  14.61400 0.93900 21.46700
H  13.33200 1.33100 22.63800
H  13.51600 4.34400 28.23300
H  12.86100 3.22000 27.02900
H  14.35900 3.96800 26.74700
H  14.93600 0.80300 32.26000
H  16.31800 4.51500 34.28800
H  16.74100 3.20700 35.36100
H  15.13800 3.91200 35.46500
Mg -5.38100 25.85600 26.43100
C  -3.89900 27.03100 29.40600
C  -7.34000 23.83700 28.26100
C  -6.21200 24.35300 23.55600
C  -3.08800 27.77700 24.63800
N  -5.52700 25.41700 28.62100
C  -4.90100 26.09000 29.61200
C  -5.52100 25.67700 30.90800
C  -6.46800 24.55000 30.56300
C  -6.49300 24.60500 29.08400
C  -6.03100 23.11100 31.04200
C  -6.13100 26.87600 31.70800
C  -5.84200 26.98600 33.25200
H  -5.29100 25.65400 33.92800
N  -6.64900 24.37100 25.92500
C  -7.48500 23.77500 26.84100
C  -8.39300 22.91000 26.16400
C  -8.13000 23.02300 24.78700
C  -6.91300 23.95000 24.67200
C  -9.24800 21.97800 26.89300
C  -8.77300 22.39400 23.62700
O  -8.46000 22.58500 22.45700
C  -9.94600 21.44400 23.82400
N  -4.74300 26.06400 24.47400
C  -5.21700 25.33200 23.39300
C  -4.39400 25.42500 22.13800
C  -3.69500 26.82900 22.44900
C  -3.81400 26.94400 23.98300
C  -3.36700 24.33800 21.90600
C  -4.32100 28.08700 21.74000
C  -3.81100 28.46000 20.33400
N  -3.89900 27.25700 26.88100
C  -2.99400 27.95800 26.05900
C  -2.16800 28.89100 26.87100
C  -2.54000 28.51400 28.15600
C  -3.49400 27.53500 28.17100
C  -1.23100 29.91900 26.40700
C  -2.20100 28.70000 29.56700
O  -1.35300 29.49500 30.01600
C  -3.11500 27.88800 30.43100
C  -2.25900 27.14900 31.36100
O  -1.63600 26.15500 31.01000
O  -2.28200 27.77900 32.58300
C  -1.64400 27.01700 33.63800
H  -8.04000 23.20300 28.81100
H  -6.43600 23.84400 22.61600
H  -2.43400 28.48500 24.12500
H  -4.60600 25.41300 31.43800
H  -7.42500 24.60800 31.08100
H  -5.32600 23.08900 31.87400
H  -5.40000 22.74500 30.23200
H  -6.97200 22.58600 31.20600
H  -7.21700 26.83500 31.62500
H  -5.78600 27.77800 31.20300
H  -6.81000 27.11100 33.73800
H  -5.17800 27.80600 33.52400
H  -10.13200 21.61200 26.37200
H  -9.76000 22.51400 27.69200
H  -8.76600 21.13000 27.38000
H  -9.53700 20.57900 24.34500
H  -10.35700 20.95800 22.93900
H  -10.72900 21.97600 24.36500
H  -4.93700 25.62800 21.21500
H  -2.64800 26.68500 22.18100
H  -3.81000 23.43500 21.48500
H  -2.87800 24.08000 22.84500
H  -2.57300 24.55300 21.19100
H  -4.36700 28.92500 22.43500
H  -5.38800 27.89200 21.63000
H  -3.78500 27.65000 19.60400
H  -2.76200 28.69900 20.51000
H  -4.21100 29.34000 19.83100
H  -1.56200 30.86500 25.97700
H  -0.58400 29.41300 25.69100
H  -0.66900 30.16500 27.30800
H  -3.68900 28.66100 30.94200
H  -2.02800 27.47500 34.55000
H  -0.57300 27.08700 33.44800
H  -1.89400 25.95700 33.67400

