158

Mg 1.56400 -0.69600 43.79500
C  4.96800 -0.57600 42.95200
C  1.12400 2.02800 41.78100
C  -1.72000 -1.58000 43.65800
C  2.19700 -3.83400 45.32700
N  2.91700 0.56400 42.46700
C  4.24000 0.39700 42.29400
C  4.80000 1.50500 41.39000
C  3.53500 2.36600 41.10900
C  2.46500 1.62200 41.79800
C  3.54000 3.89500 41.35800
C  5.45000 0.87300 40.14800
C  6.80700 1.54000 39.77900
H  6.86100 2.20400 38.43400
N  -0.13500 0.23700 43.05000
C  -0.10000 1.35400 42.23200
C  -1.41400 1.62600 41.86400
C  -2.25400 0.65000 42.44100
C  -1.38400 -0.32200 43.05100
C  -1.73200 2.89900 41.14200
C  -3.81900 0.73000 42.39200
O  -4.43900 1.72600 41.98800
C  -4.68200 -0.29900 42.86900
N  0.42700 -2.45400 44.47000
C  -0.90000 -2.58200 44.22700
C  -1.44700 -3.98000 44.54600
C  -0.13900 -4.72400 45.06900
C  0.89300 -3.59500 44.91500
C  -2.54900 -3.83600 45.57400
C  0.30500 -6.01400 44.28300
C  0.65700 -7.32900 45.11600
N  3.23300 -1.91600 44.24700
C  3.30900 -3.10900 44.93600
C  4.74300 -3.41800 45.12300
C  5.42000 -2.44300 44.38300
C  4.43600 -1.58000 43.80400
C  5.32000 -4.69800 45.79800
C  6.73600 -2.06500 43.89600
O  7.81100 -2.62600 44.01400
C  6.50200 -0.82200 42.98400
C  7.23200 0.17000 43.65500
O  6.89300 0.65700 44.71800
O  8.28600 0.50400 42.83600
C  8.89100 1.81300 43.18900
H  0.92700 2.99600 41.31800
H  -2.71900 -1.99000 43.49500
H  2.34100 -4.76100 45.88600
H  5.45200 2.05100 42.07100
H  3.22900 2.45600 40.06600
H  4.47300 4.45300 41.43800
H  3.14100 4.08600 42.35500
H  2.96800 4.41400 40.58800
H  4.82900 1.00700 39.26200
H  5.64000 -0.18700 40.31700
H  7.54700 0.74100 39.74900
H  7.05200 2.35000 40.46600
H  -1.74800 2.55700 40.10700
H  -0.98600 3.68100 41.28400
H  -2.65900 3.39000 41.43700
H  -5.74100 -0.13000 42.67500
H  -4.49700 -0.40500 43.93800
H  -4.41100 -1.23500 42.38100
H  -1.82100 -4.38300 43.60500
H  -0.31200 -4.89200 46.13200
H  -2.40300 -4.55500 46.38100
H  -3.44700 -4.14600 45.03900
H  -2.62100 -2.78800 45.86300
H  1.18500 -5.90300 43.64900
H  -0.48200 -6.25500 43.56800
H  0.78600 -7.04400 46.16100
H  1.50800 -7.82700 44.65100
H  -0.19700 -7.98200 44.94100
H  5.75100 -4.44700 46.76700
H  6.11600 -5.13200 45.19300
H  4.50200 -5.38600 46.01000
H  6.98200 -1.12600 42.05400
H  8.21000 2.54800 43.61800
H  9.16900 2.18100 42.20200
H  9.85300 1.75900 43.69800
Mg 25.72300 0.09300 29.29900
C  27.47600 -0.20300 32.33700
C  22.91600 0.46300 31.02000
C  24.21800 0.35300 26.38000
C  28.65700 -0.85600 27.67000
N  25.35500 0.26900 31.44800
C  26.17400 0.15500 32.53800
C  25.44200 0.49200 33.81900
C  23.90200 0.63200 33.38300
C  24.06000 0.41100 31.87000
C  22.84800 -0.31600 34.15600
C  25.94800 1.82600 34.43300
C  27.03600 1.79300 35.52500
H  26.88800 2.53100 36.73400
N  23.81200 0.36500 28.79300
C  22.81900 0.69200 29.62700
C  21.59700 0.91200 28.87300
C  21.95600 0.81000 27.52100
C  23.41700 0.59100 27.51900
C  20.24400 0.87100 29.54900
C  20.99500 0.85700 26.28200
O  21.32300 0.79100 25.11000
C  19.51400 1.08800 26.43900
N  26.31700 -0.30100 27.37100
C  25.55200 0.02700 26.29400
C  26.20900 -0.24600 24.94900
C  27.66500 -0.58300 25.40800
C  27.54100 -0.65700 26.89200
C  25.59300 -1.40900 24.02400
C  28.75600 0.36700 24.81300
C  28.88600 1.68200 25.58900
N  27.73700 -0.50900 29.82700
C  28.80100 -0.77700 29.10800
C  29.98500 -1.02600 29.87100
C  29.55100 -0.86100 31.20600
C  28.16600 -0.51600 31.11800
C  31.38300 -1.34500 29.39800
C  29.85800 -0.96100 32.59800
O  30.89200 -1.33300 33.11600
C  28.58100 -0.48400 33.33800
C  28.22000 -1.52300 34.33700
O  27.36800 -2.44400 34.16500
O  28.88900 -1.35300 35.51600
C  28.51900 -2.40800 36.52600
H  21.92700 0.50000 31.48200
H  23.76000 0.37700 25.38900
H  29.49600 -1.11400 27.02000
H  25.48000 -0.35200 34.50800
H  23.54300 1.65900 33.44300
H  22.01500 0.34200 34.40500
H  23.13800 -0.63500 35.15700
H  22.44600 -1.11700 33.53500
H  25.14200 2.39500 34.89700
H  26.19500 2.49200 33.60600
H  27.96300 2.05600 35.01500
H  27.30200 0.75000 35.69600
H  20.30100 1.55600 30.39500
H  20.14100 -0.10600 30.02200
H  19.31400 1.12900 29.04300
H  18.92300 1.02800 25.52500
H  19.38700 2.15000 26.65100
H  19.14000 0.46100 27.24800
H  26.13800 0.66100 24.34800
H  28.02200 -1.58400 25.16400
H  26.13800 -2.30700 24.31500
H  25.66500 -1.22600 22.95200
H  24.55500 -1.41900 24.35800
H  28.52500 0.57700 23.76900
H  29.70400 -0.17100 24.81100
H  28.41300 1.64100 26.57000
H  28.47100 2.50000 25.00000
H  29.93200 1.97000 25.69700
H  31.55100 -0.82000 28.45800
H  31.41000 -2.42200 29.23700
H  32.03400 -0.93000 30.16700
H  28.83400 0.38400 33.94700
H  29.15100 -2.17300 37.38300
H  28.86200 -3.40000 36.23200
H  27.48900 -2.45200 36.88000

