158

Mg 36.18000 49.55500 25.52900
C  35.87900 47.47700 28.33200
C  35.39800 52.20600 27.68300
C  35.98800 51.53500 22.89600
C  36.82000 46.74100 23.53000
N  35.36300 49.79600 27.73300
C  35.51300 48.82900 28.67700
C  35.38700 49.35700 30.11700
C  34.98000 50.81900 29.84800
C  35.32700 50.98300 28.31800
C  33.53400 51.29700 30.06400
C  36.66900 49.20100 31.02500
C  36.32700 48.89900 32.50400
H  34.95400 49.31400 33.15200
N  35.83700 51.56300 25.31400
C  35.64400 52.53400 26.31300
C  35.61400 53.86200 25.70000
C  35.57000 53.58500 24.33200
C  35.79000 52.21000 24.10200
C  35.54400 55.19400 26.44300
C  35.36000 54.57700 23.19200
O  35.22100 54.24800 22.00300
C  35.51600 56.01600 23.44300
N  36.20800 49.13000 23.51500
C  36.23100 50.13600 22.64900
C  36.23500 49.58800 21.22500
C  36.78200 48.12700 21.39800
C  36.71700 47.99300 22.94200
C  34.92000 49.55300 20.46900
C  38.23000 47.87200 20.90700
C  39.43900 48.44900 21.84900
N  36.28000 47.52000 25.78200
C  36.61100 46.50100 24.92700
C  36.72600 45.22600 25.70700
C  36.45900 45.62400 27.00400
C  36.19100 46.98100 27.06000
C  37.10300 43.85600 25.23900
C  36.34800 45.05700 28.27800
O  36.49500 43.89500 28.67400
C  35.99600 46.23100 29.24800
C  34.75400 46.05900 30.04800
O  33.62900 46.50500 29.83500
O  35.12400 45.31800 31.15900
C  34.01600 45.14800 32.11300
H  35.27000 53.05500 28.35800
H  35.94400 51.94800 21.88700
H  36.90900 45.79700 22.98800
H  34.58200 48.81700 30.61400
H  35.66900 51.50700 30.33900
H  32.88000 50.56300 30.53400
H  33.10200 51.68700 29.14200
H  33.67100 52.19600 30.66500
H  37.23600 50.13100 31.07000
H  37.26700 48.40800 30.57600
H  37.15900 49.31500 33.07200
H  36.45900 47.81800 32.55200
H  36.20200 55.97300 26.05700
H  35.86400 55.02300 27.47100
H  34.52300 55.57700 26.41300
H  36.52800 56.22200 23.79100
H  34.79600 56.32400 24.20100
H  35.33600 56.46900 22.46800
H  36.82600 50.30500 20.65500
H  36.06700 47.33800 21.16500
H  34.51800 48.55300 20.30900
H  34.98000 49.96100 19.46000
H  34.26900 50.27200 20.96700
H  38.34400 48.23100 19.88400
H  38.31200 46.80400 21.11200
H  39.90000 47.65800 22.44100
H  39.14600 49.24400 22.53500
H  40.28800 48.82100 21.27700
H  36.89700 43.77000 24.17200
H  36.49900 43.09800 25.73900
H  38.15100 43.76200 25.52300
H  36.71100 46.51100 30.02200
H  33.13900 44.78500 31.57600
H  33.92100 46.08400 32.66500
H  34.29800 44.31000 32.75000
Mg -1.82200 33.84300 27.22400
C  -3.45600 31.91300 29.66500
C  -0.77900 35.97100 29.92200
C  -0.62600 35.97400 25.01300
C  -3.20000 31.92700 24.71500
N  -2.11500 33.92700 29.60900
C  -2.75800 32.97300 30.33700
C  -2.58900 33.28400 31.81200
C  -1.82300 34.67100 31.85900
C  -1.52500 34.89100 30.36900
C  -2.48600 35.91900 32.56100
C  -1.90800 32.18100 32.59400
C  -2.58300 31.68600 33.90300
H  -1.81700 31.96300 35.22600
N  -0.77200 35.58400 27.41100
C  -0.29400 36.20600 28.57300
C  0.65500 37.21600 28.17700
C  0.68300 37.22600 26.68500
C  -0.28900 36.23500 26.32800
C  1.50400 38.06900 29.15800
C  1.35800 38.15600 25.78200
O  1.05800 38.29400 24.58100
C  2.23100 39.20700 26.36900
N  -1.99300 34.10200 25.20000
C  -1.33400 34.96600 24.44600
C  -1.46600 34.71000 22.92500
C  -1.86200 33.22000 22.91700
C  -2.50200 33.10000 24.33700
C  -2.51600 35.65500 22.32400
C  -0.76400 32.13400 22.62400
C  -1.21100 30.71700 22.25600
N  -3.22300 32.37300 27.10700
C  -3.59700 31.65500 26.01400
C  -4.35600 30.50500 26.45300
C  -4.41700 30.60000 27.87700
C  -3.65200 31.75700 28.23800
C  -4.90800 29.42000 25.51400
C  -4.90800 29.91900 29.00400
O  -5.52500 28.89900 29.13300
C  -4.31800 30.78900 30.27200
C  -5.34100 31.29600 31.19600
O  -6.14600 32.19700 30.93400
O  -5.18000 30.64800 32.37100
C  -6.27800 30.76500 33.32100
H  -0.31300 36.59800 30.68500
H  -0.17000 36.56900 24.21900
H  -3.49300 31.20500 23.94900
H  -3.59200 33.36000 32.23200
H  -0.81400 34.66800 32.27100
H  -2.98900 36.50800 31.79400
H  -1.73000 36.56700 33.00500
H  -3.22800 35.59800 33.29300
H  -0.90800 32.48900 32.90100
H  -1.72000 31.31900 31.95400
H  -2.73100 30.61200 33.78900
H  -3.54900 32.18900 33.95400
H  2.56200 37.98700 28.90900
H  1.28200 37.83900 30.20000
H  1.24900 39.12400 29.05800
H  3.07900 38.65400 26.77100
H  1.75400 39.80300 27.14700
H  2.50800 39.82600 25.51600
H  -0.53500 34.81100 22.36700
H  -2.74400 33.13300 22.28200
H  -3.33100 35.18700 21.77300
H  -2.01900 36.31000 21.60800
H  -2.83000 36.38600 23.07000
H  -0.26200 32.01400 23.58400
H  0.02600 32.47100 21.95400
H  -0.99100 30.15800 23.16500
H  -0.70100 30.26500 21.40500
H  -2.29100 30.65100 22.12400
H  -4.15000 29.21800 24.75700
H  -5.83700 29.73600 25.03800
H  -5.14700 28.60800 26.20000
H  -3.74100 30.09600 30.88500
H  -7.02700 31.50900 33.04900
H  -5.86700 31.14600 34.25600
H  -6.77800 29.81300 33.49700

