158

Mg 47.80200 25.18800 28.33400
C  48.56200 27.39200 30.89300
C  46.59200 22.88400 30.88500
C  47.21300 22.91500 26.05700
C  49.34000 27.22900 25.97700
N  47.48400 25.16900 30.62400
C  47.82100 26.26500 31.38700
C  47.25200 26.11600 32.84700
C  46.78600 24.57600 32.90100
C  46.96900 24.12700 31.41800
C  47.51900 23.65100 33.93800
C  46.07600 27.08200 33.13500
C  46.20800 27.96100 34.41200
H  45.01300 27.80500 35.34400
N  46.77200 23.34100 28.41500
C  46.50300 22.52900 29.55400
C  46.10800 21.26900 29.02200
C  46.15500 21.27000 27.58500
C  46.73900 22.57100 27.30500
C  45.84100 20.09200 29.94000
C  45.71400 20.19000 26.56000
O  45.83200 20.31700 25.33000
C  45.03100 18.97500 27.07300
N  48.24100 25.06400 26.30300
C  47.88300 24.01500 25.55200
C  47.99000 24.29800 24.07300
C  48.70700 25.67900 24.04600
C  48.82500 25.99200 25.56900
C  48.78900 23.29300 23.22300
C  48.00200 26.70400 23.26200
C  48.78000 27.43000 22.16100
N  48.79900 26.96900 28.43600
C  49.38900 27.69800 27.37100
C  49.85500 28.91000 27.95900
C  49.50500 28.87200 29.31500
C  48.90500 27.65800 29.55900
C  50.45100 30.08500 27.18400
C  49.49300 29.58400 30.54800
O  49.90100 30.71700 30.79100
C  48.80200 28.70500 31.56000
C  49.58900 28.72000 32.86400
O  50.72600 28.29400 33.01900
O  48.88400 29.34000 33.82400
C  49.59500 29.74300 35.03400
H  46.17300 22.27100 31.68500
H  47.10300 22.26900 25.18300
H  49.84500 27.73400 25.15100
H  48.10000 26.30300 33.50600
H  45.73200 24.47600 33.16200
H  48.04900 24.30500 34.63100
H  48.34100 23.09300 33.48900
H  46.80200 23.04200 34.49000
H  45.13400 26.53500 33.17900
H  46.02800 27.87000 32.38400
H  46.13900 29.02800 34.20200
H  47.05800 27.69500 35.04100
H  46.43100 19.23300 29.61900
H  44.84300 19.67600 29.80000
H  46.12500 20.28300 30.97500
H  44.06500 19.23100 27.50800
H  45.60100 18.33900 27.74900
H  44.83100 18.27200 26.26400
H  46.98700 24.28000 23.64700
H  49.69900 25.47900 23.64200
H  48.04600 22.81600 22.58400
H  49.16100 22.50800 23.88100
H  49.66200 23.64300 22.67200
H  47.75100 27.52600 23.93300
H  47.09300 26.28100 22.83400
H  48.37900 28.44000 22.06900
H  48.45000 26.97000 21.23000
H  49.84500 27.34700 22.37700
H  49.78800 30.47800 26.41400
H  51.33200 29.70500 26.66700
H  50.70700 30.87100 27.89400
H  47.79900 29.09400 31.73200
H  49.67900 28.90300 35.72400
H  48.99700 30.48800 35.55800
H  50.58700 30.10200 34.76000
Mg 42.70200 41.30800 26.19000
C  41.61700 43.74300 28.58600
C  43.69500 39.35600 28.72400
C  43.89500 39.17400 23.82800
C  42.38300 43.88700 23.83300
N  42.82100 41.59900 28.47000
C  42.18700 42.61800 29.22800
C  42.09200 42.22400 30.73200
C  42.79200 40.82800 30.74300
C  43.19900 40.57300 29.21500
C  43.92600 40.43500 31.68000
C  40.69900 42.15800 31.26600
C  40.35200 43.10400 32.42900
H  39.82100 42.41900 33.69600
N  43.61100 39.48700 26.25600
C  43.86100 38.84200 27.36700
C  44.40600 37.54500 27.02400
C  44.46200 37.43200 25.62700
C  44.00200 38.76600 25.15200
C  44.84300 36.50100 28.03300
C  45.01900 36.35300 24.71800
O  45.05400 36.42600 23.47600
C  45.37300 35.00400 25.31400
N  43.21700 41.53100 24.16400
C  43.56800 40.43500 23.38800
C  43.58100 40.79000 21.87900
C  42.85000 42.18400 21.90500
C  42.76400 42.58700 23.39100
C  45.00600 40.87000 21.30500
C  41.42300 42.15200 21.15200
C  40.19500 41.55800 21.85500
N  42.20000 43.46100 26.18700
C  42.03100 44.26800 25.11400
C  41.43800 45.53900 25.48500
C  41.26200 45.38500 26.89800
C  41.66300 44.07700 27.24200
C  41.20800 46.64600 24.55200
C  40.74000 45.96500 28.12300
O  40.09200 47.00800 28.28100
C  40.95900 44.89600 29.27600
C  41.87300 45.56500 30.22300
O  43.11800 45.56300 30.16100
O  41.10600 46.10200 31.23300
C  41.76000 46.74000 32.41300
H  43.96800 38.66800 29.52700
H  43.94600 38.42000 23.04000
H  42.18200 44.60500 23.03600
H  42.72300 42.86900 31.34400
H  42.09500 39.99100 30.78100
H  44.81300 40.11900 31.13000
H  43.76700 39.56100 32.31200
H  44.00500 41.24400 32.40600
H  40.44100 41.13400 31.53500
H  40.12500 42.41100 30.37400
H  39.69300 43.94100 32.19800
H  41.32900 43.52600 32.66600
H  44.64500 36.69700 29.08700
H  45.92000 36.34200 27.97900
H  44.53000 35.47500 27.84300
H  46.11800 35.18800 26.08800
H  45.90300 34.41600 24.56400
H  44.44500 34.52500 25.62400
H  43.10500 40.00900 21.28600
H  43.44400 42.98500 21.46500
H  45.74800 40.38900 21.94300
H  45.42100 41.79800 20.91300
H  44.92300 40.21400 20.43800
H  41.50900 41.58900 20.22300
H  41.00800 43.12900 20.90400
H  40.33800 40.94400 22.74400
H  39.64600 40.92600 21.15700
H  39.68400 42.44200 22.23800
H  42.24300 46.89500 24.31600
H  40.51400 47.39200 24.93800
H  40.81800 46.33700 23.58200
H  39.98000 44.78700 29.74100
H  41.63900 46.02700 33.22800
H  41.20300 47.63800 32.68200
H  42.83300 46.92500 32.36200

