158

Mg 25.69300 52.13400 26.07700
C  23.71200 53.25100 28.87000
C  28.38200 51.84800 28.30500
C  27.86000 52.01000 23.47900
C  23.19500 53.37200 23.97800
N  25.99700 52.46400 28.27500
C  25.01400 52.75700 29.22000
C  25.46300 52.54100 30.72000
C  26.98100 52.14300 30.51000
C  27.14400 52.06800 28.94200
C  27.98500 53.12900 31.33200
C  24.59300 51.37500 31.47800
C  23.87400 51.74800 32.74500
H  24.64800 52.51600 33.78400
N  27.77500 51.71300 25.89300
C  28.67500 51.63000 26.95500
C  30.04500 51.36500 26.42300
C  29.86900 51.47100 24.96900
C  28.49900 51.81900 24.69400
C  31.23000 51.09100 27.28400
C  30.95100 51.45800 23.96100
O  30.69900 51.78000 22.80300
C  32.31100 51.08800 24.45900
N  25.58700 52.55800 24.05100
C  26.55500 52.30500 23.19600
C  26.13600 52.80300 21.79800
C  24.62800 53.02900 21.90500
C  24.38700 52.94200 23.41600
C  27.04900 53.98300 21.20100
C  23.67000 52.11100 21.12900
C  23.40500 52.44500 19.64700
N  23.81400 53.06300 26.28900
C  22.89000 53.45300 25.33900
C  21.69000 53.99900 25.94200
C  22.05800 53.98300 27.35000
C  23.28900 53.38700 27.49800
C  20.46100 54.48400 25.19400
C  21.56600 54.35700 28.69800
O  20.48000 54.83800 29.06600
C  22.52800 53.71300 29.74800
C  23.01200 54.82600 30.63100
O  24.01400 55.45300 30.53200
O  22.07400 55.01700 31.63000
C  22.46800 56.13900 32.52100
H  29.24300 51.64800 28.94800
H  28.42500 51.99600 22.54400
H  22.39800 53.64600 23.28400
H  25.42700 53.49100 31.25400
H  27.15200 51.21500 31.05500
H  28.69800 53.66500 30.70600
H  28.53100 52.57900 32.09900
H  27.41700 53.85600 31.91200
H  25.14100 50.48100 31.77400
H  23.78600 51.10000 30.79900
H  23.56000 50.88300 33.32900
H  23.00000 52.34300 32.47800
H  31.76100 50.19700 26.95600
H  30.93300 50.88700 28.31200
H  31.96900 51.89200 27.28100
H  32.92700 50.95100 23.57100
H  32.34200 50.07600 24.86400
H  32.72800 51.83500 25.13500
H  26.26600 51.91700 21.17800
H  24.50900 54.04600 21.53000
H  26.37100 54.83500 21.14200
H  27.38000 53.76100 20.18600
H  27.91100 54.14900 21.84700
H  22.71200 52.18200 21.64300
H  24.10500 51.11300 21.18200
H  24.18200 53.16000 19.37800
H  22.39800 52.86100 19.67500
H  23.49100 51.53900 19.04600
H  20.17000 53.75000 24.44300
H  20.58800 55.39600 24.61000
H  19.65700 54.69500 25.90000
H  21.94200 53.00500 30.33300
H  22.64700 56.94700 31.81100
H  23.39000 55.91600 33.05800
H  21.62900 56.30500 33.19700
Mg -4.71000 24.88500 25.89800
C  -2.89500 26.44500 28.51000
C  -5.74400 22.63400 28.13800
C  -6.36400 23.56000 23.47800
C  -3.11000 27.13100 23.59900
N  -4.38200 24.69000 28.05300
C  -3.73700 25.46100 28.90800
C  -4.07600 25.15900 30.39300
C  -4.71200 23.78900 30.22100
C  -5.03000 23.67700 28.69900
C  -3.79800 22.64000 30.70000
C  -5.09600 26.25700 30.88800
C  -5.02300 26.43000 32.44500
H  -4.62300 25.24700 33.33500
N  -5.95700 23.33100 25.82300
C  -6.18600 22.45900 26.80500
C  -6.88600 21.29000 26.27300
C  -7.15200 21.52100 24.88800
C  -6.50300 22.84300 24.68500
C  -7.47300 20.16700 27.20700
C  -7.97400 20.77300 23.87000
O  -8.26500 21.27700 22.79500
C  -8.54000 19.38100 24.18300
N  -4.89400 25.48400 23.85500
C  -5.60800 24.67200 23.08000
C  -5.41300 24.85400 21.57000
C  -4.45400 26.09600 21.58900
C  -4.14200 26.31500 23.10200
C  -4.76600 23.59500 20.95100
C  -5.03800 27.31400 20.89200
C  -4.20500 27.76200 19.70800
N  -3.25400 26.41700 25.96600
C  -2.73200 27.24400 24.96000
C  -1.81700 28.22400 25.60100
C  -1.89100 27.99400 26.96000
C  -2.70600 26.81700 27.16700
C  -1.15400 29.33600 24.90500
C  -1.31900 28.43300 28.27200
O  -0.48100 29.30400 28.51300
C  -2.11000 27.48400 29.37200
C  -1.12500 26.79200 30.22600
O  -0.24700 26.06900 29.92100
O  -1.44600 27.11700 31.52900
C  -0.58300 26.72300 32.66100
H  -6.19400 21.91500 28.82500
H  -6.88100 23.15500 22.60600
H  -2.74800 27.77800 22.79800
H  -3.20600 25.19000 31.04900
H  -5.58100 23.72400 30.87500
H  -4.41900 22.01600 31.34300
H  -3.02700 22.96900 31.39700
H  -3.37200 22.06800 29.87500
H  -6.11700 26.03300 30.57900
H  -4.87600 27.24400 30.48100
H  -5.99400 26.69100 32.86800
H  -4.25600 27.17400 32.65800
H  -6.79500 19.31400 27.22400
H  -8.48300 20.06100 26.81200
H  -7.56900 20.64600 28.18100
H  -7.72700 18.71800 24.47700
H  -8.98600 19.06900 23.23800
H  -9.25800 19.37500 25.00300
H  -6.42100 24.99700 21.18000
H  -3.50400 25.85900 21.10900
H  -4.70600 22.74900 21.63600
H  -3.78200 23.71000 20.49700
H  -5.38900 23.37600 20.08400
H  -5.10600 28.16900 21.56400
H  -6.06800 27.18200 20.56000
H  -4.82600 28.36900 19.04900
H  -3.96900 26.88800 19.10000
H  -3.36100 28.31900 20.11500
H  -0.08400 29.24000 25.08800
H  -1.34700 30.35600 25.23800
H  -1.28700 29.15600 23.83800
H  -2.73100 28.17300 29.94600
H  0.22300 27.45300 32.73700
H  -0.05100 25.81200 32.38400
H  -0.98800 26.68500 33.67200

