158

Mg 16.80700 -2.04000 27.54900
C  16.03600 0.29300 30.00300
C  18.32100 -3.99400 30.02500
C  18.35500 -3.78000 25.18900
C  15.98800 0.38300 25.09400
N  17.19600 -1.83600 29.75600
C  16.63100 -0.88700 30.57700
C  16.83600 -1.19400 32.08600
C  17.59600 -2.57900 32.01100
C  17.80000 -2.81300 30.49400
C  18.91100 -2.59600 32.81200
C  15.52400 -1.31000 32.87800
C  15.33600 -0.29000 34.01700
H  16.61400 0.09100 34.78500
N  17.82100 -3.78500 27.56200
C  18.29600 -4.48400 28.66800
C  19.09700 -5.62100 28.30000
C  19.29200 -5.52800 26.85000
C  18.51800 -4.29300 26.51800
C  19.64200 -6.61300 29.33200
C  20.06300 -6.41400 25.99800
O  20.15600 -6.11500 24.81000
C  20.69300 -7.66300 26.45900
N  17.05400 -1.73700 25.43700
C  17.77800 -2.57500 24.74400
C  17.87000 -2.20400 23.24000
C  17.05600 -0.93100 23.16300
C  16.59500 -0.75700 24.61700
C  19.32100 -2.02600 22.69800
C  15.88300 -0.95000 22.11400
C  15.99700 0.13000 21.03100
N  16.06400 -0.11700 27.52000
C  15.68800 0.74700 26.50000
C  15.11900 1.99400 27.03100
C  15.13500 1.78200 28.40000
C  15.80700 0.57900 28.66000
C  14.81100 3.24400 26.35100
C  14.83400 2.47000 29.70400
O  14.25600 3.56800 29.92700
C  15.45300 1.49200 30.77900
C  16.57000 2.34000 31.48900
O  17.76900 2.36800 31.10900
O  16.09500 2.92400 32.61000
C  16.86300 4.06100 33.06300
H  18.77900 -4.63300 30.78300
H  18.91800 -4.41700 24.50300
H  15.81400 1.22300 24.41900
H  17.52100 -0.41000 32.40800
H  16.90900 -3.30100 32.45300
H  18.93600 -1.68300 33.40600
H  19.73900 -2.60000 32.10300
H  18.88200 -3.48800 33.43800
H  15.42300 -2.21800 33.47200
H  14.70100 -1.14600 32.18300
H  14.67700 -0.75700 34.74800
H  14.81800 0.56000 33.57200
H  20.72700 -6.57400 29.23600
H  19.28500 -7.58400 28.98900
H  19.35300 -6.54600 30.38000
H  20.05300 -8.28700 27.08400
H  21.54200 -7.41300 27.09600
H  21.20200 -8.01200 25.56000
H  17.52700 -3.02000 22.60300
H  17.75600 -0.11500 22.98300
H  19.50000 -1.24000 21.96400
H  19.58700 -3.00900 22.30900
H  19.92200 -1.86100 23.59200
H  14.89200 -0.80300 22.54500
H  15.93300 -1.93800 21.65700
H  16.22600 1.03600 21.59400
H  15.03400 0.29300 20.54800
H  16.76100 -0.04900 20.27400
H  15.35800 3.24800 25.40800
H  15.09900 4.06000 27.01400
H  13.75900 3.22900 26.06800
H  14.76000 1.19600 31.56700
H  17.10400 4.72300 32.23100
H  17.80200 3.84400 33.57200
H  16.27700 4.59800 33.80800
Mg 25.73600 0.11700 28.43600
C  27.45800 -0.32300 31.56600
C  22.74400 0.23500 30.25700
C  24.14500 0.21700 25.55500
C  28.58500 -0.92500 26.81900
N  25.15400 -0.08900 30.67400
C  26.08800 -0.12000 31.75900
C  25.31300 0.15800 33.05100
C  23.78900 0.29000 32.64600
C  23.85000 0.16900 31.10900
C  22.65900 -0.66500 33.35400
C  25.80800 1.41000 33.91100
C  26.37600 1.05000 35.29000
H  25.70300 1.77400 36.49500
N  23.75600 0.25100 28.00000
C  22.68300 0.33700 28.82700
C  21.52900 0.46800 28.05100
C  21.88400 0.52200 26.71300
C  23.28700 0.31500 26.71500
C  20.13600 0.58400 28.67900
C  20.99300 0.70700 25.56900
O  21.27100 0.38300 24.43600
C  19.54000 1.01400 25.78000
N  26.32500 -0.39500 26.45200
C  25.47900 -0.06100 25.44200
C  26.16400 -0.09500 24.03600
C  27.66000 -0.28400 24.50100
C  27.55400 -0.53600 25.99500
C  25.63300 -1.24300 23.16500
C  28.73100 0.79000 24.13800
C  29.44800 0.83300 22.72500
N  27.55000 -0.52100 29.02700
C  28.67700 -0.82800 28.24200
C  29.83100 -1.02100 29.01800
C  29.36800 -0.87500 30.34600
C  28.01700 -0.58400 30.30800
C  31.27200 -1.11900 28.57800
C  29.79900 -0.87600 31.71400
O  30.93600 -1.08000 32.08400
C  28.61400 -0.43000 32.58000
C  28.46700 -1.37000 33.67300
O  27.93800 -2.45700 33.68800
O  28.83900 -0.76100 34.79400
C  28.73900 -1.54600 36.01000
H  21.81200 0.32400 30.81800
H  23.65700 0.47000 24.61200
H  29.44800 -1.19400 26.20600
H  25.31900 -0.76000 33.63900
H  23.40100 1.25900 32.96100
H  23.14200 -1.42000 33.97400
H  22.30400 -1.30000 32.54300
H  21.82000 -0.16700 33.84000
H  24.92600 2.03600 34.05300
H  26.52200 2.00100 33.33800
H  27.45700 1.15100 35.38900
H  26.23000 0.00100 35.54700
H  19.61300 1.54100 28.69400
H  20.14400 0.19800 29.69800
H  19.57000 -0.12500 28.07500
H  19.06700 0.12900 26.20500
H  19.03200 1.26400 24.84800
H  19.58200 1.82500 26.50800
H  25.94700 0.84000 23.51900
H  28.07600 -1.18400 24.04800
H  24.89300 -1.72500 23.80400
H  26.36400 -2.04000 23.02400
H  25.13700 -0.99600 22.22600
H  29.44800 0.98100 24.93600
H  28.14400 1.70400 24.05400
H  30.47100 1.16300 22.91000
H  28.91500 1.50200 22.05000
H  29.38300 -0.13900 22.23600
H  31.26700 -0.78300 27.54100
H  31.66100 -2.13700 28.58500
H  31.90000 -0.47200 29.19200
H  28.74600 0.57600 32.97700
H  29.24500 -2.50600 35.91000
H  27.74800 -1.86200 36.33600
H  29.19900 -0.98500 36.82300

