158

Mg 24.54600 1.61300 29.04200
C  26.84300 1.40000 31.67800
C  22.05300 1.81200 31.27600
C  22.54500 1.45400 26.44300
C  27.31700 1.00400 26.89800
N  24.57100 1.65700 31.16300
C  25.60800 1.65000 32.09100
C  25.08400 1.69700 33.51700
C  23.60400 1.69200 33.38400
C  23.35600 1.76300 31.86400
C  22.74800 0.50500 33.96600
C  25.66600 2.86000 34.33700
C  26.33700 2.62500 35.75900
H  26.28900 3.62300 36.87200
N  22.51600 1.63600 28.86200
C  21.65400 1.70900 29.90100
C  20.37200 1.81500 29.41000
C  20.44800 1.63100 27.97700
C  21.85600 1.51300 27.65700
C  19.21500 2.01600 30.33600
C  19.29900 1.55200 26.98900
O  19.49600 1.41700 25.80700
C  17.90300 1.74600 27.41600
N  24.95800 1.35500 26.97000
C  23.89200 1.43900 26.12500
C  24.37100 1.51900 24.62700
C  25.96500 1.35200 24.76800
C  26.11900 1.25500 26.24200
C  23.83200 0.31000 23.79000
C  26.75600 2.50400 24.16600
C  26.60800 3.86200 24.71100
N  26.67800 1.30600 29.18600
C  27.65200 1.00600 28.27800
C  28.89600 0.81200 28.90900
C  28.65300 0.97800 30.28800
C  27.27300 1.27000 30.38600
C  30.18500 0.59500 28.33900
C  29.31400 1.01100 31.56100
O  30.45800 0.87700 31.84000
C  28.10900 1.33300 32.57100
C  28.16600 0.31800 33.60400
O  27.44900 -0.68700 33.75600
O  29.18700 0.61000 34.50400
C  29.25800 -0.23300 35.68300
H  21.21300 1.96800 31.95600
H  21.85500 1.36800 25.60100
H  28.13700 0.93600 26.18000
H  25.31300 0.76700 34.03700
H  23.14200 2.59200 33.79000
H  22.09200 -0.05800 33.30100
H  22.14700 0.82400 34.81800
H  23.42800 -0.30800 34.22000
H  24.89800 3.57500 34.63200
H  26.24800 3.54600 33.72200
H  27.40600 2.43600 35.66300
H  25.87900 1.72300 36.16500
H  18.46200 2.63800 29.85100
H  19.38200 2.31900 31.36900
H  18.67000 1.07800 30.44600
H  17.54800 1.16900 28.27100
H  17.23500 1.33800 26.65800
H  17.95900 2.82500 27.56200
H  23.97900 2.45800 24.23500
H  26.34900 0.42300 24.34700
H  23.48300 -0.43500 24.50400
H  24.51600 -0.23900 23.14200
H  23.05900 0.66200 23.10700
H  26.49600 2.63200 23.11500
H  27.80700 2.23700 24.27000
H  26.06300 3.93700 25.65100
H  26.30300 4.56200 23.93300
H  27.59600 4.21400 25.01000
H  30.99200 1.06300 28.90400
H  30.23100 1.08900 27.36900
H  30.47200 -0.45700 28.34800
H  28.23800 2.25600 33.13600
H  29.25800 -1.29200 35.42400
H  28.32900 0.06400 36.17000
H  29.98000 0.07700 36.43800
Mg 49.28900 35.55800 27.96900
C  47.07200 34.35700 30.32200
C  49.75100 38.42600 30.11600
C  51.12800 37.22300 25.62400
C  48.70900 32.99200 25.76800
N  48.50400 36.29100 30.01400
C  47.62600 35.53800 30.76200
C  47.36900 36.30900 32.07600
C  48.13400 37.72200 31.86600
C  48.81900 37.48200 30.51300
C  47.12600 38.87200 31.72100
C  47.72500 35.61900 33.39000
C  49.02500 34.76500 33.54100
H  50.28100 35.40700 34.10700
N  50.21300 37.57000 27.81600
C  50.34300 38.49800 28.80400
C  51.12300 39.65900 28.30800
C  51.49000 39.35100 26.94200
C  50.91600 37.99700 26.72200
C  51.36600 40.92700 29.22300
C  52.25600 40.16600 25.95700
O  52.64000 39.75100 24.86900
C  52.79700 41.48600 26.43700
N  49.86400 35.13700 26.00000
C  50.72700 35.89100 25.30500
C  51.21500 35.08400 24.07600
C  50.45200 33.72700 24.17600
C  49.60600 33.93800 25.36000
C  51.02500 35.84400 22.66200
C  51.36700 32.48700 24.16200
C  50.87500 31.40900 23.12400
N  48.18300 33.95700 28.02900
C  48.02800 33.00500 27.02800
C  46.85400 32.16200 27.51700
C  46.50000 32.59100 28.85100
C  47.33300 33.68600 29.05600
C  46.20500 31.01000 26.77500
C  45.58100 32.41000 29.88000
O  44.61800 31.62100 29.95600
C  45.85800 33.55600 30.93300
C  46.30500 32.76900 32.10100
O  47.36000 32.18400 32.21900
O  45.35300 32.83300 33.05400
C  45.59800 32.11300 34.29600
H  50.00100 39.26900 30.76400
H  51.80700 37.56500 24.84000
H  48.45300 32.13900 25.13700
H  46.29700 36.47400 31.97000
H  48.93200 37.97300 32.56400
H  46.82500 39.25200 32.69700
H  46.24200 38.72200 31.10100
H  47.65600 39.68000 31.21700
H  46.83100 35.02100 33.56700
H  47.85700 36.42200 34.11500
H  49.21100 34.39400 32.53300
H  48.76800 33.93700 34.20200
H  52.37700 41.03000 29.61600
H  50.65500 40.93600 30.05000
H  51.16100 41.81900 28.63200
H  52.15600 42.33700 26.66700
H  53.43400 41.90000 25.65500
H  53.44200 41.19700 27.26700
H  52.27400 34.84900 24.18200
H  49.86600 33.78000 23.25800
H  50.44700 36.76600 22.72000
H  50.64700 35.13300 21.92800
H  52.02800 36.05500 22.29200
H  51.29800 31.93500 25.09900
H  52.43500 32.69900 24.10800
H  51.78700 31.13600 22.59200
H  49.96600 31.66900 22.58200
H  50.61500 30.47000 23.61400
H  45.50400 30.48100 27.42100
H  46.97500 30.29000 26.49900
H  45.61800 31.25700 25.89000
H  44.88300 34.01100 31.10900
H  45.67000 31.03600 34.14500
H  44.81700 32.43800 34.98400
H  46.59200 32.29500 34.70400

