158

Mg 8.79400 3.73100 27.13800
C  10.24100 2.34000 29.96100
C  7.01500 5.77900 29.23200
C  7.27800 4.87400 24.40500
C  9.96300 1.01800 25.30100
N  8.63100 4.02700 29.30500
C  9.46300 3.39100 30.23100
C  9.21600 4.00700 31.61200
C  8.10900 5.02400 31.42300
C  7.88800 4.95800 29.87700
C  6.76200 4.85300 32.25700
C  10.51000 4.47900 32.29300
C  10.39100 5.35800 33.56200
H  11.10600 4.83500 34.82900
N  7.38700 5.20200 26.87200
C  6.79500 5.94600 27.86000
C  5.85800 6.87500 27.17100
C  6.09500 6.80800 25.77500
C  6.87500 5.50300 25.63800
C  5.12400 7.89700 28.00000
C  5.60200 7.69200 24.60000
O  5.75500 7.47800 23.40900
C  5.02600 8.97600 25.00200
N  8.51800 2.96300 25.15500
C  7.95000 3.71400 24.19100
C  8.23700 3.13000 22.82000
C  9.14700 1.94200 23.07600
C  9.24900 1.99600 24.61800
C  6.99000 2.83100 22.02700
C  10.51100 1.99900 22.27800
C  10.95000 0.63100 21.70100
N  9.97500 2.10500 27.49800
C  10.37000 1.07500 26.65200
C  11.26300 0.23600 27.32200
C  11.27900 0.74600 28.65900
C  10.45800 1.87000 28.69600
C  12.00200 -0.87500 26.67300
C  11.94000 0.52000 29.91500
O  12.72900 -0.28300 30.36300
C  11.21500 1.56600 30.81000
C  10.61100 0.73700 31.99200
O  9.45900 0.35100 32.13200
O  11.59500 0.75800 32.95600
C  11.08900 0.49100 34.28700
H  6.39000 6.29300 29.96500
H  7.15200 5.48300 23.50700
H  10.36200 0.24100 24.64500
H  8.82900 3.15500 32.17000
H  8.47000 6.01300 31.70700
H  5.93800 4.55900 31.60700
H  6.54600 5.81200 32.72800
H  6.89500 4.20100 33.12000
H  11.10700 4.92700 31.49900
H  11.05900 3.57500 32.55700
H  9.35200 5.49100 33.86400
H  10.83500 6.33000 33.34900
H  4.23100 8.36100 27.58200
H  5.74500 8.77500 28.17700
H  4.80900 7.53100 28.97700
H  5.52400 9.36600 25.88900
H  3.99800 8.69800 25.23700
H  5.25600 9.67700 24.20000
H  8.85600 3.85500 22.29200
H  8.62900 0.99900 22.90100
H  6.19000 3.35400 22.55200
H  6.81700 1.81000 21.68700
H  6.92500 3.33700 21.06300
H  11.26800 2.42000 22.93900
H  10.51000 2.68600 21.43100
H  10.06800 -0.00900 21.71700
H  11.73500 0.25500 22.35600
H  11.12400 0.68800 20.62700
H  12.16900 -0.62900 25.62500
H  11.34000 -1.74000 26.65300
H  13.00200 -1.11600 27.03500
H  12.07600 2.14300 31.14600
H  11.91300 0.19900 34.93700
H  10.40600 -0.35800 34.25300
H  10.56700 1.34400 34.72100
Mg 47.43800 34.02200 26.57300
C  45.91600 32.81200 29.40000
C  47.88200 37.01200 28.28900
C  48.55000 35.49500 23.59000
C  46.62200 31.19000 24.69200
N  47.02100 34.80000 28.59500
C  46.44400 34.07900 29.60200
C  46.70100 34.73000 30.93100
C  46.97600 36.22600 30.52300
C  47.35500 35.99700 29.05800
C  45.73100 37.22600 30.66100
C  47.86800 34.07100 31.65500
C  47.85000 34.32200 33.16400
H  46.67500 35.09900 33.68800
N  48.17400 35.99700 26.05600
C  48.33700 36.99400 26.93900
C  49.11500 38.07600 26.31300
C  49.22200 37.69200 24.92100
C  48.67400 36.33400 24.79200
C  49.42700 39.41200 26.96800
C  49.95300 38.45000 23.78000
O  50.15300 37.98700 22.68000
C  50.32600 39.95100 24.06400
N  47.24500 33.50100 24.38300
C  48.03500 34.16500 23.45800
C  48.24300 33.41400 22.10400
C  47.66900 32.03600 22.53500
C  47.16700 32.23900 23.95000
C  47.59100 34.12900 20.89600
C  48.66100 30.80400 22.44200
C  49.76700 30.62900 23.50700
N  46.42900 32.37600 26.89200
C  46.23800 31.26200 26.10000
C  45.62400 30.20100 26.92100
C  45.43900 30.83200 28.19500
C  45.94700 32.12100 28.16500
C  45.27700 28.86900 26.48000
C  44.84800 30.63800 29.42700
O  44.06300 29.73400 29.73100
C  45.01400 31.86500 30.31300
C  45.41600 31.39700 31.61300
O  46.52100 31.13700 31.99000
O  44.29400 31.32500 32.40500
C  44.37600 31.41200 33.90200
H  48.32700 37.75800 28.95100
H  49.10700 35.80700 22.70400
H  46.54500 30.28200 24.09100
H  45.74900 34.66700 31.45900
H  47.88100 36.51500 31.05800
H  44.86500 36.77600 31.14700
H  45.50300 37.61500 29.66900
H  45.96300 38.09000 31.28300
H  48.82700 34.34100 31.21400
H  47.86200 32.98300 31.57900
H  48.69100 34.93200 33.49500
H  47.93500 33.30900 33.55700
H  50.50800 39.47700 27.08700
H  48.98500 39.53800 27.95700
H  49.16100 40.28700 26.37400
H  50.72900 40.28800 23.10900
H  51.14100 39.87600 24.78400
H  49.48300 40.55000 24.40700
H  49.31300 33.48700 21.91100
H  46.85500 31.86800 21.82900
H  46.87400 33.44000 20.45000
H  48.40900 34.32600 20.20300
H  47.11400 35.06900 21.17400
H  49.13500 30.98000 21.47600
H  48.09500 29.87600 22.36700
H  50.70200 30.94900 23.04500
H  49.86100 29.62100 23.91200
H  49.55100 31.35200 24.29400
H  46.19200 28.55300 25.97800
H  44.52600 28.90800 25.69100
H  44.88300 28.21800 27.26000
H  44.00000 32.25400 30.41300
H  44.80900 30.49600 34.30400
H  43.38700 31.61400 34.31400
H  45.00500 32.26200 34.16800

