158

Mg 45.54400 4.02800 46.76100
C  43.48200 6.76400 47.09100
C  42.58000 2.06500 46.20500
C  47.49900 1.44200 45.88000
C  48.32300 6.07300 46.82100
N  43.29700 4.44500 46.49100
C  42.69400 5.64700 46.77900
C  41.12700 5.52400 46.68200
C  40.85000 3.98100 46.50100
C  42.33100 3.43300 46.40900
C  39.94000 3.35700 47.64000
C  40.52300 6.29900 45.50600
C  41.28600 6.31200 44.17100
H  40.47800 5.85400 42.89300
N  45.08100 2.01000 46.22600
C  43.83200 1.38600 46.16000
C  44.06500 -0.00500 45.91000
C  45.51100 -0.29300 46.03400
C  46.13100 1.08500 46.05600
C  42.94800 -1.06700 45.90200
C  46.15700 -1.65100 46.02400
O  45.52400 -2.70000 46.06000
C  47.68200 -1.80300 45.92900
N  47.65900 3.82500 46.18700
C  48.17800 2.65000 45.96500
C  49.73300 2.78600 46.01000
C  49.89500 4.28100 46.37700
C  48.52700 4.78000 46.44100
C  50.55100 1.78900 46.90700
C  51.05700 5.07500 45.59000
C  52.32200 5.42600 46.23300
N  45.93500 6.05900 46.91300
C  47.10900 6.76700 46.98200
C  46.82100 8.18400 47.14500
C  45.38800 8.25700 47.23000
C  44.90700 6.91100 47.08800
C  47.74200 9.27200 47.29000
C  44.22000 9.10100 47.39300
O  44.14100 10.31000 47.54800
C  42.99500 8.17900 47.29200
C  42.01900 8.29400 48.42200
O  42.23100 7.91500 49.57300
O  40.88100 9.01600 48.09700
C  39.99000 9.40600 49.17100
H  41.69300 1.47600 45.95800
H  48.18100 0.66600 45.52500
H  49.14900 6.74000 47.07700
H  40.61800 5.89000 47.57400
H  40.27900 3.80600 45.58800
H  40.40400 2.79800 48.45300
H  39.12200 2.74000 47.26700
H  39.48500 4.22700 48.11300
H  40.56500 7.34300 45.81900
H  39.53700 5.83400 45.49800
H  42.09200 5.57700 44.17900
H  41.67300 7.33100 44.14800
H  42.66900 -1.34200 46.91900
H  43.07100 -1.89900 45.20900
H  42.00900 -0.64700 45.54100
H  48.07000 -1.09100 46.65800
H  48.00000 -1.61400 44.90300
H  48.00800 -2.77600 46.29600
H  50.07500 2.74800 44.97600
H  50.23600 4.32300 47.41100
H  51.13500 2.37700 47.61500
H  51.33400 1.22400 46.40200
H  49.91700 1.05600 47.40700
H  50.53200 5.97900 45.28000
H  51.29600 4.48600 44.70500
H  53.10700 5.40400 45.47800
H  52.47000 4.53700 46.84700
H  52.23800 6.31300 46.86100
H  48.05900 9.48300 46.26800
H  48.63300 9.07100 47.88500
H  47.16900 10.12200 47.66000
H  42.62100 8.59900 46.35800
H  40.44000 10.29300 49.61500
H  39.83900 8.75900 50.03500
H  39.02900 9.66500 48.72600
Mg 9.72400 47.70000 25.30700
C  7.56100 47.86900 28.07300
C  12.08900 49.28700 27.34500
C  11.89700 47.47000 22.77800
C  7.07500 47.15000 23.30900
N  9.79900 48.27900 27.52800
C  8.80000 48.28500 28.48400
C  9.23500 48.76900 29.84300
C  10.47300 49.64800 29.41300
C  10.83200 49.05000 28.03100
C  10.21300 51.11700 29.28500
C  9.73700 47.62800 30.87100
C  9.46400 47.95600 32.35800
H  9.43600 46.83300 33.44700
N  11.70300 48.14900 25.18300
C  12.52800 48.72800 26.11800
C  13.89400 48.65700 25.57400
C  13.87300 48.14600 24.28700
C  12.50100 47.86600 24.01200
C  15.06400 48.98000 26.47000
C  15.00300 47.93700 23.30800
O  14.82400 47.45400 22.17100
C  16.43700 48.26700 23.64600
N  9.53500 47.46400 23.38000
C  10.53900 47.35100 22.46700
C  10.07900 46.80200 21.04500
C  8.54100 46.76000 21.28400
C  8.32700 47.11100 22.74900
C  10.62800 47.55700 19.76600
C  7.86900 45.46600 20.75900
C  6.76600 45.65100 19.69100
N  7.65900 47.45900 25.58700
C  6.73900 47.29500 24.66500
C  5.40700 47.33800 25.23100
C  5.68000 47.42500 26.56500
C  7.13300 47.56200 26.75200
C  4.09000 47.20100 24.46400
C  5.06400 47.41400 27.89500
O  3.88300 47.26700 28.15700
C  6.22000 47.91700 28.86100
C  6.13900 47.14100 30.17700
O  6.79900 46.15400 30.53700
O  5.40800 47.93900 31.01300
C  5.16500 47.40400 32.36300
H  12.74000 50.03100 27.80900
H  12.53400 47.30000 21.90700
H  6.26200 46.97100 22.60200
H  8.48400 49.39600 30.32300
H  11.36400 49.53400 30.03000
H  9.27600 51.36200 29.78500
H  10.06600 51.35000 28.23000
H  11.01100 51.67700 29.77300
H  10.75900 47.25000 30.86000
H  9.23400 46.66200 30.83600
H  8.39900 48.18200 32.32200
H  10.04000 48.80500 32.72600
H  14.62200 49.29800 27.41400
H  15.67800 49.85500 26.25600
H  15.68600 48.10800 26.67300
H  16.79600 49.08100 23.01700
H  17.06100 47.38700 23.48800
H  16.69400 48.48800 24.68200
H  10.51300 45.80700 20.95100
H  8.09000 47.59000 20.73900
H  10.59700 46.87600 18.91600
H  11.64400 47.89100 19.97500
H  9.96600 48.41300 19.63100
H  7.32600 44.87400 21.49600
H  8.65900 44.80700 20.39800
H  5.90800 44.98700 19.80200
H  7.18300 45.47700 18.69900
H  6.39400 46.66900 19.80400
H  3.22100 47.75300 24.82300
H  3.78900 46.15500 24.41300
H  4.24500 47.55600 23.44600
H  6.02900 48.96100 29.10900
H  4.76400 46.39400 32.28600
H  4.46700 48.07000 32.87100
H  6.08000 47.45500 32.95300

