158

Mg 0.96500 8.35900 24.15400
C  1.46700 10.00800 27.23600
C  0.97200 5.41800 25.93000
C  0.99000 6.64800 21.25400
C  1.37900 11.28800 22.57000
N  1.13700 7.83500 26.38200
C  1.15200 8.63900 27.36700
C  1.14600 7.82400 28.73400
C  1.02700 6.31600 28.28500
C  1.06400 6.51900 26.78800
C  2.05000 5.27900 28.80600
C  0.16300 8.33300 29.89200
C  0.87400 8.71900 31.23700
H  2.09400 7.86700 31.64700
N  0.91400 6.33900 23.65100
C  0.92200 5.28400 24.49200
C  0.87500 3.99800 23.81600
C  0.84400 4.33200 22.41700
C  0.86000 5.82000 22.40000
C  0.71100 2.63500 24.54800
C  0.63400 3.44500 21.16100
O  0.55300 3.86200 20.02300
C  0.74800 2.00200 21.39500
N  1.09200 8.89100 22.14700
C  1.07800 8.03400 21.12300
C  1.23000 8.78900 19.74600
C  1.09300 10.23800 20.22100
C  1.18100 10.19900 21.75900
C  2.55400 8.45400 18.97900
C  -0.24700 10.99900 19.85100
C  -0.05500 12.43000 19.30700
N  1.30000 10.31200 24.78500
C  1.49700 11.39000 23.97000
C  1.89400 12.53600 24.75400
C  1.80400 12.04700 26.03000
C  1.43100 10.68100 25.99800
C  2.29800 13.92300 24.47500
C  1.99500 12.43300 27.44200
O  2.34300 13.46900 28.00600
C  1.69400 11.12400 28.22500
C  2.85100 10.90300 29.16100
O  3.91600 10.32300 28.96400
O  2.63100 11.55300 30.33200
C  3.56800 11.33400 31.49700
H  0.92100 4.52900 26.56200
H  1.14800 6.23800 20.25500
H  1.44200 12.27100 22.09900
H  2.10100 8.06600 29.20100
H  0.04300 6.00800 28.63800
H  2.63200 5.66200 29.64400
H  2.74200 5.01800 28.00600
H  1.47900 4.43300 29.18900
H  -0.61600 7.59700 30.09200
H  -0.37200 9.21900 29.55100
H  0.10700 8.62300 32.00500
H  1.15500 9.76800 31.13900
H  0.68600 2.73600 25.63300
H  1.54900 1.96400 24.35900
H  -0.17800 2.08100 24.24800
H  -0.20700 1.60200 21.73500
H  1.48600 1.73400 22.15100
H  0.94500 1.48600 20.45500
H  0.36600 8.44200 19.17900
H  1.99000 10.82000 20.01000
H  3.41000 8.73100 19.59400
H  2.52500 8.98100 18.02600
H  2.74200 7.40200 18.76700
H  -0.91200 11.09100 20.71000
H  -0.79600 10.49300 19.05800
H  -0.69100 12.63800 18.44600
H  0.93900 12.74400 18.99000
H  -0.37800 13.08500 20.11700
H  3.33100 14.06400 24.15600
H  2.04700 14.51000 25.35900
H  1.71200 14.17200 23.59000
H  0.78400 11.30000 28.80000
H  4.04600 12.31100 31.56500
H  4.28400 10.52800 31.34000
H  3.00500 11.05600 32.38800
Mg 24.60300 -6.97500 48.27500
C  27.18000 -4.60700 47.27700
C  22.71600 -5.64100 45.64100
C  22.62800 -9.62000 48.49300
C  26.88900 -8.29900 50.51900
N  24.91800 -5.34100 46.57800
C  25.98500 -4.44500 46.54000
C  25.77400 -3.37900 45.46300
C  24.19900 -3.58400 45.12800
C  23.91100 -4.94100 45.83000
C  23.24900 -2.47300 45.60000
C  26.64700 -3.52700 44.26300
C  27.25400 -2.33900 43.49400
H  26.94400 -1.89700 42.12300
N  22.77100 -7.54600 47.22300
C  22.21300 -6.89000 46.17900
C  21.05000 -7.62100 45.71800
C  21.03500 -8.86000 46.50300
C  22.18700 -8.74300 47.45000
C  20.05400 -7.26900 44.70700
C  19.90900 -9.91000 46.45900
O  18.94900 -9.74400 45.71300
C  19.84200 -11.15400 47.29500
N  24.65600 -8.72100 49.39200
C  23.68600 -9.63200 49.40800
C  23.96900 -10.79700 50.40300
C  25.32900 -10.39200 51.02200
C  25.66000 -9.01000 50.31000
C  22.82000 -10.97500 51.46100
C  26.45200 -11.52500 50.68100
C  27.33400 -12.22300 51.80600
N  26.58600 -6.59000 48.84800
C  27.38100 -7.21400 49.83100
C  28.61000 -6.52400 50.02300
C  28.63800 -5.55800 48.98300
C  27.35900 -5.60100 48.27700
C  29.64400 -6.90800 50.98300
C  29.40000 -4.51700 48.32500
O  30.50400 -4.08200 48.57500
C  28.42900 -3.81600 47.28300
C  28.21000 -2.37900 47.70300
O  27.89300 -2.01800 48.85900
O  28.39000 -1.59700 46.61500
C  28.30400 -0.07700 46.82500
H  21.96600 -5.28900 44.93000
H  22.02100 -10.52700 48.54500
H  27.54800 -8.68300 51.30100
H  25.91500 -2.39300 45.90600
H  24.02800 -3.70000 44.05800
H  22.29100 -2.76300 45.16900
H  23.54000 -1.50500 45.19200
H  23.17800 -2.39800 46.68500
H  26.03500 -3.97600 43.48200
H  27.37400 -4.27200 44.58800
H  28.34100 -2.40400 43.54600
H  26.92200 -1.51900 44.13000
H  20.53400 -6.66800 43.93500
H  19.22500 -6.66900 45.08500
H  19.62100 -8.10700 44.16200
H  19.29000 -11.05100 48.22900
H  20.85800 -11.54100 47.38500
H  19.38800 -12.02000 46.81300
H  24.10200 -11.75600 49.90300
H  25.20200 -10.19000 52.08500
H  22.03000 -10.30700 51.11900
H  23.11000 -10.59400 52.44000
H  22.40400 -11.98200 51.50800
H  27.22100 -10.99300 50.12200
H  25.99400 -12.31300 50.08200
H  27.14600 -11.79400 52.79000
H  28.39500 -12.06500 51.61600
H  27.01600 -13.26400 51.87600
H  29.80300 -7.98100 50.88500
H  29.51400 -6.72100 52.04900
H  30.64500 -6.73900 50.58500
H  28.82500 -3.82800 46.26700
H  29.24500 0.16900 47.31700
H  27.45600 0.25200 47.42600
H  28.15600 0.43400 45.87400

