158

Mg -2.27400 17.52500 27.40600
C  -2.67100 15.29300 30.04900
C  -2.86600 20.14900 29.59200
C  -2.08500 19.73900 24.77200
C  -1.99800 14.82000 25.26000
N  -2.76900 17.62900 29.49900
C  -2.83800 16.63700 30.42000
C  -2.95200 17.17000 31.86900
C  -3.04900 18.69300 31.66700
C  -2.85700 18.86800 30.11900
C  -4.34200 19.38100 32.31900
C  -1.76500 16.67500 32.85000
C  -1.33600 17.51800 34.03200
H  -0.75800 16.78500 35.23600
N  -2.31600 19.69900 27.22600
C  -2.68300 20.56100 28.23100
C  -2.68100 21.93700 27.66000
C  -2.45700 21.77900 26.28600
C  -2.32200 20.32400 26.02300
C  -2.84400 23.11800 28.52100
C  -2.33000 22.92200 25.24900
O  -1.98400 22.69800 24.12000
C  -2.64300 24.29600 25.51500
N  -2.11500 17.36100 25.33400
C  -2.05100 18.36200 24.46600
C  -1.89100 17.90300 22.96700
C  -1.66300 16.39400 23.19500
C  -1.91100 16.16200 24.72600
C  -3.11500 18.19600 22.00900
C  -0.32600 15.73500 22.63000
C  0.92400 15.89000 23.49400
N  -2.36200 15.50600 27.52000
C  -2.23700 14.51300 26.56200
C  -2.49300 13.22300 27.12700
C  -2.66200 13.48600 28.48800
C  -2.50200 14.87200 28.73400
C  -2.50300 11.81700 26.49800
C  -2.76900 12.81600 29.78300
O  -2.86100 11.67300 30.24300
C  -2.87300 13.98400 30.89600
C  -1.84000 13.57000 31.83200
O  -0.64000 13.73800 31.69900
O  -2.42500 12.90300 32.89600
C  -1.56700 12.34500 33.96500
H  -3.01600 20.92100 30.35000
H  -2.05700 20.38600 23.89300
H  -1.84500 13.98200 24.57700
H  -3.90100 16.83000 32.28400
H  -2.11700 19.06200 32.09600
H  -4.84100 18.74900 33.05400
H  -5.04900 19.66200 31.53800
H  -3.96800 20.31300 32.74200
H  -0.96400 16.40300 32.16200
H  -2.15800 15.77300 33.31900
H  -2.26700 17.95400 34.39500
H  -0.72500 18.37400 33.74500
H  -2.53700 23.03600 29.56400
H  -3.89600 23.40500 28.51500
H  -2.18900 23.87700 28.09200
H  -3.50400 24.24000 26.18100
H  -2.75500 24.87400 24.59800
H  -1.94200 24.81400 26.17100
H  -0.94300 18.23900 22.54700
H  -2.40000 15.82100 22.63100
H  -2.53300 18.50700 21.14100
H  -3.58200 19.08800 22.42700
H  -3.86300 17.41900 21.85300
H  -0.15500 16.12700 21.62700
H  -0.57200 14.67400 22.61100
H  1.59600 16.45300 22.84700
H  1.43100 14.97400 23.79800
H  0.77700 16.40400 24.44400
H  -2.94900 11.07200 27.15800
H  -1.46400 11.59100 26.25900
H  -3.10800 11.80300 25.59100
H  -3.74300 13.98700 31.55200
H  -2.17300 12.10700 34.83900
H  -0.76900 12.99700 34.32200
H  -1.06200 11.40700 33.73300
Mg 28.16000 56.41500 40.28300
C  25.97300 53.84300 39.60200
C  30.91300 54.43300 39.46600
C  30.16400 59.09100 40.42100
C  25.29500 58.49400 40.50800
N  28.33200 54.45000 39.55300
C  27.30400 53.57200 39.32700
C  27.80700 52.26300 38.67200
C  29.37400 52.34700 38.93300
C  29.58300 53.88100 39.39700
C  29.93000 51.32000 39.90600
C  27.46700 52.12500 37.14800
C  26.89800 53.36600 36.39000
H  26.76600 53.21700 34.82900
N  30.26200 56.73000 40.09200
C  31.21200 55.81200 39.77200
C  32.51700 56.45400 39.83200
C  32.38600 57.79000 40.21800
C  30.89500 57.96800 40.31700
C  33.74500 55.64300 39.60500
C  33.54100 58.74200 40.41000
O  34.74000 58.50000 40.28900
C  33.21100 60.04500 40.94800
N  27.75800 58.51600 40.34200
C  28.76600 59.40300 40.52000
C  28.21400 60.83000 40.87600
C  26.70300 60.66300 40.64200
C  26.54600 59.14700 40.56000
C  28.69200 61.30500 42.29500
C  26.10900 61.53100 39.55600
C  26.14400 63.05300 39.83900
N  26.06500 56.23200 40.16400
C  25.04000 57.17000 40.29500
C  23.72300 56.52200 40.13800
C  23.99900 55.19100 39.86100
C  25.45800 55.07800 39.89800
C  22.36900 57.17500 40.06800
C  23.47300 53.85100 39.66300
O  22.31400 53.41700 39.57900
C  24.78100 52.92400 39.50200
C  24.74900 51.83800 40.57300
O  24.13300 50.81300 40.45300
O  25.45400 52.18800 41.68200
C  25.37300 51.32300 42.87500
H  31.78700 53.81000 39.26800
H  30.71500 60.02600 40.53500
H  24.45000 59.16600 40.67100
H  27.38900 51.39200 39.17500
H  29.80700 52.19900 37.94400
H  29.09100 50.83600 40.40700
H  30.46600 51.78400 40.73400
H  30.45500 50.52400 39.37700
H  26.66200 51.39000 37.16800
H  28.36200 51.67100 36.72300
H  27.45000 54.25300 36.70000
H  25.88600 53.51500 36.76600
H  33.57100 55.06900 38.69500
H  33.68600 54.96300 40.45500
H  34.67000 56.21100 39.50600
H  32.62000 60.03900 41.86400
H  32.64000 60.52800 40.15500
H  34.06400 60.71100 41.07400
H  28.62200 61.47000 40.09400
H  26.11700 60.95400 41.51300
H  29.76900 61.42800 42.41300
H  28.41200 60.59200 43.07100
H  28.18200 62.23600 42.54000
H  25.16800 61.11800 39.19400
H  26.72400 61.28700 38.69000
H  26.60400 63.32500 40.78800
H  25.11900 63.42600 39.84000
H  26.74000 63.61500 39.12000
H  21.61400 56.66900 39.46500
H  22.54100 58.13800 39.58700
H  21.93900 57.23200 41.06800
H  24.95800 52.44000 38.54100
H  25.99000 50.47000 42.59200
H  24.41100 50.86100 43.09700
H  25.64200 51.82300 43.80500

