158

Mg 0.20400 44.03100 25.67000
C  1.93300 43.74200 28.77500
C  -2.67100 43.28200 27.58000
C  -1.31400 43.58400 22.86600
C  3.28600 44.30800 24.08800
N  -0.29900 43.75000 27.97600
C  0.57100 43.69100 29.04300
C  -0.16100 43.56900 30.34400
C  -1.66200 43.27200 29.94100
C  -1.55700 43.49400 28.37700
C  -2.26600 41.92100 30.32800
C  0.01800 44.93500 31.19600
C  0.33000 44.62500 32.70000
H  -0.33900 43.46800 33.42800
N  -1.77800 43.72800 25.26800
C  -2.78600 43.37100 26.16000
C  -3.96500 43.21100 25.42400
C  -3.70000 43.46500 24.06500
C  -2.17000 43.54200 23.96500
C  -5.30100 42.90900 26.04000
C  -4.55600 43.51100 22.78000
O  -4.12200 43.74000 21.67400
C  -6.07300 43.55100 22.91400
N  0.94600 43.91100 23.82400
C  0.03600 43.89000 22.78600
C  0.76000 43.67100 21.42800
C  2.21300 44.13400 21.83600
C  2.17300 44.27900 23.34000
C  0.69800 42.19900 21.00700
C  2.73900 45.35800 21.09900
C  2.86500 46.72900 21.75000
N  2.27300 44.02400 26.24400
C  3.35200 44.21300 25.48300
C  4.51900 44.29900 26.38500
C  4.02200 43.95100 27.68500
C  2.61000 43.91300 27.53700
C  5.92900 44.66300 25.98600
C  4.36600 43.85200 29.10800
O  5.44800 43.83900 29.67100
C  3.01400 43.64800 29.80900
C  3.08300 42.53100 30.77100
O  2.71300 41.35000 30.62500
O  3.51200 43.01400 31.97000
C  3.63500 42.10900 33.12800
H  -3.54700 42.98000 28.15700
H  -1.67900 43.48700 21.84200
H  4.22200 44.38800 23.53000
H  0.24500 42.68300 30.83300
H  -2.27900 44.07700 30.34000
H  -2.16300 41.19600 29.52100
H  -3.29600 42.07000 30.65200
H  -1.75500 41.59400 31.23400
H  -0.87500 45.55700 31.25900
H  0.82000 45.60500 30.88800
H  0.11600 45.53400 33.26200
H  1.39500 44.46100 32.86100
H  -6.10200 43.63700 25.91400
H  -5.15400 42.59600 27.07400
H  -5.67100 42.01600 25.53700
H  -6.55600 42.58200 23.04100
H  -6.39300 43.91900 21.93900
H  -6.34700 44.27700 23.68000
H  0.36800 44.30500 20.63200
H  2.85700 43.29000 21.58700
H  0.42600 41.61600 21.88700
H  1.55200 41.87000 20.41500
H  -0.24800 42.04100 20.48800
H  2.09400 45.57000 20.24700
H  3.68700 45.04400 20.66200
H  2.34400 46.64000 22.70300
H  2.29300 47.42200 21.13300
H  3.91500 47.01100 21.82900
H  6.42400 44.51300 26.94500
H  6.10900 45.71500 25.76500
H  6.23600 44.00500 25.17200
H  3.03200 44.52000 30.46300
H  4.68400 41.81300 33.12200
H  2.91300 41.29900 33.22700
H  3.51200 42.71000 34.02900
Mg -10.47700 17.22800 42.08900
C  -6.95400 16.81300 42.32300
C  -9.75200 20.61800 41.24600
C  -13.59500 17.55100 41.00100
C  -10.70400 13.73300 41.78500
N  -8.56200 18.54800 41.74600
C  -7.30400 18.07900 41.84700
C  -6.31400 19.20100 41.35900
C  -7.18400 20.47300 41.57800
C  -8.59300 19.87300 41.52500
C  -6.95600 21.11800 42.96700
C  -5.93400 18.85400 39.82800
C  -4.48200 18.35400 39.53300
H  -4.26700 17.03700 38.80100
N  -11.53100 18.93800 41.46400
C  -11.05900 20.20800 41.15600
C  -12.24600 21.03300 40.86300
C  -13.35800 20.17400 40.81700
C  -12.91100 18.79800 41.11800
C  -12.17300 22.58300 40.68200
C  -14.73700 20.58000 40.35800
O  -14.80100 21.66700 39.80900
C  -15.96400 19.69800 40.48800
N  -11.93400 15.85900 41.46800
C  -13.16900 16.21300 41.19400
C  -14.11700 15.00000 41.08800
C  -13.06300 13.81200 40.94500
C  -11.81700 14.48600 41.54500
C  -15.28700 14.82100 42.14200
C  -12.81100 13.13700 39.50400
C  -13.75600 11.89000 39.28400
N  -9.17400 15.58000 42.30800
C  -9.38600 14.20100 42.20300
C  -8.14400 13.47600 42.45700
C  -7.14000 14.43300 42.49000
C  -7.78600 15.69200 42.36200
C  -7.92900 12.03800 42.61100
C  -5.73900 14.73800 42.68400
O  -4.83000 14.00200 42.92400
C  -5.53000 16.32000 42.46900
C  -4.85600 16.99900 43.64000
O  -5.15200 16.89400 44.81200
O  -3.77100 17.69100 43.26400
C  -2.98000 18.50200 44.24800
H  -9.73200 21.70900 41.21100
H  -14.57200 17.61600 40.51800
H  -10.73500 12.67300 41.52500
H  -5.36100 19.26500 41.88500
H  -6.86300 21.18700 40.82000
H  -7.78900 21.15500 43.66800
H  -6.60700 22.13800 42.80300
H  -6.20100 20.59000 43.55000
H  -6.07300 19.74400 39.21400
H  -6.61000 18.14500 39.35000
H  -3.89000 18.35800 40.44900
H  -3.99200 19.10700 38.91600
H  -12.53200 22.88900 39.69900
H  -11.19700 23.06800 40.68600
H  -12.81100 22.95800 41.48300
H  -16.74100 20.46300 40.46400
H  -15.74700 19.28700 41.47400
H  -16.11500 19.06700 39.61200
H  -14.47500 15.19600 40.07700
H  -13.48300 13.05200 41.60400
H  -14.96700 15.41300 43.00000
H  -15.59400 13.79500 42.34400
H  -16.16900 15.37500 41.82100
H  -11.77100 12.81600 39.44500
H  -12.89300 13.97400 38.81100
H  -14.30200 11.53300 40.15700
H  -13.20900 11.11000 38.75400
H  -14.61100 12.00400 38.61700
H  -7.06600 11.73600 42.01700
H  -8.78800 11.36700 42.62100
H  -7.55100 11.86300 43.61800
H  -4.90000 16.56700 41.61500
H  -1.97500 18.11400 44.41600
H  -3.40700 18.62800 45.24300
H  -2.84700 19.49500 43.81800

