158

Mg 25.61600 1.58800 29.57100
C  27.40800 1.46500 32.56800
C  22.69800 1.67000 31.52200
C  23.89700 1.76900 26.88300
C  28.55200 0.94300 27.87500
N  25.08900 1.45500 31.79400
C  26.03000 1.64400 32.79100
C  25.33000 1.73500 34.17600
C  23.80900 1.44200 33.84100
C  23.83800 1.49100 32.32100
C  23.05900 0.12700 34.28900
C  25.62600 3.09500 34.93100
C  26.11000 2.91300 36.41000
H  25.86200 3.97300 37.43200
N  23.59200 1.72300 29.24400
C  22.59500 1.81500 30.13900
C  21.34300 1.96200 29.41600
C  21.69700 1.89600 28.05700
C  23.11200 1.85100 28.00400
C  19.96800 2.12100 30.00500
C  20.77700 1.81800 26.87600
O  21.18000 1.79100 25.70800
C  19.25800 1.68700 27.02700
N  26.20700 1.45100 27.65700
C  25.27400 1.71600 26.66800
C  25.91800 1.73800 25.25400
C  27.49400 1.64700 25.62000
C  27.42700 1.34200 27.14900
C  25.47100 0.49800 24.40100
C  28.29200 2.88600 25.25000
C  27.96800 4.21000 25.96800
N  27.56500 1.17100 30.05900
C  28.66700 0.82300 29.28800
C  29.82000 0.46500 30.10200
C  29.39700 0.81900 31.38000
C  28.01700 1.19700 31.31900
C  31.09300 -0.07900 29.56200
C  29.77500 0.93100 32.79100
O  30.84400 0.66500 33.30300
C  28.51900 1.43800 33.56700
C  28.39600 0.48800 34.65700
O  27.92700 -0.64000 34.59500
O  29.11100 0.98900 35.72800
C  28.93000 0.13100 36.90900
H  21.72600 1.84500 31.98700
H  23.51300 1.88000 25.86700
H  29.45600 0.71600 27.30400
H  25.55900 0.84800 34.76800
H  23.24500 2.30700 34.19100
H  22.05400 0.38200 34.62500
H  23.57000 -0.26100 35.17000
H  22.99300 -0.68100 33.56100
H  24.81400 3.82000 34.98200
H  26.44100 3.55300 34.37000
H  27.11000 2.50000 36.28500
H  25.62400 2.04400 36.85400
H  19.25500 2.81900 29.56600
H  20.08300 2.38500 31.05700
H  19.51200 1.13200 30.03600
H  18.80400 1.40600 26.07600
H  18.96000 2.69300 27.32300
H  19.00500 1.01100 27.84400
H  25.69500 2.64700 24.69500
H  27.88300 0.77300 25.09800
H  24.38500 0.43300 24.33200
H  25.64900 -0.35300 25.05900
H  25.94100 0.49200 23.41800
H  28.03800 3.08800 24.20900
H  29.35500 2.69600 25.40100
H  27.37800 4.88600 25.34900
H  28.74700 4.84500 26.39100
H  27.28800 3.94700 26.77800
H  31.73500 0.60800 29.01100
H  30.84700 -1.01900 29.06800
H  31.48600 -0.37200 30.53600
H  28.71200 2.47300 33.85000
H  29.05300 -0.93700 36.73100
H  28.06100 0.44200 37.48800
H  29.75000 0.37100 37.58600
Mg 42.19900 41.12600 25.97000
C  41.35600 43.41400 28.39900
C  42.95900 38.89600 28.44600
C  42.82700 38.87800 23.52800
C  41.57000 43.55100 23.44700
N  42.21800 41.17100 28.05900
C  41.82500 42.20700 28.86400
C  41.78300 41.93200 30.37600
C  42.37900 40.45500 30.32000
C  42.54200 40.15800 28.83600
C  43.72700 40.39200 31.16600
C  40.35600 42.08600 31.11000
C  40.13000 41.05000 32.28400
H  39.19200 41.54000 33.42200
N  42.96500 39.11300 25.98900
C  43.20000 38.37100 27.13200
C  43.58800 37.01200 26.66100
C  43.42700 36.99300 25.27500
C  43.05100 38.34800 24.84100
C  43.83400 35.85100 27.65200
C  43.74000 35.94100 24.26000
O  43.46700 36.03800 23.06200
C  44.37000 34.67500 24.74000
N  42.54100 41.33100 23.71300
C  42.55100 40.14600 23.00900
C  42.45200 40.43000 21.46500
C  41.77800 41.86000 21.55000
C  41.98400 42.30800 22.93900
C  43.81500 40.24000 20.76100
C  40.35700 42.11500 20.97500
C  40.34400 43.21600 19.83800
N  41.51500 43.14800 25.87400
C  41.41600 44.01400 24.83100
C  40.90700 45.26300 25.38000
C  40.94100 45.10100 26.80500
C  41.27600 43.75300 27.00200
C  40.54700 46.48500 24.61800
C  40.69600 45.81800 27.99600
O  40.30100 47.01600 28.19100
C  40.89400 44.67300 29.11200
C  41.95700 45.22500 30.01600
O  43.14800 45.47500 29.82200
O  41.34400 45.45900 31.20900
C  42.10900 45.99300 32.37000
H  43.05900 38.10600 29.19400
H  42.95900 38.16600 22.71000
H  41.32600 44.21900 22.61800
H  42.35300 42.70100 30.89600
H  41.67800 39.67700 30.62300
H  43.66000 39.68100 31.98900
H  43.94700 41.32800 31.67900
H  44.59400 40.12400 30.56300
H  39.56900 41.94400 30.36900
H  40.30100 43.09600 31.51500
H  41.08200 40.70600 32.68800
H  39.57500 40.23000 31.82800
H  43.56200 36.25600 28.62700
H  44.89500 35.60200 27.68300
H  43.11100 35.05500 27.47800
H  44.68400 34.10900 23.86200
H  43.59900 34.16100 25.31300
H  45.25600 34.90000 25.33300
H  41.65700 39.81700 21.04100
H  42.46000 42.45300 20.94100
H  44.66400 39.94900 21.37900
H  44.10400 41.11300 20.17600
H  43.60700 39.36700 20.14300
H  39.72300 42.42100 21.80700
H  39.94300 41.21400 20.52200
H  39.55200 43.93400 20.05300
H  40.06600 42.87800 18.84000
H  41.28700 43.75200 19.73000
H  39.72400 46.98500 25.12900
H  40.35000 46.15100 23.59900
H  41.41600 47.13800 24.53400
H  39.99000 44.37900 29.64500
H  43.17000 46.19200 32.22500
H  42.03200 45.25200 33.16600
H  41.80200 46.95700 32.77400

