158

Mg -2.26600 18.51300 27.16500
C  -2.96300 16.24000 29.88600
C  -3.22100 21.02400 29.25500
C  -1.96500 20.40800 24.45200
C  -2.21300 15.60800 25.07500
N  -3.07600 18.59100 29.34200
C  -3.10000 17.59400 30.26700
C  -3.45000 18.08000 31.62900
C  -3.67900 19.61600 31.38700
C  -3.30900 19.74200 29.90700
C  -5.01800 20.30100 31.70100
C  -2.34600 17.91100 32.68600
C  -2.80600 17.23200 34.01300
H  -1.73300 17.21600 35.15300
N  -2.47600 20.40700 26.90700
C  -2.85700 21.32300 27.87600
C  -2.79100 22.64600 27.20200
C  -2.22800 22.48800 25.89500
C  -2.26800 21.05700 25.67500
C  -3.16700 23.88500 28.03900
C  -1.69700 23.58800 24.98900
O  -1.36300 23.36900 23.80700
C  -1.57600 25.01700 25.49500
N  -2.08200 18.06200 25.07700
C  -1.90900 19.03600 24.18900
C  -1.88100 18.36300 22.79700
C  -1.63600 16.91000 23.07300
C  -2.11000 16.85200 24.44700
C  -3.22400 18.58300 22.07100
C  -0.19800 16.32500 22.91700
C  0.92000 17.20900 23.64500
N  -2.54900 16.38900 27.34300
C  -2.41800 15.37600 26.35200
C  -2.71700 14.07600 27.09100
C  -2.87000 14.38000 28.44400
C  -2.81200 15.75600 28.54600
C  -2.85800 12.80200 26.35600
C  -3.04100 13.80700 29.77900
O  -3.22800 12.66200 30.05300
C  -3.15000 15.02300 30.79000
C  -2.06200 14.87100 31.76200
O  -0.94200 15.37300 31.71500
O  -2.37900 13.97500 32.69600
C  -1.34000 13.68500 33.66800
H  -3.49900 21.87800 29.87600
H  -1.90000 20.93300 23.49700
H  -2.03700 14.66200 24.55900
H  -4.38600 17.55100 31.80200
H  -2.85700 20.15000 31.86300
H  -5.59500 19.69200 32.39700
H  -5.76100 20.30900 30.90300
H  -4.86400 21.28100 32.15400
H  -2.15100 18.91100 33.07200
H  -1.42700 17.53200 32.23900
H  -3.34100 16.29300 33.87500
H  -3.53400 17.91300 34.45200
H  -3.45300 23.63600 29.06100
H  -3.99500 24.35200 27.50500
H  -2.46400 24.69900 28.21300
H  -2.63900 25.23700 25.59500
H  -0.97300 25.58200 24.78500
H  -0.99300 25.03300 26.41600
H  -1.07000 18.79900 22.21400
H  -2.28800 16.28200 22.46600
H  -4.00100 19.02700 22.69400
H  -3.72500 17.67100 21.74800
H  -3.07200 19.33400 21.29500
H  0.16400 16.15700 21.90300
H  -0.23400 15.29400 23.26700
H  0.57700 17.15600 24.67800
H  0.88600 18.25200 23.32900
H  1.94700 16.84500 23.65700
H  -1.93400 12.46400 25.88700
H  -3.58700 12.87000 25.54900
H  -3.21200 12.06900 27.08200
H  -4.16700 14.98900 31.18100
H  -1.73700 12.97900 34.39800
H  -1.12400 14.56300 34.27700
H  -0.44700 13.44800 33.08900
Mg 25.98000 50.08100 26.75900
C  23.97300 51.58700 29.18300
C  28.17800 49.03300 29.14100
C  27.91200 48.77600 24.31900
C  23.95100 51.58900 24.33700
N  26.05400 50.32400 28.97300
C  25.09200 50.91700 29.72600
C  25.38400 50.68200 31.25400
C  26.81000 50.04600 31.21400
C  27.08200 49.80200 29.69700
C  27.89600 50.84700 31.93700
C  24.33100 49.66400 31.80500
C  23.80700 50.07900 33.23900
H  24.75500 50.73100 34.28000
N  27.81800 49.01400 26.72400
C  28.53200 48.73100 27.81500
C  29.63200 47.89100 27.37300
C  29.53500 47.76100 25.98000
C  28.39200 48.50100 25.59300
C  30.74600 47.34900 28.29400
C  30.41300 46.98400 25.00500
O  30.28400 47.09800 23.78400
C  31.35900 46.01800 25.50100
N  25.89100 50.12800 24.67800
C  26.79600 49.55900 23.91500
C  26.53900 49.78200 22.39000
C  25.16300 50.47200 22.42100
C  25.03300 50.79000 23.90700
C  27.75300 50.50500 21.71700
C  24.00000 49.61200 21.76300
C  23.59900 49.97500 20.31900
N  24.26300 51.27300 26.69100
C  23.60500 51.94000 25.67000
C  22.47500 52.66200 26.11400
C  22.59700 52.49300 27.50500
C  23.65500 51.71700 27.77300
C  21.46400 53.39300 25.19700
C  22.05200 52.83600 28.80400
O  21.05000 53.48800 29.11600
C  22.93500 52.24900 29.91600
C  23.32300 53.34300 30.80600
O  24.10700 54.27400 30.54000
O  22.86800 53.04200 32.04900
C  23.19500 54.03500 33.09600
H  28.97400 48.79400 29.85000
H  28.50900 48.44400 23.46700
H  23.42500 52.09700 23.52600
H  25.45900 51.61200 31.81900
H  26.80000 49.07400 31.70800
H  28.04400 50.47400 32.95000
H  27.51700 51.86600 32.01400
H  28.84200 50.71000 31.41200
H  24.67700 48.65300 32.01900
H  23.47800 49.56400 31.13400
H  23.27000 49.25400 33.70700
H  23.00400 50.78500 33.03000
H  30.60000 46.26900 28.29400
H  30.62300 47.66800 29.32900
H  31.74500 47.59100 27.93000
H  32.25300 46.48000 25.92200
H  31.70800 45.42000 24.65900
H  30.98800 45.22500 26.15000
H  26.50000 48.76800 21.99200
H  25.29000 51.39100 21.84800
H  27.61700 51.56300 21.49400
H  27.89500 49.91100 20.81400
H  28.72300 50.50100 22.21400
H  23.16700 49.73400 22.45600
H  24.32200 48.57100 21.74200
H  23.82400 49.16300 19.62700
H  24.28400 50.74300 19.96000
H  22.56000 50.28800 20.21600
H  22.04700 53.93900 24.45600
H  21.03000 54.16500 25.83300
H  20.71000 52.73400 24.76700
H  22.29100 51.54200 30.44100
H  24.25800 54.25000 33.20600
H  22.73400 53.81000 34.05800
H  22.94100 55.06500 32.84500

