158

Mg -0.41900 7.28900 26.30100
C  0.56000 9.29000 29.01600
C  -0.90600 4.72100 28.62900
C  -0.75100 5.22400 23.77500
C  0.38000 9.93600 24.21500
N  -0.08800 7.06100 28.55000
C  0.25700 8.01300 29.53300
C  0.19300 7.46600 31.00900
C  -0.09000 5.92400 30.68200
C  -0.45700 5.90600 29.15600
C  1.02600 4.95300 31.07800
C  -0.80900 8.16600 31.92600
C  -0.42000 8.07400 33.45900
H  0.73700 7.32200 33.99300
N  -0.76100 5.24400 26.19800
C  -1.05500 4.37700 27.25300
C  -1.56600 3.17500 26.72500
C  -1.49300 3.28700 25.29900
C  -1.00800 4.61700 25.01100
C  -1.97700 1.96200 27.66100
C  -1.72800 2.18500 24.27200
O  -1.43200 2.43200 23.11200
C  -2.38500 0.87800 24.63000
N  -0.17400 7.44200 24.30700
C  -0.37300 6.52700 23.37000
C  -0.42200 7.09900 21.95500
C  -0.44000 8.65900 22.24100
C  0.01500 8.71400 23.71000
C  0.79300 6.52500 21.05300
C  -1.87500 9.20500 21.86500
C  -1.88800 10.65800 21.19900
N  0.32200 9.20000 26.48600
C  0.60400 10.16700 25.59900
C  1.09400 11.38100 26.22000
C  1.07900 11.08700 27.53800
C  0.53300 9.75200 27.66800
C  1.48500 12.62400 25.59500
C  1.27400 11.64800 28.84900
O  1.60900 12.81900 29.11200
C  0.90700 10.51300 29.80300
C  2.01300 10.28400 30.81500
O  2.96500 9.59200 30.52600
O  1.69500 10.93600 31.97000
C  2.73900 10.90900 33.01400
H  -1.19300 3.93800 29.33400
H  -1.12200 4.65900 22.91800
H  0.69000 10.78900 23.60700
H  1.19200 7.47200 31.44500
H  -0.99200 5.60200 31.20400
H  0.55600 4.06500 31.50200
H  1.58400 5.42200 31.88900
H  1.65700 4.69300 30.22900
H  -1.74400 7.67000 31.66600
H  -0.94200 9.22900 31.72300
H  -1.34000 7.58800 33.78000
H  -0.44300 9.00600 34.02500
H  -1.97200 2.12500 28.73900
H  -1.40600 1.07100 27.40200
H  -2.97400 1.72000 27.29100
H  -3.39200 1.11600 24.97100
H  -1.83400 0.29000 25.36400
H  -2.45000 0.34000 23.68400
H  -1.35000 6.60500 21.66500
H  0.30600 9.23500 21.69400
H  1.35100 7.35200 20.61500
H  0.46100 5.73300 20.38100
H  1.49600 6.12700 21.78500
H  -2.47300 9.34000 22.76600
H  -2.47500 8.42000 21.40500
H  -2.35900 10.71200 20.21800
H  -0.85900 10.98300 21.04000
H  -2.46300 11.32800 21.83600
H  0.51000 13.09800 25.48500
H  1.87200 12.41300 24.59800
H  2.09300 13.22500 26.27100
H  0.01100 10.76300 30.37100
H  3.27200 9.95900 33.06300
H  2.25800 11.02700 33.98500
H  3.53200 11.57400 32.67400
Mg 30.64100 58.44100 40.63700
C  27.84600 56.56100 39.65500
C  32.64300 55.79700 39.96800
C  33.14400 60.57400 40.60600
C  28.31600 61.24200 41.30200
N  30.29800 56.51200 39.71600
C  29.12800 55.90700 39.46300
C  29.33400 54.46000 39.04500
C  30.74000 54.14300 39.71500
C  31.32000 55.56700 39.78900
C  30.74500 53.34200 41.01000
C  29.20600 54.39700 37.49800
C  28.23600 53.39600 36.83800
H  27.23900 54.08300 35.88400
N  32.63600 58.20900 40.36200
C  33.29100 57.00100 40.15700
C  34.65700 57.25300 40.04100
C  34.83100 58.59200 40.35300
C  33.53500 59.23400 40.38500
C  35.60900 56.17000 39.81200
C  36.19600 59.28700 40.63200
O  37.30200 58.68600 40.53300
C  36.35000 60.77100 41.16200
N  30.62200 60.60800 40.86400
C  31.90300 61.18900 40.79400
C  31.74700 62.68800 41.12100
C  30.22600 62.89800 41.47100
C  29.67900 61.53600 41.18200
C  32.65700 63.22400 42.20500
C  29.46300 63.96700 40.61400
C  29.87300 65.37600 40.81400
N  28.54200 58.86700 40.59500
C  27.74600 60.04600 40.85400
C  26.33700 59.58100 40.62900
C  26.32300 58.34200 40.11700
C  27.70400 57.91300 40.10400
C  25.16800 60.49300 40.86600
C  25.48500 57.20500 39.63200
O  24.31900 57.20900 39.31900
C  26.51600 55.99700 39.41900
C  26.14300 54.90700 40.32500
O  26.63500 54.79700 41.42200
O  25.12000 54.10400 39.84200
C  24.41900 53.18400 40.79300
H  33.26700 54.91900 39.78600
H  33.94500 61.31100 40.51700
H  27.72200 62.02400 41.77800
H  28.49100 53.88900 39.43400
H  31.28900 53.52600 39.00300
H  29.67300 53.21000 41.15700
H  31.19100 53.75600 41.91300
H  31.23300 52.37800 40.86500
H  30.18400 54.12100 37.10300
H  29.16400 55.40400 37.08100
H  27.71900 52.88200 37.64800
H  28.80000 52.64900 36.27900
H  35.61400 55.55600 40.71200
H  36.67100 56.38900 39.69500
H  35.38900 55.49500 38.98500
H  36.36000 61.46800 40.32500
H  37.29000 60.81800 41.71200
H  35.49400 60.94300 41.81400
H  31.99500 63.10000 40.14300
H  30.13500 63.13000 42.53200
H  33.11400 62.39900 42.75100
H  32.22600 63.95400 42.89000
H  33.45800 63.80200 41.74400
H  28.42200 64.06000 40.92400
H  29.30800 63.75300 39.55600
H  30.11800 65.77300 39.82900
H  30.72300 65.56700 41.46900
H  29.03700 65.99900 41.13400
H  24.40500 60.10500 41.54200
H  24.69800 60.47400 39.88300
H  25.40200 61.52900 41.11100
H  26.33800 55.65500 38.40000
H  23.39500 53.53800 40.91700
H  24.67600 53.33900 41.84100
H  24.36600 52.10500 40.64900

