158

Mg 49.49500 46.65700 43.85800
C  46.34700 46.93100 42.50300
C  49.96200 43.67500 42.29400
C  52.95100 46.93000 44.46800
C  49.32700 50.02200 44.82100
N  48.22400 45.44400 42.45200
C  46.96400 45.68200 42.07000
C  46.41700 44.59500 41.11300
C  47.59600 43.48800 41.18000
C  48.68400 44.20800 42.03000
C  47.18000 42.10700 41.74100
C  46.02500 45.21400 39.70200
C  44.68200 44.83500 39.14000
H  44.58100 43.78300 38.06300
N  51.15800 45.46300 43.49500
C  51.14500 44.24200 42.93000
C  52.45900 43.62100 42.90100
C  53.29500 44.49800 43.65000
C  52.49500 45.71100 43.91100
C  52.73400 42.24200 42.42300
C  54.71500 44.20000 43.99800
O  55.23100 43.14100 43.68700
C  55.49300 45.10600 44.85900
N  50.97200 48.33500 44.51700
C  52.30200 48.15500 44.70000
C  52.93500 49.45600 45.34700
C  51.75400 50.42100 45.43100
C  50.61700 49.54100 45.01300
C  53.87600 49.21700 46.56700
C  51.75000 51.89700 44.70900
C  51.79100 53.11400 45.70500
N  48.07800 48.11900 43.91700
C  48.14700 49.43900 44.31300
C  46.84900 50.05200 44.12000
C  46.07500 49.06700 43.49900
C  46.90600 47.96300 43.31800
C  46.43700 51.40100 44.45100
C  44.86400 48.79100 42.79700
O  43.85000 49.37200 42.61500
C  44.97000 47.35300 42.22400
C  44.03700 46.52800 43.01600
O  43.94800 46.57600 44.23500
O  43.23300 45.91000 42.12500
C  42.01100 45.29100 42.65300
H  50.00600 42.76200 41.69700
H  54.04100 46.97500 44.52200
H  49.18300 51.07400 45.08000
H  45.53600 44.10700 41.53100
H  48.05200 43.29000 40.21000
H  47.84900 41.95200 42.58700
H  47.37200 41.24100 41.10800
H  46.14500 41.99100 42.06200
H  46.81500 44.82200 39.06200
H  45.95100 46.30000 39.65300
H  44.09000 45.68000 38.78800
H  44.03800 44.54100 39.96900
H  53.22100 42.38400 41.45800
H  51.81800 41.65200 42.42100
H  53.34300 41.77800 43.19800
H  56.32400 44.47000 45.16500
H  54.83600 45.45800 45.65400
H  55.88100 45.99400 44.36200
H  53.52600 50.01300 44.62000
H  51.68400 50.58900 46.50600
H  54.01900 48.15700 46.77300
H  53.47800 49.73800 47.43800
H  54.86100 49.56500 46.25600
H  50.85000 51.95900 44.09600
H  52.58600 51.94700 44.01100
H  52.38300 53.86800 45.18700
H  52.17600 52.92800 46.70800
H  50.74200 53.38200 45.82700
H  46.71900 51.54400 45.49400
H  45.40200 51.53200 44.13400
H  46.99600 52.11800 43.85100
H  44.80000 47.34300 41.14700
H  42.28700 44.23900 42.73600
H  41.18800 45.46000 41.95900
H  41.71900 45.75100 43.59700
Mg 9.86700 48.61800 25.69600
C  7.94300 48.36100 28.70400
C  12.53900 49.61000 27.75400
C  11.61600 49.10100 22.96300
C  7.07100 47.79700 23.98600
N  10.07600 49.18200 27.92100
C  9.22300 48.91600 28.91600
C  9.80300 49.25800 30.31500
C  11.09100 49.98600 29.84400
C  11.29500 49.56000 28.40400
C  11.17500 51.54400 30.03800
C  10.03500 48.16000 31.41000
C  9.36900 48.28400 32.81100
H  10.03100 49.08200 33.99900
N  11.82000 49.13200 25.35200
C  12.81500 49.45700 26.35100
C  14.03000 49.50300 25.70900
C  13.76900 49.54700 24.30500
C  12.30900 49.29600 24.13500
C  15.35600 49.72900 26.38100
C  14.80900 49.49900 23.08600
O  14.37800 49.48800 21.91600
C  16.29900 49.48400 23.27300
N  9.32900 48.67300 23.71700
C  10.26100 48.83900 22.75800
C  9.64900 48.74200 21.35100
C  8.32600 48.06200 21.72600
C  8.21400 48.10000 23.21600
C  9.49400 50.05400 20.56400
C  8.17400 46.60800 21.08000
C  8.82100 45.46600 21.87800
N  7.80300 48.30300 26.15800
C  6.77600 47.98800 25.32800
C  5.61100 47.65200 26.16000
C  6.03200 47.89200 27.49700
C  7.34800 48.20100 27.44500
C  4.35900 47.08700 25.75800
C  5.61800 47.82000 28.83000
O  4.51300 47.49700 29.27200
C  6.86700 48.04100 29.73100
C  7.04400 46.79100 30.54200
O  7.68400 45.81000 30.12100
O  6.50300 46.96800 31.83400
C  6.51600 45.86800 32.77800
H  13.39300 49.83900 28.39600
H  12.16100 49.23400 22.02600
H  6.27500 47.36400 23.37700
H  9.13100 50.03500 30.67800
H  11.86300 49.64900 30.53600
H  11.52400 51.86000 29.05500
H  12.05200 51.73700 30.65600
H  10.30800 52.08400 30.41900
H  11.10200 48.08200 31.61900
H  9.64400 47.24200 30.96900
H  9.02800 47.29700 33.12400
H  8.49500 48.92800 32.71000
H  16.10200 48.93900 26.28800
H  15.25500 49.91800 27.44900
H  15.75500 50.65400 25.96500
H  16.70800 50.40400 23.69200
H  16.71100 49.45400 22.26400
H  16.47100 48.56900 23.84000
H  10.27000 48.15000 20.67900
H  7.47500 48.51600 21.21900
H  9.89200 50.93400 21.07100
H  8.43100 50.25300 20.43100
H  9.93700 49.92100 19.57700
H  8.54900 46.49300 20.06300
H  7.09500 46.45500 21.09400
H  7.98300 44.96900 22.36600
H  9.50700 45.89600 22.60700
H  9.43100 44.83900 21.22600
H  4.65600 46.21200 25.18000
H  3.85900 47.82500 25.13200
H  3.64200 46.83100 26.53800
H  6.71600 48.90500 30.37800
H  6.29500 44.84400 32.47800
H  5.79700 46.18800 33.53200
H  7.47500 45.81300 33.29400

