158

Mg 47.78700 25.80100 29.18200
C  48.67000 28.06300 31.77400
C  46.53000 23.69700 31.37200
C  47.37100 23.50400 26.63000
C  49.24300 27.89700 26.89500
N  47.70700 25.81800 31.35500
C  47.95500 26.94900 32.24900
C  47.35300 26.69500 33.65000
C  46.85600 25.20300 33.51300
C  46.95900 24.88900 31.96000
C  47.84400 24.23000 34.24600
C  46.13800 27.70300 33.85500
C  46.41300 28.71300 34.93500
H  45.51400 28.82100 36.20400
N  46.94300 23.87700 29.02500
C  46.49500 23.21700 30.05400
C  45.88100 21.99600 29.61200
C  46.31000 21.81000 28.28000
C  46.84500 23.10200 27.86900
C  45.19400 20.98700 30.50600
C  46.23000 20.62100 27.29300
O  46.70000 20.68800 26.14800
C  45.62000 19.27600 27.65600
N  48.30400 25.65800 27.03700
C  48.01300 24.67500 26.23400
C  48.39600 25.02400 24.75100
C  48.95300 26.41100 24.92900
C  48.85600 26.67000 26.38300
C  49.33100 24.06500 23.98600
C  48.19200 27.61200 24.25000
C  48.95600 28.79800 23.62200
N  48.73300 27.61300 29.26000
C  49.35700 28.33300 28.20600
C  49.99600 29.53000 28.70100
C  49.67900 29.48200 30.08400
C  49.01000 28.26700 30.36800
C  50.69600 30.69300 27.96700
C  49.70500 30.20800 31.31700
O  50.15800 31.32500 31.53400
C  49.01300 29.36500 32.42100
C  50.02800 29.17800 33.54000
O  51.00600 28.47900 33.54500
O  49.69400 30.00600 34.59700
C  50.31600 29.75600 35.89700
H  46.14500 23.02700 32.14300
H  47.19200 22.89900 25.73800
H  49.71500 28.62800 26.23600
H  48.13900 26.76400 34.40100
H  45.83400 25.14200 33.88700
H  47.41100 23.88500 35.18500
H  48.80000 24.70800 34.46000
H  48.14100 23.33500 33.69900
H  45.18700 27.25700 34.14700
H  45.91400 28.24100 32.93400
H  46.42800 29.71700 34.51000
H  47.43000 28.57600 35.30300
H  45.95800 20.22400 30.65200
H  44.38400 20.52100 29.94400
H  44.89000 21.33400 31.49300
H  45.65900 19.07200 28.72600
H  46.19200 18.50200 27.14500
H  44.55200 19.32300 27.44100
H  47.44600 25.22700 24.25800
H  50.01000 26.55900 24.70900
H  49.76600 23.43100 24.75800
H  50.09300 24.55400 23.37900
H  48.81100 23.52200 23.19700
H  47.52000 28.07000 24.97500
H  47.55100 27.23000 23.45600
H  48.50000 29.74700 23.90400
H  48.90300 28.82800 22.53400
H  50.00100 28.80300 23.93300
H  51.14300 31.33700 28.72500
H  49.94700 31.25000 27.40400
H  51.44200 30.37000 27.24100
H  48.20400 29.92000 32.89600
H  49.50600 29.47100 36.56900
H  50.77600 30.62600 36.36300
H  50.97200 28.88700 35.94100
Mg 26.82000 51.38000 25.20500
C  24.86900 52.59900 27.85300
C  28.94400 49.97500 27.64500
C  28.75600 50.44700 22.86800
C  24.59200 52.89400 23.06000
N  26.82600 51.22900 27.36300
C  25.91300 51.83500 28.22900
C  26.24700 51.58800 29.65500
C  27.68200 50.95800 29.62400
C  27.84400 50.63500 28.14100
C  28.88300 51.90100 29.99800
C  25.21200 50.60200 30.27100
C  24.66700 51.07500 31.54000
H  25.57200 51.67600 32.64500
N  28.73200 50.31300 25.21000
C  29.46100 49.89500 26.32600
C  30.68400 49.27700 25.84800
C  30.62800 49.45000 24.41300
C  29.30700 50.03800 24.09900
C  31.71100 48.67100 26.76700
C  31.73900 49.07800 23.32400
O  31.64300 49.17200 22.10500
C  33.04500 48.60400 23.86300
N  26.71900 51.73500 23.19000
C  27.67600 51.23400 22.45500
C  27.33900 51.35500 20.93500
C  25.96700 52.11100 21.00600
C  25.70100 52.30800 22.49700
C  28.40300 52.02100 20.07100
C  24.74300 51.31000 20.38400
C  23.91600 52.09200 19.36600
N  25.11600 52.58300 25.37500
C  24.28400 53.08100 24.41800
C  23.16600 53.80700 25.01900
C  23.38400 53.61000 26.39600
C  24.54200 52.87600 26.53300
C  22.14700 54.73200 24.44000
C  22.89200 54.03900 27.70000
O  21.93800 54.76000 27.98900
C  23.81200 53.31300 28.76300
C  24.38800 54.39600 29.63700
O  25.32300 55.07700 29.39700
O  23.59900 54.59100 30.82200
C  23.86400 55.78900 31.68400
H  29.57800 49.52700 28.41300
H  29.05000 49.92700 21.95400
H  23.92500 53.31800 22.30500
H  26.35100 52.53200 30.18900
H  27.78500 50.08800 30.27300
H  28.52000 52.77500 30.54000
H  29.38300 52.23800 29.09000
H  29.58200 51.32700 30.60700
H  25.59300 49.58400 30.34500
H  24.32900 50.41900 29.65900
H  24.16600 50.29400 32.11200
H  23.76000 51.66000 31.38600
H  31.73700 47.59100 26.62100
H  31.45000 48.92400 27.79500
H  32.66000 49.16300 26.55400
H  33.41100 49.50400 24.35700
H  33.75500 48.30800 23.09000
H  33.02800 47.76500 24.55800
H  27.30800 50.34600 20.52500
H  26.17300 53.10400 20.60500
H  27.99400 52.84000 19.47800
H  28.87800 51.31800 19.38800
H  29.15100 52.31300 20.80800
H  24.01900 50.99700 21.13600
H  25.05700 50.43600 19.81300
H  23.98600 51.64500 18.37500
H  24.24800 53.13000 19.35300
H  22.90100 52.24000 19.73600
H  22.24000 54.52600 23.37400
H  22.41500 55.76200 24.67700
H  21.12700 54.50600 24.74900
H  23.23400 52.57800 29.32300
H  24.86600 55.56800 32.05000
H  23.17000 55.86800 32.52100
H  23.92000 56.72600 31.13000

