158

Mg 46.31900 24.56600 28.76800
C  47.49000 26.68300 31.29200
C  45.25000 22.42600 31.27900
C  45.98300 22.16500 26.47500
C  47.99000 26.56800 26.43800
N  46.26600 24.61500 30.93600
C  46.60300 25.71600 31.67800
C  46.02700 25.56400 33.11900
C  45.58300 24.03100 33.24500
C  45.70700 23.63800 31.78900
C  46.56600 23.18400 34.12800
C  44.92000 26.62700 33.42000
C  45.01500 27.38300 34.80800
H  45.82300 26.81200 36.02800
N  45.61400 22.57800 28.85300
C  45.16400 21.92000 30.00000
C  44.51800 20.69400 29.59500
C  44.71200 20.59700 28.12700
C  45.47800 21.84000 27.75000
C  43.72600 19.81000 30.65600
C  44.30700 19.52700 27.16000
O  44.52200 19.68000 25.90700
C  43.52900 18.25300 27.53900
N  46.95500 24.41100 26.78800
C  46.53700 23.32700 26.01900
C  46.89200 23.49800 24.58700
C  47.59700 24.93600 24.55300
C  47.46000 25.38600 25.96000
C  47.66300 22.37800 23.96400
C  46.70800 25.92400 23.69200
C  47.44900 26.85800 22.68000
N  47.44900 26.35900 28.81900
C  47.97500 27.04500 27.73400
C  48.55900 28.34300 28.25700
C  48.39800 28.27100 29.66400
C  47.74500 27.02200 29.92200
C  49.29400 29.35700 27.41600
C  48.59500 28.89800 30.97800
O  49.19100 29.96100 31.38400
C  47.99800 27.93400 32.05500
C  49.06600 27.72000 33.02800
O  50.01500 27.01300 32.82900
O  48.79500 28.42600 34.18200
C  49.89200 28.69100 35.07000
H  44.92700 21.68000 32.00900
H  45.88800 21.36800 25.73400
H  48.38700 27.18800 25.63100
H  46.78300 25.85400 33.84900
H  44.57000 23.97400 33.64300
H  47.07900 23.81800 34.85100
H  47.39000 22.66100 33.64300
H  45.96900 22.52100 34.75300
H  43.92400 26.18500 33.38900
H  44.95600 27.40400 32.65700
H  44.01800 27.40200 35.24900
H  45.37500 28.37900 34.55200
H  42.69100 19.69100 30.33600
H  43.65700 20.21600 31.66500
H  44.08400 18.80000 30.85800
H  43.16900 18.24400 28.56800
H  44.09800 17.33900 27.36800
H  42.62000 18.22200 26.93800
H  45.94800 23.52200 24.04200
H  48.62600 24.88500 24.19700
H  47.71400 21.51200 24.62400
H  48.67600 22.69100 23.71200
H  47.22800 22.19600 22.98100
H  46.23100 26.63700 24.36500
H  46.00300 25.28700 23.15700
H  48.21900 26.29100 22.15700
H  47.98900 27.67500 23.15800
H  46.64800 27.24600 22.05100
H  49.45000 30.20100 28.08800
H  48.57300 29.61900 26.64200
H  50.18000 28.80600 27.10300
H  47.25300 28.58200 32.51700
H  50.79200 28.11300 34.85600
H  49.59600 28.54500 36.10900
H  50.10200 29.75200 34.93700
Mg 1.01900 43.03600 26.42600
C  3.41800 43.08600 28.90800
C  -1.31700 41.95400 28.73000
C  -0.98800 42.39000 23.93700
C  3.72100 43.46100 24.11000
N  1.03600 42.62500 28.52400
C  2.10500 42.87900 29.42500
C  1.63400 42.88700 30.88600
C  0.15200 42.26700 30.77200
C  -0.05700 42.32100 29.24400
C  -0.16400 40.88800 31.42900
C  1.65900 44.35700 31.50800
C  1.70400 44.41600 33.03900
H  1.33800 43.10600 33.76700
N  -0.89800 42.34800 26.38400
C  -1.67800 41.97600 27.39400
C  -3.00500 41.74900 26.87900
C  -2.94200 41.77900 25.41600
C  -1.55600 42.16900 25.20000
C  -4.16800 41.52300 27.88600
C  -4.01200 41.47500 24.44700
O  -3.80800 41.42500 23.22800
C  -5.39400 41.25500 24.88400
N  1.36900 43.00100 24.30600
C  0.30400 42.68500 23.54800
C  0.72200 42.84900 21.98400
C  2.13200 43.45900 22.02200
C  2.49000 43.29600 23.52600
C  0.60000 41.55900 21.15300
C  2.29700 44.88200 21.53800
C  1.56800 45.97000 22.39300
N  3.12100 43.20100 26.40700
C  4.03000 43.45000 25.45600
C  5.34900 43.57900 26.06500
C  5.13900 43.33700 27.45000
C  3.72800 43.25700 27.59600
C  6.63500 43.84200 25.40200
C  5.77500 43.21000 28.66300
O  6.95600 43.19700 29.05300
C  4.65800 43.11400 29.74500
C  4.94800 41.88000 30.60100
O  5.11700 40.70000 30.24000
O  4.96200 42.28400 31.91400
C  5.10400 41.27600 32.97100
H  -1.96700 41.62100 29.54200
H  -1.64300 42.21900 23.08100
H  4.51300 43.87800 23.48400
H  2.19800 42.17000 31.48100
H  -0.55700 42.98100 31.19000
H  0.66000 40.39700 31.94700
H  -0.45100 40.17200 30.66000
H  -0.99400 40.98500 32.13000
H  0.73000 44.80400 31.15400
H  2.47300 44.92700 31.06000
H  0.96800 45.08300 33.48800
H  2.71300 44.76800 33.25700
H  -4.82800 42.37800 27.73900
H  -3.83500 41.70500 28.90800
H  -4.78900 40.63100 27.80700
H  -6.08100 41.05100 24.06200
H  -5.72500 42.06000 25.54000
H  -5.23400 40.36700 25.49600
H  0.06000 43.58700 21.53000
H  2.75600 42.78400 21.43700
H  1.50200 40.95000 21.20800
H  0.25600 41.78100 20.14300
H  -0.29100 41.08500 21.56600
H  1.83300 44.94900 20.55400
H  3.37800 45.02400 21.54300
H  0.70200 45.62700 22.96000
H  1.20400 46.73500 21.70700
H  2.30400 46.41800 23.06100
H  7.41300 44.30400 26.01100
H  6.34700 44.67100 24.75600
H  7.11200 43.03400 24.84800
H  4.59500 43.97600 30.40900
H  4.75900 40.29800 32.63500
H  4.50800 41.71300 33.77200
H  6.11600 41.20400 33.36900

