158

Mg 41.19500 6.74900 29.37300
C  42.68700 8.50300 32.25100
C  38.63300 5.87700 31.44400
C  39.86700 5.25500 26.84500
C  43.83600 7.91600 27.48900
N  40.77400 7.14000 31.52800
C  41.48900 7.86600 32.54300
C  40.73900 7.87700 33.89900
C  39.54800 6.93800 33.65900
C  39.65800 6.61000 32.09600
C  39.38500 5.72600 34.60700
C  40.27600 9.31200 34.39800
C  39.95500 9.35800 35.92800
H  40.62900 10.33100 36.80100
N  39.50400 5.61800 29.13000
C  38.55000 5.44500 30.06300
C  37.46200 4.73200 29.47100
C  37.83500 4.56000 28.07900
C  39.10400 5.12100 27.95500
C  36.27000 4.19100 30.20200
C  37.05200 3.92500 26.88400
O  37.57100 3.63000 25.81500
C  35.65300 3.54400 27.00000
N  41.78600 6.60000 27.44800
C  41.07400 5.82800 26.62400
C  41.72600 5.94500 25.17800
C  42.96300 6.88000 25.29000
C  42.85000 7.15400 26.83500
C  41.95800 4.60000 24.40900
C  42.81100 8.14700 24.34700
C  42.19800 9.42400 24.88200
N  42.86000 7.99900 29.68400
C  43.88300 8.39200 28.85000
C  44.93700 9.17600 29.47400
C  44.50000 9.29700 30.84900
C  43.22300 8.58300 30.91800
C  46.22500 9.69400 28.78300
C  44.81000 9.79500 32.07900
O  45.77000 10.45100 32.43400
C  43.73000 9.27000 33.09200
C  44.22800 8.32200 34.13800
O  44.91900 7.36500 33.93000
O  43.76000 8.68500 35.36700
C  44.10300 7.73200 36.44400
H  37.68900 5.86800 31.99300
H  39.60000 4.74300 25.91900
H  44.56800 8.27700 26.76400
H  41.25000 7.46600 34.77000
H  38.69000 7.57000 33.89000
H  40.18000 5.69600 35.35200
H  39.37700 4.81700 34.00600
H  38.45000 5.70600 35.16800
H  39.39800 9.59600 33.81700
H  41.09200 9.99200 34.15600
H  40.05600 8.34600 36.32100
H  38.94200 9.75800 35.97200
H  36.54900 3.93300 31.22400
H  35.94300 3.21400 29.84700
H  35.42600 4.87800 30.15300
H  34.99900 4.39500 27.19000
H  35.48200 2.68800 27.65400
H  35.38900 3.11400 26.03400
H  40.86600 6.40800 24.69300
H  43.90500 6.35700 25.12600
H  41.97500 3.72600 25.05900
H  42.91100 4.62500 23.88100
H  41.18300 4.39000 23.67100
H  42.13400 7.81000 23.56300
H  43.80600 8.37000 23.96100
H  42.90500 10.21900 24.64200
H  41.96200 9.37300 25.94400
H  41.30900 9.68100 24.30600
H  47.12500 9.26900 29.22900
H  46.13100 10.76000 28.99100
H  46.10500 9.39400 27.74200
H  43.18400 10.04600 33.62900
H  43.32700 6.96900 36.40400
H  44.10500 8.18500 37.43600
H  45.03200 7.16800 36.36300
Mg -10.41300 15.96800 42.80400
C  -7.01200 16.91800 43.02900
C  -11.14800 19.30500 42.32500
C  -13.59900 15.06100 42.16100
C  -9.30900 12.60900 42.47300
N  -9.17700 17.86600 42.61100
C  -7.85900 18.01500 42.78900
C  -7.47100 19.53400 42.56400
C  -8.79100 20.27400 42.42900
C  -9.79800 19.10500 42.49600
C  -9.11800 21.45100 43.49300
C  -6.53200 19.55600 41.28600
C  -5.46100 20.62500 41.26400
H  -5.31200 21.34000 39.96200
N  -12.14100 17.03300 42.27600
C  -12.20600 18.40400 42.12400
C  -13.55500 18.72000 41.77000
C  -14.30200 17.48000 41.58800
C  -13.37300 16.44600 42.01400
C  -13.99500 20.14500 41.37200
C  -15.65800 17.35200 41.09000
O  -16.29900 18.36500 40.89000
C  -16.35000 16.01200 40.84000
N  -11.33400 14.09700 42.31100
C  -12.67000 14.02300 42.37000
C  -13.16900 12.55500 42.43800
C  -11.73800 11.79300 42.30400
C  -10.65600 12.86100 42.37300
C  -13.89300 12.20800 43.78600
C  -11.65500 10.69700 41.23300
C  -11.07800 11.16800 39.81900
N  -8.60200 14.90800 42.93300
C  -8.32900 13.57100 42.73900
C  -6.91200 13.36700 42.83000
C  -6.38900 14.64700 43.00700
C  -7.43300 15.58200 43.01900
C  -6.19300 12.06300 42.70200
C  -5.11600 15.32900 43.18800
O  -3.97300 14.85300 43.22100
C  -5.50000 16.89500 43.19200
C  -5.19100 17.39300 44.54700
O  -5.53800 16.86800 45.62800
O  -4.56300 18.61600 44.48300
C  -4.30600 19.47400 45.67200
H  -11.39900 20.36800 42.32500
H  -14.57700 14.59800 42.01300
H  -8.91500 11.59100 42.52000
H  -6.94800 19.99500 43.40200
H  -8.83100 20.72000 41.43500
H  -8.25400 22.07700 43.71700
H  -9.38200 20.95700 44.42800
H  -9.92200 22.03900 43.05300
H  -7.18000 19.65600 40.41500
H  -6.07500 18.58200 41.11200
H  -4.50900 20.12200 41.44000
H  -5.78200 21.42200 41.93500
H  -14.08800 20.14700 40.28600
H  -13.31600 20.89400 41.77900
H  -14.93600 20.20900 41.91900
H  -15.74700 15.30500 40.26900
H  -17.28000 16.11300 40.28000
H  -16.70100 15.61900 41.79400
H  -13.86400 12.41900 41.61000
H  -11.44500 11.17900 43.15600
H  -14.86500 11.89400 43.40500
H  -14.09500 13.06900 44.42300
H  -13.51900 11.31300 44.28500
H  -12.68700 10.39200 41.06200
H  -11.12300 9.80400 41.56000
H  -10.30600 11.93700 39.83600
H  -11.90600 11.43900 39.16400
H  -10.61800 10.27300 39.40100
H  -6.11700 11.56000 43.66600
H  -5.15300 12.21500 42.41400
H  -6.68700 11.25900 42.15700
H  -4.88800 17.51200 42.53400
H  -4.38600 20.54900 45.51300
H  -3.41000 19.12600 46.18600
H  -5.13500 19.29700 46.35700

