158

Mg 35.57600 1.87800 29.21400
C  33.39800 3.06000 31.68300
C  38.09500 2.04400 31.40200
C  37.45400 1.11800 26.64700
C  32.72800 1.92700 27.00400
N  35.77700 2.72900 31.30700
C  34.67200 2.89400 32.14800
C  35.15200 2.86200 33.62800
C  36.74200 2.80600 33.44700
C  36.92200 2.48000 31.98500
C  37.38400 4.13500 33.83600
C  34.39100 1.68300 34.40500
C  33.93300 1.94800 35.87700
H  34.39700 3.27800 36.52300
N  37.50000 1.59100 29.06800
C  38.44800 1.67800 30.09800
C  39.69400 1.17100 29.57200
C  39.54900 1.02200 28.16900
C  38.10700 1.24200 27.88300
C  40.87500 0.89700 30.48500
C  40.57000 0.62700 27.16100
O  40.31400 0.49900 25.96600
C  42.01100 0.46100 27.54600
N  35.09100 1.50200 27.07800
C  36.08500 1.15200 26.24400
C  35.59600 0.94800 24.77000
C  34.06200 0.95800 25.04000
C  33.91200 1.44400 26.44300
C  36.07600 2.01600 23.80000
C  33.32300 -0.41400 24.85100
C  32.73700 -0.61100 23.48800
N  33.51300 2.48700 29.25000
C  32.52800 2.48400 28.31400
C  31.21900 2.96500 28.84700
C  31.56700 3.20800 30.17000
C  32.95200 2.94300 30.36300
C  29.84600 3.14500 28.17100
C  30.96700 3.59900 31.40100
O  29.87100 3.98800 31.80300
C  32.12200 3.44100 32.45300
C  32.23400 4.75700 33.20800
O  32.80000 5.75400 32.75800
O  31.60800 4.64200 34.37600
C  31.32400 5.92900 35.15000
H  38.95400 1.92200 32.06500
H  38.12100 0.86200 25.82100
H  31.83100 1.93900 26.38100
H  34.86600 3.78700 34.13000
H  37.22700 2.08100 34.10100
H  38.13000 4.01100 34.62100
H  36.74600 4.96600 34.13600
H  37.99700 4.55600 33.04000
H  35.09300 0.85300 34.48200
H  33.50200 1.38300 33.85000
H  34.13300 1.10400 36.53700
H  32.84800 1.96800 35.78100
H  41.31000 -0.07500 30.25500
H  40.69300 0.79400 31.55500
H  41.55500 1.72900 30.30300
H  42.67500 0.31000 26.69400
H  42.12500 -0.31800 28.30000
H  42.43200 1.34000 28.03300
H  35.94800 -0.05100 24.51300
H  33.56200 1.68400 24.39900
H  35.22500 2.42100 23.25300
H  36.87900 1.57000 23.21200
H  36.39300 2.84700 24.43000
H  32.57000 -0.62500 25.61000
H  34.06400 -1.20900 24.93700
H  31.65900 -0.48700 23.58200
H  32.95600 -1.63300 23.17900
H  33.09200 0.05600 22.70200
H  29.61700 4.20000 28.02000
H  29.23100 2.65300 28.92400
H  29.79400 2.64500 27.20400
H  31.77300 2.64100 33.10600
H  30.48300 6.47200 34.71900
H  32.08500 6.69900 35.27800
H  31.11400 5.50700 36.13300
Mg -1.58000 34.43500 26.59400
C  -3.53000 32.76600 29.11000
C  -0.27600 36.33900 29.12300
C  -0.58400 36.76300 24.37400
C  -3.46900 32.90200 24.17500
N  -1.98500 34.54800 28.85600
C  -2.61300 33.64300 29.66600
C  -2.40000 33.90800 31.10300
C  -1.55100 35.22400 31.15900
C  -1.22000 35.40300 29.58400
C  -2.24500 36.49600 31.68100
C  -1.66600 32.66000 31.71400
C  -2.13300 32.27800 33.15400
H  -1.04600 32.38300 34.29300
N  -0.39300 36.24400 26.73800
C  0.04100 36.81200 27.86500
C  0.78600 37.99600 27.46700
C  0.60200 38.24800 26.09100
C  -0.20700 37.08500 25.68200
C  1.70400 38.74900 28.47900
C  1.13800 39.29800 25.19600
O  0.75000 39.43900 24.06000
C  2.13800 40.38500 25.65400
N  -2.01100 34.76400 24.56100
C  -1.41600 35.74900 23.87200
C  -1.67200 35.61600 22.27900
C  -2.51700 34.30100 22.17600
C  -2.67700 33.89000 23.68200
C  -2.34200 36.78000 21.46100
C  -1.84000 33.30200 21.29600
C  -0.87800 32.13000 21.75500
N  -3.15000 33.09300 26.63000
C  -3.73000 32.53900 25.48600
C  -4.67500 31.54500 25.91100
C  -4.60800 31.55200 27.36100
C  -3.66300 32.55400 27.68100
C  -5.71400 30.86800 25.13600
C  -5.12200 30.96300 28.57500
O  -5.91900 30.08900 28.73800
C  -4.40800 31.70500 29.77700
C  -5.44200 32.35500 30.53300
O  -6.08900 33.34300 30.22100
O  -5.50400 31.73600 31.77600
C  -6.61300 32.07100 32.70300
H  0.11100 36.94600 29.94400
H  -0.38600 37.49700 23.59100
H  -4.01900 32.33000 23.42600
H  -3.38500 33.99800 31.56000
H  -0.71100 34.95600 31.80000
H  -1.70300 36.87800 32.54600
H  -3.26800 36.24400 31.96100
H  -2.21800 37.31400 30.96100
H  -0.59700 32.83500 31.83200
H  -1.68400 31.77000 31.08400
H  -2.40400 31.22600 33.07200
H  -2.95300 32.96200 33.37300
H  1.75600 38.32700 29.48200
H  1.36500 39.76800 28.66000
H  2.69500 38.83200 28.03200
H  3.07600 39.98600 26.03900
H  1.70400 41.04100 26.40900
H  2.31100 41.05800 24.81400
H  -0.63100 35.50700 21.97400
H  -3.53500 34.45700 21.82200
H  -1.76800 36.97500 20.55500
H  -2.24800 37.72100 22.00400
H  -3.37500 36.61000 21.15700
H  -1.28300 33.95500 20.62400
H  -2.56600 32.84400 20.62500
H  -0.98700 31.26500 21.10100
H  -1.13300 31.87300 22.78400
H  0.18200 32.36700 21.67500
H  -5.22800 30.19900 24.42600
H  -6.36000 31.54700 24.57800
H  -6.42000 30.36500 25.79700
H  -3.89500 30.94500 30.36500
H  -7.51300 32.32700 32.14300
H  -6.21600 32.72800 33.47600
H  -6.77800 31.16300 33.28300

