158

Mg 42.49700 42.04200 26.40000
C  41.42500 44.22200 28.95200
C  43.47000 39.69700 28.80500
C  43.75800 40.08900 23.88300
C  41.37500 44.42700 24.11500
N  42.67000 42.12500 28.71200
C  42.03400 43.04800 29.53000
C  42.10000 42.52400 31.01600
C  42.82500 41.15300 30.92800
C  43.01800 40.95200 29.37300
C  44.03600 41.02000 31.86400
C  40.69300 42.42100 31.64000
C  40.65100 41.79600 33.08600
H  39.95500 42.38100 34.41100
N  43.54100 40.21700 26.43300
C  43.76400 39.36200 27.46200
C  44.46200 38.21000 27.03000
C  44.47300 38.21000 25.64400
C  43.93400 39.51900 25.20100
C  45.00500 37.24900 28.01100
C  44.96500 37.16400 24.61600
O  44.92400 37.41000 23.44200
C  45.58000 35.95900 25.19200
N  42.65700 42.22800 24.36200
C  43.04600 41.23800 23.50100
C  42.86700 41.74400 22.07400
C  41.87600 42.83500 22.23900
C  41.92800 43.21300 23.69400
C  44.18100 42.04300 21.42000
C  40.42700 42.64700 21.54000
C  39.63100 41.43300 22.11600
N  41.54800 43.99400 26.44300
C  41.20800 44.87000 25.43100
C  40.59500 46.04400 26.01900
C  40.60800 45.82600 27.42400
C  41.17500 44.51500 27.61900
C  40.02000 47.21900 25.23300
C  40.26900 46.36600 28.71500
O  39.81200 47.47600 29.02400
C  40.65300 45.32200 29.78300
C  41.42500 45.99800 30.85100
O  42.61300 46.30300 30.83100
O  40.50900 46.30400 31.88900
C  40.98900 46.91300 33.10400
H  43.76200 38.95500 29.55100
H  44.15100 39.52400 23.03500
H  40.79700 44.93500 23.34100
H  42.67200 43.30800 31.51400
H  42.11300 40.36500 31.17100
H  44.92800 41.13800 31.25000
H  44.06800 40.09600 32.44100
H  44.16300 41.85500 32.55400
H  39.93200 41.94500 31.02100
H  40.40200 43.47000 31.70200
H  41.70200 41.74300 33.37000
H  40.32700 40.76000 32.98400
H  44.43700 36.32400 27.90400
H  44.96300 37.49000 29.07300
H  46.04800 37.17300 27.70300
H  46.57500 35.99300 25.63700
H  45.79100 35.27900 24.36700
H  44.86700 35.39600 25.79500
H  42.42700 40.95500 21.46500
H  42.34000 43.68800 21.74300
H  45.03400 42.26500 22.06100
H  44.11700 42.90300 20.75500
H  44.48300 41.26700 20.71600
H  40.67900 42.42000 20.50400
H  39.78000 43.51400 21.67300
H  38.57700 41.70100 22.04300
H  39.83300 41.23400 23.16800
H  39.88900 40.52600 21.57000
H  39.17100 47.64400 25.76900
H  39.72700 46.87800 24.24000
H  40.88300 47.88000 25.15800
H  39.61300 45.07600 29.99600
H  41.35800 46.21000 33.85100
H  40.22100 47.56000 33.52600
H  41.80300 47.61700 32.93100
Mg 5.46900 53.74700 40.83800
C  4.96700 50.21800 40.42300
C  8.73500 53.38300 40.14600
C  5.55800 57.05400 40.45900
C  2.06100 53.96000 41.77400
N  6.64900 51.96100 40.30700
C  6.32900 50.64600 40.32900
C  7.57000 49.78700 40.13100
C  8.75400 50.85600 40.39100
C  7.96600 52.14000 40.30500
C  9.57900 50.75700 41.70600
C  7.72300 49.07600 38.72100
C  7.58200 49.99800 37.55600
H  6.56100 49.57300 36.45700
N  6.95600 55.07400 40.36000
C  8.26800 54.73100 40.13000
C  9.07700 55.87800 39.79400
C  8.13700 56.98900 39.87800
C  6.80200 56.44600 40.13500
C  10.57700 55.84500 39.47300
C  8.52700 58.51400 39.70100
O  9.68700 58.85200 39.59600
C  7.53200 59.65500 39.66300
N  3.98400 55.28300 40.93900
C  4.31300 56.57300 40.79500
C  3.11800 57.45500 41.15600
C  1.96600 56.43300 41.29400
C  2.72300 55.14700 41.42600
C  3.30700 58.38000 42.28000
C  0.81400 56.57600 40.25200
C  -0.48400 57.12600 40.85500
N  3.76000 52.42800 41.05800
C  2.52000 52.64300 41.50300
C  1.79300 51.35200 41.65900
C  2.65300 50.35100 41.18400
C  3.87100 51.07900 40.89600
C  0.47500 51.09500 42.45100
C  2.88000 48.94300 41.01000
O  2.08800 48.00800 41.16000
C  4.42100 48.79300 40.52700
C  4.45000 48.13500 39.21600
O  3.99600 48.66000 38.21900
O  5.02300 46.88900 39.30100
C  5.16200 46.13100 38.04000
H  9.82100 53.27500 40.15100
H  5.34700 58.09400 40.20500
H  1.00400 54.09000 42.01700
H  7.65100 48.99600 40.87700
H  9.52000 50.87200 39.61500
H  9.52900 49.69200 41.93500
H  9.20700 51.35400 42.53900
H  10.63300 50.98400 41.54800
H  6.94200 48.32000 38.64300
H  8.73400 48.67100 38.76200
H  8.49200 49.78000 36.99600
H  7.55100 51.06200 37.79000
H  10.92300 54.82200 39.32600
H  11.10800 56.28100 40.32000
H  10.87500 56.22600 38.49600
H  7.23900 59.76700 40.70700
H  6.67600 59.32600 39.07500
H  7.85600 60.60300 39.23200
H  2.96000 57.99600 40.22300
H  1.49400 56.46600 42.27600
H  4.28700 58.37900 42.75700
H  2.63100 58.19200 43.11400
H  3.08300 59.39800 41.96100
H  0.68800 55.68500 39.63800
H  1.14400 57.28600 39.49400
H  -0.53800 57.46200 41.89000
H  -1.14600 56.30000 40.59500
H  -0.79900 58.03100 40.33500
H  0.54900 50.78300 43.49300
H  -0.13700 50.27400 42.07700
H  -0.07300 52.03500 42.51900
H  4.81700 48.22000 41.36600
H  4.27800 45.50600 37.92200
H  6.00700 45.44400 38.07300
H  5.23900 46.78700 37.17200

