158

Mg 16.83400 -1.97400 27.42700
C  16.13000 0.36500 30.05600
C  18.83000 -3.71800 29.63500
C  18.14000 -3.69500 24.78200
C  15.44600 0.40600 25.25000
N  17.48800 -1.63400 29.63800
C  16.90200 -0.75100 30.54200
C  17.28100 -1.16300 31.94900
C  18.17800 -2.43600 31.79900
C  18.17900 -2.61500 30.28600
C  19.53500 -2.53500 32.57800
C  15.98800 -1.49900 32.72400
C  15.93700 -1.32300 34.27800
H  17.24900 -0.76500 34.91000
N  17.99800 -3.61700 27.26600
C  18.71900 -4.22600 28.27500
C  19.33700 -5.49500 27.87200
C  19.08900 -5.49100 26.40300
C  18.38000 -4.19800 26.08800
C  20.06900 -6.56200 28.79700
C  19.51700 -6.60800 25.42000
O  19.21500 -6.55000 24.22400
C  20.15100 -7.79700 25.91500
N  16.80200 -1.66800 25.35200
C  17.42100 -2.51700 24.45500
C  17.28600 -2.09000 22.90600
C  16.48900 -0.75400 23.15600
C  16.16100 -0.64100 24.67300
C  18.68800 -1.85900 22.16100
C  15.18500 -0.45600 22.30900
C  13.97800 -1.33300 22.66000
N  15.91000 0.00200 27.55200
C  15.36200 0.78500 26.56700
C  14.75900 1.96800 27.15700
C  15.03600 1.86100 28.53400
C  15.75500 0.63000 28.74700
C  14.03600 3.06500 26.46900
C  14.90600 2.43200 29.86200
O  14.47200 3.54100 30.17600
C  15.51700 1.46800 30.86100
C  16.47300 2.14400 31.87200
O  17.67400 2.38000 31.72000
O  15.78700 2.57500 32.97400
C  16.46300 3.49100 33.86200
H  19.32400 -4.29500 30.42000
H  18.56400 -4.25500 23.94600
H  15.05400 1.17100 24.57700
H  17.87700 -0.32100 32.30000
H  17.70500 -3.26800 32.32100
H  19.50500 -3.08500 33.51900
H  19.72800 -1.50800 32.88600
H  20.34200 -2.92800 31.95900
H  15.72900 -2.55300 32.62800
H  15.16000 -0.95400 32.27000
H  15.78900 -2.28700 34.76400
H  15.13900 -0.66600 34.62400
H  19.64100 -7.56500 28.79600
H  20.03000 -6.31000 29.85700
H  21.12000 -6.56100 28.50900
H  21.17600 -7.65800 26.25900
H  20.43200 -8.44200 25.08300
H  19.45100 -8.29800 26.58400
H  16.59400 -2.69000 22.31600
H  17.14200 0.07600 22.88700
H  19.05800 -0.83500 22.11000
H  18.71400 -2.19300 21.12400
H  19.51000 -2.40500 22.62500
H  15.35200 -0.46700 21.23200
H  14.95600 0.58000 22.55900
H  13.23000 -0.66700 23.09100
H  14.09800 -2.13700 23.38500
H  13.60200 -1.66100 21.69100
H  13.71700 2.70400 25.49200
H  14.71000 3.91300 26.35000
H  13.16300 3.25400 27.09500
H  14.68800 1.03100 31.41700
H  16.84900 4.29900 33.24100
H  17.30200 3.03500 34.38800
H  15.71200 3.94100 34.51200
Mg 6.86300 53.90400 41.73800
C  6.24500 50.39400 41.65800
C  10.06000 53.33600 41.12800
C  7.16800 57.25500 41.29500
C  3.43900 54.37700 42.54200
N  7.89600 52.06500 41.31800
C  7.57400 50.78500 41.49500
C  8.79600 49.87600 41.33400
C  9.99300 50.83400 41.53000
C  9.27800 52.20400 41.38100
C  10.79500 50.72600 42.81100
C  8.87000 49.13100 39.96900
C  8.75200 49.96200 38.70700
H  7.36200 49.96800 38.12000
N  8.34900 55.06500 41.03600
C  9.64000 54.67400 40.96000
C  10.46800 55.80000 40.58300
C  9.69400 56.97600 40.76200
C  8.31000 56.47700 40.94600
C  11.93400 55.63800 40.14400
C  10.22700 58.42500 40.59300
O  11.39300 58.57000 40.34900
C  9.49700 59.69600 40.83400
N  5.36900 55.62700 41.66200
C  5.89900 56.87200 41.77000
C  4.83000 57.82200 42.32200
C  3.49900 56.95900 42.44100
C  4.12200 55.55100 42.30200
C  5.21500 58.62000 43.60600
C  2.46200 57.34400 41.32300
C  1.19200 56.49200 41.31200
N  5.20200 52.72000 42.00200
C  3.89100 53.03900 42.35100
C  3.11500 51.84100 42.57400
C  4.00700 50.71800 42.30600
C  5.20700 51.35500 41.97300
C  1.66500 51.67600 42.88400
C  4.14300 49.29300 42.35800
O  3.35400 48.39300 42.69300
C  5.57500 49.01400 41.80900
C  5.29900 48.35400 40.45000
O  4.59500 48.83800 39.49900
O  5.83700 47.06100 40.50200
C  5.52600 46.20100 39.40300
H  11.13000 53.11800 41.10000
H  7.25900 58.34000 41.37800
H  2.45500 54.43300 43.01500
H  8.85200 49.24200 42.22000
H  10.58500 50.68100 40.62800
H  11.75900 50.22200 42.74700
H  10.37300 50.16800 43.64600
H  10.98000 51.74500 43.15100
H  8.07300 48.38800 39.97700
H  9.73300 48.46700 39.89900
H  9.49600 49.57600 38.01000
H  9.03700 50.99900 38.88100
H  12.31400 54.62600 40.00400
H  12.51200 56.38700 40.68500
H  11.91100 56.11200 39.16300
H  8.86100 59.91200 39.97600
H  10.25100 60.47700 40.93500
H  8.98900 59.66300 41.79800
H  4.54900 58.48300 41.50200
H  2.98500 57.00200 43.40200
H  4.89200 58.18500 44.55100
H  4.87800 59.65300 43.68400
H  6.30200 58.56700 43.66400
H  2.87500 57.39700 40.31600
H  2.22800 58.39200 41.51100
H  1.47200 55.68900 40.63000
H  0.45200 57.10700 40.79900
H  0.76900 56.13700 42.25100
H  1.35400 50.80800 42.30300
H  1.28400 52.68900 42.75600
H  1.66500 51.35500 43.92600
H  5.94300 48.31300 42.55800
H  4.45900 45.99200 39.49200
H  6.07300 45.26400 39.50900
H  5.80700 46.75200 38.50500

