158

Mg 44.83400 2.31000 46.89400
C  42.69500 5.07200 46.87300
C  42.06300 0.33800 46.66600
C  46.89900 -0.26500 46.60900
C  47.63500 4.60000 46.66900
N  42.53700 2.78100 46.47900
C  41.95500 3.92600 46.74000
C  40.40300 3.72600 46.87000
C  40.27000 2.17200 47.00800
C  41.71500 1.66800 46.65600
C  39.82300 1.65800 48.37800
C  39.46100 4.33200 45.71100
C  39.68300 3.72200 44.33400
H  40.42200 4.74800 43.50000
N  44.48800 0.28400 46.58000
C  43.29100 -0.34900 46.54200
C  43.51800 -1.76100 46.44600
C  44.88300 -1.96100 46.61000
C  45.50000 -0.60300 46.59900
C  42.44200 -2.80800 46.49600
C  45.61100 -3.27200 46.82700
O  45.01200 -4.35800 46.99400
C  47.09100 -3.49000 47.12000
N  46.97500 2.19600 46.72200
C  47.59100 0.96000 46.67900
C  49.09200 1.06300 46.73500
C  49.40500 2.56300 46.41300
C  47.94500 3.22100 46.64400
C  49.60500 0.45800 48.07900
C  49.89000 2.83200 44.99300
C  51.44900 3.16000 44.82600
N  45.18800 4.46400 46.77300
C  46.35600 5.20500 46.78700
C  45.98000 6.61500 46.83900
C  44.62100 6.63700 46.91900
C  44.12500 5.26300 46.88500
C  46.99000 7.78700 47.02700
C  43.39400 7.47300 46.99400
O  43.28900 8.70600 46.99600
C  42.18200 6.51000 46.88800
C  41.33400 6.81900 48.07300
O  41.29300 6.13400 49.08100
O  40.43700 7.82300 47.78100
C  39.68800 8.16500 48.99800
H  41.10600 -0.18700 46.68100
H  47.64300 -1.05500 46.48400
H  48.52600 5.23200 46.65700
H  39.91700 4.05500 47.78900
H  39.63200 1.77500 46.21800
H  40.70000 1.29000 48.91100
H  39.13700 0.81700 48.27800
H  39.40400 2.34000 49.11800
H  39.70800 5.39000 45.61300
H  38.44000 4.29500 46.09100
H  38.74000 3.41000 43.88300
H  40.25700 2.79700 44.38800
H  42.56200 -3.70400 47.10500
H  42.28600 -3.08900 45.45400
H  41.54200 -2.34100 46.89500
H  47.50700 -3.34400 46.12400
H  47.27000 -4.49100 47.51300
H  47.39500 -2.71500 47.82400
H  49.38700 0.42700 45.89900
H  49.99100 3.13600 47.13100
H  50.36900 1.06800 48.56100
H  50.03600 -0.51300 47.83900
H  48.72800 0.26200 48.69500
H  49.28900 3.65300 44.60200
H  49.57500 1.97300 44.40100
H  51.88400 2.67500 43.95200
H  51.87800 2.76400 45.74600
H  51.53300 4.23000 44.63600
H  46.37100 8.68200 46.96000
H  47.74800 7.83700 46.24500
H  47.49500 7.83300 47.99200
H  41.61600 6.72700 45.98200
H  38.75100 7.60700 48.99300
H  39.44800 9.22800 48.98300
H  40.16800 7.94200 49.95000
Mg -10.92700 16.88600 42.82000
C  -7.38300 16.73900 42.18000
C  -10.78300 20.14700 41.71200
C  -14.22000 16.90500 42.75500
C  -10.84800 13.39800 43.09300
N  -9.22600 18.33200 42.21700
C  -7.91300 18.00600 42.02000
C  -7.18500 19.28400 41.45700
C  -8.24400 20.39900 41.52100
C  -9.50000 19.56300 41.82400
C  -7.88200 21.43700 42.58600
C  -6.68000 18.94700 39.99700
C  -5.15900 19.23600 39.81300
H  -4.60200 19.63200 38.49500
N  -12.39300 18.39000 42.54600
C  -12.10800 19.61600 41.95100
C  -13.40300 20.22500 41.63000
C  -14.44300 19.35900 42.16100
C  -13.71600 18.19400 42.59000
C  -13.49400 21.57000 41.01600
C  -15.97300 19.63400 42.11300
O  -16.40900 20.75000 41.73000
C  -17.03600 18.74100 42.67100
N  -12.33400 15.32400 42.67900
C  -13.63400 15.64600 42.89600
C  -14.39200 14.47200 43.29200
C  -13.41000 13.33300 43.37800
C  -12.10900 14.06700 43.02300
C  -15.24900 14.59200 44.59200
C  -13.78200 12.07600 42.41500
C  -14.73800 11.10900 43.13200
N  -9.47100 15.36900 42.76300
C  -9.59700 13.99800 43.00400
C  -8.25400 13.40500 43.17400
C  -7.37800 14.45900 42.85400
C  -8.17800 15.61000 42.61500
C  -7.83100 12.05300 43.44300
C  -6.00400 14.75400 42.62300
O  -5.04600 13.93000 42.67900
C  -5.95700 16.23200 42.23300
C  -5.16100 17.00400 43.14700
O  -4.08400 17.55800 42.92000
O  -5.79700 17.05500 44.41500
C  -4.99400 17.52800 45.57200
H  -10.76600 21.18900 41.38500
H  -15.28200 16.90000 43.00900
H  -10.79700 12.33100 43.31900
H  -6.32900 19.40100 42.12100
H  -8.33000 20.98600 40.60600
H  -6.87800 21.81300 42.39000
H  -7.67400 20.84800 43.47900
H  -8.63000 22.22400 42.68900
H  -7.30800 19.44500 39.25800
H  -6.76800 17.86700 39.87600
H  -4.58400 18.41600 40.24300
H  -5.01100 20.10600 40.45300
H  -12.51900 21.92600 40.68100
H  -13.96300 22.26700 41.71000
H  -14.19900 21.59100 40.18500
H  -16.91600 17.80800 42.11900
H  -18.02100 19.12500 42.40100
H  -16.87200 18.61300 43.74100
H  -15.19100 14.34300 42.56100
H  -13.24700 12.92100 44.37400
H  -15.05600 15.49800 45.16700
H  -15.00200 13.68000 45.13500
H  -16.32400 14.57800 44.40900
H  -12.80000 11.65500 42.19900
H  -14.20900 12.53000 41.52100
H  -15.65800 10.96400 42.56600
H  -14.99600 11.41700 44.14500
H  -14.24400 10.15000 43.28800
H  -7.15300 11.68400 42.67400
H  -8.62000 11.30100 43.47400
H  -7.21700 12.07900 44.34200
H  -5.46700 16.18800 41.26000
H  -4.03100 17.01900 45.61800
H  -5.44300 17.28800 46.53500
H  -4.79200 18.59000 45.43500

