158

Mg -2.03200 16.98700 26.40100
C  -2.46200 14.91800 29.36700
C  -2.40300 19.74500 28.46400
C  -2.23300 18.81300 23.72300
C  -2.14400 14.13200 24.51800
N  -2.38500 17.24800 28.65400
C  -2.46700 16.25700 29.66100
C  -2.57000 16.91400 31.06500
C  -2.59600 18.47800 30.69600
C  -2.50600 18.50800 29.17500
C  -3.88400 19.20500 31.22400
C  -1.39000 16.59800 32.11700
C  -0.90200 17.55100 33.16900
H  -0.29200 17.08700 34.50500
N  -2.17800 19.02000 26.16400
C  -2.28900 19.98400 27.09200
C  -2.36100 21.20900 26.44600
C  -2.18800 21.03400 25.03400
C  -2.23100 19.53500 24.90600
C  -2.40200 22.47400 27.19300
C  -1.98000 22.05100 23.91300
O  -1.87200 21.75400 22.72600
C  -1.87600 23.47900 24.34100
N  -2.41600 16.49900 24.39300
C  -2.21500 17.41300 23.39600
C  -2.22200 16.83100 22.01100
C  -1.79000 15.34300 22.40300
C  -2.11700 15.29200 23.85400
C  -3.59600 16.99700 21.26600
C  -0.39200 14.76200 21.97200
C  -0.32200 13.61800 20.94000
N  -2.22900 14.96700 26.81300
C  -2.21300 13.93000 25.90100
C  -2.32400 12.66300 26.57600
C  -2.31300 13.05000 27.94700
C  -2.33500 14.43600 28.03600
C  -2.25200 11.35800 25.99400
C  -2.33500 12.60200 29.32300
O  -2.43400 11.45100 29.75200
C  -2.43400 13.77700 30.27500
C  -1.36300 13.70500 31.26100
O  -0.19100 14.01200 31.04500
O  -1.86100 13.39300 32.51500
C  -0.96700 13.40200 33.70400
H  -2.43500 20.59500 29.14800
H  -2.04300 19.46700 22.86900
H  -2.06700 13.25400 23.87300
H  -3.49600 16.57500 31.52900
H  -1.70300 19.00300 31.03600
H  -4.03400 18.73200 32.19500
H  -4.69400 19.05100 30.51000
H  -3.74400 20.28000 31.32800
H  -0.47500 16.25300 31.63600
H  -1.84400 15.83600 32.75000
H  -1.57300 18.38500 33.37600
H  -0.12500 18.10900 32.64700
H  -1.44600 22.97400 27.34600
H  -2.98100 22.49800 28.11700
H  -3.08700 23.12000 26.64300
H  -2.80400 24.01000 24.55200
H  -1.34100 24.08000 23.60600
H  -1.20100 23.48000 25.19800
H  -1.43600 17.22000 21.36400
H  -2.48400 14.66900 21.90100
H  -4.20800 17.74300 21.77200
H  -4.20100 16.09000 21.29400
H  -3.46700 17.14100 20.19300
H  0.11400 14.51400 22.90500
H  0.03200 15.63400 21.47400
H  0.15500 12.75300 21.40100
H  0.41000 13.90100 20.18400
H  -1.29200 13.35600 20.51700
H  -1.50500 11.28600 25.20300
H  -3.16300 11.10300 25.45100
H  -2.06300 10.52900 26.67600
H  -3.35400 13.67800 30.85100
H  -1.03800 12.39000 34.10300
H  -1.44700 14.11100 34.37900
H  0.09000 13.63100 33.57000
Mg 10.62600 47.53800 25.90300
C  8.53900 47.34600 28.84100
C  13.19900 48.49900 27.96200
C  12.65500 47.46900 23.28300
C  7.98000 46.70300 23.95400
N  10.72400 47.97600 28.17300
C  9.82800 47.74100 29.18300
C  10.42200 48.10000 30.55200
C  11.76500 48.80400 30.13700
C  11.95800 48.27200 28.68200
C  11.70600 50.34300 30.05300
C  10.64400 46.81800 31.39200
C  10.14500 46.89200 32.82100
H  10.37600 45.67600 33.71000
N  12.66200 48.00600 25.65200
C  13.56400 48.34000 26.64300
C  14.87600 48.22400 26.09100
C  14.78800 47.91500 24.74500
C  13.32600 47.88300 24.52100
C  16.12800 48.44700 27.02400
C  15.94800 47.79300 23.76700
O  15.73200 47.81000 22.52000
C  17.35400 47.73400 24.31200
N  10.34000 47.34700 23.85300
C  11.33200 47.35600 22.94100
C  10.85500 47.11900 21.57900
C  9.36500 46.92700 21.78200
C  9.21200 46.99700 23.30600
C  11.14700 48.21600 20.58400
C  8.86200 45.66100 21.06000
C  9.24000 44.29500 21.63400
N  8.61500 47.24700 26.22800
C  7.65100 46.81200 25.32400
C  6.40400 46.61500 25.97700
C  6.72200 46.84800 27.34400
C  8.07900 47.19400 27.44700
C  5.06900 46.03900 25.43100
C  6.12700 46.75400 28.73700
O  5.01700 46.44300 29.17900
C  7.35600 47.04000 29.77300
C  7.53500 45.74800 30.46500
O  8.29800 44.82200 30.20200
O  6.71300 45.77300 31.53500
C  6.84800 44.57400 32.45700
H  13.94400 48.88600 28.66100
H  13.33300 47.16500 22.48300
H  7.19800 46.38900 23.26000
H  9.71600 48.76000 31.05400
H  12.65900 48.53400 30.70000
H  10.95500 50.77800 30.71200
H  11.31900 50.54900 29.05400
H  12.71700 50.74100 30.13400
H  11.72600 46.75900 31.50400
H  10.40000 45.91500 30.83200
H  9.10200 47.20800 32.80200
H  10.69900 47.69900 33.30100
H  15.80900 48.51400 28.06400
H  16.57800 49.43500 26.92500
H  16.77200 47.57100 26.94400
H  17.45100 46.98600 25.09900
H  17.54800 48.73800 24.68900
H  18.03300 47.46800 23.50200
H  11.28300 46.20100 21.17600
H  8.77800 47.74500 21.36400
H  11.52900 47.80700 19.64900
H  11.76400 48.94200 21.11400
H  10.22900 48.72800 20.29600
H  9.23000 45.66900 20.03400
H  7.78100 45.69600 20.92500
H  9.30000 44.30300 22.72200
H  10.21600 43.91100 21.33600
H  8.49200 43.54200 21.38700
H  4.56800 46.82100 24.86200
H  4.40500 45.56800 26.15600
H  5.38500 45.23300 24.76800
H  7.24500 47.89200 30.44400
H  7.60700 44.56000 33.24000
H  6.84100 43.67400 31.84400
H  5.91600 44.52700 33.02000

