158

Mg 0.29600 8.08400 26.03200
C  1.00400 10.05900 28.96200
C  0.65600 5.27200 28.11100
C  -0.11800 6.18300 23.34200
C  0.74700 10.94100 24.02900
N  0.68600 7.67500 28.37600
C  0.71000 8.66400 29.26900
C  0.54400 8.10400 30.67600
C  0.81200 6.57700 30.37800
C  0.75700 6.46300 28.84500
C  2.18300 5.90700 30.88200
C  -0.85500 8.48000 31.33500
C  -1.09800 8.53300 32.83900
H  0.02400 8.30300 33.79800
N  0.22200 5.98400 25.76600
C  0.40800 4.99600 26.72200
C  0.35400 3.66400 26.09400
C  0.03600 3.91600 24.70700
C  0.08100 5.39200 24.50000
C  0.52700 2.35600 26.78900
C  -0.37600 2.98500 23.62500
O  -0.62600 3.35900 22.48900
C  -0.38000 1.49100 23.92200
N  0.14400 8.54700 24.02000
C  -0.10000 7.58100 23.09900
C  -0.05200 8.20600 21.65300
C  -0.12800 9.71600 21.92300
C  0.26600 9.76200 23.43200
C  1.11000 7.80700 20.72900
C  -1.51000 10.36100 21.59400
C  -1.41500 11.53500 20.71800
N  0.88500 10.12800 26.31100
C  1.04100 11.11000 25.42400
C  1.40900 12.31500 26.20300
C  1.33300 11.94700 27.56900
C  0.99500 10.61200 27.59300
C  1.59000 13.64800 25.57800
C  1.41100 12.44700 28.90200
O  1.65600 13.59500 29.29400
C  1.20100 11.27400 29.90100
C  2.36200 11.18800 30.79900
O  3.51100 10.91200 30.47500
O  1.94500 11.50900 32.08000
C  2.85200 11.62100 33.25200
H  0.92600 4.36500 28.65700
H  -0.35600 5.64800 22.42000
H  0.75900 11.89400 23.49600
H  1.36800 8.53000 31.24900
H  0.00200 5.97400 30.78800
H  2.86900 6.51200 31.47500
H  2.72700 5.54900 30.00800
H  1.93100 5.06200 31.52300
H  -1.57600 7.81000 30.86800
H  -1.04500 9.51600 31.05300
H  -1.93500 7.85800 33.02000
H  -1.47600 9.52500 33.08600
H  0.98600 2.45900 27.77300
H  1.23000 1.77200 26.19500
H  -0.39100 1.80200 26.98500
H  0.66400 1.17800 23.96200
H  -0.80100 0.99100 23.05000
H  -1.15500 1.24800 24.64800
H  -0.96600 7.85700 21.17300
H  0.62500 10.27400 21.36600
H  2.05000 7.85400 21.27900
H  1.17200 8.59300 19.97700
H  0.86900 6.80100 20.38700
H  -2.18100 10.47600 22.44500
H  -2.04900 9.58700 21.04700
H  -1.45600 11.35300 19.64400
H  -0.45500 11.98500 20.97200
H  -2.27100 12.15500 20.98100
H  0.65900 13.92900 25.08700
H  2.23900 13.57600 24.70500
H  1.87000 14.46300 26.24500
H  0.34400 11.40500 30.56100
H  3.18100 12.65700 33.32900
H  3.68700 10.94000 33.08900
H  2.31300 11.34100 34.15700
Mg 16.78700 -1.48800 27.83800
C  15.79700 0.65600 30.55700
C  18.47600 -3.44200 30.34800
C  18.06800 -3.26000 25.44100
C  14.99800 0.51800 25.77300
N  17.28100 -1.24800 30.13500
C  16.68900 -0.34600 30.98200
C  17.16300 -0.66000 32.46200
C  18.04600 -1.95400 32.34300
C  17.96200 -2.22300 30.78600
C  19.52200 -1.76700 32.89100
C  15.95300 -0.87900 33.47300
C  16.04500 -0.05600 34.78400
H  17.34100 0.44100 35.38700
N  18.06900 -3.10000 27.86400
C  18.58700 -3.83000 28.97500
C  19.15400 -5.09100 28.45700
C  19.05300 -5.03700 27.01500
C  18.43200 -3.73100 26.72300
C  19.81100 -6.14800 29.29200
C  19.72500 -6.00700 25.92600
O  19.48700 -5.83900 24.74700
C  20.53700 -7.20200 26.45700
N  16.78200 -1.19900 25.88300
C  17.40700 -2.11300 25.03400
C  17.11300 -1.69500 23.49800
C  16.03500 -0.56000 23.63700
C  15.90700 -0.41000 25.17100
C  18.39800 -1.38100 22.68300
C  14.69600 -0.84000 22.80100
C  14.42800 0.16400 21.66900
N  15.45700 0.16600 28.10700
C  14.66300 0.78500 27.14400
C  13.95700 1.94800 27.77100
C  14.33800 1.86800 29.12800
C  15.26500 0.82700 29.26000
C  13.00700 2.87000 27.07500
C  14.17900 2.48600 30.34300
O  13.48900 3.47500 30.55500
C  15.03100 1.66800 31.38000
C  15.80600 2.62300 32.25500
O  16.93900 3.00900 32.09800
O  14.90400 3.03500 33.25300
C  15.47200 4.00200 34.26700
H  19.04500 -4.11100 30.99600
H  18.36900 -3.79700 24.53900
H  14.40000 1.13600 25.10100
H  17.71400 0.20300 32.83600
H  17.81900 -2.89600 32.84200
H  20.17300 -1.58400 32.03600
H  19.84600 -2.69200 33.36700
H  19.64700 -0.94200 33.59200
H  15.95100 -1.94100 33.72000
H  15.04400 -0.60300 32.93800
H  15.53800 -0.81700 35.37700
H  15.35200 0.77200 34.63500
H  20.88100 -6.19200 29.08800
H  19.34900 -7.06200 28.91800
H  19.60800 -6.03100 30.35600
H  21.30800 -6.85300 27.14400
H  20.87700 -7.84300 25.64300
H  19.82000 -7.81000 27.00900
H  16.64200 -2.59700 23.10500
H  16.49200 0.33800 23.22100
H  18.33300 -0.31200 22.47900
H  18.29000 -1.91600 21.74000
H  19.31100 -1.64800 23.21500
H  13.85900 -0.52800 23.42500
H  14.64800 -1.90200 22.56200
H  14.46200 -0.43700 20.76000
H  15.19300 0.94000 21.64600
H  13.36800 0.40900 21.73500
H  12.92900 2.74800 25.99400
H  13.34900 3.87100 27.33500
H  11.98300 2.65000 27.37700
H  14.37900 1.20400 32.12000
H  16.54300 3.88000 34.42600
H  14.91400 3.95000 35.20200
H  15.39000 4.96400 33.76100

