158

Mg 54.61900 23.94300 45.03400
C  52.11100 26.26500 44.20900
C  52.67700 21.45000 43.80600
C  57.48800 22.01800 45.08800
C  56.64400 26.80000 46.09400
N  52.72300 23.95500 43.96500
C  51.82700 24.91800 43.75400
C  50.58900 24.46400 42.94500
C  50.71500 22.94100 43.37500
C  52.13800 22.74700 43.74700
C  49.83700 22.60900 44.61800
C  50.64200 24.81100 41.44400
C  49.27300 25.26800 40.88900
H  48.94500 24.70500 39.48100
N  55.00100 22.00100 44.55800
C  54.02100 21.13300 44.10400
C  54.71100 19.79400 43.91600
C  56.08200 19.94400 44.31700
C  56.29600 21.37300 44.69800
C  54.05500 18.53800 43.36900
C  57.12600 18.87200 44.11100
O  56.82800 17.75100 43.65100
C  58.58100 19.02100 44.58700
N  56.77400 24.32200 45.68700
C  57.70700 23.34500 45.54200
C  59.09100 23.94500 45.75800
C  58.86400 25.36100 46.33700
C  57.36300 25.57800 45.98400
C  60.02000 23.14700 46.69600
C  59.94500 26.40600 45.98300
C  60.90500 26.97400 47.01900
N  54.35800 26.09900 45.24400
C  55.24500 27.09200 45.71000
C  54.59500 28.35900 45.71000
C  53.36100 28.08700 45.10300
C  53.28900 26.70000 44.83000
C  55.08100 29.62100 46.27100
C  52.10200 28.67900 44.71600
O  51.71900 29.85100 44.83100
C  51.35300 27.56300 43.97600
C  51.49100 27.90400 42.49900
O  52.60900 27.91200 41.95500
O  50.31100 28.38000 41.98700
C  50.36300 29.17500 40.81400
H  52.03400 20.60900 43.53600
H  58.38000 21.41900 44.89100
H  57.20900 27.64300 46.49500
H  49.75400 25.02900 43.35800
H  50.43700 22.22600 42.59900
H  49.14500 23.39200 44.92900
H  50.58500 22.49600 45.40300
H  49.39500 21.62800 44.44500
H  51.03100 23.92200 40.94900
H  51.40500 25.58700 41.38700
H  49.20900 26.35500 40.84100
H  48.49400 24.98500 41.59700
H  54.20800 17.80600 44.16200
H  54.52400 17.94800 42.58200
H  52.98200 18.64400 43.21100
H  59.18700 19.65300 43.93800
H  59.02800 18.02700 44.61100
H  58.75100 19.42700 45.58400
H  59.46400 23.94400 44.73400
H  58.72800 25.37300 47.41800
H  60.54200 23.85300 47.34200
H  60.69000 22.44200 46.20400
H  59.40600 22.54400 47.36600
H  59.54800 27.26900 45.44700
H  60.66300 25.95300 45.29900
H  61.83000 26.48500 47.32400
H  60.23500 27.06300 47.87500
H  61.24700 27.96800 46.73100
H  54.19300 30.24800 46.34900
H  55.81800 30.14300 45.66100
H  55.64800 29.66400 47.20100
H  50.35400 27.56200 44.41300
H  51.36500 29.58400 40.68800
H  49.78700 30.06700 41.05800
H  49.89800 28.62500 39.99600
Mg 47.71500 16.43400 28.63100
C  45.76500 15.98700 31.47300
C  49.74300 18.64700 30.49300
C  49.32100 17.07900 25.92200
C  45.04700 15.09400 26.74500
N  47.79900 17.19000 30.73500
C  46.94200 16.74700 31.74200
C  47.48200 17.23800 33.11100
C  48.56800 18.23200 32.67300
C  48.71800 18.02800 31.16500
C  48.19700 19.74100 32.96600
C  48.05200 16.02300 33.86500
C  48.06200 16.10100 35.38100
H  47.88800 17.38600 36.11900
N  49.43600 17.53400 28.32500
C  50.11000 18.45700 29.14200
C  51.21600 19.02700 28.45000
C  51.13900 18.43700 27.12900
C  49.94600 17.65200 27.09300
C  52.33400 19.73100 29.15900
C  51.96500 18.79600 25.96000
O  51.92600 18.24400 24.86800
C  52.86200 19.88500 25.93700
N  47.12400 16.26800 26.58100
C  48.11200 16.50700 25.67400
C  47.64900 16.15500 24.25000
C  46.40700 15.20600 24.50400
C  46.12200 15.62000 26.02600
C  47.30200 17.36700 23.32900
C  46.65000 13.69300 24.48600
C  45.89800 12.92200 23.35700
N  45.82000 15.68600 28.99400
C  44.88400 15.10500 28.11300
C  43.79600 14.58900 28.88300
C  44.12400 14.97700 30.21500
C  45.31200 15.59700 30.20600
C  42.58800 13.75900 28.33600
C  43.65100 14.95800 31.57600
O  42.60900 14.54500 32.08400
C  44.69200 15.64600 32.44300
C  43.97200 16.76900 33.10500
O  43.34300 17.65700 32.54100
O  44.06700 16.59300 34.48300
C  43.31100 17.46800 35.36500
H  50.44500 19.22800 31.09500
H  49.94900 17.23500 25.04200
H  44.26600 14.72900 26.07400
H  46.74700 17.82700 33.65800
H  49.53200 18.09000 33.16200
H  47.12600 19.83600 33.14300
H  48.47500 20.32800 32.09100
H  48.74800 20.12100 33.82700
H  49.09300 15.90400 33.56200
H  47.60400 15.08300 33.54100
H  48.95900 15.59600 35.74100
H  47.24900 15.48400 35.76300
H  53.33800 19.60400 28.75200
H  52.55200 19.24500 30.11000
H  52.13400 20.79400 29.29000
H  52.85700 20.48100 26.85000
H  52.75200 20.48400 25.03300
H  53.88900 19.53200 25.85000
H  48.39600 15.49900 23.80200
H  45.71800 15.47300 23.70300
H  46.47300 16.99400 22.72700
H  48.19300 17.51400 22.71800
H  47.11800 18.30100 23.85900
H  46.39100 13.31500 25.47500
H  47.72500 13.52600 24.41500
H  46.42800 11.99700 23.13100
H  45.89000 13.50700 22.43700
H  44.88700 12.74800 23.72600
H  42.64000 12.71200 28.63400
H  42.66000 13.97900 27.27100
H  41.63600 14.24300 28.55600
H  44.98100 14.89300 33.17600
H  43.22500 16.97900 36.33500
H  42.30000 17.42700 34.95800
H  43.58400 18.50900 35.53900

