158

Mg 8.56500 47.03400 25.33600
C  6.86300 47.06100 28.30000
C  11.22300 48.27700 27.03600
C  10.26900 46.72600 22.48200
C  5.58300 46.87600 23.55400
N  8.92400 47.66200 27.37000
C  8.14200 47.50300 28.46900
C  8.79200 47.90500 29.81800
C  10.07400 48.57400 29.28700
C  10.09700 48.21200 27.78600
C  10.15800 50.13900 29.57700
C  9.04400 46.76800 30.81300
C  8.82000 47.12100 32.30500
H  8.48100 45.91900 33.19500
N  10.47800 47.43000 24.84000
C  11.48300 47.93800 25.63300
C  12.76400 47.78700 24.97300
C  12.53700 47.46500 23.59700
C  11.09500 47.23800 23.53900
C  14.10600 47.99200 25.71700
C  13.50500 47.08800 22.45600
O  13.18800 46.59200 21.39700
C  15.06600 47.41000 22.73600
N  7.98400 46.77400 23.27300
C  8.90300 46.59900 22.29600
C  8.30800 46.08400 21.02900
C  6.78900 46.48600 21.21900
C  6.72100 46.73200 22.77200
C  8.91800 46.56900 19.63800
C  5.93700 45.36000 20.67100
C  4.35800 45.50200 20.68900
N  6.64800 46.89200 25.75900
C  5.51000 46.87100 24.92700
C  4.25800 46.78300 25.75100
C  4.77900 46.77100 27.08900
C  6.24500 46.84800 27.03100
C  2.77300 46.59200 25.34800
C  4.38300 46.78900 28.47900
O  3.30700 46.73700 28.98800
C  5.73000 46.85300 29.27300
C  5.76200 45.59800 30.10200
O  6.08400 44.48600 29.73800
O  5.35300 45.82400 31.40700
C  5.46400 44.65800 32.31800
H  12.04700 48.57000 27.69000
H  10.82300 46.41400 21.59500
H  4.59800 46.90000 23.08300
H  8.19200 48.69500 30.27000
H  10.98600 48.09700 29.64500
H  10.70000 50.75100 28.85500
H  10.56500 50.24300 30.58300
H  9.13500 50.51100 29.53000
H  10.04500 46.36300 30.66400
H  8.40800 45.91600 30.57700
H  8.19700 48.01100 32.40200
H  9.82200 47.41500 32.61800
H  13.92400 48.35800 26.72700
H  14.67400 48.78500 25.23100
H  14.69000 47.07200 25.73100
H  15.41100 46.75300 23.53500
H  15.17300 48.47100 22.96100
H  15.69200 47.24500 21.85900
H  8.46900 45.00700 20.98800
H  6.64000 47.45500 20.74300
H  9.82500 47.14600 19.81600
H  8.18400 47.15300 19.08300
H  9.22800 45.68400 19.08300
H  6.25000 44.42400 21.13300
H  6.22700 45.31600 19.62100
H  4.16200 46.52300 21.01700
H  4.05200 44.77500 21.44200
H  3.83600 45.32200 19.75000
H  2.52800 45.62200 25.78100
H  2.58700 46.52500 24.27600
H  2.16600 47.40400 25.74700
H  5.55500 47.74400 29.87700
H  5.72000 45.06800 33.29500
H  6.34200 44.03200 32.15900
H  4.57500 44.03800 32.19700
Mg -3.27600 34.10200 26.55000
C  -4.33600 32.29800 29.38000
C  -1.97600 36.40400 28.67700
C  -3.00700 36.29100 23.89600
C  -5.07200 31.94000 24.44400
N  -3.20200 34.25300 28.77500
C  -3.46300 33.32600 29.75600
C  -3.01000 33.76400 31.13300
C  -2.26900 35.14500 30.84200
C  -2.48800 35.29500 29.32900
C  -2.50600 36.24500 31.86400
C  -2.19800 32.64600 31.86100
C  -2.72900 32.13600 33.22200
H  -1.80000 32.23500 34.40400
N  -2.40900 35.94800 26.34700
C  -1.81000 36.70700 27.32500
C  -1.11100 37.85200 26.72500
C  -1.43300 37.78200 25.32600
C  -2.35700 36.65200 25.11600
C  -0.26700 38.85200 27.54900
C  -0.86200 38.60800 24.20900
O  -1.05200 38.23700 23.05000
C  -0.09100 39.86700 24.48900
N  -4.00200 34.18100 24.43500
C  -3.77200 35.19800 23.62800
C  -4.11000 34.81100 22.16400
C  -4.63700 33.33100 22.32700
C  -4.52600 33.08000 23.80400
C  -5.21500 35.75900 21.74500
C  -3.74500 32.33500 21.53400
C  -2.35700 32.01500 22.09600
N  -4.40500 32.44100 26.79700
C  -5.06300 31.66900 25.84100
C  -5.92300 30.73500 26.54100
C  -5.58700 30.93300 27.89800
C  -4.68600 31.96700 27.99900
C  -6.97000 29.76000 25.97800
C  -5.95500 30.45500 29.23300
O  -6.67600 29.56800 29.62000
C  -4.98300 31.31000 30.22600
C  -5.93900 31.94900 31.10300
O  -6.53500 33.02100 30.89000
O  -5.99200 31.29100 32.27600
C  -6.52000 32.02900 33.43800
H  -1.46700 37.07500 29.37200
H  -2.88900 36.95600 23.03800
H  -5.77300 31.40300 23.80100
H  -3.90900 33.96300 31.71700
H  -1.21800 34.87000 30.94000
H  -1.53300 36.47700 32.29900
H  -3.24000 35.98400 32.62600
H  -2.88900 37.20200 31.50700
H  -1.16900 32.98900 31.96900
H  -2.13000 31.70700 31.31100
H  -2.81300 31.08700 32.93700
H  -3.65200 32.63800 33.51200
H  -0.30200 38.52900 28.58900
H  -0.81000 39.79600 27.52300
H  0.77000 38.87900 27.21200
H  -0.69200 40.49800 25.14300
H  0.10100 40.34000 23.52600
H  0.88500 39.61400 24.90500
H  -3.14200 34.91900 21.67300
H  -5.67400 33.20600 22.01500
H  -4.89700 36.28200 20.84300
H  -5.46400 36.42800 22.56800
H  -6.09400 35.12500 21.62300
H  -3.63100 32.84200 20.57600
H  -4.24100 31.40400 21.25900
H  -2.03500 32.67400 22.90300
H  -1.65900 32.05100 21.26000
H  -2.32700 30.96700 22.39500
H  -7.65700 29.26400 26.66400
H  -6.38300 29.08600 25.35400
H  -7.55000 30.27300 25.21100
H  -4.25900 30.78800 30.85200
H  -6.00800 32.97700 33.59800
H  -6.45400 31.39300 34.32100
H  -7.58000 32.16600 33.22300

