158

Mg 44.76700 4.90100 48.07400
C  42.54300 7.70900 47.83600
C  41.94700 2.87200 47.73600
C  46.86500 2.43900 47.95100
C  47.44800 7.25900 47.88500
N  42.53500 5.26000 47.81900
C  41.84800 6.48700 47.87000
C  40.32600 6.29400 47.72800
C  40.19400 4.71400 47.78300
C  41.65300 4.24800 47.72600
C  39.40500 4.21200 48.97000
C  39.58800 6.97500 46.53400
C  40.46200 7.17800 45.31100
H  39.85700 6.77800 43.90800
N  44.49400 2.92000 47.84300
C  43.24000 2.29600 47.66900
C  43.55000 0.82400 47.45400
C  44.97600 0.64500 47.53800
C  45.52300 2.00200 47.75000
C  42.41400 -0.16900 47.07600
C  45.65600 -0.68000 47.38300
O  44.92800 -1.63900 47.25700
C  47.17900 -0.87000 47.24200
N  46.87600 4.94700 47.57300
C  47.49300 3.72900 47.85500
C  48.93400 3.85800 48.39700
C  49.12800 5.35200 48.15300
C  47.71600 5.94400 47.87500
C  49.27900 3.26500 49.80300
C  50.24300 5.71000 47.13300
C  51.44100 6.47400 47.67700
N  44.99800 7.02700 47.94300
C  46.16000 7.82700 47.93900
C  45.77000 9.24300 47.93900
C  44.34300 9.23900 48.01100
C  43.95500 7.86800 47.87400
C  46.57000 10.42400 47.96900
C  43.14300 10.03700 48.07300
O  43.05000 11.21700 48.18400
C  41.93500 9.08900 48.04300
C  41.06000 9.18300 49.27500
O  41.08700 8.43000 50.21300
O  40.17400 10.20600 49.09200
C  39.11500 10.41300 50.02800
H  41.04000 2.26900 47.66900
H  47.51300 1.58400 48.15300
H  48.26300 7.97900 47.98300
H  39.88100 6.81100 48.57900
H  39.61800 4.51200 46.88000
H  38.35900 4.15400 48.66900
H  39.55300 4.93200 49.77500
H  39.78200 3.28100 49.39400
H  39.29100 7.97400 46.85400
H  38.67300 6.43700 46.28400
H  41.27600 6.47200 45.47900
H  40.70900 8.23600 45.23300
H  42.63800 -0.82600 46.23600
H  41.51100 0.37300 46.79600
H  42.15400 -0.80900 47.92000
H  47.71100 -0.64000 48.16500
H  47.53500 -0.30900 46.37800
H  47.36800 -1.92700 47.05500
H  49.63200 3.31000 47.76400
H  49.43100 5.77600 49.11000
H  48.43900 3.17800 50.49200
H  50.08900 3.81400 50.28300
H  49.63200 2.24700 49.64200
H  49.88500 6.29500 46.28600
H  50.67000 4.79300 46.72600
H  51.66000 6.12400 48.68600
H  51.16900 7.52900 47.69700
H  52.36200 6.22400 47.15100
H  45.84000 11.19900 47.73500
H  47.30900 10.30700 47.17700
H  46.99100 10.72900 48.92700
H  41.23000 9.37800 47.26400
H  38.22700 9.82100 49.80500
H  38.83500 11.46600 50.02600
H  39.48000 10.17500 51.02700
Mg -2.24600 33.84800 25.71100
C  -3.91500 32.55500 28.62800
C  -0.56800 36.03700 27.61800
C  -0.98800 34.98700 22.82800
C  -4.42200 31.67200 23.80700
N  -2.19200 34.18800 27.93700
C  -2.96900 33.54200 28.93500
C  -2.63200 34.16100 30.30500
C  -1.57100 35.30800 29.96300
C  -1.45500 35.19100 28.37600
C  -2.05900 36.72400 30.45000
C  -1.98700 33.08400 31.26600
C  -2.64000 32.65700 32.61000
H  -1.87400 32.76900 33.92900
N  -0.92600 35.19300 25.32900
C  -0.30600 36.00600 26.25700
C  0.63900 36.86500 25.50400
C  0.54900 36.52000 24.13500
C  -0.49400 35.53500 24.03600
C  1.54200 37.90500 26.25600
C  1.40600 37.03500 22.93900
O  1.14100 36.84200 21.74700
C  2.58100 37.99400 23.38800
N  -2.80900 33.50700 23.56500
C  -2.05400 34.04400 22.62400
C  -2.55900 33.57600 21.15700
C  -3.58600 32.35900 21.51500
C  -3.68900 32.57300 23.03100
C  -3.01100 34.71200 20.25200
C  -3.09300 30.93800 21.13900
C  -1.82000 30.49200 21.81800
N  -3.77200 32.38700 26.04400
C  -4.55000 31.55800 25.21500
C  -5.35600 30.62300 25.99500
C  -5.16100 31.03500 27.34900
C  -4.17700 32.09300 27.33100
C  -6.24800 29.61600 25.50400
C  -5.62400 30.86500 28.67400
O  -6.46900 30.06500 29.13800
C  -4.78300 31.75300 29.65100
C  -5.54400 32.55500 30.52900
O  -6.03500 33.60300 30.05700
O  -5.60100 32.10500 31.80900
C  -6.22700 33.07500 32.73400
H  -0.14600 36.74300 28.33600
H  -0.60600 35.29700 21.85300
H  -4.98100 30.96600 23.19000
H  -3.53800 34.54500 30.77400
H  -0.54600 35.14200 30.29500
H  -2.06300 37.49100 29.67600
H  -1.37400 37.04600 31.23500
H  -3.04100 36.79200 30.91800
H  -1.00400 33.52400 31.43000
H  -1.64700 32.22300 30.69000
H  -3.00000 31.63100 32.54600
H  -3.50200 33.30700 32.76500
H  1.39100 38.91200 25.86800
H  2.55800 37.51200 26.21500
H  1.47700 37.81900 27.34100
H  2.16400 38.87400 23.87800
H  3.08100 38.47900 22.55000
H  3.26800 37.34800 23.93500
H  -1.72400 33.07800 20.66500
H  -4.54600 32.56000 21.03900
H  -3.02000 35.64400 20.81600
H  -3.94300 34.40000 19.78000
H  -2.24700 34.87400 19.49100
H  -2.96300 30.84300 20.06100
H  -3.90700 30.22800 21.28600
H  -1.10600 30.29600 21.01800
H  -1.97500 29.58300 22.39800
H  -1.43900 31.28800 22.45800
H  -7.05400 30.06600 24.92400
H  -6.76600 29.06600 26.29000
H  -5.77900 28.96200 24.76800
H  -4.18500 31.05800 30.24000
H  -7.23300 33.42500 32.50100
H  -5.53900 33.91800 32.67100
H  -6.37100 32.77800 33.77300

