158

Mg 53.70300 23.58700 45.20400
C  51.24800 25.71300 43.77200
C  52.07700 20.95500 43.88300
C  56.40300 21.79600 45.48100
C  55.30600 26.52500 46.30400
N  51.93700 23.40200 43.96900
C  51.08300 24.35800 43.55700
C  49.87200 23.76500 42.78000
C  50.00200 22.24900 43.25000
C  51.43400 22.17400 43.67200
C  49.05700 21.87100 44.41600
C  49.99700 23.95100 41.26200
C  48.77700 24.23400 40.36100
H  49.04800 24.49900 38.82600
N  54.17500 21.60400 44.82800
C  53.42200 20.69000 44.22400
C  54.06200 19.35700 44.30600
C  55.32200 19.60300 44.74300
C  55.36500 21.02600 44.95300
C  53.31100 18.06000 44.00800
C  56.39700 18.62200 44.90400
O  56.05800 17.46700 44.65400
C  57.82300 18.95100 45.27000
N  55.55000 24.10700 45.77800
C  56.50400 23.14100 45.89500
C  57.89200 23.80200 46.17000
C  57.48200 25.16100 46.86300
C  56.05000 25.32000 46.27500
C  58.82900 23.00000 47.12000
C  58.42900 26.37500 46.60900
C  58.67800 27.32300 47.69000
N  53.30100 25.67100 45.25200
C  53.96800 26.67600 45.82000
C  53.25000 27.93500 45.68900
C  52.09600 27.57300 44.92200
C  52.26400 26.20400 44.61800
C  53.63500 29.21600 46.33700
C  50.82000 28.03300 44.32900
O  50.23600 29.10000 44.37300
C  50.26800 26.84900 43.57800
C  50.04900 27.22700 42.19400
O  50.88300 27.59100 41.37100
O  48.69500 27.35100 41.95900
C  48.45700 27.80300 40.53000
H  51.46400 20.11800 43.54600
H  57.36000 21.37000 45.79000
H  55.83000 27.40600 46.67900
H  48.99400 24.32400 43.10600
H  49.86000 21.52000 42.45200
H  48.26700 22.62200 44.44200
H  49.53600 21.80000 45.39300
H  48.43000 21.01800 44.15700
H  50.56400 23.06300 40.98200
H  50.67700 24.78600 41.10000
H  48.34900 25.02400 40.97800
H  48.08300 23.39400 40.34500
H  52.30100 18.26700 43.65500
H  53.16700 17.44200 44.89400
H  53.82400 17.49200 43.23200
H  58.23400 19.87500 44.86300
H  58.48300 18.10000 45.09900
H  57.74100 19.10000 46.34700
H  58.43900 23.97300 45.24200
H  57.28100 25.17400 47.93400
H  58.22300 22.19000 47.52700
H  59.28400 23.57300 47.92800
H  59.61700 22.57000 46.50200
H  57.95800 26.95500 45.81500
H  59.39500 26.00300 46.26800
H  59.74200 27.47600 47.86700
H  58.18300 26.97000 48.59500
H  58.15000 28.25600 47.48900
H  52.71900 29.50800 46.85200
H  53.96900 29.99100 45.64700
H  54.41300 29.08900 47.09000
H  49.29400 26.59100 43.99500
H  47.50000 27.41700 40.17800
H  49.13100 27.24200 39.88300
H  48.48800 28.88100 40.37400
Mg -4.29600 24.69100 26.59200
C  -3.21000 26.77500 29.13900
C  -5.65200 22.59800 28.91300
C  -5.51000 22.80100 24.15200
C  -3.17200 27.03200 24.26300
N  -4.40900 24.75800 28.81100
C  -3.93300 25.66700 29.66600
C  -4.37400 25.25200 31.12500
C  -4.87200 23.78400 31.08300
C  -5.08100 23.69500 29.52300
C  -3.77300 22.76800 31.54800
C  -5.52100 26.22600 31.64100
C  -5.57400 26.58800 33.10500
H  -4.95200 25.54000 34.00700
N  -5.35600 22.89700 26.58000
C  -5.78200 22.19900 27.57400
C  -6.49600 20.95800 27.14300
C  -6.46700 21.01600 25.70800
C  -5.78300 22.27100 25.42900
C  -7.18000 20.03000 28.14000
C  -6.97600 20.02100 24.66900
O  -6.79200 20.06200 23.43400
C  -7.84600 18.88100 25.24600
N  -4.19200 24.89200 24.46300
C  -4.73400 23.90700 23.72200
C  -4.71400 24.25400 22.19400
C  -4.10700 25.72000 22.16200
C  -3.88600 25.94600 23.66000
C  -3.98800 23.21900 21.32500
C  -5.02800 26.78700 21.63000
C  -4.92700 26.95000 20.09500
N  -3.38400 26.51200 26.61500
C  -2.94200 27.36900 25.59500
C  -2.20700 28.47600 26.13600
C  -2.25000 28.28400 27.56000
C  -3.01900 27.12100 27.79000
C  -1.47400 29.44500 25.41300
C  -1.81000 28.73200 28.86600
O  -1.06400 29.65300 29.16200
C  -2.49600 27.81300 29.91800
C  -1.40200 27.42700 30.82000
O  -0.61700 26.50500 30.60900
O  -1.60600 27.90000 32.08800
C  -0.84100 27.24300 33.14300
H  -5.90100 21.87700 29.69400
H  -5.99100 22.28700 23.31700
H  -2.81200 27.83900 23.62200
H  -3.53600 25.37400 31.81100
H  -5.83400 23.59800 31.56100
H  -3.74400 21.95100 30.82600
H  -4.06000 22.30000 32.48900
H  -2.74500 23.12800 31.49600
H  -6.54500 25.92900 31.41300
H  -5.46700 27.14000 31.04900
H  -6.57700 26.63200 33.52900
H  -5.05100 27.54200 33.16400
H  -6.83500 20.11100 29.17100
H  -6.98400 18.99100 27.87500
H  -8.23600 20.27600 28.02700
H  -8.13300 18.29500 24.37300
H  -8.76600 19.38200 25.54900
H  -7.42100 18.27300 26.04500
H  -5.75000 24.33600 21.86500
H  -3.19400 25.63500 21.57300
H  -4.73100 22.73700 20.68900
H  -3.40700 22.57800 21.98800
H  -3.25000 23.66900 20.66100
H  -4.82200 27.71700 22.16000
H  -6.05800 26.55400 21.90000
H  -4.29100 26.18800 19.64500
H  -4.51400 27.92500 19.83500
H  -5.90100 26.87700 19.61300
H  -1.02700 29.10400 24.48000
H  -0.70600 29.87900 26.05300
H  -2.05900 30.32800 25.15200
H  -3.22500 28.30300 30.56400
H  0.19800 27.56700 33.19600
H  -0.86600 26.15400 33.18900
H  -1.34600 27.55300 34.05700

