158

Mg 46.16900 24.80600 28.44300
C  47.05900 27.09200 31.08500
C  45.53200 22.45600 30.96600
C  45.53900 22.51500 26.09300
C  47.46100 26.95200 26.17700
N  46.36900 24.84600 30.75000
C  46.66600 25.83900 31.57400
C  46.26900 25.51200 33.07600
C  46.06200 23.95300 33.02800
C  46.03300 23.68300 31.46000
C  47.13700 22.99000 33.73700
C  45.06400 26.36000 33.59900
C  45.26600 27.48400 34.67600
H  44.30900 27.45200 35.85900
N  45.54400 22.84400 28.50200
C  45.35600 22.04700 29.60900
C  44.92700 20.65500 29.21300
C  44.73500 20.71900 27.79100
C  45.33800 22.00100 27.39000
C  44.66100 19.47900 30.21700
C  44.13500 19.73100 26.78500
O  43.96500 20.09000 25.59400
C  43.65400 18.31100 27.25400
N  46.43900 24.76600 26.38500
C  46.01900 23.71900 25.65100
C  46.26700 23.97600 24.13500
C  46.68500 25.50800 24.11800
C  46.84700 25.80700 25.62100
C  47.18400 23.11200 23.34600
C  45.71500 26.60700 23.44400
C  46.20000 27.62500 22.38100
N  47.03700 26.65700 28.52900
C  47.60800 27.40100 27.54100
C  48.24200 28.59900 28.13400
C  48.02600 28.59800 29.47400
C  47.30300 27.36400 29.71700
C  48.73800 29.73600 27.29400
C  48.19400 29.24400 30.81300
O  48.64400 30.32300 31.01300
C  47.51900 28.35900 31.85900
C  48.65600 28.08400 32.83100
O  49.67100 27.45800 32.57500
O  48.35600 28.60700 34.06700
C  49.33500 28.21600 35.04800
H  45.32200 21.72200 31.74600
H  45.39300 21.83600 25.25100
H  47.87500 27.60800 25.40800
H  47.17200 25.71100 33.65400
H  45.12800 23.70700 33.53300
H  46.76000 22.51800 34.64400
H  48.04800 23.50300 34.04600
H  47.52200 22.16300 33.14000
H  44.37900 25.67800 34.10400
H  44.57400 26.87900 32.77500
H  45.07900 28.43200 34.17100
H  46.20900 27.24100 35.16400
H  43.88200 18.79900 29.87200
H  44.39000 19.84100 31.20900
H  45.59500 18.93700 30.36500
H  44.38000 17.68200 27.76800
H  43.48300 17.57800 26.46500
H  42.72900 18.40400 27.82400
H  45.32800 23.87300 23.59300
H  47.63500 25.61800 23.59600
H  47.57500 23.69700 22.51400
H  46.82000 22.09800 23.18100
H  48.13300 23.12800 23.88200
H  45.25300 27.21100 24.22500
H  44.99600 25.99800 22.89700
H  45.71100 27.53000 21.41200
H  47.27000 27.54700 22.19100
H  46.04200 28.63600 22.75500
H  48.66900 30.50400 28.06500
H  48.05900 29.87500 26.45300
H  49.74100 29.47300 26.95900
H  46.75900 28.88800 32.43400
H  50.32500 28.64800 34.90400
H  49.54800 27.15700 34.89900
H  48.96400 28.27300 36.07100
Mg -5.03600 26.00200 26.83100
C  -3.43800 27.53500 29.60800
C  -6.53100 23.74900 29.16800
C  -5.91400 24.04100 24.36400
C  -2.92400 27.81000 24.74400
N  -4.95800 25.76000 29.07300
C  -4.35700 26.57200 29.98800
C  -4.75800 26.14900 31.46800
C  -5.39400 24.79200 31.28000
C  -5.68900 24.80700 29.72300
C  -4.54200 23.58900 31.77300
C  -5.74400 27.22300 31.97200
C  -5.76700 27.39100 33.44800
H  -5.41700 26.23800 34.45000
N  -6.23400 24.27800 26.76700
C  -6.85300 23.56000 27.80000
C  -7.74800 22.55500 27.24300
C  -7.59800 22.64500 25.78000
C  -6.56100 23.67900 25.59400
C  -8.62200 21.70800 28.12700
C  -8.38100 21.98800 24.72500
O  -8.24400 22.24300 23.50600
C  -9.44100 21.00100 25.14100
N  -4.39800 25.81700 24.90300
C  -4.97700 24.92300 24.03500
C  -4.41200 25.19700 22.59000
C  -3.54800 26.51600 22.69100
C  -3.60600 26.70700 24.19700
C  -3.69800 24.01100 22.04100
C  -4.08900 27.65800 21.88100
C  -3.03500 28.38700 20.89100
N  -3.61200 27.50700 27.06700
C  -2.87900 28.20100 26.10300
C  -1.92500 29.13900 26.70500
C  -2.23300 28.90000 28.08700
C  -3.22500 27.91400 28.32000
C  -0.89100 29.94900 26.05600
C  -1.76900 29.29800 29.39700
O  -1.02600 30.16100 29.71700
C  -2.69300 28.53300 30.40500
C  -1.73900 27.84600 31.37700
O  -0.78300 27.15200 31.04600
O  -2.29500 28.02900 32.67500
C  -1.65400 27.56300 33.90100
H  -7.25500 23.24300 29.81000
H  -6.32800 23.36900 23.60800
H  -2.24000 28.40000 24.13100
H  -3.87600 26.02500 32.09600
H  -6.35900 24.80200 31.78800
H  -4.79200 22.73200 31.14700
H  -4.70300 23.35100 32.82400
H  -3.45900 23.71400 31.77200
H  -6.72900 26.93300 31.60600
H  -5.51200 28.16300 31.47100
H  -6.77600 27.70500 33.71700
H  -5.05500 28.17100 33.71800
H  -8.22700 20.70500 28.29000
H  -9.67400 21.60100 27.86100
H  -8.68200 22.16300 29.11500
H  -8.95600 20.08400 25.47500
H  -10.02800 20.78800 24.24700
H  -10.17400 21.46000 25.80500
H  -5.29200 25.38600 21.97500
H  -2.49500 26.27700 22.54300
H  -2.63400 24.23400 22.11900
H  -3.89700 24.02500 20.97000
H  -3.97900 23.09700 22.56500
H  -4.48100 28.45700 22.50900
H  -4.90300 27.30800 21.24600
H  -3.36000 28.29300 19.85500
H  -2.00700 28.02300 20.89700
H  -2.97200 29.46200 21.06100
H  -0.53900 30.80100 26.63800
H  -1.25800 30.18400 25.05700
H  0.04300 29.39800 25.95100
H  -3.36600 29.24400 30.88500
H  -1.00300 26.72700 33.64800
H  -2.47500 27.15400 34.48900
H  -1.21100 28.44100 34.37100

