158

Mg 1.94000 -1.04400 43.68400
C  5.44800 -0.54200 43.47200
C  1.48100 1.87800 42.06300
C  -1.04600 -2.17300 43.05100
C  2.84500 -4.45800 44.89300
N  3.29000 0.48000 42.84100
C  4.66100 0.49000 42.91900
C  5.13000 1.76300 42.23000
C  3.91800 2.61900 41.95600
C  2.77200 1.64800 42.27800
C  3.94900 3.91500 42.80300
C  5.86600 1.30700 40.84800
C  7.23100 1.94800 40.61200
H  7.23700 3.07300 39.62400
N  0.38700 -0.23100 42.79100
C  0.31900 1.00300 42.20800
C  -0.93200 1.20200 41.72500
C  -1.73400 0.09300 42.20600
C  -0.82200 -0.89600 42.63400
C  -1.36700 2.43000 40.97200
C  -3.29900 0.06300 42.06400
O  -3.90800 1.07000 41.62900
C  -4.07100 -1.13100 42.54200
N  1.06300 -3.04300 44.07300
C  -0.25900 -3.14900 43.70400
C  -0.83500 -4.60200 44.10000
C  0.43700 -5.41100 44.57100
C  1.52800 -4.22900 44.49100
C  -1.96000 -4.54900 45.15800
C  0.77700 -6.68400 43.74300
C  1.33400 -7.91500 44.50500
N  3.71500 -2.23700 44.24500
C  3.91200 -3.50500 44.77200
C  5.34700 -3.66600 45.06800
C  5.93600 -2.51700 44.66500
C  4.90900 -1.70000 44.08400
C  5.99400 -4.87400 45.71600
C  7.22100 -1.75900 44.64300
O  8.28000 -1.90300 45.20100
C  6.94000 -0.44400 43.79200
C  7.32300 0.71500 44.55100
O  6.90600 1.16000 45.60700
O  8.24000 1.40000 43.76100
C  8.52100 2.72400 44.17800
H  1.29800 2.83100 41.56200
H  -2.04400 -2.57000 42.85700
H  3.00700 -5.48800 45.21400
H  5.81700 2.39900 42.78800
H  3.85800 2.79500 40.88200
H  4.79400 4.04700 43.47900
H  2.99800 3.94200 43.33500
H  3.98000 4.81900 42.19400
H  5.20800 1.47400 39.99600
H  5.97900 0.22300 40.86400
H  7.98800 1.20600 40.35900
H  7.65000 2.39700 41.51300
H  -0.49500 2.91100 40.53000
H  -1.80900 3.07300 41.73300
H  -2.07600 2.18400 40.18100
H  -5.12900 -0.93000 42.37400
H  -3.94800 -1.20100 43.62300
H  -3.78800 -1.96900 41.90600
H  -1.25100 -5.02000 43.18300
H  0.41200 -5.75700 45.60400
H  -1.47400 -4.91600 46.06200
H  -2.86400 -5.15200 45.06800
H  -2.33100 -3.52600 45.20400
H  1.46600 -6.28300 43.00000
H  -0.17900 -7.00700 43.33000
H  2.37900 -8.10300 44.25800
H  0.79200 -8.80600 44.19000
H  1.25800 -7.73800 45.57800
H  5.22200 -5.49300 46.17400
H  6.77300 -4.60300 46.42900
H  6.56400 -5.39000 44.94400
H  7.49000 -0.50700 42.85300
H  7.96100 3.41300 43.54700
H  9.57700 2.92500 44.00000
H  8.31100 2.94600 45.22400
Mg 16.38500 51.79100 26.15600
C  17.92800 49.99000 28.74500
C  14.02000 52.93100 28.36800
C  14.77200 53.08600 23.51500
C  18.63600 50.18900 23.94900
N  16.10300 51.63400 28.35300
C  16.91500 50.89300 29.20400
C  16.62700 51.26100 30.69500
C  15.24700 52.00100 30.51800
C  15.05900 52.14500 29.02400
C  14.10300 51.26200 31.21200
C  17.78900 52.19800 31.28700
C  17.90600 52.43500 32.78800
H  16.97900 51.63400 33.76600
N  14.58400 52.83300 25.96200
C  13.80100 53.27200 27.00700
C  12.80300 54.16500 26.45900
C  12.92500 54.02700 25.01000
C  14.14700 53.33700 24.76600
C  11.77300 54.88400 27.36600
C  12.03500 54.62100 23.97100
O  12.28000 54.54500 22.78300
C  10.83500 55.37800 24.38800
N  16.45800 51.37800 23.81800
C  15.84600 52.28600 23.09700
C  16.70700 52.59700 21.82700
C  17.93600 51.60500 21.94800
C  17.66400 51.01400 23.29200
C  16.04700 52.47200 20.46200
C  19.31800 52.40300 21.84900
C  20.44100 51.74000 20.95500
N  17.86500 50.30700 26.24500
C  18.71000 49.74100 25.28800
C  19.69400 48.83200 25.82600
C  19.39300 48.88200 27.22900
C  18.31400 49.74300 27.38400
C  20.80600 48.16800 25.08000
C  19.82500 48.51000 28.55500
O  20.88400 48.03900 28.93000
C  18.82700 49.16800 29.60400
C  18.19300 48.08800 30.41100
O  17.55500 47.16700 29.94500
O  18.70400 48.13100 31.75100
C  18.41000 46.95500 32.59400
H  13.45600 53.37900 29.18900
H  14.51900 53.86200 22.79000
H  19.45300 49.92800 23.27400
H  16.50400 50.32000 31.23100
H  15.21800 52.98700 30.98200
H  14.39200 50.32200 31.68100
H  13.42900 50.92700 30.42300
H  13.64400 51.93400 31.93700
H  17.54900 53.22800 31.02200
H  18.78100 51.93200 30.92100
H  17.85600 53.50000 33.01500
H  18.89100 52.09400 33.10500
H  10.73800 54.76500 27.04700
H  12.07400 55.92600 27.47900
H  11.78900 54.50700 28.38800
H  10.21500 54.74600 25.02400
H  10.29100 55.75400 23.52100
H  11.24200 56.26800 24.86800
H  17.05000 53.62700 21.92800
H  17.82900 50.79700 21.22500
H  15.00600 52.15200 20.50100
H  16.47700 51.79900 19.71900
H  16.05800 53.47500 20.03700
H  19.70000 52.48300 22.86700
H  19.23400 53.46400 21.61400
H  20.89600 52.43400 20.24900
H  20.16100 50.86400 20.36900
H  21.13500 51.26800 21.65000
H  21.36600 48.81900 24.40800
H  20.47300 47.26600 24.56800
H  21.53400 47.91600 25.85100
H  19.52000 49.72400 30.23600
H  17.34200 46.73800 32.56700
H  18.90600 47.02100 33.56200
H  18.96200 46.13700 32.13300

