158

Mg 26.25300 51.00400 26.23400
C  24.42900 52.21300 28.99700
C  28.77300 50.30400 28.38900
C  27.90200 49.74000 23.63700
C  23.78800 52.26300 24.08600
N  26.68200 51.32300 28.48000
C  25.69400 51.61700 29.36500
C  26.23300 51.34100 30.79200
C  27.80700 51.10500 30.60400
C  27.74300 50.84200 29.14600
C  28.71700 52.30800 31.01900
C  25.46800 50.22000 31.58600
C  24.91200 50.49300 32.99500
H  25.82800 50.46000 34.20200
N  28.15300 50.11900 26.00300
C  29.07700 50.02300 27.04100
C  30.30100 49.43300 26.43400
C  30.02900 49.22600 25.07800
C  28.67100 49.68800 24.83400
C  31.41900 48.95200 27.26700
C  30.86400 48.53600 23.99900
O  30.61100 48.67600 22.79600
C  32.06800 47.79100 24.35700
N  25.92500 51.09500 24.17400
C  26.75200 50.39000 23.34600
C  26.17800 50.40800 21.90200
C  24.79600 51.09600 22.08600
C  24.80600 51.48500 23.53800
C  27.08200 51.03000 20.79500
C  23.62300 50.25500 21.61000
C  23.18400 48.97200 22.44200
N  24.54300 52.07300 26.45100
C  23.62900 52.47100 25.46400
C  22.51300 53.05500 26.06700
C  22.71000 52.99900 27.45100
C  24.01400 52.41900 27.68600
C  21.38200 53.59100 25.35200
C  22.21700 53.25100 28.77500
O  21.11900 53.67100 29.12600
C  23.30300 52.69200 29.82600
C  23.59700 53.79900 30.77000
O  24.40400 54.64800 30.51000
O  22.84300 53.80600 31.90700
C  23.27000 54.82000 32.87500
H  29.47000 49.93600 29.14500
H  28.41600 49.30700 22.77600
H  22.96800 52.66700 23.48800
H  26.17500 52.26600 31.36500
H  28.21400 50.22200 31.09700
H  29.37700 51.85600 31.76000
H  28.09100 53.05300 31.51100
H  29.25800 52.86300 30.25300
H  26.16500 49.39200 31.71200
H  24.66700 49.85100 30.94600
H  24.12500 49.76200 33.17900
H  24.44800 51.45600 32.77800
H  31.31500 48.88900 28.35000
H  32.21700 49.68600 27.15200
H  31.73000 47.94400 26.99400
H  32.76000 48.53400 24.75300
H  32.55500 47.45000 23.44300
H  31.92100 46.98100 25.07100
H  26.06100 49.35500 21.64600
H  24.80700 51.92800 21.38200
H  26.76900 52.05200 20.58300
H  26.98600 50.38800 19.91900
H  28.11400 50.96100 21.13900
H  23.78300 49.96200 20.57300
H  22.69800 50.83100 21.63500
H  23.48500 48.14300 21.80200
H  22.11100 49.05700 22.61100
H  23.74500 49.09300 23.36900
H  20.76300 52.75300 25.03300
H  21.64500 54.32900 24.59500
H  20.87900 54.16100 26.13400
H  22.87000 51.95700 30.50400
H  22.36900 54.86300 33.48700
H  23.42900 55.79100 32.40500
H  24.16900 54.50900 33.40600
Mg -10.91000 18.18300 40.91000
C  -7.37200 17.45800 40.82200
C  -10.07500 21.47600 40.29100
C  -14.02200 18.74400 40.27500
C  -11.49300 14.67400 40.63800
N  -8.94500 19.31800 40.40500
C  -7.61100 18.79700 40.52500
C  -6.53100 19.94100 40.22400
C  -7.44100 21.22100 40.54400
C  -8.91900 20.66700 40.43400
C  -6.97500 21.88700 41.89000
C  -6.19400 19.86900 38.65900
C  -4.79900 19.32500 38.20200
H  -4.77600 18.06500 37.20100
N  -11.97900 19.88500 40.42800
C  -11.45900 21.11200 40.17900
C  -12.49400 22.03000 39.90900
C  -13.67300 21.28600 39.81100
C  -13.28300 19.91800 40.11700
C  -12.26900 23.54000 39.80000
C  -15.06000 21.87100 39.47800
O  -15.26300 23.10600 39.38000
C  -16.25800 21.01300 39.17800
N  -12.47500 16.90700 40.26300
C  -13.72300 17.40400 40.36900
C  -14.74900 16.30900 40.37500
C  -14.00700 14.94800 40.17500
C  -12.56700 15.50300 40.36800
C  -15.63100 16.22400 41.60400
C  -14.29400 14.04100 38.91700
C  -13.34500 14.12200 37.67600
N  -9.77500 16.44100 40.92700
C  -10.15000 15.11000 40.78200
C  -9.00700 14.21500 41.00800
C  -7.90100 15.06500 40.98100
C  -8.42200 16.43900 40.95500
C  -8.89200 12.73800 41.01400
C  -6.49900 15.14900 40.92300
O  -5.64600 14.29400 40.84700
C  -6.08900 16.68600 40.95100
C  -5.28600 16.94300 42.25600
O  -4.08500 17.29500 42.23400
O  -5.98000 16.56800 43.37000
C  -5.11000 16.64000 44.59100
H  -9.76300 22.50500 40.10100
H  -15.09200 18.87600 40.10200
H  -11.82000 13.63200 40.64800
H  -5.67800 19.90200 40.90100
H  -7.36500 22.00000 39.78500
H  -7.81500 21.85600 42.58400
H  -6.66400 22.91200 41.69000
H  -6.04800 21.45000 42.26200
H  -6.20900 20.84800 38.18000
H  -6.89400 19.25700 38.09100
H  -4.30500 19.06300 39.13700
H  -4.15000 20.12300 37.84100
H  -12.02000 23.79000 40.83100
H  -13.22900 24.02500 39.62300
H  -11.52100 23.83200 39.06200
H  -15.98200 20.23000 38.47200
H  -17.15800 21.58100 38.94200
H  -16.58500 20.47600 40.06900
H  -15.45700 16.58800 39.59400
H  -14.19700 14.25900 40.99900
H  -15.19100 16.90800 42.33000
H  -15.77900 15.20700 41.96600
H  -16.63500 16.59500 41.39500
H  -15.34100 14.26200 38.70900
H  -14.40900 12.99800 39.21400
H  -13.74700 14.65900 36.81600
H  -13.22800 13.09400 37.33300
H  -12.36500 14.50000 37.96700
H  -8.37400 12.48200 40.09000
H  -9.84500 12.21000 40.99500
H  -8.32200 12.39100 41.87600
H  -5.34500 17.01600 40.22600
H  -5.31900 15.68200 45.06800
H  -5.57000 17.44100 45.17000
H  -4.07400 16.94100 44.43900

