158

Mg 42.09100 41.77100 26.53400
C  41.01100 44.03100 28.95400
C  43.26800 39.73000 28.96400
C  43.19400 39.74200 24.07800
C  41.37700 44.23900 24.11400
N  42.12500 41.95200 28.65700
C  41.54100 42.86800 29.45000
C  41.58600 42.50800 30.92200
C  42.31200 41.12500 30.86500
C  42.66300 40.92800 29.42100
C  43.57900 40.93800 31.78300
C  40.18400 42.42400 31.71200
C  40.24600 42.98800 33.21000
H  39.39700 42.29400 34.33600
N  43.13800 39.96400 26.55100
C  43.50300 39.21400 27.66200
C  44.00800 37.97500 27.20600
C  44.03800 37.97500 25.77300
C  43.50400 39.24400 25.35800
C  44.45600 36.97800 28.14800
C  44.54100 37.00500 24.67700
O  44.90100 37.23300 23.49200
C  44.92500 35.62400 25.21600
N  42.28300 42.01900 24.41000
C  42.63100 40.95400 23.66700
C  42.25100 41.20300 22.20300
C  41.92700 42.76300 22.12500
C  41.84300 43.05200 23.67200
C  43.22700 40.67700 21.13300
C  40.67300 43.09300 21.26800
C  40.45400 44.44000 20.66100
N  41.34000 43.67400 26.48100
C  41.20500 44.59400 25.44900
C  40.73600 45.88200 25.96400
C  40.53400 45.62500 27.32600
C  40.95100 44.32000 27.59400
C  40.53800 47.06500 25.14400
C  40.05500 46.16500 28.51500
O  39.52800 47.25800 28.75200
C  40.27300 45.14600 29.63500
C  41.24900 45.82100 30.57400
O  42.42400 46.03500 30.39000
O  40.66500 45.83100 31.83400
C  41.49200 46.33100 32.90000
H  43.29100 38.96400 29.74100
H  43.52800 38.94500 23.41000
H  41.08000 45.00600 23.39600
H  42.23800 43.25700 31.37200
H  41.68500 40.29100 31.18000
H  43.44700 41.46400 32.72800
H  44.41200 41.49800 31.35900
H  43.90900 39.91300 31.95300
H  39.93100 41.36300 31.71300
H  39.42700 43.05900 31.25300
H  39.91300 44.02500 33.22400
H  41.28000 42.94400 33.55400
H  44.49600 37.33900 29.17500
H  45.41500 36.55100 27.85300
H  43.70700 36.18700 28.19000
H  44.84400 34.93100 24.37900
H  44.13900 35.36200 25.92400
H  45.84700 35.60700 25.79700
H  41.27700 40.71300 22.18600
H  42.84000 43.22700 21.75200
H  44.19800 40.34600 21.50100
H  43.49400 41.49300 20.46100
H  42.88300 39.81900 20.55600
H  39.77200 42.96100 21.86800
H  40.51200 42.28700 20.55300
H  40.72200 44.23900 19.62400
H  41.05700 45.19900 21.15800
H  39.41100 44.74500 20.75500
H  39.49000 47.36200 25.16300
H  40.79400 46.91900 24.09400
H  40.91100 47.96600 25.63100
H  39.32200 44.96300 30.13400
H  41.82400 45.39600 33.35000
H  40.90800 46.90700 33.61800
H  42.27100 47.04800 32.64100
Mg 6.77100 54.76600 40.65100
C  6.09600 51.37000 40.20100
C  9.93800 54.24000 39.29700
C  6.99100 58.02500 40.27500
C  3.32800 55.20300 41.50200
N  7.80100 53.03700 39.72100
C  7.36600 51.75100 39.66700
C  8.43000 50.82600 38.96600
C  9.68400 51.62900 39.24500
C  9.15100 53.07600 39.51900
C  10.66400 51.10500 40.32900
C  8.18300 50.50900 37.47200
C  8.27000 49.01800 36.99400
H  7.22300 48.37900 36.06000
N  8.25500 55.98600 39.99800
C  9.50200 55.57300 39.55400
C  10.30100 56.74300 39.26400
C  9.61800 57.85800 39.68300
C  8.19800 57.32600 39.99500
C  11.73400 56.60800 38.67900
C  10.20600 59.28800 39.66600
O  11.36000 59.55300 39.27800
C  9.32000 60.46300 40.14200
N  5.26700 56.36200 40.53200
C  5.74600 57.61000 40.56200
C  4.66800 58.55700 41.12000
C  3.36100 57.70300 41.11600
C  4.00600 56.34500 41.02800
C  4.96500 59.13300 42.48600
C  2.45100 57.97400 39.90300
C  1.02600 58.48200 40.01700
N  4.98500 53.60700 40.82300
C  3.73400 53.90600 41.25500
C  3.09800 52.73300 41.44800
C  3.95800 51.62800 41.10600
C  5.10300 52.27400 40.67300
C  1.67500 52.71100 41.92700
C  4.13100 50.12200 41.03100
O  3.42400 49.18200 41.26300
C  5.59800 49.96500 40.43600
C  5.31800 49.00800 39.27000
O  4.62700 49.20000 38.30700
O  5.83400 47.75500 39.66000
C  5.36700 46.54600 38.86500
H  10.94500 53.94000 38.99700
H  7.06600 59.10600 40.41300
H  2.32300 55.27400 41.92400
H  8.37400 49.90200 39.54000
H  10.22700 51.65800 38.30100
H  11.39100 50.42500 39.88500
H  10.08800 50.41900 40.95000
H  11.05400 51.90000 40.96500
H  8.78300 51.05900 36.74800
H  7.17000 50.86100 37.28100
H  8.26200 48.45500 37.92800
H  9.17800 48.81500 36.42700
H  12.36200 57.48600 38.82800
H  11.70500 56.37600 37.61400
H  12.14400 55.74900 39.20900
H  9.83100 61.42600 40.11900
H  8.95500 60.32900 41.16000
H  8.54000 60.50500 39.38200
H  4.64600 59.44100 40.48300
H  2.85100 57.76800 42.07700
H  4.38200 58.76600 43.33000
H  4.82700 60.21200 42.41900
H  6.04700 59.01900 42.56100
H  2.49200 57.04000 39.34300
H  2.98700 58.54600 39.14600
H  0.94100 59.47000 39.56500
H  0.72300 58.46900 41.06400
H  0.33800 57.78500 39.53900
H  1.39900 52.84900 42.97300
H  1.20300 51.74400 41.75200
H  1.08800 53.38900 41.30800
H  6.28200 49.43300 41.09700
H  4.34400 46.34600 39.18500
H  5.99000 45.70300 39.16600
H  5.39700 46.70000 37.78700

