158

Mg 50.42000 46.03800 41.47700
C  47.41500 47.44800 40.52200
C  49.43600 43.04400 40.27300
C  53.62300 44.81000 42.00400
C  51.65400 49.20800 42.08500
N  48.69900 45.38200 40.31900
C  47.47300 46.06500 40.23400
C  46.27000 45.08500 39.87500
C  46.98000 43.72900 39.99700
C  48.49100 44.05600 40.25300
C  46.42800 42.65000 41.01100
C  45.70200 45.44700 38.50800
C  44.18700 45.01700 38.30400
H  44.00500 43.98900 37.14300
N  51.36100 44.15200 41.15300
C  50.72800 43.05700 40.72100
C  51.70900 42.00200 40.79100
C  52.98700 42.55700 41.03000
C  52.67400 43.89900 41.43100
C  51.33900 40.57700 40.19400
C  54.32900 41.85200 40.89400
O  54.38900 40.66100 40.61900
C  55.64300 42.56800 41.11100
N  52.40000 46.92700 42.04200
C  53.46400 46.14300 42.25500
C  54.66000 47.02800 42.61900
C  53.97800 48.39700 42.79800
C  52.56700 48.19400 42.25200
C  55.60800 46.53100 43.75400
C  54.80500 49.58800 42.21800
C  55.58300 50.53800 43.20400
N  49.76000 47.88700 41.27900
C  50.31200 49.07300 41.63700
C  49.38800 50.18000 41.56200
C  48.16700 49.58400 41.13100
C  48.47900 48.20900 41.02700
C  49.57100 51.59300 42.11700
C  46.76100 49.78000 40.89900
O  46.02500 50.73500 41.09300
C  46.28700 48.40800 40.38300
C  45.03600 47.89800 41.18600
O  44.96700 47.55600 42.35000
O  43.95900 48.00600 40.36500
C  42.72300 47.36100 40.92700
H  49.01700 42.04800 40.11500
H  54.62600 44.44700 42.23600
H  51.90900 50.22400 42.39200
H  45.50800 45.20200 40.64600
H  47.13600 43.21800 39.04700
H  46.34600 41.63500 40.62100
H  45.49600 43.00100 41.45300
H  47.20300 42.46800 41.75600
H  46.30600 44.99000 37.72400
H  45.91100 46.50100 38.32300
H  43.64700 45.93500 38.07200
H  43.84200 44.53100 39.21600
H  51.36700 40.70500 39.11200
H  50.33600 40.30100 40.52200
H  51.99400 39.76200 40.50400
H  56.04100 42.37300 42.10700
H  55.75800 43.63600 40.92700
H  56.38500 42.01700 40.53300
H  55.28200 47.01400 41.72400
H  53.90100 48.53100 43.87700
H  55.64500 47.13100 44.66300
H  56.63300 46.65500 43.40500
H  55.42700 45.52500 44.13400
H  54.13000 50.24600 41.67200
H  55.57300 49.21800 41.53900
H  55.44900 51.58700 42.94000
H  56.61700 50.20800 43.29500
H  55.12100 50.33700 44.17100
H  49.63700 52.25300 41.25100
H  50.49900 51.74400 42.66700
H  48.73200 51.97000 42.70300
H  46.02600 48.44800 39.32500
H  43.06600 46.40100 41.31400
H  42.11100 47.16400 40.04800
H  42.15700 47.93200 41.66300
Mg 49.32100 35.21000 26.20300
C  47.65500 34.13200 29.08900
C  49.91300 38.13800 27.62200
C  50.78200 36.05100 23.38300
C  48.31000 32.01800 24.63500
N  48.97200 35.98600 28.19900
C  48.22400 35.39800 29.20300
C  47.98800 36.41400 30.34300
C  48.54500 37.77600 29.74800
C  49.24200 37.24300 28.43700
C  47.46000 38.81600 29.47800
C  48.82200 36.03600 31.69200
C  48.03000 35.84800 33.01500
H  47.85700 36.96500 34.05300
N  50.22600 36.84900 25.54600
C  50.33900 38.00100 26.28100
C  51.21200 38.90800 25.52800
C  51.55800 38.35400 24.29000
C  50.88600 36.99800 24.36100
C  51.62500 40.32300 26.02200
C  52.32800 38.86700 23.11800
O  52.66300 38.20700 22.08200
C  52.92200 40.26000 23.16200
N  49.42800 34.17800 24.35300
C  50.13200 34.84200 23.33700
C  50.22200 33.89100 22.16600
C  49.60400 32.53800 22.54200
C  49.11800 32.93800 23.95900
C  49.61700 34.56100 20.82300
C  50.60200 31.32500 22.51000
C  50.20400 30.15700 21.56300
N  48.20500 33.46200 26.72200
C  47.93000 32.24900 25.98200
C  47.09800 31.40000 26.81000
C  46.98800 32.06900 28.05500
C  47.69600 33.29400 27.97400
C  46.53300 30.09000 26.42400
C  46.46600 31.97700 29.31100
O  45.86800 31.07500 29.78400
C  46.60900 33.38400 29.94600
C  46.99600 33.09500 31.34900
O  48.11400 32.83900 31.74300
O  45.86200 33.18400 32.09900
C  45.96900 32.83300 33.51200
H  50.11100 39.12900 28.03500
H  51.42500 36.15500 22.50600
H  48.12100 30.97900 24.36000
H  46.92200 36.52200 30.54500
H  49.20700 38.25500 30.46900
H  47.31300 38.94800 28.40700
H  47.69400 39.73000 30.02500
H  46.47700 38.59300 29.89100
H  49.41000 36.93000 31.90500
H  49.40300 35.13500 31.49900
H  48.45500 35.02000 33.58300
H  47.02300 35.64000 32.65200
H  51.06100 40.98300 25.36200
H  52.67200 40.60600 26.12900
H  51.27300 40.54400 27.02900
H  53.57200 40.42300 22.30200
H  53.43800 40.58200 24.06600
H  52.05700 40.88700 22.94400
H  51.30200 33.84500 22.03000
H  48.76600 32.32200 21.88000
H  48.71900 34.15300 20.36000
H  50.35200 34.54300 20.01800
H  49.53200 35.61600 21.08100
H  50.64800 30.83100 23.48100
H  51.57300 31.66500 22.15000
H  49.67300 30.66000 20.75500
H  49.63200 29.34100 22.00400
H  51.17800 29.83400 21.19600
H  45.92600 30.27600 25.53800
H  45.98900 29.64000 27.25400
H  47.32900 29.37200 26.22600
H  45.67300 33.94200 29.94900
H  46.75000 32.09300 33.68900
H  45.00900 32.45600 33.86500
H  46.15600 33.71000 34.13100

