158

Mg 16.81500 51.75500 26.79700
C  18.88200 50.48200 29.22400
C  14.58000 52.78500 29.17200
C  14.74800 52.61000 24.25600
C  19.01300 50.40800 24.38600
N  16.69500 51.49500 28.82800
C  17.72800 51.08800 29.74200
C  17.34500 51.31500 31.15900
C  15.84400 51.74600 31.14100
C  15.70100 52.00700 29.62700
C  14.86000 50.72600 31.79100
C  18.25300 52.45000 31.77900
C  18.40200 52.46200 33.31100
H  17.44400 51.51600 34.18200
N  15.00000 52.73200 26.67000
C  14.25200 53.04500 27.84200
C  13.13800 53.85200 27.38500
C  13.17600 53.85400 25.90200
C  14.37300 53.03100 25.55000
C  12.11100 54.44400 28.38600
C  12.19300 54.54700 24.92300
O  12.36700 54.50300 23.70900
C  11.01300 55.29800 25.42500
N  16.89600 51.43700 24.62400
C  15.90000 51.93800 23.86100
C  16.17800 51.65000 22.35900
C  17.62900 50.99700 22.37000
C  17.88800 50.92700 23.87400
C  15.15900 50.67600 21.84400
C  18.73900 51.85200 21.58400
C  19.04600 53.21300 22.07800
N  18.54900 50.65900 26.78700
C  19.33000 50.25400 25.74600
C  20.47700 49.52100 26.25500
C  20.34600 49.66100 27.60600
C  19.16200 50.34700 27.89500
C  21.59200 48.81700 25.49700
C  21.01000 49.32500 28.89400
O  22.05800 48.76500 29.07400
C  20.01800 49.80900 30.04600
C  19.47500 48.67300 30.83000
O  18.77300 47.83500 30.34400
O  19.96800 48.65000 32.11100
C  19.54700 47.53200 32.86900
H  13.95600 53.08000 30.01800
H  14.11000 52.84200 23.40100
H  19.64200 49.89300 23.65600
H  17.54600 50.39700 31.71000
H  15.67400 52.71500 31.61000
H  15.46700 49.97700 32.29900
H  14.29600 50.21600 31.00900
H  14.17900 51.22500 32.48100
H  17.80900 53.40400 31.49500
H  19.28400 52.34400 31.44000
H  18.04800 53.45400 33.59100
H  19.43000 52.25100 33.60400
H  12.58800 55.26000 28.92900
H  11.96900 53.69000 29.15900
H  11.14200 54.71700 27.96800
H  10.22400 54.57300 25.62700
H  10.72300 55.97400 24.62100
H  11.40500 55.99900 26.16100
H  16.18900 52.54800 21.74100
H  17.55700 49.95300 22.06500
H  14.58500 51.32200 21.17900
H  14.48700 50.11500 22.49300
H  15.72000 49.99200 21.20700
H  18.52100 52.01200 20.52800
H  19.63300 51.23500 21.67700
H  18.20300 53.67800 22.59100
H  19.28800 53.85200 21.22900
H  19.94900 53.21900 22.68900
H  22.60900 49.14300 25.72100
H  21.45100 48.97800 24.42900
H  21.64400 47.78100 25.83100
H  20.52400 50.54300 30.67300
H  18.46300 47.54400 32.98200
H  19.98600 47.49600 33.86600
H  19.70300 46.52100 32.49300
Mg 1.27800 41.16200 26.74400
C  3.28000 41.99300 29.41300
C  -1.09700 40.06000 29.02200
C  -0.66000 40.26900 24.06900
C  3.82800 42.10200 24.54900
N  1.05700 41.13300 28.97200
C  2.00900 41.52800 29.84300
C  1.52300 41.62200 31.21300
C  0.21000 40.77600 31.16600
C  -0.02000 40.70300 29.64600
C  0.41000 39.38600 31.74600
C  1.27500 43.14000 31.66500
C  1.82600 43.46000 33.03200
H  1.58900 42.39800 34.12800
N  -0.60000 40.27600 26.55700
C  -1.41100 39.80600 27.60500
C  -2.45100 38.90600 27.02200
C  -2.27600 38.97700 25.58200
C  -1.11100 39.90300 25.36700
C  -3.37900 38.16500 27.91300
C  -3.03600 38.14300 24.49800
O  -2.79600 38.19400 23.28100
C  -4.19000 37.22700 24.99800
N  1.41600 41.41300 24.65200
C  0.49500 41.01000 23.78700
C  0.99800 41.30700 22.35600
C  2.43400 41.91500 22.52100
C  2.56300 41.80100 24.00300
C  0.96700 40.06900 21.34900
C  2.67200 43.35800 22.01400
C  2.18900 44.54600 22.86700
N  3.18400 41.91800 26.87700
C  4.17000 42.18400 25.94000
C  5.29300 42.79600 26.56600
C  5.02100 42.67100 27.95000
C  3.71000 42.17100 28.11100
C  6.51100 43.40600 25.95200
C  5.64600 42.78100 29.24100
O  6.79000 43.06100 29.56400
C  4.48600 42.38300 30.24700
C  4.91700 41.15000 30.99300
O  5.04100 39.94700 30.63100
O  5.24100 41.47600 32.26800
C  5.35900 40.40500 33.17600
H  -1.81600 39.53200 29.65300
H  -1.36400 40.01400 23.27400
H  4.61600 42.37700 23.84500
H  2.33800 41.12100 31.73500
H  -0.57800 41.23800 31.76000
H  -0.38100 38.95300 32.35900
H  1.32800 39.33000 32.33100
H  0.55600 38.66000 30.94600
H  0.18700 43.19000 31.70300
H  1.73800 43.82800 30.95700
H  1.47700 44.44400 33.34700
H  2.89500 43.65200 32.94100
H  -3.45100 37.07900 27.84400
H  -4.36500 38.51800 27.61200
H  -3.35200 38.60600 28.90900
H  -3.87100 36.30500 25.48300
H  -4.77100 36.97700 24.11000
H  -4.76000 37.95900 25.57000
H  0.32100 42.06100 21.95500
H  3.14300 41.20900 22.08900
H  0.43400 39.16700 21.64900
H  1.98300 39.70700 21.19400
H  0.46900 40.42300 20.44600
H  2.22500 43.45700 21.02500
H  3.75900 43.44200 22.02800
H  3.03400 45.09200 23.28800
H  1.65400 44.21600 23.75800
H  1.56200 45.23400 22.30100
H  6.35200 43.75700 24.93200
H  7.36300 42.73700 26.07700
H  6.87300 44.22700 26.57000
H  4.38700 43.25700 30.89100
H  6.32600 39.90700 33.11500
H  4.56700 39.65600 33.14200
H  5.29400 40.85500 34.16700

