158

Mg 39.99600 9.82400 29.88300
C  41.87600 11.04700 32.73400
C  37.55200 8.71900 32.06600
C  38.41800 8.49100 27.26200
C  42.72400 10.68600 27.89300
N  39.88800 9.63400 32.20300
C  40.65500 10.40900 33.14400
C  40.02200 10.32100 34.55900
C  38.70800 9.50500 34.26100
C  38.65100 9.31400 32.74100
C  38.58400 8.16800 35.01400
C  39.77000 11.79200 35.15400
C  40.67500 12.19500 36.35800
H  40.12100 12.60300 37.69800
N  38.14800 8.77300 29.66500
C  37.33900 8.43800 30.69300
C  36.21700 7.76900 30.14200
C  36.47100 7.64600 28.78300
C  37.67000 8.36000 28.45600
C  35.11200 7.24000 30.99000
C  35.60800 6.97100 27.69000
O  35.92500 6.78300 26.53100
C  34.32300 6.42200 28.05500
N  40.45800 9.71100 27.81400
C  39.68200 9.03000 26.93300
C  40.23000 9.02800 25.47800
C  41.64600 9.65700 25.74100
C  41.67600 9.99600 27.26800
C  40.40000 7.52500 24.99600
C  41.97500 10.90800 24.87100
C  41.18000 12.18400 25.25400
N  41.95700 10.69400 30.14400
C  42.90200 11.06100 29.20800
C  43.98600 11.74000 29.91400
C  43.60100 11.79800 31.29800
C  42.34100 11.06600 31.38400
C  45.18000 12.38400 29.30700
C  44.01800 12.31000 32.60100
O  45.12100 12.79300 32.91500
C  42.90800 11.78100 33.59500
C  43.63000 10.84100 34.59300
O  43.80700 9.63600 34.50300
O  44.14400 11.61600 35.59600
C  44.56600 10.98200 36.84500
H  36.72400 8.59100 32.76700
H  37.93900 8.06800 26.37700
H  43.71400 10.88900 27.48100
H  40.81500 9.87200 35.15800
H  37.79700 10.09100 34.38000
H  38.51500 7.37400 34.27000
H  37.62300 8.25500 35.52100
H  39.38000 7.98500 35.73500
H  38.73700 11.89000 35.48900
H  39.82500 12.55200 34.37500
H  41.36800 12.97300 36.03800
H  41.24000 11.28400 36.55400
H  34.21200 7.78100 30.69700
H  35.31400 7.23800 32.06100
H  35.07400 6.17600 30.75900
H  34.45900 5.72900 28.88600
H  33.83300 5.97000 27.19200
H  33.65200 7.20100 28.41800
H  39.57100 9.50300 24.75100
H  42.37100 8.86900 25.53700
H  39.98100 6.74800 25.63700
H  41.44900 7.25300 24.88000
H  39.88400 7.27400 24.06900
H  41.88700 10.49800 23.86400
H  43.04900 11.09200 24.85300
H  41.86000 12.97000 25.58400
H  40.50000 11.98500 26.08200
H  40.56200 12.47900 24.40700
H  44.99500 12.74900 28.29800
H  45.94400 11.60800 29.25700
H  45.43600 13.17400 30.01300
H  42.48200 12.65700 34.08400
H  44.21000 11.55600 37.70100
H  45.64300 11.15000 36.86800
H  44.32400 9.92000 36.88200
Mg -4.59700 25.42500 25.52400
C  -3.24900 26.57500 28.48800
C  -6.70600 23.32500 27.45100
C  -5.73800 24.05000 22.66400
C  -2.35700 27.29200 23.76800
N  -4.96500 25.06600 27.78500
C  -4.33900 25.66700 28.77500
C  -4.83200 25.28000 30.18000
C  -5.58300 24.00200 29.81000
C  -5.83100 24.14300 28.22500
C  -4.85500 22.69200 30.23000
C  -5.58900 26.44700 30.90500
C  -5.04300 26.73600 32.28600
H  -5.16700 25.70800 33.37900
N  -6.07500 23.92500 25.10100
C  -6.91600 23.26400 26.04300
C  -7.83500 22.42400 25.30500
C  -7.58300 22.64000 23.89900
C  -6.43000 23.55900 23.80700
C  -8.77200 21.47100 25.99000
C  -8.36700 22.11200 22.68200
O  -7.99800 22.40300 21.54100
C  -9.63700 21.34200 23.00200
N  -4.28600 25.82900 23.59400
C  -4.71900 24.96500 22.56700
C  -3.97400 25.16800 21.22100
C  -3.11800 26.36800 21.51300
C  -3.26600 26.52100 23.03200
C  -3.34400 23.86600 20.77300
C  -3.42100 27.69600 20.68600
C  -2.46000 28.06300 19.58600
N  -2.96800 26.70100 26.01700
C  -2.13100 27.42100 25.15800
C  -1.25000 28.27800 25.97200
C  -1.66100 27.92000 27.30200
C  -2.68900 26.94900 27.25400
C  -0.19000 29.23500 25.58100
C  -1.37400 28.22700 28.65800
O  -0.53100 28.98000 29.09800
C  -2.44100 27.34000 29.50000
C  -1.66700 26.34600 30.33400
O  -1.45900 25.19300 30.13600
O  -1.23500 26.99600 31.47700
C  -0.70800 26.17300 32.63700
H  -7.37500 22.69300 28.03800
H  -5.84800 23.54500 21.70200
H  -1.64700 27.72100 23.05800
H  -3.93100 25.00400 30.72800
H  -6.62100 24.06800 30.13600
H  -3.97200 22.79100 30.86100
H  -4.53300 22.26400 29.28100
H  -5.59400 22.13800 30.81000
H  -6.64500 26.20300 31.01500
H  -5.50900 27.40000 30.38200
H  -5.53800 27.63900 32.64300
H  -4.00600 27.04600 32.15800
H  -9.76300 21.92300 25.94200
H  -8.50600 21.44400 27.04700
H  -8.60900 20.49400 25.53500
H  -10.02000 21.11400 22.00700
H  -10.39300 22.02300 23.39100
H  -9.47300 20.48000 23.64900
H  -4.75900 25.38500 20.49700
H  -2.07800 26.05900 21.41200
H  -3.52300 23.03500 21.45500
H  -2.27000 23.95100 20.60800
H  -3.76400 23.57700 19.80900
H  -3.38500 28.61600 21.27000
H  -4.45400 27.65200 20.34100
H  -2.66300 27.61300 18.61400
H  -1.52400 27.63100 19.93900
H  -2.34500 29.13100 19.40000
H  0.37800 28.84200 24.73800
H  0.39100 29.40300 26.48800
H  -0.63900 30.17000 25.24400
H  -3.04700 28.05200 30.06100
H  -0.92400 25.10900 32.54500
H  -1.08300 26.43200 33.62700
H  0.36000 26.37900 32.56200

