158

Mg 24.46000 -7.51100 46.11400
C  26.90200 -5.12700 45.05900
C  22.11400 -5.99100 44.13600
C  22.41400 -10.02300 46.78000
C  27.13300 -9.26100 47.63100
N  24.54200 -5.79400 44.81600
C  25.61100 -4.91800 44.60100
C  25.22900 -3.79000 43.59100
C  23.62900 -3.99600 43.41200
C  23.42800 -5.35500 44.27200
C  22.76100 -2.82600 43.91400
C  25.92800 -3.86300 42.30900
C  26.48100 -2.53000 41.76500
H  25.52000 -1.89500 40.73900
N  22.38000 -7.86300 45.68600
C  21.63500 -7.17000 44.82000
C  20.33900 -7.77500 44.78700
C  20.34200 -8.95300 45.59200
C  21.72600 -8.98700 46.11100
C  19.14800 -7.06300 44.16300
C  19.16600 -9.87900 45.83500
O  18.20000 -9.71200 45.07400
C  19.22300 -10.98900 46.77800
N  24.81100 -9.31600 46.97800
C  23.75400 -10.15700 47.12700
C  24.14100 -11.47100 47.89200
C  25.64200 -11.24700 48.23900
C  25.87700 -9.90000 47.52600
C  23.26000 -11.94000 49.13700
C  26.74000 -12.31000 48.08600
C  27.49300 -12.85700 49.31600
N  26.56500 -7.34000 46.28100
C  27.53700 -8.10900 46.97100
C  28.85400 -7.48900 46.88000
C  28.67600 -6.32800 46.11400
C  27.26900 -6.28900 45.77300
C  30.01500 -7.93000 47.67700
C  29.32000 -5.04900 45.63900
O  30.43100 -4.64300 45.87500
C  28.21900 -4.34100 44.79800
C  28.23100 -2.96600 45.05300
O  28.91500 -2.19800 44.35400
O  27.49000 -2.57500 46.13800
C  27.50700 -1.19300 46.45100
H  21.35700 -5.51400 43.51000
H  21.72100 -10.80100 47.10500
H  28.05000 -9.68300 48.04800
H  25.43600 -2.80200 44.00200
H  23.30800 -4.14000 42.38000
H  23.32100 -2.04600 44.42900
H  21.93300 -3.11800 44.56100
H  22.19800 -2.19600 43.22500
H  25.17300 -4.21100 41.60500
H  26.76900 -4.55700 42.31300
H  27.48000 -2.79100 41.41600
H  26.71100 -1.80500 42.54500
H  19.30600 -6.00500 43.95800
H  18.21900 -7.30100 44.68200
H  19.00600 -7.44800 43.15400
H  19.49500 -10.51900 47.72300
H  20.03000 -11.63100 46.42600
H  18.31200 -11.58100 46.86300
H  23.90200 -12.25100 47.16900
H  25.69100 -11.00200 49.30000
H  22.92300 -12.94800 48.89700
H  22.48100 -11.20700 49.34700
H  23.90900 -11.99100 50.01000
H  27.39500 -11.98500 47.27800
H  26.27600 -13.15500 47.57700
H  27.03900 -13.84800 49.33700
H  27.14000 -12.21700 50.12400
H  28.57100 -12.84200 49.15400
H  29.75400 -8.47200 48.58700
H  30.75200 -7.14800 47.85900
H  30.58300 -8.68300 47.13100
H  28.44500 -4.58500 43.76000
H  27.07000 -1.18700 47.44900
H  27.04900 -0.59400 45.66400
H  28.50400 -0.78800 46.62700
Mg 16.87600 -3.01900 28.20800
C  16.06200 -0.80100 30.88300
C  18.97200 -4.77700 30.35100
C  18.53600 -4.58000 25.62200
C  15.76100 -0.58700 26.03700
N  17.50600 -2.79700 30.38000
C  16.88900 -1.92100 31.30100
C  17.27300 -2.27700 32.74500
C  18.48600 -3.28900 32.52400
C  18.26200 -3.68200 31.01900
C  19.96700 -2.80200 32.98000
C  16.10100 -2.81400 33.63700
C  16.18100 -2.43900 35.16300
H  17.50100 -2.21700 35.82400
N  18.35100 -4.59000 27.98000
C  19.06400 -5.15300 28.98300
C  19.94500 -6.16700 28.51100
C  19.68900 -6.20200 27.11000
C  18.74400 -5.10500 26.87300
C  20.82900 -7.05900 29.43300
C  20.27900 -7.05600 26.06500
O  19.81800 -7.08400 24.93500
C  21.35200 -8.07400 26.40800
N  17.02500 -2.68700 26.13500
C  17.75500 -3.47500 25.29100
C  17.62900 -2.99700 23.85800
C  16.67400 -1.70500 23.99800
C  16.49400 -1.65500 25.44600
C  18.96000 -2.62200 23.07300
C  15.29600 -1.85400 23.26700
C  14.69600 -0.58300 22.67200
N  15.90900 -1.19900 28.39500
C  15.36200 -0.39900 27.35800
C  14.51800 0.66600 27.92600
C  14.80800 0.51100 29.30000
C  15.61400 -0.63800 29.57400
C  13.84600 1.70800 27.08900
C  14.69800 1.17200 30.58400
O  14.14600 2.29100 30.80900
C  15.44900 0.26400 31.67800
C  16.44900 1.18100 32.34300
O  17.61600 1.39500 32.02200
O  15.88500 1.83000 33.43700
C  16.67200 2.93800 34.00500
H  19.60400 -5.26000 31.09900
H  19.02000 -4.95600 24.71900
H  15.77700 0.32700 25.43900
H  17.68900 -1.37400 33.19300
H  18.33400 -4.16100 33.15900
H  20.27200 -3.39100 33.84500
H  19.82800 -1.77900 33.32900
H  20.68700 -3.08900 32.21300
H  15.90100 -3.88400 33.56500
H  15.20900 -2.29200 33.29100
H  15.62200 -3.08900 35.83500
H  15.57200 -1.53700 35.10400
H  21.82900 -6.66600 29.24900
H  20.88000 -8.10000 29.11300
H  20.59700 -6.98500 30.49500
H  22.15200 -7.62100 26.99400
H  21.87600 -8.55100 25.57800
H  20.84300 -8.86800 26.95400
H  17.07200 -3.75700 23.31000
H  17.23400 -0.78700 23.81900
H  18.80600 -1.76600 22.41600
H  19.30800 -3.47600 22.49200
H  19.81000 -2.37400 23.70800
H  14.60500 -2.15800 24.05200
H  15.37700 -2.62400 22.49900
H  15.00300 -0.59400 21.62600
H  15.17300 0.21700 23.23900
H  13.60900 -0.52700 22.72500
H  14.14200 2.70700 27.40900
H  12.78200 1.71400 27.32400
H  13.98700 1.55800 26.01800
H  14.66600 -0.03800 32.37300
H  16.42700 3.88500 33.52500
H  17.75300 2.79700 33.98900
H  16.37000 2.89100 35.05100

