158

Mg 48.47500 35.83300 28.43300
C  46.53300 33.87100 30.55900
C  48.74900 38.25100 30.80200
C  49.77100 37.93800 26.09300
C  48.25300 33.32600 25.98800
N  47.61700 36.03000 30.39000
C  47.11300 35.05900 31.15900
C  47.43200 35.30000 32.62100
C  47.60900 36.85800 32.60000
C  48.09000 37.09900 31.21300
C  46.40900 37.79200 33.01500
C  48.72400 34.54300 33.03500
C  49.09500 34.37300 34.50700
H  48.29800 35.21700 35.55900
N  49.37100 37.70700 28.51900
C  49.34800 38.49200 29.61400
C  49.98300 39.77400 29.28900
C  50.30600 39.72100 27.91300
C  49.75700 38.44300 27.44500
C  50.37100 40.84600 30.31100
C  51.04600 40.72100 27.19200
O  51.32000 40.41300 26.04600
C  51.47900 42.03400 27.82200
N  48.88900 35.66100 26.34700
C  49.38500 36.66700 25.56100
C  49.69600 36.09200 24.11900
C  49.47300 34.65000 24.29900
C  48.86500 34.51700 25.62600
C  48.73200 36.76500 23.11800
C  50.86100 33.86800 24.21200
C  50.94800 32.73200 23.16500
N  47.49600 33.95300 28.23700
C  47.55500 32.99200 27.19700
C  46.63100 31.97600 27.52000
C  46.21100 32.24100 28.83800
C  46.84300 33.42300 29.22800
C  46.33000 30.82500 26.60500
C  45.40300 31.77700 29.97400
O  44.64000 30.80800 30.06200
C  45.69900 32.76000 31.14000
C  46.42800 32.01000 32.20200
O  47.48200 31.38000 32.02000
O  45.82600 32.20100 33.48300
C  46.55600 31.79000 34.64600
H  48.89100 38.96500 31.61600
H  50.20400 38.49000 25.25600
H  48.32700 32.59100 25.18300
H  46.53200 35.16800 33.22200
H  48.42300 37.23000 33.22200
H  45.55100 37.15000 33.21500
H  46.08600 38.42500 32.18900
H  46.85500 38.39600 33.80500
H  49.54500 35.00000 32.48300
H  48.56900 33.49600 32.77200
H  50.15900 34.55100 34.66300
H  49.10000 33.30400 34.71900
H  51.43600 41.07000 30.24600
H  50.01200 40.65400 31.32300
H  49.74800 41.72600 30.15000
H  50.64300 42.52100 28.32400
H  51.78500 42.59800 26.94100
H  52.31100 41.87900 28.50800
H  50.68600 36.33100 23.73100
H  48.79200 34.25500 23.54500
H  49.28800 37.03800 22.22100
H  48.33200 37.71200 23.48300
H  47.94400 36.02300 22.99100
H  51.08500 33.50200 25.21400
H  51.63300 34.61600 24.03100
H  51.84100 32.17300 23.44600
H  51.05700 33.21800 22.19500
H  50.07700 32.11300 23.38100
H  45.49000 30.17800 26.85800
H  47.28400 30.30200 26.53300
H  46.04900 31.19200 25.61800
H  44.74200 33.11200 31.52400
H  46.73700 32.66200 35.27400
H  47.50500 31.30800 34.41400
H  45.84800 31.11100 35.12200
Mg 36.32900 49.30200 26.43900
C  36.34700 46.94700 29.03800
C  35.47300 51.74300 28.62900
C  35.98300 51.34500 23.84600
C  36.85900 46.62800 24.19700
N  36.07600 49.37900 28.62400
C  36.12800 48.30300 29.47300
C  35.88000 48.73400 30.87700
C  35.48500 50.18600 30.63000
C  35.60100 50.49000 29.20300
C  34.17800 50.51700 31.26300
C  37.09700 48.61100 31.88800
C  36.63000 48.26400 33.33700
H  36.64100 49.39600 34.39700
N  35.77100 51.25000 26.29900
C  35.45600 52.13600 27.29000
C  35.35600 53.47000 26.75300
C  35.63100 53.46000 25.35500
C  35.83600 51.96900 25.14000
C  35.14500 54.56300 27.72300
C  35.60200 54.62200 24.38100
O  36.03800 54.39300 23.25100
C  35.37900 56.10400 24.76500
N  36.31600 48.95800 24.29000
C  36.08600 50.01700 23.45800
C  36.34300 49.64900 21.92400
C  37.03700 48.22600 22.16500
C  36.71800 47.91300 23.62500
C  35.16400 49.59200 20.91000
C  38.57300 48.09700 21.71000
C  38.90800 47.37800 20.39900
N  36.58500 47.22100 26.50500
C  36.85700 46.25900 25.53000
C  37.23600 45.09000 26.21600
C  36.98000 45.26400 27.57600
C  36.55600 46.59900 27.72100
C  37.85900 43.90700 25.54400
C  36.98900 44.61800 28.88100
O  37.38100 43.48300 29.17200
C  36.50600 45.64500 29.92700
C  35.23500 45.25100 30.65800
O  34.21900 44.85500 30.10400
O  35.40300 45.60400 31.96500
C  34.36900 45.09300 32.82400
H  35.18100 52.59200 29.25000
H  35.91300 52.03800 23.00500
H  37.11000 45.79100 23.54200
H  34.98800 48.22900 31.24800
H  36.24700 50.89300 30.95800
H  33.30200 50.20600 30.69300
H  33.96900 51.58700 31.28800
H  34.24500 50.25700 32.31900
H  37.55300 49.58300 32.07600
H  37.87900 47.89000 31.65000
H  37.14700 47.35400 33.64200
H  35.56500 48.03200 33.33600
H  36.07800 54.74400 28.25800
H  34.43300 54.22400 28.47600
H  34.78800 55.51600 27.33400
H  36.22000 56.66000 25.18100
H  34.53500 56.12100 25.45500
H  34.93200 56.57300 23.88900
H  37.08000 50.30100 21.45700
H  36.48600 47.44900 21.63500
H  35.07200 48.68600 20.31200
H  35.21500 50.39800 20.17800
H  34.30200 49.65100 21.57500
H  39.15500 47.69200 22.53700
H  39.01300 49.09000 21.61200
H  38.06200 47.43200 19.71400
H  39.11100 46.33300 20.63300
H  39.79900 47.91300 20.07000
H  38.86200 44.30700 25.39200
H  37.41900 43.62200 24.58900
H  37.85200 43.00500 26.15600
H  37.27300 45.87600 30.66600
H  34.61600 44.04400 32.98900
H  33.43500 45.23100 32.28000
H  34.37800 45.63000 33.77300

