158

Mg -2.35000 17.38700 27.70200
C  -2.56800 15.08700 30.27900
C  -2.93300 19.94100 29.72100
C  -2.39700 19.45400 24.85500
C  -2.10700 14.68200 25.34600
N  -2.90800 17.42900 29.73100
C  -2.78700 16.44700 30.68300
C  -2.92400 16.98700 32.18300
C  -3.05800 18.52400 31.94300
C  -2.96000 18.65000 30.36900
C  -4.22300 19.19100 32.65800
C  -1.78200 16.63800 33.24000
C  -1.39200 17.64600 34.40700
H  -1.08100 16.96200 35.67800
N  -2.54400 19.37400 27.36400
C  -2.74200 20.26000 28.37800
C  -2.75600 21.63700 27.86500
C  -2.38600 21.49500 26.46700
C  -2.42200 20.05300 26.14300
C  -3.01100 22.86000 28.64700
C  -1.98300 22.56800 25.45100
O  -1.63800 22.31500 24.27800
C  -1.87900 23.96200 25.88200
N  -2.44600 17.13000 25.40400
C  -2.40900 18.18500 24.54700
C  -2.19300 17.66200 23.05800
C  -1.81300 16.19300 23.29400
C  -2.17300 15.93400 24.75400
C  -3.43100 17.79000 22.22600
C  -0.32100 15.93300 23.03200
C  0.71600 16.46000 24.05100
N  -2.50100 15.32300 27.61700
C  -2.33200 14.36100 26.68700
C  -2.27900 13.09700 27.37000
C  -2.47600 13.28000 28.73300
C  -2.59600 14.66100 28.87400
C  -1.92400 11.79900 26.70600
C  -2.40600 12.60900 29.96300
O  -1.97700 11.52900 30.25900
C  -2.56900 13.73100 31.07200
C  -1.53500 13.63400 32.12200
O  -0.36200 13.98000 32.00100
O  -2.13000 13.16100 33.27600
C  -1.30000 13.17600 34.49200
H  -2.94400 20.74500 30.46000
H  -2.42700 20.07900 23.95900
H  -1.76200 13.89000 24.67800
H  -3.82100 16.54500 32.61800
H  -2.16700 19.12200 32.13300
H  -4.76500 18.52700 33.33100
H  -4.93500 19.42000 31.86500
H  -3.85600 20.11600 33.10200
H  -0.83600 16.49800 32.71700
H  -2.16800 15.74100 33.72500
H  -2.14900 18.41100 34.57800
H  -0.43400 18.08600 34.12700
H  -2.26100 23.65000 28.68800
H  -3.29600 22.50800 29.63800
H  -3.89600 23.30400 28.19200
H  -2.79400 24.27600 26.38400
H  -1.53000 24.58500 25.05800
H  -1.06600 23.97300 26.60700
H  -1.39600 18.28300 22.64800
H  -2.36200 15.45800 22.70500
H  -4.17300 18.42200 22.71400
H  -3.89500 16.84600 21.94100
H  -3.13400 18.29500 21.30600
H  -0.08700 16.38500 22.06800
H  -0.03500 14.93100 22.71200
H  1.59500 16.92300 23.60100
H  1.04500 15.85200 24.89400
H  0.29400 17.33400 24.54800
H  -1.13500 11.82100 25.95300
H  -2.79500 11.35600 26.22400
H  -1.68400 10.99700 27.40400
H  -3.55100 13.66200 31.53800
H  -1.17300 12.15700 34.85700
H  -1.73700 13.81200 35.26200
H  -0.26600 13.50700 34.39700
Mg 17.47900 -0.28000 27.89100
C  16.43600 1.71700 30.54700
C  19.52700 -1.97200 30.06700
C  19.09100 -1.82400 25.24800
C  16.03700 1.89900 25.77700
N  17.94700 -0.04200 30.05100
C  17.19900 0.63700 30.94800
C  17.50100 0.25200 32.39600
C  18.64500 -0.80200 32.22400
C  18.79100 -0.91800 30.68200
C  19.99200 -0.43900 32.89400
C  16.25100 -0.39500 33.14100
C  15.98200 -0.03100 34.62400
H  17.20700 0.55900 35.42500
N  18.88100 -1.91200 27.69700
C  19.58200 -2.48500 28.72500
C  20.49500 -3.51600 28.25000
C  20.36500 -3.52100 26.77700
C  19.41700 -2.38300 26.52300
C  21.28600 -4.40000 29.19300
C  21.01600 -4.40500 25.77200
O  20.84500 -4.20500 24.56100
C  22.08000 -5.35400 26.11900
N  17.60900 -0.04100 25.78200
C  18.19700 -0.77500 24.89100
C  17.72700 -0.42000 23.45100
C  16.64400 0.67600 23.66100
C  16.73400 0.84500 25.13900
C  18.87000 0.12500 22.46800
C  15.27600 0.31400 23.03900
C  14.91200 1.08400 21.70900
N  16.41400 1.50100 28.01700
C  15.82400 2.25200 27.07700
C  15.16300 3.43500 27.67700
C  15.41300 3.27200 29.05900
C  16.14700 2.02200 29.17800
C  14.49700 4.50500 26.84700
C  15.13100 3.75100 30.40100
O  14.35000 4.69800 30.78000
C  15.67300 2.74500 31.36000
C  16.67900 3.52700 32.10900
O  17.66300 4.04000 31.65600
O  16.22200 3.65800 33.42300
C  16.87200 4.58700 34.31100
H  19.94100 -2.72600 30.74000
H  19.61500 -2.32200 24.43000
H  15.35000 2.37200 25.07200
H  17.85300 1.18900 32.82700
H  18.39000 -1.83000 32.48400
H  20.42100 -1.33400 33.34400
H  19.84800 0.41600 33.55400
H  20.79700 -0.02800 32.28300
H  16.36300 -1.47800 33.19000
H  15.27500 -0.21400 32.69000
H  15.69400 -0.89000 35.22900
H  15.04100 0.51800 34.66600
H  20.64300 -5.18700 29.58600
H  21.63800 -3.72800 29.97500
H  22.15900 -4.88500 28.75600
H  22.81300 -4.58000 26.34500
H  22.44500 -5.89900 25.24900
H  21.71100 -5.91900 26.97500
H  17.38700 -1.41600 23.16700
H  16.93900 1.61500 23.19400
H  19.87300 -0.16900 22.77600
H  18.93000 1.21200 22.53300
H  18.63000 -0.28100 21.48600
H  14.55200 0.50000 23.83300
H  15.23200 -0.75800 22.84500
H  15.74700 1.53600 21.17400
H  14.26000 1.87700 22.07600
H  14.45300 0.44800 20.95100
H  13.50500 4.24300 26.48100
H  15.08200 4.92600 26.02900
H  14.37600 5.30200 27.58100
H  14.88800 2.38300 32.02400
H  17.61300 5.20600 33.80400
H  17.55500 4.02900 34.95100
H  16.18900 5.19100 34.90900

