158

Mg 1.36300 -0.81800 43.01700
C  4.89600 -0.41100 42.72000
C  0.93400 1.86900 40.93800
C  -1.96500 -1.58200 42.91900
C  2.03400 -3.99500 44.25300
N  2.79800 0.43100 41.76800
C  4.15100 0.48000 41.94000
C  4.73500 1.56700 40.99700
C  3.56500 2.44300 40.52900
C  2.33700 1.54900 41.06600
C  3.41300 3.87900 41.08400
C  5.44700 0.88900 39.76600
C  6.88900 1.28300 39.49500
H  7.12300 2.12400 38.27200
N  -0.33500 0.15000 42.18100
C  -0.28100 1.21700 41.41800
C  -1.64700 1.67500 41.13800
C  -2.56100 0.80500 41.75400
C  -1.64300 -0.29100 42.36600
C  -1.92400 2.96300 40.32300
C  -4.02500 0.82700 41.77800
O  -4.70100 1.63600 41.20300
C  -4.72700 -0.19500 42.52500
N  0.25600 -2.57900 43.33300
C  -1.13200 -2.60800 43.38900
C  -1.67100 -3.98100 43.63100
C  -0.36900 -4.77100 44.00300
C  0.73200 -3.65600 43.94000
C  -2.88400 -4.12000 44.63300
C  -0.12900 -6.06900 43.15500
C  -0.13300 -7.49100 43.86800
N  3.02700 -2.00900 43.50700
C  3.12400 -3.24900 43.95800
C  4.57700 -3.57400 44.24200
C  5.30000 -2.55000 43.70100
C  4.32500 -1.57300 43.32900
C  5.16100 -4.81500 44.96300
C  6.59100 -2.03800 43.41900
O  7.69600 -2.55500 43.55500
C  6.37500 -0.56900 42.92000
C  7.03700 0.22100 43.98100
O  6.54500 0.44600 45.05500
O  8.21600 0.79500 43.59600
C  9.16500 1.44600 44.50000
H  0.80600 2.80900 40.39700
H  -2.99900 -1.91000 42.79100
H  2.19100 -4.96200 44.73500
H  5.38700 2.15400 41.64400
H  3.51100 2.54100 39.44500
H  4.33000 4.34400 41.44600
H  2.66500 3.82400 41.87500
H  3.22300 4.65000 40.33700
H  4.84600 1.04000 38.86900
H  5.57700 -0.18100 39.92800
H  7.66400 0.53500 39.66000
H  7.10000 2.07800 40.21000
H  -1.56400 2.93100 39.29400
H  -1.45800 3.81400 40.81800
H  -2.96400 3.27400 40.42200
H  -5.81000 -0.17900 42.39800
H  -4.31000 -0.26200 43.53000
H  -4.56100 -1.09000 41.92500
H  -2.14200 -4.22400 42.67900
H  -0.50000 -5.11200 45.03000
H  -3.33400 -3.13200 44.72500
H  -2.54300 -4.37800 45.63600
H  -3.58500 -4.86900 44.26300
H  0.83300 -6.04600 42.64300
H  -0.95300 -6.15500 42.44700
H  -0.58800 -7.41000 44.85500
H  0.86800 -7.92000 43.85800
H  -0.68500 -8.27100 43.34300
H  6.24100 -4.84400 45.10300
H  4.73800 -5.67500 44.44300
H  4.64800 -4.80200 45.92500
H  6.96200 -0.58400 42.00200
H  9.35700 0.81600 45.36800
H  8.75000 2.41100 44.79400
H  10.11900 1.56300 43.98600
Mg 6.90500 53.90700 41.43000
C  6.53200 50.51500 40.90200
C  10.14100 53.67200 40.08200
C  6.83700 57.21600 40.86800
C  3.57700 54.04700 42.49000
N  8.05900 52.35100 40.47500
C  7.75000 50.96400 40.50300
C  9.00900 50.07700 40.19500
C  10.10600 51.09300 40.30900
C  9.39200 52.50500 40.36200
C  11.03800 50.83600 41.57100
C  8.92500 49.27800 38.85100
C  8.80500 50.22600 37.61600
H  7.37100 50.51400 37.04700
N  8.27600 55.26800 40.56700
C  9.53800 54.99300 40.12100
C  10.21600 56.22700 39.82800
C  9.30000 57.24800 40.16600
C  8.05700 56.59500 40.57400
C  11.61900 56.27200 39.19900
C  9.61200 58.76600 40.24200
O  10.69100 59.13400 39.77900
C  8.66900 59.80200 40.79300
N  5.36800 55.46700 41.71000
C  5.62000 56.79400 41.38000
C  4.35200 57.74300 41.67600
C  3.35200 56.66800 42.17800
C  4.15600 55.32200 42.15900
C  4.53600 58.92500 42.61800
C  2.09500 56.52900 41.21100
C  0.78800 56.86300 41.96500
N  5.38300 52.59000 41.79900
C  4.09900 52.78200 42.26900
C  3.48800 51.50100 42.47800
C  4.40700 50.64000 41.95500
C  5.51700 51.30400 41.48000
C  2.10300 51.17700 42.90400
C  4.66400 49.24400 41.66100
O  3.88600 48.31000 41.81000
C  6.05900 49.09700 40.95900
C  5.75600 48.47700 39.73500
O  5.10600 49.05100 38.85300
O  6.28200 47.15000 39.65700
C  5.96000 46.44500 38.39600
H  11.17700 53.50000 39.78400
H  6.71300 58.20200 40.41400
H  2.51400 54.07300 42.73800
H  9.04300 49.37300 41.02600
H  10.78400 50.86300 39.48700
H  11.49100 51.77400 41.89200
H  11.85400 50.21400 41.20300
H  10.60300 50.22500 42.36300
H  8.11400 48.55000 38.86300
H  9.84400 48.69900 38.76700
H  9.48400 49.92200 36.82000
H  9.22300 51.18600 37.91800
H  11.75800 55.44600 38.50000
H  12.39600 56.17900 39.95800
H  11.72500 57.20300 38.64300
H  7.88700 60.14700 40.11700
H  9.22000 60.72200 40.98600
H  8.13400 59.51800 41.69900
H  4.16900 58.06300 40.65100
H  3.07300 56.82900 43.22000
H  4.74000 59.79700 41.99700
H  5.31000 58.84800 43.38100
H  3.59000 59.03600 43.14800
H  1.88500 55.52100 40.85300
H  2.23800 57.29500 40.44900
H  -0.09600 56.70200 41.34800
H  0.65000 57.89900 42.27300
H  0.59200 56.23900 42.83700
H  2.04700 50.86100 43.94500
H  1.78600 50.34000 42.28200
H  1.43800 52.02300 42.72800
H  6.66200 48.55000 41.68300
H  4.95700 46.01900 38.43800
H  6.65300 45.65300 38.11200
H  6.13300 47.02800 37.49100

