158

Mg 0.07600 8.17200 26.72700
C  0.79000 10.40500 29.33100
C  -0.41300 5.71100 29.03000
C  0.06700 5.91500 24.14600
C  0.79600 10.70000 24.43100
N  0.36800 7.99500 28.92700
C  0.56900 9.05100 29.76300
C  0.24800 8.69000 31.27300
C  0.09100 7.14700 31.10100
C  0.04500 6.90800 29.58400
C  1.25800 6.26200 31.73400
C  -1.05200 9.40600 31.76100
C  -1.23500 9.60200 33.27200
H  -0.03600 9.30700 34.11000
N  -0.11100 6.14300 26.57600
C  -0.48500 5.35700 27.68700
C  -0.73600 4.05800 27.17800
C  -0.67800 4.05200 25.73200
C  -0.19200 5.40500 25.38900
C  -1.04400 2.88300 28.16200
C  -0.98900 2.96400 24.70300
O  -0.89700 3.03000 23.49300
C  -1.49100 1.65500 25.18900
N  0.64500 8.27300 24.61200
C  0.41400 7.23300 23.72700
C  0.67500 7.57900 22.31500
C  0.50000 9.21600 22.31600
C  0.59700 9.44900 23.87000
C  1.90000 6.99300 21.65200
C  -0.81500 9.71800 21.74200
C  -0.69400 10.88900 20.73300
N  0.71400 10.10600 26.70300
C  0.85200 11.09700 25.76800
C  1.19300 12.33300 26.36300
C  1.10200 12.10600 27.71200
C  0.80200 10.77000 27.92500
C  1.38000 13.63900 25.64600
C  1.24700 12.76100 29.01500
O  1.55300 13.87200 29.28300
C  1.11000 11.67000 30.12700
C  2.34600 11.66300 30.90000
O  3.37400 11.09000 30.53300
O  2.14500 12.30800 32.10600
C  3.28600 12.34100 33.06800
H  -0.74600 5.02700 29.81400
H  -0.09200 5.29800 23.26000
H  0.66600 11.57000 23.78300
H  1.16500 8.94900 31.80200
H  -0.80000 6.74900 31.58800
H  0.90600 5.46600 32.39100
H  1.88100 6.94800 32.30800
H  1.91200 5.83100 30.97700
H  -1.84200 8.72100 31.45400
H  -1.26100 10.36700 31.29100
H  -2.04400 8.93800 33.57600
H  -1.56600 10.61900 33.48300
H  -0.82600 3.00700 29.22300
H  -0.63400 1.95700 27.75800
H  -2.12500 2.75900 28.21500
H  -1.85500 1.15000 24.29400
H  -2.35500 1.79900 25.83800
H  -0.68200 1.26200 25.80400
H  -0.11000 7.11300 21.72000
H  1.38200 9.65600 21.84900
H  2.61800 6.78600 22.44600
H  2.26200 7.59900 20.82200
H  1.67000 6.00500 21.25400
H  -1.48400 10.11800 22.50400
H  -1.20400 8.81200 21.27900
H  0.28900 10.99600 20.27300
H  -0.92200 11.83000 21.23300
H  -1.40200 10.74200 19.91700
H  0.86000 13.70800 24.69100
H  2.41600 13.95500 25.52900
H  1.09900 14.45700 26.31000
H  0.25200 11.91800 30.75100
H  4.12800 12.51200 32.39600
H  3.37900 11.32200 33.44200
H  3.09300 12.97300 33.93500
Mg 50.00400 45.85400 42.29700
C  46.54500 46.65900 41.67000
C  49.22100 42.74900 41.23700
C  53.17100 45.30100 42.39500
C  50.41100 49.23500 43.22600
N  48.00200 44.81100 41.52800
C  46.75500 45.33200 41.39900
C  45.79000 44.29000 40.77900
C  46.66200 42.99700 40.82400
C  48.03800 43.52400 41.22100
C  46.13400 41.83900 41.78300
C  45.64900 44.78600 39.37800
C  44.20000 44.70700 38.80700
H  43.91500 43.47100 37.83000
N  51.03900 44.28700 41.80200
C  50.60500 43.04500 41.46000
C  51.66000 42.15500 41.32500
C  52.86900 42.86500 41.58900
C  52.42300 44.18300 42.04600
C  51.45400 40.70400 40.91500
C  54.31800 42.24400 41.38400
O  54.45500 41.07300 41.17100
C  55.50200 43.17300 41.38400
N  51.63200 47.19000 42.78300
C  52.91400 46.66700 42.72500
C  53.92200 47.75000 43.10500
C  53.04900 48.97700 43.54200
C  51.63600 48.47600 43.16600
C  55.01800 47.43400 44.25700
C  53.53200 50.34000 42.90000
C  53.57300 51.56800 43.84800
N  48.79100 47.64100 42.48400
C  49.09300 48.94600 42.84300
C  47.92900 49.78000 42.85700
C  46.92900 48.95000 42.36200
C  47.47300 47.63700 42.13100
C  47.89600 51.27100 43.21000
C  45.55100 48.90100 41.92100
O  44.75100 49.79900 41.89800
C  45.29300 47.42500 41.37000
C  44.04500 46.94800 42.09800
O  43.92800 46.82800 43.31000
O  42.97800 46.94000 41.20400
C  41.66400 46.52700 41.78000
H  49.00400 41.72200 40.93500
H  54.23300 45.12900 42.58200
H  50.54500 50.25900 43.58200
H  44.89400 44.13800 41.38000
H  46.80000 42.38500 39.93300
H  45.04700 41.91100 41.74200
H  46.61600 41.93500 42.75600
H  46.27000 40.85700 41.33000
H  46.26000 44.20500 38.68700
H  45.98300 45.79500 39.13800
H  43.81800 45.61600 38.34100
H  43.46000 44.55100 39.59200
H  52.37500 40.18800 41.18400
H  51.28200 40.62900 39.84100
H  50.64400 40.27000 41.50100
H  55.82500 43.36500 42.40700
H  55.18800 44.11300 40.93100
H  56.22000 42.70700 40.71000
H  54.50600 47.97500 42.21300
H  52.94000 48.97900 44.62700
H  54.74500 46.46100 44.66500
H  55.00400 48.18300 45.05000
H  55.94100 47.45700 43.67800
H  52.95000 50.58200 42.01000
H  54.44300 50.19400 42.32000
H  54.59000 51.96100 43.83500
H  53.25100 51.25600 44.84200
H  52.91100 52.38200 43.55300
H  46.87200 51.39600 43.56200
H  48.08000 51.87300 42.32000
H  48.60000 51.52100 44.00400
H  45.13700 47.53700 40.29700
H  41.02400 46.46600 40.90000
H  41.21100 47.30500 42.39500
H  41.75000 45.57100 42.29700

