158

Mg 47.86400 25.00700 28.57100
C  48.75400 26.97200 31.19500
C  46.87400 22.55800 30.83400
C  47.02900 23.02600 25.99600
C  49.09100 27.39600 26.26900
N  47.60100 24.84100 30.74600
C  48.01200 25.83300 31.61300
C  47.71300 25.46900 33.07700
C  47.30900 23.97000 32.93500
C  47.26000 23.74800 31.37800
C  48.19100 22.97300 33.62800
C  46.66200 26.39700 33.76100
C  47.11900 27.10600 35.04500
H  46.05600 27.62200 35.96700
N  47.10900 23.00400 28.44600
C  46.68800 22.18100 29.46800
C  46.21800 20.89300 28.96200
C  46.37100 21.05400 27.52100
C  46.91900 22.39500 27.24800
C  45.63400 19.78300 29.83200
C  46.09200 19.97200 26.49900
O  46.34400 20.08700 25.28700
C  45.46200 18.69300 26.98000
N  48.25900 25.08700 26.33900
C  47.62600 24.20000 25.51800
C  47.47500 24.74500 24.10300
C  48.25000 26.13800 24.15700
C  48.58900 26.20500 25.66100
C  47.93200 23.83800 23.01000
C  47.51800 27.35000 23.56000
C  48.12700 27.99900 22.31600
N  48.85500 26.74400 28.65600
C  49.26500 27.59900 27.68100
C  49.91100 28.70700 28.32400
C  49.58300 28.58600 29.71000
C  49.01700 27.35200 29.85700
C  50.62300 29.95400 27.72200
C  49.71600 29.22000 30.98700
O  50.22600 30.31400 31.29000
C  49.33400 28.13700 32.02600
C  50.53100 27.75300 32.93900
O  51.57000 27.27000 32.51900
O  50.24600 27.99400 34.22500
C  51.24000 27.52100 35.24700
H  46.47500 21.74300 31.44200
H  46.54900 22.40400 25.23700
H  49.39000 28.17500 25.56500
H  48.68500 25.59300 33.55500
H  46.33800 23.83200 33.41100
H  47.70200 22.54600 34.50300
H  49.14400 23.39200 33.95000
H  48.41000 22.15900 32.93700
H  45.76900 25.86000 34.08100
H  46.30800 27.14700 33.05400
H  47.72100 27.95500 34.72100
H  47.72600 26.39100 35.59900
H  46.22600 18.88400 29.65700
H  44.63600 19.62000 29.42400
H  45.44500 19.95700 30.89100
H  45.39100 17.94800 26.18700
H  44.48600 18.99000 27.36500
H  46.06900 18.20200 27.74000
H  46.40600 24.93500 24.00200
H  49.20800 26.01400 23.65100
H  47.00800 23.55100 22.50700
H  48.44400 22.99700 23.47700
H  48.72400 24.17400 22.34100
H  47.30600 28.07700 24.34400
H  46.50800 27.02200 23.31500
H  49.19100 27.81400 22.16900
H  47.96500 29.07700 22.32400
H  47.55500 27.63400 21.46300
H  51.41300 29.61200 27.05300
H  51.00900 30.55500 28.54500
H  49.85900 30.37300 27.06600
H  48.53100 28.70200 32.50000
H  50.82100 26.61300 35.68100
H  51.17700 28.23400 36.06800
H  52.27700 27.33900 34.96400
Mg 50.00400 45.85400 42.29700
C  46.54500 46.65900 41.67000
C  49.22100 42.74900 41.23700
C  53.17100 45.30100 42.39500
C  50.41100 49.23500 43.22600
N  48.00200 44.81100 41.52800
C  46.75500 45.33200 41.39900
C  45.79000 44.29000 40.77900
C  46.66200 42.99700 40.82400
C  48.03800 43.52400 41.22100
C  46.13400 41.83900 41.78300
C  45.64900 44.78600 39.37800
C  44.20000 44.70700 38.80700
H  43.91500 43.47100 37.83000
N  51.03900 44.28700 41.80200
C  50.60500 43.04500 41.46000
C  51.66000 42.15500 41.32500
C  52.86900 42.86500 41.58900
C  52.42300 44.18300 42.04600
C  51.45400 40.70400 40.91500
C  54.31800 42.24400 41.38400
O  54.45500 41.07300 41.17100
C  55.50200 43.17300 41.38400
N  51.63200 47.19000 42.78300
C  52.91400 46.66700 42.72500
C  53.92200 47.75000 43.10500
C  53.04900 48.97700 43.54200
C  51.63600 48.47600 43.16600
C  55.01800 47.43400 44.25700
C  53.53200 50.34000 42.90000
C  53.57300 51.56800 43.84800
N  48.79100 47.64100 42.48400
C  49.09300 48.94600 42.84300
C  47.92900 49.78000 42.85700
C  46.92900 48.95000 42.36200
C  47.47300 47.63700 42.13100
C  47.89600 51.27100 43.21000
C  45.55100 48.90100 41.92100
O  44.75100 49.79900 41.89800
C  45.29300 47.42500 41.37000
C  44.04500 46.94800 42.09800
O  43.92800 46.82800 43.31000
O  42.97800 46.94000 41.20400
C  41.66400 46.52700 41.78000
H  49.00400 41.72200 40.93500
H  54.23300 45.12900 42.58200
H  50.54500 50.25900 43.58200
H  44.89400 44.13800 41.38000
H  46.80000 42.38500 39.93300
H  45.04700 41.91100 41.74200
H  46.61600 41.93500 42.75600
H  46.27000 40.85700 41.33000
H  46.26000 44.20500 38.68700
H  45.98300 45.79500 39.13800
H  43.81800 45.61600 38.34100
H  43.46000 44.55100 39.59200
H  52.37500 40.18800 41.18400
H  51.28200 40.62900 39.84100
H  50.64400 40.27000 41.50100
H  55.82500 43.36500 42.40700
H  55.18800 44.11300 40.93100
H  56.22000 42.70700 40.71000
H  54.50600 47.97500 42.21300
H  52.94000 48.97900 44.62700
H  54.74500 46.46100 44.66500
H  55.00400 48.18300 45.05000
H  55.94100 47.45700 43.67800
H  52.95000 50.58200 42.01000
H  54.44300 50.19400 42.32000
H  54.59000 51.96100 43.83500
H  53.25100 51.25600 44.84200
H  52.91100 52.38200 43.55300
H  46.87200 51.39600 43.56200
H  48.08000 51.87300 42.32000
H  48.60000 51.52100 44.00400
H  45.13700 47.53700 40.29700
H  41.02400 46.46600 40.90000
H  41.21100 47.30500 42.39500
H  41.75000 45.57100 42.29700

