158

Mg 1.17300 -2.54100 44.50600
C  4.67100 -2.21200 43.62000
C  0.55500 0.10200 42.47400
C  -2.04400 -3.70700 44.20900
C  2.01000 -5.57900 46.06000
N  2.50700 -1.37300 43.07300
C  3.88000 -1.25100 42.99000
C  4.33600 -0.14800 41.99500
C  3.00600 0.71700 42.01700
C  1.92800 -0.25900 42.54900
C  3.03700 1.99300 42.86000
C  4.77900 -0.60400 40.54500
C  6.19000 -0.07400 40.10500
H  6.29500 0.73700 38.84700
N  -0.57500 -1.85000 43.62500
C  -0.59100 -0.67800 42.86500
C  -1.93900 -0.39400 42.44000
C  -2.77600 -1.44800 42.88700
C  -1.88200 -2.37700 43.64300
C  -2.36200 0.84600 41.53300
C  -4.27300 -1.57500 42.65000
O  -4.89900 -0.63800 42.13100
C  -5.02700 -2.81300 43.02100
N  0.13100 -4.35700 45.11300
C  -1.20600 -4.61800 44.89600
C  -1.66400 -5.98700 45.53300
C  -0.35400 -6.34700 46.35200
C  0.66900 -5.37000 45.81400
C  -2.98000 -5.92000 46.34800
C  0.04000 -7.86800 46.09900
C  0.60100 -8.55200 47.36800
N  2.91200 -3.67900 44.93400
C  3.11800 -4.85000 45.64500
C  4.55300 -5.20200 45.62300
C  5.15000 -4.13300 44.93700
C  4.11200 -3.26900 44.45400
C  5.31200 -6.36700 46.25600
C  6.47200 -3.57100 44.48900
O  7.61700 -3.89700 44.71800
C  6.18300 -2.43000 43.56500
C  6.89500 -1.21100 44.10400
O  6.47200 -0.40400 44.91500
O  8.03100 -1.01400 43.31500
C  8.98100 0.03200 43.72400
H  0.34500 1.06300 41.99900
H  -3.06800 -4.08400 44.21800
H  2.30100 -6.54200 46.48600
H  5.05900 0.43100 42.57000
H  2.73300 0.98400 40.99600
H  2.84500 2.81500 42.17100
H  4.01100 2.19200 43.30600
H  2.24600 2.09400 43.60400
H  4.11900 -0.22800 39.76300
H  4.76200 -1.69000 40.46400
H  6.98600 -0.79200 39.90900
H  6.58800 0.63100 40.83500
H  -3.32000 0.68200 41.03900
H  -1.62500 0.89300 40.73100
H  -2.55600 1.75300 42.10600
H  -4.36500 -3.62900 42.73200
H  -5.91300 -2.77200 42.38800
H  -5.21600 -2.91300 44.09000
H  -1.83700 -6.75000 44.77300
H  -0.51500 -6.11800 47.40500
H  -2.79000 -6.20800 47.38200
H  -3.66300 -6.70200 46.01400
H  -3.49300 -4.97400 46.17400
H  0.79900 -7.82800 45.31900
H  -0.89900 -8.35800 45.84200
H  0.00200 -9.36200 47.78300
H  0.64800 -7.84600 48.19800
H  1.52100 -9.05100 47.06600
H  4.59900 -6.82600 46.94000
H  6.28300 -6.17100 46.71000
H  5.42200 -7.10400 45.46000
H  6.51900 -2.66400 42.55400
H  9.86300 -0.51300 44.06100
H  8.55700 0.75500 44.42100
H  9.33800 0.55400 42.83600
Mg 47.26700 25.73600 28.43900
C  48.30400 27.80900 31.03000
C  46.16300 23.47100 31.01500
C  46.69500 23.44100 26.15800
C  48.88300 27.75800 26.20100
N  47.19000 25.66500 30.78200
C  47.58000 26.67200 31.55900
C  47.26000 26.39600 33.02000
C  46.78000 24.93600 33.07500
C  46.66800 24.64900 31.54200
C  47.61600 23.90700 33.74300
C  46.23300 27.38300 33.60900
C  46.65700 27.81700 35.04500
H  45.48000 27.98100 36.03300
N  46.48100 23.73500 28.56600
C  46.07600 22.98500 29.66900
C  45.67900 21.66000 29.22700
C  45.73200 21.65100 27.84300
C  46.30600 22.98200 27.44700
C  45.23000 20.65100 30.19700
C  45.25300 20.51600 26.83900
O  45.31400 20.63900 25.63000
C  44.89700 19.13900 27.40600
N  47.92500 25.48700 26.51700
C  47.45700 24.49800 25.74300
C  47.71100 24.77400 24.24700
C  48.21400 26.30000 24.31600
C  48.34100 26.57200 25.76700
C  48.84400 23.86900 23.64800
C  47.26400 27.33000 23.62200
C  47.76500 28.27300 22.52500
N  48.26200 27.46600 28.53500
C  48.90600 28.17800 27.50700
C  49.60500 29.32100 28.04200
C  49.32300 29.24200 29.44900
C  48.58800 28.07000 29.67900
C  50.53400 30.34000 27.30200
C  49.57500 29.85100 30.69200
O  50.16900 30.83500 30.89700
C  48.97700 28.96000 31.70100
C  50.04500 28.47900 32.52600
O  50.86000 27.63800 32.20600
O  49.98200 28.98500 33.81900
C  50.72400 28.30700 34.82900
H  45.75500 22.79000 31.76500
H  46.29500 22.82900 25.34700
H  49.35700 28.38700 25.44500
H  48.15200 26.42500 33.64600
H  45.76700 24.90400 33.47600
H  47.84500 23.00800 33.17000
H  46.95800 23.53200 34.52700
H  48.53000 24.28800 34.19800
H  45.19500 27.05000 33.61400
H  46.12000 28.20300 32.90000
H  47.19800 28.74600 34.86300
H  47.53100 27.35200 35.50100
H  44.21000 20.33400 29.97900
H  45.34900 21.03300 31.21100
H  45.86400 19.76400 30.20000
H  45.66000 18.59300 27.95900
H  44.53600 18.50700 26.59500
H  44.02000 19.31100 28.02900
H  46.78300 24.64500 23.69000
H  49.23500 26.42100 23.95400
H  49.69400 24.54500 23.55300
H  48.60400 23.43900 22.67600
H  49.15500 23.14600 24.40100
H  46.70500 27.87600 24.38200
H  46.56300 26.72000 23.05300
H  48.85400 28.26200 22.48500
H  47.41600 29.28100 22.74900
H  47.33000 28.06800 21.54700
H  49.86500 31.08200 26.86600
H  51.11900 29.99200 26.45100
H  51.24700 30.83100 27.96400
H  48.44100 29.60600 32.39600
H  49.99200 28.27500 35.63500
H  51.51500 29.00600 35.10200
H  51.12800 27.32400 34.58400

