158

Mg -11.49400 38.64100 40.56800
C  -10.02300 35.46500 40.08100
C  -8.86700 39.96200 38.83300
C  -13.38000 41.30400 40.23800
C  -14.49800 36.82100 41.57000
N  -9.58800 37.67700 39.60500
C  -9.25300 36.43000 39.46300
C  -7.95500 36.29200 38.63900
C  -7.48400 37.77500 38.58400
C  -8.71500 38.53000 39.04300
C  -6.25300 38.09700 39.44100
C  -8.29700 35.79800 37.22400
C  -7.11000 34.99100 36.46300
H  -6.46700 35.70900 35.33300
N  -11.10800 40.42000 39.84900
C  -9.90600 40.81400 39.27100
C  -9.95200 42.21700 39.09300
C  -11.28900 42.63500 39.31500
C  -12.00400 41.46900 39.85800
C  -8.85800 43.02200 38.50300
C  -11.86200 44.05900 38.99500
O  -11.16100 44.86700 38.43500
C  -13.30700 44.51500 39.39900
N  -13.68100 38.98600 40.65100
C  -14.14700 40.21800 40.65400
C  -15.64000 40.35400 40.97800
C  -15.95500 38.82000 41.25900
C  -14.58300 38.18100 41.26800
C  -16.03300 41.28200 42.15300
C  -17.00000 38.17000 40.16900
C  -18.07200 37.25900 40.80700
N  -12.10900 36.56700 40.97000
C  -13.34900 36.00300 41.36800
C  -13.18100 34.57300 41.43700
C  -11.85300 34.28700 40.99400
C  -11.28500 35.51200 40.70000
C  -14.36900 33.60600 41.72400
C  -10.86300 33.23600 40.75400
O  -10.93500 32.00800 40.84800
C  -9.58700 34.04900 40.24600
C  -8.55300 33.80500 41.29400
O  -8.28600 32.71700 41.80800
O  -7.77600 34.93000 41.53800
C  -6.58300 34.72300 42.30600
H  -8.01700 40.42800 38.33000
H  -13.93700 42.24300 40.25200
H  -15.42700 36.37500 41.93200
H  -7.15000 35.71400 39.09300
H  -7.26800 37.97700 37.53500
H  -6.40800 39.05900 39.92900
H  -5.40100 38.23800 38.77500
H  -5.94600 37.42600 40.24400
H  -8.46900 36.58900 36.49400
H  -9.26100 35.29500 37.29800
H  -7.59800 34.13300 36.00100
H  -6.35600 34.61300 37.15300
H  -8.92000 42.98900 37.41500
H  -7.91800 42.56600 38.81300
H  -8.79400 44.04700 38.86900
H  -13.48200 45.56800 39.17800
H  -13.21800 44.35500 40.47400
H  -14.07600 43.85200 39.00300
H  -16.21000 40.61800 40.08700
H  -16.41500 38.69600 42.24000
H  -16.68900 40.75400 42.84500
H  -16.60500 42.13500 41.78800
H  -15.20400 41.67500 42.74200
H  -16.39500 37.67700 39.40800
H  -17.44400 38.94100 39.53900
H  -17.82900 36.26500 40.43000
H  -19.11100 37.40300 40.51100
H  -18.02300 37.37300 41.89000
H  -15.06300 33.42400 40.90300
H  -14.89000 33.98700 42.60200
H  -13.94000 32.68700 42.12400
H  -9.37000 33.63400 39.26200
H  -6.01400 33.91400 41.84700
H  -6.85700 34.50900 43.33900
H  -5.86600 35.54300 42.32900
Mg 1.69100 41.66800 24.85500
C  3.62800 41.71900 27.84700
C  -1.00500 40.80700 26.92400
C  -0.02800 41.04100 22.17900
C  4.46300 42.19700 23.00800
N  1.32700 41.23000 27.18300
C  2.24600 41.38500 28.15700
C  1.55300 41.15200 29.57100
C  0.20500 40.61600 29.23700
C  0.13900 40.89500 27.69400
C  -0.01000 39.06400 29.50400
C  1.52500 42.45000 30.49500
C  1.98300 42.37500 31.91200
H  0.80000 42.45400 32.87800
N  -0.27400 41.13200 24.56600
C  -1.21600 40.95000 25.53700
C  -2.46500 40.71600 24.88000
C  -2.22200 40.77600 23.46200
C  -0.80700 41.00000 23.34100
C  -3.84800 40.39300 25.56900
C  -3.21300 40.58300 22.33900
O  -2.85000 40.68200 21.15100
C  -4.72900 40.24300 22.56900
N  2.16200 41.57900 22.90100
C  1.25000 41.33000 21.95200
C  1.82600 41.67100 20.51300
C  3.25100 42.28500 20.82100
C  3.32500 42.01000 22.30900
C  1.80700 40.44200 19.59300
C  3.40400 43.78800 20.39000
C  4.63100 44.09000 19.42000
N  3.64800 41.88800 25.26600
C  4.64600 42.11600 24.38800
C  5.93000 42.24800 25.11100
C  5.51200 42.09100 26.50900
C  4.14100 41.91400 26.53400
C  7.29200 42.28100 24.45100
C  5.99500 42.02300 27.84900
O  7.13900 42.17700 28.33900
C  4.80700 41.85700 28.79000
C  5.09200 40.73300 29.67800
O  5.10400 39.57900 29.31800
O  5.23200 41.11600 31.00000
C  5.27500 39.92900 31.88200
H  -1.78600 40.58600 27.65500
H  -0.53200 40.96600 21.21400
H  5.29000 42.56000 22.39400
H  2.15800 40.42900 30.11800
H  -0.58000 41.14900 29.77400
H  -0.40700 38.62700 28.58800
H  -0.82500 39.04600 30.22800
H  0.86800 38.59900 29.95400
H  0.49000 42.79200 30.49500
H  2.11300 43.22400 30.00100
H  2.68400 43.13700 32.25000
H  2.26300 41.33700 32.09400
H  -3.78900 40.72900 26.60500
H  -3.93700 39.31000 25.65000
H  -4.68400 40.83400 25.02600
H  -4.91200 39.52500 23.36800
H  -5.21600 39.97600 21.63100
H  -5.12200 41.23600 22.78400
H  1.11900 42.37400 20.07200
H  4.01100 41.66200 20.35100
H  2.71900 40.32600 19.00700
H  1.03700 40.55300 18.83000
H  1.68600 39.50500 20.13600
H  3.42200 44.43700 21.26500
H  2.48100 44.03700 19.86500
H  4.37600 44.41600 18.41200
H  5.34800 43.28400 19.26100
H  5.28500 44.90100 19.74000
H  7.21000 42.50000 23.38600
H  7.73400 41.29900 24.61500
H  7.90800 43.04700 24.92100
H  4.83700 42.74000 29.43000
H  6.28200 39.91300 32.29900
H  4.90700 38.96200 31.54000
H  4.59400 40.12900 32.70900

