158

Mg 47.36100 16.86100 27.83000
C  45.43000 16.83000 30.80400
C  49.85300 18.58400 29.61600
C  48.98800 17.20300 25.08100
C  44.57300 15.54900 26.12700
N  47.55900 17.67300 29.95100
C  46.62700 17.54500 30.95700
C  47.22100 18.14800 32.26700
C  48.46100 18.93700 31.71100
C  48.62500 18.35000 30.33400
C  48.29400 20.47800 31.75300
C  47.58200 16.94200 33.21200
C  47.16800 17.14400 34.65900
H  46.69900 18.54600 35.08000
N  49.16000 17.65100 27.39500
C  50.04700 18.22700 28.27200
C  51.25000 18.51200 27.55100
C  51.02700 18.24400 26.18500
C  49.73400 17.62100 26.17200
C  52.53200 19.04400 28.19500
C  51.93300 18.43100 24.96400
O  51.53000 18.10000 23.84900
C  53.30100 19.15800 24.99300
N  46.85200 16.34200 25.92800
C  47.75200 16.56000 24.94800
C  47.16000 16.21300 23.57600
C  45.78200 15.53400 24.02000
C  45.75100 15.74400 25.47100
C  47.04700 17.40000 22.53300
C  45.76800 13.96400 23.64200
C  44.79000 13.66200 22.47500
N  45.46600 16.22700 28.31200
C  44.41800 15.75100 27.50700
C  43.20100 15.60000 28.30600
C  43.58100 15.94800 29.59900
C  44.89900 16.34900 29.55900
C  41.79400 15.21900 27.79800
C  43.04900 16.14200 30.91400
O  41.91500 15.94200 31.29500
C  44.22100 16.75600 31.72200
C  43.80600 18.12100 32.21300
O  44.01000 19.17500 31.66900
O  43.19700 17.97900 33.37700
C  42.48600 19.13100 33.95300
H  50.62400 19.13600 30.15700
H  49.38900 17.20900 24.06600
H  43.75600 14.97600 25.68300
H  46.39100 18.73200 32.66300
H  49.33600 18.69600 32.31400
H  47.45300 20.78600 32.37400
H  48.26700 20.75600 30.70000
H  49.10400 21.08400 32.15900
H  48.65900 16.79300 33.13000
H  46.94600 16.14200 32.83300
H  47.90300 16.76500 35.36900
H  46.27200 16.56500 34.88500
H  53.44000 18.51900 27.89800
H  52.50100 18.89600 29.27400
H  52.62100 20.10400 27.95600
H  53.54400 19.16800 23.93100
H  54.04000 18.67500 25.63400
H  53.17500 20.16400 25.39200
H  47.86500 15.44400 23.26300
H  44.90000 16.03800 23.62600
H  46.03300 17.35500 22.13600
H  47.74300 17.11000 21.74600
H  47.37500 18.32500 23.00700
H  45.49400 13.36600 24.51100
H  46.77600 13.56000 23.53900
H  45.08500 14.18800 21.56700
H  43.81800 14.01100 22.82300
H  44.62300 12.58600 22.42100
H  41.63500 15.56200 26.77500
H  41.10500 15.77600 28.43300
H  41.48200 14.17700 27.85800
H  44.45900 16.10800 32.56600
H  42.25400 19.76300 33.09600
H  43.11400 19.53200 34.74800
H  41.53700 18.84400 34.40800
Mg 17.45700 52.34300 26.29600
C  19.67800 51.13100 28.80600
C  15.06500 52.81400 28.68200
C  15.35900 53.43900 23.83300
C  19.75900 51.16600 23.84900
N  17.37900 51.89300 28.44700
C  18.41700 51.52100 29.31200
C  17.95400 51.60000 30.77700
C  16.43600 51.92600 30.63000
C  16.27100 52.25400 29.15200
C  15.49100 50.73800 31.11000
C  18.73800 52.64100 31.51300
C  18.86100 52.43100 33.02100
H  17.97000 51.39500 33.72300
N  15.53100 53.10600 26.24800
C  14.67400 53.16200 27.38000
C  13.40100 53.63500 27.01700
C  13.46700 53.84700 25.59500
C  14.82000 53.49300 25.12600
C  12.11400 53.79900 27.92500
C  12.40200 54.37000 24.65800
O  12.52800 54.42300 23.45500
C  11.16000 54.92600 25.22200
N  17.57700 52.31000 24.19900
C  16.58400 52.95400 23.38400
C  16.99500 52.79800 21.92300
C  18.31500 51.93000 21.94100
C  18.53800 51.77100 23.44900
C  15.94700 52.04400 20.97900
C  19.45100 52.64200 21.11200
C  20.23200 53.80600 21.80000
N  19.38600 51.40200 26.26000
C  20.20300 51.04000 25.18400
C  21.42300 50.47900 25.72400
C  21.21700 50.52800 27.12800
C  20.02100 51.01300 27.38300
C  22.65000 49.86600 24.96700
C  21.88200 50.14800 28.39100
O  23.02800 49.69300 28.62900
C  20.93500 50.59900 29.53500
C  20.61300 49.39600 30.35800
O  19.71900 48.62700 30.07400
O  21.37200 49.38000 31.48500
C  20.76300 48.44200 32.46000
H  14.30200 52.87700 29.46100
H  14.68200 53.69500 23.01600
H  20.48900 50.74300 23.15600
H  18.06100 50.65400 31.30700
H  16.20900 52.77900 31.26900
H  14.80900 51.09900 31.87900
H  16.05400 49.87900 31.47500
H  14.97400 50.26200 30.27600
H  18.20500 53.59100 31.46500
H  19.71800 52.86500 31.09300
H  18.74100 53.32200 33.63600
H  19.85300 52.04300 33.25300
H  11.72100 54.79700 28.12000
H  12.27000 53.36100 28.91100
H  11.36300 53.05500 27.66000
H  11.27300 55.59000 26.07900
H  10.58600 54.11100 25.66400
H  10.63500 55.47900 24.44300
H  17.13100 53.80500 21.53000
H  18.16000 50.92900 21.53800
H  14.98900 51.99600 21.49600
H  16.33100 51.06800 20.68000
H  15.84300 52.61100 20.05400
H  18.98100 53.08800 20.23500
H  20.09100 51.88200 20.66300
H  19.60300 54.26800 22.56200
H  20.50700 54.57500 21.07900
H  21.13200 53.40000 22.26100
H  23.52200 50.45400 25.25500
H  22.38600 49.89500 23.91000
H  22.73000 48.86400 25.38800
H  21.45700 51.21700 30.26500
H  21.16300 48.75900 33.42300
H  21.03000 47.40200 32.27100
H  19.67400 48.47600 32.50800

