158

Mg 17.52000 -0.87300 27.97000
C  16.45900 1.18600 30.57500
C  19.56400 -2.53300 29.99500
C  19.12000 -2.41700 25.26500
C  15.95400 1.25900 25.74600
N  18.05300 -0.53800 30.08600
C  17.41000 0.24600 31.02400
C  17.88300 -0.11900 32.41100
C  18.98700 -1.17700 32.09300
C  18.89400 -1.45200 30.60200
C  20.45400 -0.69500 32.39900
C  16.74500 -0.51500 33.44000
C  17.00700 -0.26500 34.98600
H  18.42500 0.18500 35.53400
N  18.86500 -2.50700 27.73700
C  19.56100 -3.03900 28.69700
C  20.31400 -4.16400 28.23100
C  20.20500 -4.16800 26.85400
C  19.38500 -2.95600 26.53900
C  21.08500 -5.04300 29.15900
C  20.76700 -5.02300 25.74800
O  20.49600 -4.94500 24.55800
C  21.57900 -6.09700 26.19400
N  17.46000 -0.69200 25.78700
C  18.25600 -1.35400 24.90400
C  17.99800 -0.76700 23.46900
C  16.78700 0.09400 23.66000
C  16.78800 0.24400 25.11900
C  19.26400 -0.05700 22.86900
C  15.47300 -0.30700 23.00900
C  14.36900 -0.93500 23.86300
N  16.43200 0.81000 28.04600
C  15.78300 1.55600 27.06400
C  14.95600 2.61100 27.63800
C  15.15800 2.49400 29.00300
C  16.08400 1.39700 29.24100
C  14.14500 3.66800 26.92000
C  14.88200 3.11700 30.34600
O  14.28300 4.10400 30.68800
C  15.65100 2.15400 31.36200
C  16.50700 3.03800 32.24700
O  17.60900 3.42600 31.94900
O  15.84600 3.39500 33.43200
C  16.66200 4.07400 34.48400
H  20.11500 -3.13400 30.72100
H  19.60600 -2.85500 24.39100
H  15.51900 1.92500 24.99800
H  18.32400 0.79300 32.81400
H  18.78600 -2.07900 32.67100
H  20.38600 0.39100 32.34100
H  21.12000 -1.09300 31.63300
H  20.83900 -0.86900 33.40400
H  16.55300 -1.58700 33.46600
H  15.73500 -0.13700 33.27800
H  16.78200 -1.24900 35.39800
H  16.30900 0.47600 35.37400
H  22.15500 -4.84400 29.09500
H  21.19100 -6.11300 28.98200
H  20.86000 -4.86400 30.21000
H  20.95200 -6.66100 26.88600
H  22.47500 -5.64500 26.61900
H  21.93300 -6.72700 25.37800
H  17.75700 -1.52900 22.72800
H  17.01500 1.04300 23.17600
H  20.04900 0.04000 23.61900
H  18.97500 0.91400 22.46600
H  19.65800 -0.64100 22.03700
H  15.78600 -0.98300 22.21300
H  15.06500 0.57600 22.51700
H  14.65300 -1.41800 24.79900
H  14.03100 -1.76600 23.24400
H  13.52500 -0.25100 23.95000
H  13.13000 3.27500 26.96100
H  14.55200 3.84800 25.92400
H  14.22900 4.61000 27.46300
H  15.02600 1.60300 32.06600
H  17.29800 3.31200 34.93700
H  15.86100 4.45200 35.11800
H  17.31000 4.81800 34.02000
Mg -11.25800 14.86600 41.47700
C  -7.87100 14.32800 41.30400
C  -10.92100 17.83700 39.81300
C  -14.65700 15.02800 41.28600
C  -11.55300 11.53700 42.73800
N  -9.56600 15.88300 40.53400
C  -8.26600 15.50600 40.64800
C  -7.36700 16.36800 39.83300
C  -8.28200 17.54900 39.31300
C  -9.62400 17.11900 39.98200
C  -7.81900 19.01200 39.47000
C  -6.66400 15.53500 38.67100
C  -5.17100 15.71200 38.45500
H  -4.66500 16.38100 37.11500
N  -12.61200 16.20100 40.52400
C  -12.28900 17.45400 40.10200
C  -13.46900 18.12500 39.73200
C  -14.57900 17.31700 40.17200
C  -13.98700 16.12100 40.67600
C  -13.51400 19.51800 39.09900
C  -16.01200 17.77200 40.03200
O  -16.18900 18.83200 39.42000
C  -17.20800 17.02500 40.48700
N  -12.87300 13.45500 41.76100
C  -14.17800 13.79100 41.74700
C  -15.06900 12.66600 42.09000
C  -14.06000 11.54500 42.61600
C  -12.70900 12.17700 42.32100
C  -16.21800 13.06400 43.09200
C  -14.22700 10.10900 42.11000
C  -14.93300 9.00300 43.00100
N  -10.04000 13.27400 42.10000
C  -10.24200 12.02500 42.63500
C  -9.01700 11.36900 42.90500
C  -8.03200 12.24000 42.34600
C  -8.71200 13.35900 41.85500
C  -8.85700 10.10400 43.59300
C  -6.60800 12.42100 42.21100
O  -5.66500 11.68800 42.60100
C  -6.46600 13.80000 41.56600
C  -5.70300 14.69200 42.47900
O  -6.25600 15.31800 43.40700
O  -4.35800 14.75600 42.02800
C  -3.61400 15.81600 42.74700
H  -10.78900 18.74500 39.22100
H  -15.72300 15.08800 41.51500
H  -11.60500 10.63300 43.34800
H  -6.68800 16.75400 40.59300
H  -8.48300 17.37500 38.25600
H  -7.05800 18.92200 40.24500
H  -8.65800 19.58900 39.85800
H  -7.31500 19.33600 38.55900
H  -7.18900 15.82100 37.76000
H  -7.03000 14.50900 38.68200
H  -4.76200 14.70800 38.56700
H  -4.61200 16.41900 39.06900
H  -14.01900 20.30300 39.66200
H  -13.94900 19.54000 38.09900
H  -12.51700 19.92000 38.92200
H  -18.16000 17.55100 40.41500
H  -17.01800 16.71700 41.51500
H  -17.15800 16.02100 40.06800
H  -15.39400 12.34100 41.10100
H  -14.05700 11.52600 43.70600
H  -17.20400 12.99600 42.63400
H  -16.06100 14.07400 43.47000
H  -16.27200 12.49200 44.01800
H  -13.28000 9.69200 41.76500
H  -14.80800 9.99900 41.19500
H  -15.47300 8.31200 42.35400
H  -15.66000 9.44400 43.68400
H  -14.15700 8.48200 43.56100
H  -9.60600 10.13900 44.38400
H  -7.84200 9.86200 43.91000
H  -9.13000 9.29900 42.91100
H  -5.94600 13.81600 40.60900
H  -4.17700 16.73600 42.90300
H  -2.62500 15.95000 42.30800
H  -3.58800 15.59100 43.81300

