158

Mg 1.44100 8.17500 26.71200
C  1.88800 9.62800 29.83500
C  1.60100 5.15800 28.23800
C  1.23100 6.93700 23.61400
C  1.74500 11.36300 25.31800
N  1.81500 7.55300 28.80200
C  1.68900 8.26400 29.90500
C  1.61400 7.40600 31.17900
C  1.91000 6.00400 30.66000
C  1.75800 6.23700 29.10400
C  3.25200 5.30400 30.94500
C  0.26400 7.61100 31.91500
C  0.45400 8.08400 33.38600
H  1.59700 7.48800 34.22500
N  1.43700 6.31600 26.01900
C  1.41800 5.14400 26.80300
C  1.28500 4.02800 25.88700
C  1.21600 4.54400 24.56800
C  1.25600 5.97900 24.66100
C  1.22200 2.58700 26.46900
C  1.09600 3.75300 23.33000
O  0.87500 4.28700 22.21100
C  1.13300 2.28100 23.40600
N  1.35500 9.04800 24.73200
C  1.31500 8.30100 23.61800
C  1.53500 9.07600 22.36500
C  1.23900 10.47400 22.84100
C  1.48100 10.30300 24.38900
C  2.85500 8.96600 21.56400
C  -0.11600 11.03700 22.45000
C  -1.43500 10.57500 23.12200
N  1.79800 10.15000 27.34900
C  1.92000 11.33800 26.67700
C  2.08300 12.41700 27.59500
C  2.06400 11.77200 28.88700
C  1.94800 10.40300 28.67400
C  2.07700 13.90200 27.28500
C  2.23600 12.03900 30.29700
O  2.47800 13.04800 30.89600
C  2.01900 10.64300 31.01500
C  3.08600 10.41400 32.05600
O  4.17400 9.85100 31.88000
O  2.79300 11.22400 33.15500
C  3.81000 11.53300 34.19100
H  1.64500 4.15600 28.66900
H  1.43200 6.52900 22.62100
H  1.75100 12.35200 24.85500
H  2.48000 7.76100 31.73800
H  1.13400 5.29000 30.93700
H  4.15300 5.88600 31.13700
H  3.58300 4.77900 30.04900
H  3.12800 4.49000 31.65900
H  -0.31100 6.68800 31.84000
H  -0.24700 8.41000 31.37700
H  -0.50300 7.93500 33.88700
H  0.53900 9.17000 33.40800
H  0.42900 2.09500 25.90600
H  0.85500 2.56500 27.49500
H  2.14700 2.01500 26.38900
H  0.11800 1.89000 23.48200
H  1.76900 1.78800 24.14200
H  1.57600 2.10600 22.42600
H  0.61800 8.73400 21.88500
H  1.93500 11.23400 22.48600
H  3.37500 8.02700 21.75500
H  3.60200 9.73500 21.75900
H  2.55200 9.09600 20.52500
H  -0.26000 11.20600 21.38300
H  -0.02000 12.02200 22.90700
H  -1.88400 11.28300 23.81900
H  -1.19400 9.69600 23.72000
H  -2.17500 10.29400 22.37300
H  2.37400 14.05100 26.24700
H  2.87700 14.34300 27.88000
H  1.09400 14.20000 27.65000
H  1.07700 10.62500 31.56300
H  4.77000 11.07100 33.96100
H  3.47100 11.01200 35.08600
H  3.77600 12.62300 34.20700
Mg 36.38900 2.45600 30.54600
C  34.02800 3.63500 32.71900
C  38.62000 2.24000 33.01700
C  38.78800 1.64800 28.14100
C  34.03100 2.61200 27.84600
N  36.38000 3.09400 32.62700
C  35.25200 3.38800 33.35600
C  35.44400 3.22500 34.83400
C  37.02900 3.05200 34.88800
C  37.39500 2.77700 33.44500
C  37.91700 4.16100 35.59200
C  34.68400 2.00000 35.44900
C  34.12500 2.29100 36.84200
H  34.64000 3.48700 37.64300
N  38.42000 1.95100 30.63200
C  39.14900 1.84500 31.74800
C  40.44100 1.34400 31.42200
C  40.55700 1.17600 30.05200
C  39.22700 1.67200 29.53600
C  41.36600 1.02800 32.59400
C  41.78600 0.65000 29.25900
O  41.81900 0.67300 28.00800
C  43.00400 0.06800 30.04700
N  36.39300 2.26100 28.19300
C  37.51000 1.92800 27.53400
C  37.21700 1.78400 26.07900
C  35.63200 1.98300 25.97800
C  35.27000 2.28900 27.40300
C  38.14600 2.81800 25.23500
C  34.86700 0.87100 25.16900
C  34.72700 -0.46700 25.91800
N  34.42000 2.98400 30.27800
C  33.60000 2.96300 29.20100
C  32.21800 3.24300 29.59900
C  32.44000 3.51300 31.00300
C  33.78600 3.42900 31.32800
C  31.01300 3.23400 28.68500
C  31.70900 3.93100 32.16400
O  30.49200 4.14100 32.25500
C  32.69000 3.98700 33.29400
C  32.72600 5.29700 34.00700
O  33.24300 6.32800 33.54200
O  32.09500 5.14400 35.21900
C  32.19700 6.42600 35.92500
H  39.25900 2.10200 33.89200
H  39.62200 1.36500 27.49600
H  33.29200 2.63400 27.04200
H  35.11700 4.19700 35.20500
H  37.18500 2.08600 35.36800
H  38.90000 4.20400 35.12200
H  38.01100 3.79700 36.61500
H  37.37000 5.10400 35.60100
H  35.24700 1.07400 35.56400
H  33.86100 1.67600 34.81200
H  34.40500 1.41600 37.42900
H  33.06600 2.40300 36.61100
H  41.11800 1.36600 33.60000
H  42.33400 1.38400 32.24000
H  41.23200 -0.05200 32.66500
H  43.39600 1.04900 30.31600
H  43.50900 -0.56400 29.31700
H  42.63800 -0.59400 30.83200
H  37.41600 0.80300 25.64600
H  35.33800 2.90300 25.47200
H  38.99800 2.25100 24.86000
H  38.49900 3.73800 25.70000
H  37.49700 3.15100 24.42500
H  35.33700 0.68400 24.20300
H  33.95400 1.40900 24.91400
H  34.74800 -1.20100 25.11300
H  33.80600 -0.55400 26.49400
H  35.60400 -0.78500 26.48300
H  30.04900 3.15900 29.18900
H  31.13000 2.43800 27.95000
H  31.03300 4.19500 28.17100
H  32.37500 3.26500 34.04700
H  31.72900 7.28200 35.43800
H  33.25400 6.59300 36.13400
H  31.74300 6.25500 36.90100

