158

Mg 29.13600 56.66400 41.21000
C  26.38800 54.85200 39.77000
C  31.21600 54.44300 39.92000
C  31.39900 59.14800 41.27600
C  26.67900 59.21900 41.91400
N  28.79000 54.95700 39.77200
C  27.67300 54.30700 39.52300
C  28.05700 53.05000 38.65200
C  29.49800 52.64500 39.23100
C  29.88100 54.10200 39.65900
C  29.49400 51.60200 40.38400
C  28.10900 53.49900 37.16000
C  27.02600 52.89300 36.25600
H  26.34500 53.80800 35.25700
N  31.03400 56.68100 40.88300
C  31.72700 55.64500 40.33100
C  33.12200 56.01400 40.41400
C  33.21900 57.35400 40.74900
C  31.86900 57.80900 40.97600
C  34.21800 54.99200 40.01400
C  34.55500 58.07500 40.69900
O  35.63400 57.57000 40.41400
C  34.66700 59.48200 41.00000
N  29.08300 58.92800 41.57300
C  30.18300 59.65100 41.64900
C  29.93900 61.08800 42.06400
C  28.41800 61.03600 42.50000
C  28.03300 59.66400 41.89900
C  30.92300 61.60000 43.16500
C  27.56300 62.23400 41.92600
C  26.80600 62.99600 42.93000
N  27.00300 57.01800 40.98300
C  26.17100 58.04000 41.35600
C  24.74500 57.77100 41.02600
C  24.85800 56.42200 40.52000
C  26.25400 56.06700 40.44300
C  23.57700 58.64700 41.31300
C  24.08700 55.33300 40.02600
O  22.88400 55.24200 39.86000
C  25.00400 54.23100 39.52500
C  24.75800 53.10400 40.32400
O  25.27500 52.86300 41.41200
O  23.90100 52.15200 39.64100
C  23.58300 50.98600 40.49900
H  31.92400 53.64800 39.67700
H  32.14000 59.94700 41.34100
H  26.00900 60.01900 42.23700
H  27.38100 52.19900 38.74000
H  30.10500 52.37700 38.36700
H  29.83100 50.64100 39.99600
H  28.54700 51.50700 40.91500
H  30.12400 51.86500 41.23400
H  29.05800 53.27300 36.67600
H  27.89600 54.56800 37.16900
H  26.32000 52.30600 36.84200
H  27.51200 52.14400 35.63000
H  34.68200 55.35500 39.09700
H  33.79000 54.00700 39.82200
H  34.95500 54.85700 40.80500
H  34.09100 60.14000 40.34900
H  35.71500 59.74100 41.15700
H  34.31900 59.57100 42.02900
H  30.14500 61.62200 41.13600
H  28.31600 60.82500 43.56500
H  31.52600 62.38600 42.71000
H  31.61000 60.90200 43.64500
H  30.24000 62.11800 43.83700
H  26.88600 61.79400 41.19400
H  28.19700 62.84300 41.28200
H  26.89600 62.59000 43.93700
H  25.76800 62.80800 42.65400
H  27.10100 64.04100 42.83700
H  23.10200 58.53400 42.28800
H  22.87600 58.43400 40.50600
H  23.94000 59.66300 41.15800
H  24.79800 54.02100 38.47500
H  23.55300 51.25300 41.55600
H  24.34600 50.21500 40.39400
H  22.65100 50.49400 40.21800
Mg 26.85500 49.70600 25.79500
C  24.96800 50.61600 28.52400
C  29.27400 48.43200 28.13900
C  29.00200 48.85500 23.20900
C  24.68400 50.98700 23.56900
N  27.22000 49.70600 28.16500
C  26.14200 49.90900 29.01100
C  26.42900 49.40100 30.45100
C  27.92600 49.06800 30.30400
C  28.11000 48.90700 28.72300
C  28.87500 50.13000 30.83200
C  25.51700 48.28800 31.02000
C  25.01700 48.32900 32.45900
H  25.67600 49.26700 33.62500
N  28.85800 48.80400 25.68500
C  29.62600 48.41800 26.76800
C  30.88600 47.93700 26.22000
C  30.89300 48.24900 24.83400
C  29.48200 48.57500 24.54400
C  31.88800 47.27700 27.13300
C  32.05600 48.10500 23.84300
O  31.96200 48.41300 22.66300
C  33.37800 47.62000 24.40200
N  26.87600 50.02900 23.69600
C  27.80400 49.45500 22.85300
C  27.46100 49.67900 21.38700
C  25.94800 50.27500 21.51600
C  25.78900 50.43200 23.01100
C  28.52400 50.49200 20.66800
C  24.76400 49.31000 21.00700
C  23.74200 49.88200 19.95100
N  25.24800 50.71000 26.00800
C  24.43300 51.23100 24.94900
C  23.35300 51.99500 25.59600
C  23.48900 51.62000 26.95300
C  24.68300 50.90900 27.16200
C  22.25000 52.80300 24.93800
C  22.82600 51.75100 28.20300
O  21.74100 52.24400 28.54800
C  23.68400 51.00700 29.29500
C  23.94500 51.92000 30.51700
O  24.04800 53.12000 30.54300
O  23.78900 51.11100 31.67100
C  23.32400 51.80400 32.89200
H  29.98400 47.91100 28.78600
H  29.56100 48.30700 22.44800
H  23.93200 51.31700 22.84900
H  26.10400 50.25100 31.05100
H  28.42400 48.19000 30.71500
H  29.29300 49.74800 31.76400
H  28.41500 51.06700 31.14400
H  29.66900 50.28200 30.10100
H  26.04600 47.34000 30.92500
H  24.71800 48.28000 30.27900
H  25.16200 47.34400 32.90200
H  23.93800 48.47900 32.51700
H  32.66400 47.95800 27.48200
H  32.38000 46.37800 26.76100
H  31.49500 46.88700 28.07300
H  34.08700 47.60300 23.57400
H  33.24600 46.58400 24.71300
H  33.74700 48.20700 25.24300
H  27.39800 48.67700 20.96400
H  25.91200 51.19200 20.92600
H  29.43100 50.42900 21.26800
H  28.21100 51.53600 20.66400
H  28.58900 50.09900 19.65300
H  24.18700 48.95300 21.86100
H  25.25600 48.45300 20.54700
H  23.85500 50.96300 19.87300
H  22.75200 49.54700 20.26100
H  23.87000 49.68700 18.88600
H  22.60400 53.16700 23.97300
H  22.10200 53.66700 25.58600
H  21.36300 52.19100 24.77500
H  23.17200 50.14900 29.73000
H  23.96400 52.67400 33.03900
H  23.31600 51.15700 33.77000
H  22.27000 52.04900 32.76200

