158

Mg 36.44800 49.43500 24.35600
C  36.18300 47.79600 27.58000
C  35.13600 52.20800 25.78800
C  36.11600 50.84700 21.24700
C  37.36200 46.36900 22.97100
N  35.77500 49.95600 26.39900
C  35.91400 49.17200 27.56500
C  35.52000 49.99900 28.83400
C  35.05600 51.34900 28.15700
C  35.25900 51.18600 26.71500
C  33.60600 51.90900 28.62100
C  36.69500 50.22900 29.88100
C  36.30100 50.14000 31.38400
H  34.82600 50.25000 31.76700
N  35.78100 51.29000 23.60800
C  35.31300 52.31400 24.41000
C  35.02300 53.49000 23.57400
C  35.22700 53.05000 22.22600
C  35.70600 51.65300 22.30200
C  34.40800 54.80600 24.13000
C  35.11200 53.79400 20.89900
O  35.46500 53.32700 19.84600
C  34.38500 55.19800 20.88500
N  36.62800 48.70900 22.45900
C  36.48600 49.52100 21.30400
C  36.89800 48.79300 20.04500
C  37.52300 47.49100 20.59600
C  37.11000 47.50000 22.10500
C  35.60700 48.59700 19.22400
C  39.10800 47.43000 20.44400
C  40.07500 48.17200 21.47000
N  36.81600 47.50100 25.02500
C  37.24400 46.32900 24.38900
C  37.46500 45.30200 25.39400
C  37.04800 45.85200 26.56800
C  36.63700 47.15400 26.36200
C  37.82300 43.87600 25.10000
C  36.85000 45.48700 27.98700
O  37.03900 44.43300 28.58700
C  36.24400 46.73900 28.69900
C  34.91100 46.35300 29.37700
O  33.76400 46.57000 28.81300
O  35.11900 45.84900 30.61400
C  33.97800 45.41800 31.29300
H  34.62700 53.10700 26.14300
H  36.15400 51.23000 20.22500
H  37.73800 45.43200 22.55300
H  34.64200 49.49500 29.23800
H  35.73100 52.19500 28.27900
H  33.18000 51.23300 29.36200
H  33.06200 51.88300 27.67700
H  33.68400 52.97100 28.85800
H  37.17100 51.20900 29.89400
H  37.41400 49.51800 29.47500
H  36.92300 50.87800 31.89100
H  36.56900 49.16700 31.79600
H  33.32500 54.76900 24.01500
H  34.97600 55.65700 23.75500
H  34.54400 54.90400 25.20700
H  34.15400 55.45000 19.85000
H  35.09700 55.93900 21.24800
H  33.40700 55.12100 21.36100
H  37.56200 49.36900 19.40100
H  37.19500 46.58900 20.08000
H  34.73000 48.67400 19.86700
H  35.62700 47.61500 18.75100
H  35.48000 49.24900 18.35900
H  39.41600 47.88800 19.50400
H  39.41600 46.38600 20.38300
H  39.42600 48.24400 22.34400
H  40.57000 49.07100 21.10200
H  40.81500 47.43300 21.77700
H  38.85900 43.98500 24.77900
H  37.13400 43.42000 24.38900
H  37.80000 43.40600 26.08400
H  36.82600 47.06500 29.56200
H  34.21200 44.86300 32.20100
H  33.30900 44.83300 30.66100
H  33.26400 46.19500 31.56400
Mg 26.23300 50.83900 26.52100
C  23.81100 51.97400 28.92000
C  28.34500 50.19600 29.13300
C  28.57900 50.01400 24.30900
C  24.15300 52.01700 24.00300
N  26.02300 51.01500 28.72500
C  24.92700 51.41600 29.48300
C  25.29000 51.40400 30.99000
C  26.74000 50.83200 31.00400
C  27.08600 50.71200 29.52700
C  27.78500 51.52700 31.83900
C  24.29300 50.68800 31.88400
C  24.21800 51.21700 33.24800
H  23.90100 50.25700 34.39300
N  28.17900 50.15000 26.70300
C  28.94700 50.00800 27.84200
C  30.23200 49.52200 27.51900
C  30.32900 49.47100 26.07500
C  29.03000 49.91100 25.62300
C  31.21300 48.89700 28.53100
C  31.49800 48.90200 25.07600
O  31.43100 48.80100 23.86100
C  32.78100 48.68400 25.66000
N  26.29200 50.92400 24.40000
C  27.33800 50.38700 23.71100
C  27.10500 50.71300 22.22600
C  25.68600 51.38600 22.07700
C  25.32500 51.48100 23.56500
C  28.27600 51.45500 21.59000
C  24.58600 50.72300 21.20000
C  24.10100 51.49900 19.99400
N  24.44200 51.83200 26.38000
C  23.71300 52.19200 25.29700
C  22.51300 52.88300 25.78200
C  22.53700 52.87400 27.18500
C  23.71200 52.16200 27.51100
C  21.44400 53.46400 24.93900
C  21.79200 53.06300 28.45500
O  20.68600 53.62800 28.64600
C  22.66700 52.68400 29.58500
C  22.98000 53.93600 30.39700
O  23.67200 54.86500 30.02400
O  22.38500 53.84300 31.67700
C  22.60500 54.86000 32.65000
H  28.98500 49.84200 29.94400
H  29.25200 49.61700 23.54700
H  23.47900 52.44200 23.25600
H  25.36200 52.43900 31.32500
H  26.71300 49.82700 31.42500
H  27.99700 52.53000 31.46900
H  28.66500 50.90300 31.99400
H  27.24000 51.61900 32.77800
H  24.50600 49.62100 31.94700
H  23.26200 50.75300 31.53500
H  23.37200 51.89800 33.33800
H  25.02500 51.88300 33.55600
H  30.93100 49.22300 29.53200
H  32.28100 49.11100 28.48300
H  31.21500 47.80900 28.59800
H  32.83600 49.55800 26.30800
H  33.59600 48.57600 24.94400
H  32.77700 47.74700 26.21700
H  27.03900 49.70600 21.81400
H  25.83400 52.40000 21.70500
H  28.88700 50.87600 20.89800
H  28.85500 51.85700 22.42200
H  27.91600 52.32800 21.04500
H  23.75800 50.44500 21.85300
H  24.95700 49.80100 20.75200
H  24.40200 51.09000 19.03000
H  24.45100 52.52900 20.06000
H  23.01400 51.50900 20.07200
H  21.87200 53.97700 24.07800
H  20.90200 54.11200 25.62700
H  20.83700 52.69500 24.46000
H  22.01900 51.97500 30.10000
H  22.77800 55.80500 32.13500
H  23.36400 54.56000 33.37300
H  21.65800 55.06400 33.15100

