158

Mg 47.62400 35.59100 27.97100
C  46.33700 33.62200 30.47300
C  48.09700 38.10800 30.31800
C  49.21200 37.28900 25.60800
C  47.37800 32.87500 25.76700
N  47.21300 35.87300 30.15500
C  46.92900 34.83000 31.00800
C  47.35000 35.12300 32.41900
C  47.54300 36.73000 32.40600
C  47.55900 36.96800 30.88000
C  46.35700 37.48500 33.20000
C  48.55600 34.21600 32.87500
C  49.17500 34.47200 34.27400
H  48.28000 35.29500 35.28300
N  48.35400 37.54600 27.90300
C  48.39600 38.42600 28.94800
C  49.05500 39.68900 28.47600
C  49.44000 39.49300 27.12900
C  48.96000 38.02900 26.79600
C  49.28800 40.78500 29.46400
C  50.13800 40.34900 26.16300
O  50.58300 39.95600 25.08200
C  50.50300 41.76500 26.53800
N  48.09100 35.15600 25.87800
C  48.75600 36.03500 25.13800
C  49.23300 35.42000 23.84000
C  48.55400 34.00700 23.86300
C  47.92300 33.99300 25.19900
C  48.89100 36.27800 22.53400
C  49.55300 32.90000 23.54000
C  50.06600 32.90600 22.09700
N  46.86100 33.66700 27.95900
C  46.88000 32.67100 27.04400
C  46.22700 31.53200 27.61700
C  46.01900 31.89500 28.95800
C  46.35300 33.22200 29.09800
C  46.07500 30.08500 27.02600
C  45.40900 31.33400 30.18800
O  44.95400 30.25300 30.46500
C  45.49400 32.46400 31.13600
C  45.82600 32.06300 32.51400
O  46.70100 31.36700 32.89700
O  44.82400 32.66100 33.27600
C  44.66900 32.36500 34.67600
H  48.40300 38.89800 31.00800
H  49.78100 37.83900 24.85500
H  47.35700 31.95600 25.17700
H  46.44100 34.93000 32.98800
H  48.55800 36.99500 32.70300
H  46.73900 38.27200 33.85000
H  45.77200 36.90000 33.91000
H  45.67300 37.93900 32.48300
H  49.33400 34.49400 32.16400
H  48.40700 33.17300 32.59600
H  50.03900 35.09700 34.05000
H  49.46100 33.45300 34.53300
H  49.31200 41.79200 29.04800
H  50.19700 40.63100 30.04600
H  48.39100 40.78100 30.08200
H  49.64400 42.23100 27.02200
H  50.86900 42.23500 25.62600
H  51.26300 41.67100 27.31400
H  50.30400 35.22400 23.80300
H  47.75700 34.07700 23.12300
H  48.51200 37.26000 22.81500
H  48.04700 35.76200 22.07700
H  49.67500 36.39400 21.78500
H  49.14200 31.89600 23.64900
H  50.33300 32.82000 24.29700
H  49.95900 31.89500 21.70500
H  51.11100 33.20600 22.16600
H  49.61000 33.64500 21.43900
H  46.29100 29.93500 25.96800
H  45.09800 29.72400 27.34900
H  46.75700 29.41700 27.55300
H  44.49500 32.89300 31.22000
H  43.63100 32.03100 34.67200
H  44.75200 33.34000 35.15600
H  45.47000 31.74600 35.07900
Mg -12.54600 16.80400 42.32100
C  -9.65900 14.78900 41.61300
C  -10.98600 19.39000 40.70900
C  -15.53500 18.22800 41.96300
C  -14.24400 13.81900 43.22500
N  -10.54400 16.98300 41.22200
C  -9.53600 16.12800 41.15900
C  -8.31900 16.69900 40.43500
C  -8.72800 18.19800 40.56800
C  -10.23900 18.18900 40.78100
C  -7.88200 18.91500 41.73100
C  -8.09000 16.07300 39.04000
C  -6.64600 15.90400 38.57900
H  -6.33200 16.82500 37.46000
N  -13.13100 18.58900 41.56300
C  -12.35400 19.59700 41.01000
C  -13.10300 20.74700 40.71400
C  -14.44500 20.47600 41.10600
C  -14.42100 19.04300 41.58000
C  -12.58200 21.99900 40.19600
C  -15.66800 21.44900 41.07800
O  -15.62800 22.48400 40.45500
C  -16.96500 21.04000 41.63600
N  -14.61100 16.10200 42.83100
C  -15.62100 16.96800 42.52300
C  -16.99200 16.33800 42.79700
C  -16.55600 14.91000 43.32200
C  -15.04100 14.94700 43.14100
C  -18.06200 17.08900 43.62200
C  -17.30900 13.58200 42.83800
C  -17.89500 12.71200 43.99500
N  -12.15200 14.71900 42.41700
C  -12.87900 13.65400 42.86000
C  -12.10300 12.40400 42.79100
C  -10.79100 12.82900 42.37400
C  -10.90100 14.22500 42.09200
C  -12.51600 10.99500 43.17500
C  -9.43200 12.37400 42.14200
O  -8.92100 11.28000 42.35600
C  -8.67600 13.56700 41.51300
C  -7.50700 13.80700 42.43000
O  -7.48600 13.99400 43.66400
O  -6.44000 13.75500 41.56000
C  -5.12600 14.02300 42.10900
H  -10.50000 20.34700 40.51000
H  -16.46100 18.70200 41.62900
H  -14.76700 12.89100 43.46600
H  -7.40200 16.54200 41.00200
H  -8.56400 18.76000 39.64900
H  -7.13400 19.48000 41.17400
H  -7.42600 18.29800 42.50500
H  -8.56200 19.65600 42.15200
H  -8.38000 16.88400 38.37200
H  -8.61500 15.15700 38.77100
H  -6.43400 14.87800 38.27900
H  -5.89300 16.15400 39.32700
H  -12.93700 22.09600 39.17000
H  -11.50500 22.15600 40.25700
H  -13.02900 22.73200 40.86700
H  -17.56600 21.94700 41.69800
H  -16.86400 20.55500 42.60700
H  -17.55300 20.39900 40.97900
H  -17.58100 16.12400 41.90500
H  -16.60000 15.01500 44.40600
H  -17.62300 18.02100 43.97900
H  -18.28100 16.44900 44.47700
H  -18.92500 17.27500 42.98300
H  -16.76700 12.90100 42.18200
H  -18.16500 13.84900 42.21900
H  -18.97400 12.85000 43.91900
H  -17.52700 13.01800 44.97400
H  -17.60300 11.66800 43.88400
H  -12.68700 10.95100 44.25000
H  -11.80000 10.33300 42.68600
H  -13.49700 10.84300 42.72400
H  -8.23100 13.46100 40.52300
H  -5.03300 13.62600 43.12100
H  -4.88900 15.07900 42.23600
H  -4.26500 13.62400 41.57400

