158

Mg 30.17800 57.59600 39.89700
C  27.17100 55.97000 39.07400
C  31.95300 54.71300 39.11700
C  33.12300 59.46700 40.08200
C  28.41500 60.63300 40.41000
N  29.57900 55.64400 39.06000
C  28.31500 55.12200 38.81600
C  28.42200 53.70100 38.11900
C  29.76300 53.29400 38.76400
C  30.54300 54.63100 39.01400
C  29.62800 52.35400 40.03600
C  28.51000 53.86900 36.52200
C  27.32800 53.07700 35.87100
H  26.95600 53.44300 34.42400
N  32.30200 57.17400 39.71900
C  32.75100 55.88700 39.39500
C  34.25600 55.95600 39.40100
C  34.57300 57.26800 39.80500
C  33.32000 58.02100 39.94400
C  35.15100 54.77900 39.07300
C  36.03600 57.73800 40.08100
O  36.99600 56.96000 39.99200
C  36.32800 59.07800 40.68900
N  30.64300 59.74300 40.55200
C  31.94100 60.18300 40.35000
C  31.96900 61.66900 40.53200
C  30.49300 62.09300 40.77000
C  29.77900 60.73900 40.66300
C  32.89700 62.08100 41.69800
C  30.04200 63.24600 39.81800
C  29.38200 64.54200 40.40800
N  28.15300 58.20100 39.87200
C  27.61600 59.47000 40.11000
C  26.12500 59.33500 39.99100
C  25.94500 58.02600 39.53500
C  27.17300 57.36100 39.46900
C  25.01100 60.37200 40.12700
C  24.93900 56.96700 39.19800
O  23.67900 57.01800 39.13200
C  25.68600 55.59400 38.88800
C  25.22700 54.41200 39.71700
O  25.66200 54.02700 40.79600
O  24.12800 53.79200 39.04600
C  23.39300 52.83200 39.91900
H  32.48900 53.76200 39.15200
H  34.05200 60.03900 40.03600
H  27.91300 61.58900 40.56700
H  27.66100 52.96400 38.37600
H  30.29800 52.67800 38.04100
H  30.24200 51.48700 39.79100
H  28.56000 52.14500 39.98900
H  29.97600 52.81400 40.96000
H  29.52200 53.64400 36.18600
H  28.29700 54.90500 36.25700
H  26.40700 53.20800 36.43900
H  27.64100 52.03300 35.90700
H  35.88500 54.95700 38.28800
H  34.54400 53.87500 39.02900
H  35.76800 54.77200 39.97100
H  35.99500 59.86700 40.01500
H  37.41600 59.13700 40.70300
H  35.81500 58.98000 41.64600
H  32.33000 62.05800 39.58100
H  30.29500 62.32200 41.81600
H  33.32600 61.20500 42.18500
H  32.39400 62.61500 42.50500
H  33.73100 62.67500 41.32400
H  29.44700 62.83000 39.00600
H  30.88300 63.63400 39.24400
H  29.58300 64.55800 41.47900
H  28.32300 64.36100 40.22400
H  29.68500 65.41700 39.83300
H  24.06600 59.89200 40.38200
H  25.11000 60.96200 39.21600
H  25.37500 60.97200 40.96000
H  25.50600 55.39500 37.83100
H  22.36100 53.08300 39.67500
H  23.55700 52.95300 40.98900
H  23.40600 51.79200 39.59500
Mg 6.41500 53.62600 41.19500
C  5.74700 50.12200 40.99000
C  9.57800 53.02000 40.17800
C  6.76100 56.95000 40.62900
C  2.98300 54.02800 41.86400
N  7.41300 51.65200 40.25600
C  7.08000 50.37100 40.49500
C  8.25200 49.41000 40.09800
C  9.49800 50.38400 40.25900
C  8.81200 51.78600 40.25800
C  10.42700 50.11400 41.45000
C  8.10300 48.78300 38.71900
C  7.98700 49.74900 37.45000
H  6.78900 49.63900 36.54300
N  7.90400 54.79500 40.23800
C  9.17200 54.35500 39.95900
C  10.03900 55.47400 39.68700
C  9.27500 56.64900 39.88200
C  7.91400 56.18800 40.19400
C  11.51200 55.23900 39.45000
C  9.77300 58.05500 39.80600
O  10.95200 58.35800 39.58300
C  8.87900 59.34900 40.07300
N  5.02300 55.24500 41.03400
C  5.53000 56.52300 41.07400
C  4.38300 57.51500 41.30100
C  3.16600 56.58900 41.52900
C  3.75000 55.18000 41.53400
C  4.72600 58.66000 42.30100
C  2.01500 56.79100 40.53100
C  1.21700 58.11300 40.81600
N  4.71100 52.42600 41.50300
C  3.40700 52.71800 41.84300
C  2.72000 51.54300 42.14800
C  3.61600 50.48900 42.00400
C  4.78600 51.10500 41.38300
C  1.32200 51.49000 42.57500
C  3.75700 49.09300 42.07000
O  3.01700 48.17800 42.40400
C  5.07800 48.80700 41.30500
C  4.72100 48.15000 40.04300
O  4.01600 48.67300 39.13500
O  5.42700 46.96300 39.91000
C  5.20300 46.10300 38.68200
H  10.63200 52.81300 39.98100
H  6.84700 58.03800 40.66500
H  1.93900 54.21600 42.12200
H  8.39900 48.64900 40.86400
H  10.06600 50.35400 39.32900
H  11.46000 49.85800 41.21300
H  10.10100 49.23100 42.00100
H  10.48600 50.96400 42.12900
H  7.17900 48.20600 38.73200
H  8.92900 48.09700 38.52900
H  8.78000 49.63400 36.71100
H  8.00500 50.74400 37.89500
H  11.75400 54.93300 38.43200
H  11.88600 54.40000 40.03600
H  12.10200 56.10800 39.73800
H  8.08400 59.35600 39.32700
H  9.47600 60.24900 39.92300
H  8.43300 59.26500 41.06400
H  4.13000 58.01300 40.36500
H  2.78400 56.63100 42.54900
H  4.06700 58.55000 43.16200
H  4.55400 59.67100 41.93300
H  5.78000 58.68100 42.58000
H  1.35800 55.92200 40.54800
H  2.38200 56.84200 39.50500
H  1.45500 58.86400 40.06300
H  1.54500 58.42700 41.80700
H  0.13700 57.98300 40.74300
H  1.36700 51.31900 43.65100
H  0.97600 50.60300 42.04500
H  0.84900 52.45700 42.40100
H  5.77600 48.12900 41.79700
H  6.20900 46.02000 38.27100
H  4.43800 46.45100 37.98700
H  4.99700 45.12500 39.11600

