158

Mg 44.55800 5.04900 47.50300
C  42.42800 7.58000 46.58200
C  41.93400 2.75800 46.82800
C  46.80000 2.51300 47.48300
C  47.15600 7.37100 47.71300
N  42.48100 5.18400 46.52000
C  41.81400 6.39100 46.34100
C  40.35600 6.04600 45.88200
C  40.12300 4.55600 46.39700
C  41.58800 4.12200 46.60300
C  39.21600 4.47000 47.71500
C  40.26000 6.26100 44.35600
C  39.13300 7.31100 43.91900
H  39.50100 8.15400 42.73500
N  44.37000 2.95500 47.21300
C  43.23200 2.24000 46.97700
C  43.52000 0.82500 46.99900
C  44.90900 0.70300 47.20800
C  45.44500 2.11400 47.28800
C  42.55000 -0.19500 46.84500
C  45.62000 -0.63100 47.35600
O  45.05900 -1.69000 47.16000
C  47.09900 -0.67300 47.81300
N  46.73500 4.95800 47.24900
C  47.40900 3.79900 47.49800
C  48.86400 3.99800 47.79600
C  48.93800 5.55400 48.04000
C  47.54600 6.00800 47.60400
C  49.54300 3.13300 48.95700
C  50.14500 6.28800 47.49200
C  51.28500 6.47700 48.57300
N  44.79100 7.06300 47.21100
C  45.90500 7.86300 47.42900
C  45.47200 9.27100 47.34500
C  44.12000 9.20900 47.02700
C  43.78500 7.82500 46.90600
C  46.42400 10.43600 47.39000
C  43.00900 9.94700 46.68100
O  42.87200 11.14100 46.42900
C  41.81500 8.97200 46.49900
C  40.86700 9.32200 47.61500
O  40.86700 8.83500 48.74700
O  39.91600 10.22400 47.12100
C  38.70700 10.51000 47.91800
H  41.04300 2.12600 46.81200
H  47.53100 1.70300 47.53600
H  47.93400 8.08100 48.00300
H  39.75200 6.74300 46.46300
H  39.65600 3.86300 45.69800
H  38.67400 5.34600 48.07200
H  39.81500 4.33500 48.61500
H  38.45500 3.70800 47.54500
H  40.05000 5.26500 43.96800
H  41.20200 6.62400 43.94300
H  38.81300 7.84800 44.81200
H  38.32000 6.67000 43.57900
H  41.72400 0.11400 46.20400
H  42.23900 -0.71800 47.75000
H  42.92900 -0.91900 46.12400
H  47.41300 -1.71200 47.71100
H  47.25200 -0.20000 48.78300
H  47.80800 -0.23700 47.10900
H  49.41700 3.66900 46.91700
H  48.84400 5.62000 49.12300
H  50.54300 3.48800 49.20700
H  49.73600 2.09900 48.67100
H  48.99500 3.19000 49.89800
H  49.87000 7.28000 47.13300
H  50.51100 5.73100 46.63000
H  51.10500 5.82700 49.43000
H  51.25100 7.51900 48.89000
H  52.30100 6.36600 48.19500
H  47.25900 10.28700 46.70600
H  46.77000 10.68100 48.39400
H  46.00000 11.36900 47.02000
H  41.28700 9.11500 45.55700
H  37.90200 10.06600 47.33400
H  38.56900 11.58300 48.05800
H  38.64200 10.03000 48.89500
Mg 6.13400 53.30900 41.99000
C  6.07500 49.86600 41.24900
C  9.39300 53.45400 40.72500
C  6.11400 56.66800 42.35600
C  2.65100 53.12500 42.73000
N  7.42900 51.87000 40.87000
C  7.23400 50.49500 40.81500
C  8.47400 49.78300 40.14400
C  9.52600 50.96200 40.04600
C  8.77700 52.22100 40.64600
C  10.91500 50.91200 40.77700
C  8.38200 49.04600 38.84500
C  7.47900 49.70600 37.70200
H  6.79500 48.86800 36.59700
N  7.55600 54.88500 41.63800
C  8.83000 54.72100 41.14300
C  9.42100 56.03300 40.98500
C  8.58000 57.00000 41.54700
C  7.37400 56.25300 41.94800
C  10.79800 56.20000 40.39300
C  8.99300 58.45000 41.76500
O  10.10200 58.86000 41.40100
C  8.16300 59.36300 42.55100
N  4.58200 54.62700 42.43700
C  4.86700 55.99600 42.61300
C  3.59800 56.76800 42.91700
C  2.49800 55.70000 43.00300
C  3.27700 54.34400 42.76000
C  3.72400 57.60000 44.16500
C  1.24200 55.97200 42.15600
C  1.26500 55.39900 40.70500
N  4.64300 51.83700 42.10200
C  3.26600 51.84700 42.50400
C  2.81700 50.52600 42.58700
C  3.86400 49.66500 42.22300
C  4.95900 50.57100 41.89400
C  1.44200 50.12600 42.84800
C  4.24800 48.28000 41.96900
O  3.64200 47.21400 42.09500
C  5.65400 48.38300 41.19900
C  5.43300 47.82500 39.84800
O  4.84500 48.38500 38.95400
O  5.99800 46.56800 39.77700
C  5.60600 45.57500 38.75700
H  10.39900 53.49700 40.30200
H  5.98800 57.73500 42.54700
H  1.64200 53.10500 43.14600
H  8.83900 49.08100 40.89400
H  9.71600 51.06500 38.97800
H  11.73000 51.14400 40.09200
H  11.17900 49.92400 41.15500
H  11.04900 51.69200 41.52600
H  7.99600 48.04500 39.03700
H  9.36700 49.02400 38.37900
H  8.11100 50.51600 37.33800
H  6.63800 50.18300 38.20500
H  10.69500 57.00000 39.66000
H  11.23900 55.28700 39.99300
H  11.52100 56.60200 41.10300
H  8.69100 60.28500 42.79600
H  7.82400 58.77600 43.40400
H  7.26100 59.58400 41.98000
H  3.40700 57.53800 42.17000
H  2.06400 55.50300 43.98200
H  3.27000 57.02300 44.97100
H  3.22600 58.54900 43.96900
H  4.78800 57.82700 44.24000
H  1.20600 57.05900 42.08500
H  0.37000 55.66200 42.73000
H  0.27500 54.96200 40.57300
H  2.02700 54.64400 40.50900
H  1.34000 56.26400 40.04600
H  1.35700 49.97100 43.92300
H  1.32600 49.21000 42.26800
H  0.66200 50.84500 42.59700
H  6.45000 47.78100 41.63800
H  6.04300 44.59900 38.96700
H  5.68600 45.87500 37.71200
H  4.53900 45.41700 38.91600

