158

Mg 25.13000 1.31600 30.08200
C  27.26900 0.98500 32.73200
C  22.42200 1.39000 32.34500
C  22.98600 1.22200 27.53600
C  27.80400 0.61900 27.96400
N  24.92400 1.28500 32.35700
C  25.97400 1.21400 33.22500
C  25.50700 1.51600 34.66300
C  23.91800 1.45100 34.51300
C  23.66400 1.39300 32.98500
C  23.15000 0.26300 35.24200
C  26.10200 2.87300 35.18400
C  26.75600 2.80100 36.61200
H  26.11600 3.70300 37.65700
N  23.00000 1.28500 30.00300
C  22.07500 1.27100 31.01600
C  20.76700 1.04200 30.46000
C  20.88800 0.92600 29.03800
C  22.30100 1.18100 28.78000
C  19.52600 0.88000 31.31600
C  19.84000 0.62000 27.94900
O  20.11400 0.34600 26.79700
C  18.42600 0.53900 28.33400
N  25.41300 0.98500 28.06300
C  24.37100 1.13200 27.20000
C  24.91600 1.22600 25.73700
C  26.42600 1.23900 25.95600
C  26.51300 0.92800 27.45100
C  24.42600 0.07800 24.81600
C  27.22500 2.53800 25.46400
C  26.82600 3.85900 26.12500
N  27.15700 0.82300 30.26800
C  28.13800 0.55400 29.31400
C  29.46200 0.39000 29.93500
C  29.17900 0.59300 31.31200
C  27.74800 0.74100 31.44000
C  30.81800 0.19900 29.30000
C  29.74500 0.87300 32.65100
O  30.90100 1.00400 33.05000
C  28.58200 1.02500 33.56000
C  28.61300 -0.05100 34.57300
O  28.62100 -1.23800 34.33800
O  28.77800 0.47000 35.81800
C  29.25900 -0.33400 36.90300
H  21.55200 1.53700 32.98900
H  22.37000 1.08600 26.64500
H  28.58900 0.70200 27.21000
H  25.74900 0.71700 35.36300
H  23.55000 2.43300 34.81000
H  22.73100 -0.36500 34.45600
H  22.24800 0.67200 35.69800
H  23.83000 -0.29600 35.88400
H  25.31200 3.62300 35.22200
H  26.86800 3.34500 34.56800
H  27.75100 3.22400 36.47400
H  26.86600 1.78900 37.00000
H  18.97200 1.81700 31.26900
H  19.72600 0.58100 32.34400
H  18.94800 0.03100 30.95000
H  18.12000 1.51800 28.70000
H  18.14400 -0.28000 28.99600
H  17.93000 0.30600 27.39200
H  24.68200 2.16400 25.23500
H  26.95600 0.44300 25.43200
H  23.66200 -0.54800 25.27700
H  25.26500 -0.56000 24.53700
H  24.14000 0.49600 23.85100
H  26.95600 2.62200 24.41100
H  28.31000 2.43300 25.45900
H  27.65100 4.24600 26.72400
H  25.98900 3.59400 26.77200
H  26.50400 4.53700 25.33500
H  30.76400 -0.02900 28.23600
H  31.42900 -0.41900 29.95800
H  31.32200 1.16500 29.30700
H  28.61000 1.99600 34.05400
H  28.71300 -0.15500 37.82900
H  30.28400 0.00100 37.06100
H  29.17800 -1.40400 36.70800
Mg 47.77800 16.80800 27.61500
C  45.60400 16.86700 30.51900
C  49.96600 18.71300 29.16000
C  49.41700 16.81700 24.82000
C  44.91400 15.28800 25.95700
N  47.66200 17.81000 29.55800
C  46.82400 17.53200 30.64600
C  47.49400 18.05000 31.96300
C  48.78000 18.84300 31.44400
C  48.83700 18.46100 29.94500
C  48.77200 20.36300 31.64400
C  47.91500 16.87000 32.85800
C  47.90100 17.18000 34.42300
H  47.60700 18.61500 35.05500
N  49.42800 17.68700 27.10600
C  50.29400 18.38400 27.87500
C  51.44900 18.86200 27.18500
C  51.32400 18.30000 25.87700
C  50.05700 17.52500 25.89000
C  52.52200 19.80900 27.74700
C  52.23400 18.49800 24.69200
O  51.96000 17.97400 23.60900
C  53.46200 19.32700 24.71500
N  47.28200 15.98200 25.65000
C  48.24000 16.06800 24.70100
C  47.62000 15.61200 23.27400
C  46.14200 15.22600 23.60000
C  46.06800 15.55300 25.15500
C  47.85500 16.60300 22.10500
C  45.74500 13.69100 23.23900
C  45.98800 13.20400 21.84600
N  45.70100 16.28800 28.06600
C  44.72700 15.60700 27.32900
C  43.52800 15.26100 28.16000
C  43.83000 15.76800 29.42500
C  45.13800 16.37800 29.32700
C  42.26200 14.47600 27.72500
C  43.31300 15.95800 30.76500
O  42.22300 15.80000 31.24100
C  44.49800 16.60100 31.54600
C  44.01500 17.76600 32.33600
O  43.77300 18.87500 31.92100
O  43.67700 17.32600 33.57300
C  43.04700 18.21800 34.57100
H  50.65800 19.30800 29.76000
H  49.90700 16.92000 23.85000
H  44.06100 14.78200 25.50000
H  46.83500 18.75000 32.47700
H  49.72700 18.55300 31.89900
H  49.70900 20.62500 32.13500
H  47.92500 20.71400 32.23300
H  48.58900 20.91100 30.72000
H  48.93600 16.55600 32.64200
H  47.30100 16.00200 32.61700
H  48.89100 16.84300 34.72700
H  47.20400 16.52400 34.94400
H  52.47100 19.82200 28.83600
H  52.21900 20.77800 27.35200
H  53.54700 19.48100 27.57300
H  53.20900 20.33600 25.04100
H  53.83100 19.47900 23.70100
H  54.18100 18.93400 25.43400
H  48.19800 14.74800 22.94500
H  45.40900 15.86300 23.10600
H  48.18400 17.55600 22.52100
H  46.92800 16.71100 21.54300
H  48.59400 16.23100 21.39500
H  44.67500 13.63800 23.44200
H  46.26600 13.07100 23.96900
H  46.56200 13.95800 21.30600
H  45.02700 13.17500 21.33400
H  46.58200 12.29100 21.81000
H  41.55200 15.19200 27.31000
H  41.83700 14.00300 28.61000
H  42.47000 13.71400 26.97400
H  44.90600 15.88400 32.25900
H  42.27300 17.81400 35.22300
H  42.60600 19.04800 34.01900
H  43.93500 18.62200 35.05700

