158

Mg 16.86400 52.27000 26.84800
C  19.06900 50.95500 29.34800
C  14.91600 53.50100 29.34500
C  14.85900 53.58900 24.43200
C  19.04700 51.18900 24.40000
N  16.97600 52.14000 28.98800
C  17.94400 51.56800 29.79300
C  17.61800 51.88100 31.26500
C  16.11000 52.21700 31.20500
C  15.98500 52.70700 29.75500
C  15.10300 51.03900 31.39900
C  18.51900 52.94600 31.93000
C  19.02200 52.86300 33.36600
H  18.18300 52.15900 34.38000
N  15.10700 53.37900 26.87700
C  14.46800 53.76500 28.04500
C  13.28800 54.53600 27.72300
C  13.27500 54.58800 26.26800
C  14.39400 53.79100 25.78500
C  12.36700 55.15300 28.73400
C  12.26600 55.34800 25.42400
O  12.34100 55.43500 24.21400
C  11.14600 56.11700 26.04000
N  16.87000 52.11000 24.69800
C  15.89500 52.78300 23.93900
C  16.12600 52.50600 22.43000
C  17.54100 51.92000 22.44600
C  17.89700 51.75900 23.94900
C  15.03600 51.65000 21.80300
C  18.59600 52.70700 21.60200
C  19.15400 54.02200 22.16600
N  18.61800 51.12200 26.92100
C  19.43900 50.83700 25.78700
C  20.62900 50.15500 26.30900
C  20.50200 50.13900 27.69900
C  19.30500 50.77200 28.01100
C  21.79800 49.87600 25.50500
C  21.19600 49.86400 28.99800
O  22.26100 49.31200 29.27400
C  20.23100 50.38900 30.06400
C  19.86200 49.48800 31.12400
O  19.11600 48.51000 30.94900
O  20.28900 49.84200 32.31400
C  20.30700 48.86100 33.46400
H  14.23600 53.74200 30.16600
H  14.29500 54.08400 23.63900
H  19.76700 50.84600 23.65400
H  17.66200 50.96000 31.84600
H  16.07600 53.04100 31.91700
H  14.37700 50.91100 30.59600
H  14.53000 51.25100 32.30100
H  15.57600 50.06500 31.52600
H  18.04000 53.92200 31.85400
H  19.44000 53.01000 31.35200
H  19.13200 53.82700 33.86200
H  20.02100 52.42900 33.40300
H  12.11000 56.15200 28.38000
H  12.79100 55.21800 29.73600
H  11.46100 54.54600 28.75200
H  10.43200 56.47800 25.29900
H  11.62200 56.94200 26.56900
H  10.65600 55.42700 26.72700
H  16.20900 53.48100 21.95100
H  17.56400 50.88600 22.10100
H  14.66800 51.99200 20.83600
H  14.14200 51.67600 22.42600
H  15.38800 50.62200 21.71900
H  18.22000 53.15300 20.68100
H  19.36000 51.98200 21.32200
H  18.95700 54.79600 21.42300
H  20.22100 54.01100 22.39000
H  18.65000 54.31000 23.08800
H  22.66700 50.12500 26.11300
H  21.78300 50.41800 24.55900
H  21.89000 48.83600 25.19100
H  20.72700 51.19900 30.59700
H  19.27200 48.76300 33.79200
H  20.99600 49.13700 34.26300
H  20.54000 47.87800 33.05600
Mg -1.07100 34.91400 26.99700
C  -2.91000 33.33600 29.59700
C  0.30200 37.03400 29.40700
C  0.55100 36.35800 24.49400
C  -2.69700 32.74600 24.78900
N  -1.28700 35.12500 29.27100
C  -2.00900 34.29400 30.08300
C  -1.71800 34.66600 31.51800
C  -0.88900 36.00000 31.49800
C  -0.60500 36.09100 29.99500
C  -1.57500 37.30900 32.04700
C  -1.11700 33.53000 32.42700
C  -0.92900 33.98000 33.90600
H  -1.49400 33.11500 35.08900
N  0.18000 36.49500 26.93300
C  0.69000 37.19200 28.01500
C  1.64700 38.22400 27.55000
C  1.62300 38.12500 26.17900
C  0.72100 36.95900 25.77100
C  2.35800 39.10900 28.52700
C  2.30100 39.07400 25.16000
O  2.15700 38.98700 23.94800
C  3.16500 40.14700 25.67600
N  -1.27000 34.73500 24.94500
C  -0.30500 35.35500 24.16700
C  -0.41000 34.87700 22.68300
C  -1.52600 33.74800 22.74000
C  -1.87000 33.72500 24.28000
C  -0.62800 35.89000 21.60300
C  -1.05400 32.34900 22.14500
C  -0.56000 31.28800 23.16600
N  -2.53100 33.39000 27.06000
C  -3.02700 32.59200 26.10400
C  -3.96000 31.66900 26.62600
C  -3.91300 31.85100 28.06600
C  -3.06800 32.95900 28.24300
C  -4.71100 30.51500 25.86800
C  -4.47400 31.43200 29.38700
O  -5.22400 30.48000 29.68700
C  -3.81200 32.41100 30.42400
C  -4.92300 33.10700 31.06500
O  -5.45600 34.10900 30.64400
O  -5.26900 32.43700 32.19400
C  -6.31800 33.04900 33.00700
H  0.58000 37.83000 30.10000
H  1.19800 36.57900 23.64200
H  -3.15500 32.01300 24.12200
H  -2.67400 34.74300 32.03500
H  0.04500 35.75500 32.00400
H  -1.85000 37.97100 31.22600
H  -0.76400 37.74100 32.63400
H  -2.51800 37.18800 32.57900
H  -0.11600 33.30700 32.05800
H  -1.77500 32.67000 32.55500
H  -1.26600 35.00900 34.02400
H  0.14300 33.98700 34.09900
H  2.33600 38.67900 29.52800
H  1.91800 40.10200 28.43100
H  3.42000 39.09200 28.28200
H  3.90100 39.55400 26.21900
H  2.69700 40.93200 26.27000
H  3.66100 40.61900 24.82800
H  0.54400 34.37100 22.53400
H  -2.42200 34.07300 22.21200
H  -0.82300 36.84900 22.08300
H  -1.51000 35.74700 20.97800
H  0.31700 35.90800 21.06000
H  -0.27600 32.51400 21.40000
H  -1.95800 32.05400 21.61300
H  -0.11800 31.76400 24.04200
H  0.30600 30.82900 22.69000
H  -1.34700 30.54900 23.31500
H  -4.18300 30.32000 24.93400
H  -5.76000 30.78000 25.73100
H  -4.78000 29.56000 26.38700
H  -3.21200 31.78300 31.08400
H  -6.00500 33.74400 33.78700
H  -6.85300 32.28300 33.56600
H  -7.10200 33.48600 32.38900

