158

Mg 54.52400 24.39800 44.89800
C  51.93000 26.33500 43.87000
C  52.83900 21.62500 43.81600
C  57.34900 22.52600 45.28700
C  56.43600 27.29500 45.41100
N  52.71300 24.05600 43.84100
C  51.83500 24.98500 43.44000
C  50.66600 24.34900 42.67800
C  50.67900 22.94000 43.31200
C  52.18900 22.82200 43.69600
C  49.66000 22.64100 44.50500
C  50.93600 24.53200 41.13300
C  49.68500 24.71600 40.33400
H  49.59300 23.96800 39.03200
N  54.93900 22.36700 44.67800
C  54.09000 21.36800 44.21900
C  54.73700 20.07000 44.41600
C  56.05700 20.33200 44.87700
C  56.17800 21.79400 45.01600
C  54.05300 18.75400 44.02700
C  57.09000 19.19700 45.25500
O  56.80800 17.99500 45.16600
C  58.60300 19.49700 45.50800
N  56.57800 24.84600 44.99000
C  57.52700 23.94500 45.21100
C  58.96400 24.55700 45.31900
C  58.67300 26.08300 45.51500
C  57.06400 26.08300 45.32100
C  59.61900 24.01100 46.56700
C  59.35500 26.98900 44.46900
C  60.37500 28.05500 44.93000
N  54.24800 26.44900 44.79500
C  55.04000 27.51100 45.15300
C  54.22700 28.72100 45.15300
C  52.91200 28.32900 44.65700
C  53.05400 26.90100 44.46500
C  54.68200 30.09000 45.62500
C  51.60100 28.77500 44.25800
O  51.05600 29.84900 44.26200
C  50.92800 27.45700 43.75300
C  50.39400 27.91700 42.47000
O  50.94200 27.97100 41.39400
O  49.08800 28.26300 42.67400
C  48.32400 28.52400 41.47700
H  52.31400 20.68400 43.64000
H  58.27900 21.95300 45.27900
H  57.04200 28.14900 45.72100
H  49.81300 24.90900 43.06000
H  50.45700 22.19800 42.54500
H  50.17900 22.15500 45.33100
H  48.96300 21.87900 44.15400
H  49.25800 23.61100 44.79500
H  51.57100 23.72800 40.76100
H  51.47200 25.47900 41.07400
H  49.47900 25.77200 40.15600
H  48.89900 24.33000 40.98300
H  54.79500 18.00000 43.76500
H  53.57400 19.07700 43.10200
H  53.26900 18.28100 44.61700
H  59.06900 19.92100 44.61800
H  59.09600 18.53000 45.60500
H  58.73200 20.06700 46.42800
H  59.49700 24.35400 44.39000
H  58.75200 26.28800 46.58200
H  59.01000 23.28700 47.10900
H  60.10200 24.67800 47.28200
H  60.45800 23.47100 46.12900
H  58.60400 27.55000 43.91300
H  59.91500 26.32900 43.80700
H  60.50500 28.87800 44.22800
H  61.38900 27.65500 44.91100
H  60.21300 28.51200 45.90600
H  54.27400 30.77700 44.88400
H  55.75100 30.07100 45.84100
H  54.22000 30.25400 46.59800
H  50.12100 27.17600 44.42900
H  48.75000 27.97800 40.63500
H  48.37800 29.57200 41.18400
H  47.28300 28.22900 41.60600
Mg 27.74000 56.65800 40.61400
C  25.88000 53.77100 39.58300
C  30.50900 55.14200 38.98600
C  29.50200 59.53100 40.81200
C  24.83200 58.26500 41.33700
N  28.15800 54.68000 39.35700
C  27.22600 53.69200 39.16000
C  27.83700 52.53300 38.33400
C  29.37500 52.96000 38.30200
C  29.32300 54.33800 38.99700
C  30.40300 51.89400 38.90100
C  27.06600 52.24300 36.98700
C  27.06800 53.39800 36.05300
H  27.33700 53.12200 34.53600
N  29.77400 57.21000 40.25200
C  30.65800 56.43300 39.52800
C  31.90700 57.19800 39.55400
C  31.67900 58.42400 40.13000
C  30.27800 58.48400 40.36900
C  33.20300 56.76800 38.83600
C  32.71700 59.55900 40.26700
O  33.89300 59.37500 39.99300
C  32.39600 60.83600 40.97500
N  27.31400 58.58000 41.03700
C  28.16500 59.61100 41.05600
C  27.47800 60.88100 41.48300
C  25.95000 60.53600 41.41200
C  26.01200 59.05600 41.25800
C  28.06000 61.52300 42.81100
C  25.25800 61.16400 40.19300
C  25.63100 60.50500 38.89700
N  25.77000 56.24100 40.52400
C  24.69000 56.94200 40.85500
C  23.49100 56.08300 40.72800
C  23.99100 54.87100 40.34500
C  25.34400 54.97700 40.16500
C  21.99200 56.37900 40.95100
C  23.50700 53.51300 40.09800
O  22.35500 52.96700 40.17900
C  24.66500 52.80200 39.44200
C  24.83800 51.53000 40.26200
O  24.11800 50.49900 40.12000
O  25.73300 51.69400 41.26100
C  26.01500 50.56200 42.13700
H  31.39700 54.76800 38.47300
H  29.97900 60.50700 40.92000
H  23.96300 58.89200 41.54600
H  27.81700 51.63200 38.94600
H  29.67800 53.01900 37.25700
H  30.92100 51.35500 38.10800
H  29.80100 51.14700 39.41800
H  31.03300 52.28200 39.70100
H  26.09500 51.77400 37.14600
H  27.78300 51.57600 36.51000
H  27.83600 54.12800 36.30900
H  26.06400 53.82000 36.07500
H  33.27300 55.68000 38.81700
H  34.16600 57.02400 39.27800
H  33.23600 57.12100 37.80500
H  31.89800 60.41500 41.84900
H  31.83300 61.55300 40.37800
H  33.29400 61.30600 41.37600
H  27.72100 61.60500 40.70500
H  25.52000 60.91200 42.34100
H  28.36900 62.52500 42.51400
H  28.88400 61.03800 43.33300
H  27.35000 61.55700 43.63800
H  25.48300 62.22900 40.25000
H  24.18900 60.97300 40.28400
H  24.77000 60.09200 38.37200
H  26.38800 59.72200 38.88600
H  26.02100 61.30600 38.26900
H  21.56500 56.84400 40.06200
H  21.88900 57.12100 41.74300
H  21.37900 55.54400 41.28900
H  24.47500 52.47100 38.42100
H  25.13900 50.09100 42.58500
H  26.83700 50.93300 42.74900
H  26.56100 49.84300 41.52700

