158

Mg -2.11900 17.57100 26.62100
C  -2.31900 15.12400 29.19700
C  -2.59300 19.92300 29.01200
C  -2.34200 19.85700 23.99800
C  -2.47100 15.03600 24.30500
N  -2.22500 17.53600 28.94600
C  -2.27900 16.47500 29.77400
C  -2.39500 16.85300 31.26500
C  -2.80400 18.34500 31.08300
C  -2.53200 18.68200 29.57500
C  -4.24200 18.62200 31.53300
C  -1.17200 16.54400 32.17900
C  -1.01300 17.30500 33.47000
H  -0.64400 16.57500 34.80400
N  -2.31900 19.58100 26.61700
C  -2.47800 20.41200 27.68000
C  -2.60500 21.75800 27.26700
C  -2.70100 21.66200 25.82800
C  -2.47100 20.29600 25.44400
C  -2.67600 22.99100 28.20700
C  -2.92700 22.82500 24.88400
O  -2.87900 22.71400 23.63100
C  -3.06100 24.22500 25.35900
N  -2.29200 17.41500 24.52900
C  -2.22300 18.50200 23.64500
C  -2.21300 18.00700 22.19700
C  -2.52400 16.46900 22.27200
C  -2.33800 16.27200 23.77000
C  -3.13900 18.81300 21.18600
C  -1.50900 15.60800 21.42200
C  -2.16100 14.59200 20.45300
N  -2.19800 15.54900 26.69100
C  -2.37300 14.67100 25.66500
C  -2.41300 13.31600 26.15000
C  -2.46000 13.50500 27.57300
C  -2.36000 14.83100 27.83400
C  -2.45100 12.12900 25.29400
C  -2.59600 12.74800 28.79400
O  -2.68300 11.55100 28.96600
C  -2.50300 13.78300 29.93300
C  -1.33300 13.45000 30.76800
O  -0.22500 13.84700 30.52200
O  -1.64600 12.60300 31.85300
C  -0.50100 12.16800 32.67300
H  -2.81700 20.63200 29.81200
H  -2.57100 20.51200 23.15500
H  -2.60700 14.33300 23.48000
H  -3.19500 16.23000 31.66700
H  -2.22000 19.03500 31.69200
H  -4.60300 17.95200 32.31300
H  -5.00300 18.52900 30.75800
H  -4.34600 19.64300 31.90100
H  -0.28600 16.56800 31.54400
H  -1.22800 15.49600 32.47400
H  -1.92900 17.87900 33.60500
H  -0.14200 17.93600 33.29000
H  -3.66800 23.43300 28.10500
H  -1.95000 23.79000 28.05700
H  -2.53600 22.50300 29.17100
H  -4.01400 24.18300 25.88600
H  -2.98900 24.97100 24.56700
H  -2.18600 24.38000 25.99000
H  -1.18100 18.16200 21.88000
H  -3.54800 16.25900 21.96200
H  -3.79400 19.49300 21.73100
H  -3.65500 18.07100 20.57800
H  -2.47500 19.48900 20.64700
H  -0.77500 15.25000 22.14500
H  -1.09900 16.30300 20.69000
H  -2.02000 15.04300 19.47100
H  -3.23000 14.55500 20.66100
H  -1.62300 13.66300 20.64700
H  -1.69500 12.18500 24.51100
H  -3.46500 11.98000 24.92500
H  -2.24000 11.24800 25.90000
H  -3.41000 13.77300 30.53700
H  -0.90400 11.68600 33.56400
H  0.16800 13.02100 32.78500
H  0.06600 11.41500 32.12600
Mg 42.62800 41.87600 26.24600
C  42.01700 44.09100 28.70400
C  43.85800 39.62900 28.62600
C  43.85800 39.75200 23.75700
C  42.13200 44.35400 23.80900
N  42.76900 41.82100 28.39800
C  42.33100 42.79800 29.17800
C  42.47600 42.41400 30.68700
C  43.43700 41.15900 30.61300
C  43.32600 40.80000 29.15100
C  44.92400 41.34600 31.03900
C  41.03000 42.19300 31.28800
C  40.75600 42.88700 32.62400
H  41.78400 42.69100 33.78600
N  43.50000 39.85100 26.21500
C  43.86900 39.12800 27.32200
C  44.33500 37.81300 26.94200
C  44.44900 37.88400 25.47700
C  43.85800 39.20700 25.04200
C  44.54600 36.75900 27.93700
C  44.96300 36.82400 24.53100
O  45.06300 36.93600 23.34400
C  45.46000 35.43500 25.21700
N  42.92500 42.00300 24.13800
C  43.45700 41.01000 23.30300
C  43.40700 41.36200 21.86100
C  42.67100 42.76400 21.85000
C  42.53400 43.06500 23.33400
C  44.92400 41.45000 21.29600
C  41.33400 42.72700 21.14000
C  40.29200 41.83900 21.77200
N  42.06800 43.82800 26.15300
C  41.96200 44.74100 25.14500
C  41.59600 46.04000 25.75700
C  41.53400 45.80900 27.19000
C  41.89300 44.50600 27.31800
C  41.33000 47.23000 24.96800
C  41.33800 46.46200 28.42400
O  41.03400 47.57100 28.70300
C  41.54500 45.33100 29.53300
C  42.54100 45.80000 30.50400
O  43.69600 45.89900 30.20100
O  42.00000 46.14100 31.73800
C  42.92200 46.61900 32.76500
H  44.28200 38.91100 29.33100
H  44.29300 39.04100 23.05100
H  41.96500 45.16800 23.10000
H  42.89200 43.25500 31.24200
H  43.00100 40.33600 31.17900
H  45.66200 41.26700 30.24100
H  45.06100 40.48500 31.69300
H  44.95600 42.20800 31.70400
H  40.78000 41.13200 31.27800
H  40.29000 42.62100 30.61200
H  39.77900 42.56000 32.98000
H  40.60500 43.90500 32.26500
H  43.98100 36.94300 28.85100
H  45.60400 36.61600 28.15500
H  44.21100 35.73600 27.76600
H  44.54700 34.87400 25.41900
H  46.03700 35.45600 26.14200
H  46.03200 34.83400 24.51000
H  42.84000 40.58500 21.34700
H  43.34200 43.46800 21.35800
H  45.71200 41.06800 21.94500
H  45.23500 42.44800 20.98500
H  44.93400 40.75800 20.45500
H  41.48400 42.48200 20.08800
H  40.90100 43.72700 21.13600
H  40.48700 41.42000 22.76000
H  39.97100 41.08600 21.05300
H  39.38600 42.38900 22.02400
H  42.04800 47.16100 24.15100
H  41.53000 48.15700 25.50500
H  40.32400 47.30200 24.55500
H  40.61500 45.12500 30.06300
H  43.40000 47.54500 32.44500
H  43.67600 45.83500 32.83100
H  42.43600 46.92300 33.69200

