158

Mg 0.96600 8.07600 26.32400
C  1.71700 10.28400 29.05000
C  1.24500 5.40000 28.68900
C  0.69400 5.99500 23.80600
C  1.02600 10.76200 24.26100
N  1.45100 7.88200 28.60300
C  1.62600 8.95800 29.48700
C  1.76700 8.47500 30.92100
C  1.87200 6.91100 30.75500
C  1.47900 6.70400 29.27100
C  3.30300 6.35900 30.98400
C  0.53400 8.91700 31.74900
C  0.85000 9.27900 33.24100
H  1.96100 8.60900 34.11900
N  0.90300 5.99600 26.24300
C  0.99400 5.07100 27.28800
C  0.82700 3.78400 26.77600
C  0.70700 3.88400 25.38000
C  0.82100 5.34600 25.06500
C  0.73500 2.53000 27.68500
C  0.67900 2.81700 24.31600
O  0.64500 2.99700 23.07000
C  0.74900 1.43300 24.74100
N  0.95700 8.36300 24.31100
C  0.77900 7.32800 23.47200
C  0.82300 7.81700 22.04400
C  0.53200 9.32000 22.22100
C  0.86200 9.51700 23.70400
C  2.22400 7.51400 21.38400
C  -0.91000 9.75200 22.05700
C  -1.21800 10.38600 20.75000
N  1.34400 10.17800 26.53500
C  1.33300 11.13500 25.64000
C  1.65100 12.51800 26.21800
C  1.80100 12.18200 27.58000
C  1.57200 10.77700 27.73700
C  1.64600 13.77000 25.45300
C  2.07500 12.72600 28.83600
O  2.40400 13.87500 29.10000
C  2.00000 11.53300 29.86400
C  3.30900 11.50500 30.61400
O  4.41100 11.29700 30.14400
O  3.00900 11.72500 31.90200
C  4.10800 11.99900 32.83200
H  1.39100 4.60400 29.42100
H  0.67600 5.38900 22.89800
H  0.91000 11.56700 23.53100
H  2.66100 8.97200 31.29800
H  1.05800 6.52200 31.36700
H  3.99300 7.12200 31.34700
H  3.65000 5.83100 30.09600
H  3.15500 5.61600 31.76800
H  -0.24800 8.16200 31.67400
H  0.07700 9.72400 31.17600
H  -0.03600 9.41200 33.86100
H  1.20800 10.30400 33.13800
H  -0.04100 1.79100 27.49000
H  0.59100 2.75900 28.74100
H  1.68000 1.99500 27.78200
H  1.63200 1.31500 25.36900
H  0.91100 0.81200 23.85900
H  -0.15600 1.04600 25.21000
H  -0.08500 7.38900 21.61800
H  1.16100 9.90100 21.54700
H  2.99100 7.59900 22.15400
H  2.41000 8.12600 20.50200
H  2.03000 6.47700 21.10800
H  -1.24500 10.47700 22.79800
H  -1.62300 8.93200 22.14000
H  -0.36200 10.15600 20.11600
H  -1.44600 11.43900 20.91200
H  -2.02600 9.96400 20.15300
H  0.59800 13.90200 25.18300
H  2.32900 13.75200 24.60400
H  1.97400 14.60400 26.07400
H  1.20000 11.82300 30.54400
H  4.86900 12.50100 32.23400
H  4.70000 11.18900 33.25800
H  3.81600 12.70800 33.60700
Mg 8.86100 3.81000 28.48000
C  10.30900 2.10700 31.24600
C  7.37600 5.88000 30.44800
C  7.55900 5.18600 25.63000
C  9.92300 0.88300 26.48300
N  8.92000 3.96000 30.64200
C  9.57800 3.26200 31.57800
C  9.22500 3.84700 32.96400
C  8.30700 5.09000 32.59700
C  8.22500 4.97600 31.10000
C  6.93700 5.09000 33.34900
C  10.47900 4.16500 33.84800
C  10.37800 5.42000 34.89700
H  10.94500 5.21100 36.26300
N  7.67900 5.38500 28.08200
C  7.05900 6.09900 29.10700
C  6.42500 7.18800 28.47600
C  6.41100 6.99200 27.06100
C  7.27900 5.83300 26.86600
C  5.81700 8.38200 29.27800
C  5.66500 7.76100 25.96900
O  5.75600 7.51900 24.75100
C  4.77200 8.87500 26.29200
N  8.77700 3.07900 26.35300
C  8.22200 3.86000 25.40300
C  8.05500 3.05700 24.10700
C  9.00000 1.78800 24.37600
C  9.26400 1.92500 25.86300
C  6.65200 2.61300 23.61700
C  10.30100 1.67600 23.44700
C  10.61200 0.37200 22.66800
N  9.98200 2.00200 28.72200
C  10.36500 0.95900 27.85900
C  11.16800 0.00400 28.52800
C  11.31000 0.45300 29.81700
C  10.53900 1.66100 29.92300
C  11.83600 -1.21500 27.90300
C  11.86100 0.20200 31.16000
O  12.66500 -0.61500 31.61400
C  11.14000 1.20800 32.11900
C  10.27700 0.32400 32.96500
O  9.38100 -0.37400 32.53200
O  10.53900 0.40000 34.27900
C  9.61500 -0.22700 35.21400
H  6.93300 6.62800 31.10900
H  7.23200 5.67200 24.70800
H  10.07900 -0.01700 25.88500
H  8.62200 3.04700 33.39300
H  8.81700 6.03700 32.77100
H  6.02900 4.94300 32.76400
H  6.73700 6.03300 33.85700
H  6.87700 4.40100 34.19100
H  11.38200 4.36900 33.27100
H  10.76000 3.25900 34.38500
H  9.32400 5.69400 34.93000
H  10.97900 6.23200 34.48800
H  4.75400 8.18900 29.42400
H  5.95500 9.34600 28.78800
H  6.03400 8.47700 30.34200
H  4.33500 8.86700 27.29000
H  3.98800 8.75800 25.54300
H  5.33600 9.79200 26.12300
H  8.54200 3.62700 23.31600
H  8.43000 0.86800 24.24900
H  6.00700 3.32600 24.13100
H  6.38000 1.64600 24.04000
H  6.81400 2.85100 22.56600
H  11.20200 1.88000 24.02600
H  10.40000 2.46000 22.69500
H  9.91800 -0.36400 23.07400
H  11.61400 0.06100 22.96400
H  10.51300 0.58000 21.60300
H  11.23900 -1.59200 27.07200
H  11.89500 -1.94700 28.70900
H  12.84700 -0.90100 27.64400
H  11.80900 1.84500 32.69700
H  9.55400 0.29500 36.16900
H  9.91700 -1.22200 35.54000
H  8.56900 -0.22700 34.91000

