158

Mg 24.66400 1.83000 29.61900
C  26.86500 1.56700 32.22800
C  22.09300 2.04900 31.62000
C  22.59300 1.87700 26.82500
C  27.32900 1.46100 27.34600
N  24.52900 1.49600 31.72800
C  25.51500 1.64400 32.66700
C  24.91900 1.87700 34.03800
C  23.35200 1.86500 33.74900
C  23.29600 1.87800 32.27100
C  22.52300 0.62700 34.16700
C  25.50000 3.23200 34.54100
C  25.50000 3.22200 36.11400
H  25.03700 4.36900 36.99700
N  22.62200 1.91800 29.28300
C  21.71900 2.03100 30.29200
C  20.37100 2.00200 29.67300
C  20.48500 1.74200 28.28400
C  21.96900 1.91200 28.06400
C  19.11500 2.07200 30.57700
C  19.38000 1.40800 27.19400
O  19.55200 1.28300 25.99400
C  17.95200 1.03800 27.64800
N  24.95300 1.67400 27.36300
C  23.95900 1.79200 26.53100
C  24.45700 1.87700 25.02800
C  26.00300 1.88900 25.17600
C  26.11700 1.71600 26.73300
C  23.82400 0.95000 23.87700
C  26.75600 3.04300 24.55700
C  27.14000 4.32700 25.33700
N  26.70000 1.43200 29.66300
C  27.68600 1.32600 28.72600
C  28.93300 1.05700 29.37800
C  28.71000 1.18200 30.74200
C  27.33200 1.37700 30.85500
C  30.10700 0.59700 28.68800
C  29.27600 1.14400 32.08700
O  30.38500 0.82600 32.41700
C  28.15700 1.50000 33.17700
C  28.13700 0.51200 34.26400
O  27.71800 -0.63200 34.22800
O  28.61800 1.05100 35.42800
C  28.70800 0.12200 36.60200
H  21.35900 2.25700 32.40200
H  22.00000 1.84200 25.90900
H  28.24300 1.42400 26.75000
H  25.31000 1.07900 34.66800
H  22.92600 2.78700 34.14400
H  23.15700 0.01300 34.80600
H  22.15800 0.06600 33.30700
H  21.65600 0.88000 34.77700
H  24.97900 4.12100 34.18500
H  26.54300 3.39800 34.27100
H  26.52000 3.02500 36.44400
H  24.86800 2.40200 36.45500
H  18.60700 2.96100 30.20300
H  19.41600 2.17100 31.62000
H  18.55300 1.15700 30.39100
H  18.18700 0.03000 27.98900
H  17.33200 1.02500 26.75200
H  17.47600 1.71100 28.36100
H  24.13500 2.91200 24.91300
H  26.43100 1.02500 24.66800
H  22.98200 1.46700 23.41700
H  23.29200 0.06900 24.23600
H  24.63300 0.67400 23.20000
H  26.24000 3.32700 23.63900
H  27.69100 2.70100 24.11300
H  28.22500 4.41300 25.29100
H  26.72200 4.26700 26.34100
H  26.51700 5.12700 24.93800
H  30.81600 1.41700 28.80100
H  29.99300 0.39800 27.62300
H  30.54700 -0.32100 29.07700
H  28.35100 2.49400 33.57900
H  28.88000 -0.91600 36.31700
H  27.85100 0.16600 37.27400
H  29.54800 0.46900 37.20400
Mg -10.74400 37.84300 41.61200
C  -8.69500 35.02800 41.33300
C  -8.31700 39.67400 39.84600
C  -12.82400 40.51600 41.32700
C  -13.21200 35.84500 42.88400
N  -8.72000 37.37700 40.64600
C  -8.14000 36.13100 40.59800
C  -6.81400 36.22400 39.90600
C  -6.62800 37.77900 39.69700
C  -8.00600 38.28300 39.99100
C  -5.34200 38.41800 40.39800
C  -6.80500 35.44600 38.57500
C  -5.49800 34.59300 38.32600
H  -4.44200 35.15300 37.29000
N  -10.53200 39.82800 40.90400
C  -9.45300 40.33700 40.21400
C  -9.58000 41.73700 39.99300
C  -10.86800 42.10000 40.45200
C  -11.52300 40.78800 40.92600
C  -8.53900 42.56100 39.19700
C  -11.53500 43.46600 40.44800
O  -10.81000 44.45000 40.04600
C  -12.84500 43.76400 41.01900
N  -12.76400 38.13200 41.90500
C  -13.36900 39.33500 41.88600
C  -14.88100 39.23200 42.27800
C  -14.98800 37.73400 42.84300
C  -13.56900 37.15200 42.46000
C  -15.32500 40.36700 43.32900
C  -16.24300 37.00600 42.32900
C  -16.23000 36.04500 41.16800
N  -10.94500 35.84400 42.14500
C  -11.97900 35.21100 42.68900
C  -11.57000 33.78100 43.01300
C  -10.27100 33.68200 42.46700
C  -9.95100 34.97200 41.92600
C  -12.47400 32.77800 43.68000
C  -9.18900 32.80900 42.24800
O  -9.13000 31.65700 42.56800
C  -8.11400 33.64500 41.46300
C  -6.79300 33.56300 42.08700
O  -6.31800 32.49500 42.34100
O  -6.33200 34.74500 42.59400
C  -5.26000 34.73200 43.56900
H  -7.49200 40.20200 39.36200
H  -13.49100 41.37800 41.40100
H  -14.05600 35.19100 43.11500
H  -6.00200 35.95900 40.58300
H  -6.43300 38.07500 38.66600
H  -4.80800 37.73800 41.06200
H  -5.68800 39.18000 41.09700
H  -4.72500 38.97900 39.69600
H  -6.84200 36.10900 37.71100
H  -7.65200 34.76100 38.52900
H  -5.88300 33.64900 37.94100
H  -4.92700 34.35100 39.22200
H  -8.12700 43.17700 39.99700
H  -8.99600 43.13300 38.39000
H  -7.78900 41.93700 38.70900
H  -13.01100 43.36300 42.01900
H  -13.59400 43.43900 40.29700
H  -13.00300 44.84200 41.07000
H  -15.33500 39.31000 41.29000
H  -15.12500 37.76200 43.92400
H  -15.87800 41.14000 42.79600
H  -14.46900 40.84000 43.81100
H  -15.93600 39.99500 44.15100
H  -16.98000 37.76000 42.05200
H  -16.64000 36.42500 43.16100
H  -16.97200 36.38300 40.44500
H  -16.43500 35.00900 41.43800
H  -15.22600 36.07800 40.74300
H  -12.76500 32.01600 42.95700
H  -13.31300 33.32200 44.11600
H  -11.98300 32.19500 44.45900
H  -8.01800 33.23600 40.45700
H  -5.62900 34.82200 44.59100
H  -4.58400 35.57100 43.40500
H  -4.64200 33.83400 43.55700

