158

Mg 1.76100 -2.07300 43.44400
C  5.37000 -2.23600 42.79100
C  1.69700 0.82300 41.64900
C  -1.66400 -2.45000 43.08400
C  1.98900 -5.36100 44.56400
N  3.43200 -0.79400 42.52700
C  4.80000 -1.03400 42.37900
C  5.43500 0.16300 41.69500
C  4.30600 1.13500 41.46900
C  3.00900 0.36000 41.82600
C  4.48900 2.58800 42.02200
C  6.12100 -0.24200 40.35400
C  6.76300 0.80800 39.53600
H  6.14200 1.05300 38.17600
N  0.17600 -0.92400 42.67700
C  0.38300 0.26100 41.95400
C  -0.83600 0.78100 41.47600
C  -1.82700 -0.15100 41.85200
C  -1.13400 -1.24600 42.59800
C  -0.98200 2.04800 40.68700
C  -3.35100 0.07500 41.70900
O  -3.86200 1.04700 41.15200
C  -4.33100 -0.83900 42.42700
N  0.35600 -3.67900 43.78100
C  -0.96200 -3.54400 43.60500
C  -1.64800 -4.85300 43.95800
C  -0.47400 -5.82000 44.50500
C  0.68900 -4.90600 44.38600
C  -2.88700 -4.75700 44.90300
C  -0.45600 -7.18900 43.70500
C  -1.55100 -8.20200 44.09500
N  3.28000 -3.57400 43.71500
C  3.19600 -4.84000 44.17900
C  4.56300 -5.34600 44.32600
C  5.43000 -4.35400 43.79100
C  4.59600 -3.33700 43.38900
C  5.03100 -6.61200 44.98700
C  6.84200 -3.99300 43.50500
O  7.88400 -4.59000 43.71100
C  6.79800 -2.67400 42.66500
C  7.81500 -1.74200 43.08200
O  8.88300 -1.61400 42.48700
O  7.41700 -1.05600 44.21800
C  8.46500 -0.14800 44.71300
H  1.70300 1.69200 40.98800
H  -2.71700 -2.66000 42.89000
H  1.96900 -6.40100 44.89500
H  6.18100 0.53900 42.39600
H  4.21900 1.29400 40.39400
H  3.51400 2.85500 42.43000
H  4.69200 3.31600 41.23600
H  5.22900 2.62500 42.82100
H  5.44100 -0.79700 39.70800
H  6.97300 -0.85300 40.65200
H  7.83800 0.68500 39.41000
H  6.56800 1.71000 40.11600
H  -1.99300 2.44600 40.77500
H  -0.68700 1.77000 39.67500
H  -0.28800 2.81700 41.02400
H  -5.37800 -0.53300 42.43000
H  -4.04100 -1.08500 43.44800
H  -4.35600 -1.81300 41.93900
H  -2.12900 -5.19000 43.03900
H  -0.63200 -6.03700 45.56100
H  -3.03300 -3.74200 45.27100
H  -2.90000 -5.48300 45.71600
H  -3.78000 -5.00100 44.32800
H  0.47500 -7.72700 43.88500
H  -0.43600 -6.98300 42.63500
H  -2.38000 -7.58600 44.44500
H  -1.37200 -8.98100 44.83700
H  -1.84900 -8.75300 43.20300
H  4.73900 -7.45900 44.36500
H  4.67900 -6.65400 46.01700
H  6.10600 -6.76500 45.08000
H  7.03800 -2.98600 41.64900
H  9.12100 -0.87900 45.18500
H  8.13000 0.47000 45.54600
H  9.02900 0.48100 44.02500
Mg -10.47700 17.22800 42.08900
C  -6.95400 16.81300 42.32300
C  -9.75200 20.61800 41.24600
C  -13.59500 17.55100 41.00100
C  -10.70400 13.73300 41.78500
N  -8.56200 18.54800 41.74600
C  -7.30400 18.07900 41.84700
C  -6.31400 19.20100 41.35900
C  -7.18400 20.47300 41.57800
C  -8.59300 19.87300 41.52500
C  -6.95600 21.11800 42.96700
C  -5.93400 18.85400 39.82800
C  -4.48200 18.35400 39.53300
H  -4.26700 17.03700 38.80100
N  -11.53100 18.93800 41.46400
C  -11.05900 20.20800 41.15600
C  -12.24600 21.03300 40.86300
C  -13.35800 20.17400 40.81700
C  -12.91100 18.79800 41.11800
C  -12.17300 22.58300 40.68200
C  -14.73700 20.58000 40.35800
O  -14.80100 21.66700 39.80900
C  -15.96400 19.69800 40.48800
N  -11.93400 15.85900 41.46800
C  -13.16900 16.21300 41.19400
C  -14.11700 15.00000 41.08800
C  -13.06300 13.81200 40.94500
C  -11.81700 14.48600 41.54500
C  -15.28700 14.82100 42.14200
C  -12.81100 13.13700 39.50400
C  -13.75600 11.89000 39.28400
N  -9.17400 15.58000 42.30800
C  -9.38600 14.20100 42.20300
C  -8.14400 13.47600 42.45700
C  -7.14000 14.43300 42.49000
C  -7.78600 15.69200 42.36200
C  -7.92900 12.03800 42.61100
C  -5.73900 14.73800 42.68400
O  -4.83000 14.00200 42.92400
C  -5.53000 16.32000 42.46900
C  -4.85600 16.99900 43.64000
O  -5.15200 16.89400 44.81200
O  -3.77100 17.69100 43.26400
C  -2.98000 18.50200 44.24800
H  -9.73200 21.70900 41.21100
H  -14.57200 17.61600 40.51800
H  -10.73500 12.67300 41.52500
H  -5.36100 19.26500 41.88500
H  -6.86300 21.18700 40.82000
H  -7.78900 21.15500 43.66800
H  -6.60700 22.13800 42.80300
H  -6.20100 20.59000 43.55000
H  -6.07300 19.74400 39.21400
H  -6.61000 18.14500 39.35000
H  -3.89000 18.35800 40.44900
H  -3.99200 19.10700 38.91600
H  -12.53200 22.88900 39.69900
H  -11.19700 23.06800 40.68600
H  -12.81100 22.95800 41.48300
H  -16.74100 20.46300 40.46400
H  -15.74700 19.28700 41.47400
H  -16.11500 19.06700 39.61200
H  -14.47500 15.19600 40.07700
H  -13.48300 13.05200 41.60400
H  -14.96700 15.41300 43.00000
H  -15.59400 13.79500 42.34400
H  -16.16900 15.37500 41.82100
H  -11.77100 12.81600 39.44500
H  -12.89300 13.97400 38.81100
H  -14.30200 11.53300 40.15700
H  -13.20900 11.11000 38.75400
H  -14.61100 12.00400 38.61700
H  -7.06600 11.73600 42.01700
H  -8.78800 11.36700 42.62100
H  -7.55100 11.86300 43.61800
H  -4.90000 16.56700 41.61500
H  -1.97500 18.11400 44.41600
H  -3.40700 18.62800 45.24300
H  -2.84700 19.49500 43.81800

