158

Mg 28.82700 57.28500 41.37600
C  26.27300 55.06600 40.25300
C  31.04800 55.00100 39.82100
C  31.00600 59.59800 41.58800
C  26.30100 59.45000 42.42600
N  28.64000 55.28800 40.08100
C  27.48700 54.53800 39.86700
C  27.89600 53.18800 39.32700
C  29.42600 53.07100 39.47900
C  29.70300 54.51800 39.80100
C  30.02400 52.08600 40.59500
C  27.34100 52.90300 37.89200
C  27.20100 54.19400 37.12800
H  27.35100 54.13700 35.60700
N  30.78500 57.23300 40.92700
C  31.53000 56.23300 40.31000
C  32.90100 56.63500 40.21700
C  32.94400 57.90900 40.82700
C  31.56900 58.33800 41.13900
C  33.96800 55.79800 39.53100
C  34.23500 58.66200 41.06300
O  35.29800 58.16100 40.74100
C  34.27200 59.98500 41.56700
N  28.69500 59.21900 41.98500
C  29.72700 60.01900 42.01400
C  29.49800 61.42300 42.76100
C  27.94300 61.44900 42.75400
C  27.62700 59.99000 42.30200
C  30.11500 61.57400 44.17000
C  27.18800 62.58700 41.93600
C  26.81200 63.88000 42.71600
N  26.70800 57.30500 41.41500
C  25.85200 58.24700 41.92100
C  24.48400 57.73400 41.69400
C  24.59500 56.51900 41.11100
C  25.99800 56.31700 40.89300
C  23.21900 58.37600 42.08600
C  23.87700 55.38600 40.65900
O  22.67200 55.10800 40.68200
C  24.93000 54.39300 40.20100
C  24.82800 53.12000 40.94200
O  25.12700 52.94900 42.11400
O  24.23600 52.13200 40.20300
C  23.74900 50.94300 40.93200
H  31.76200 54.23700 39.50600
H  31.77900 60.36600 41.52800
H  25.62000 60.20700 42.82000
H  27.44900 52.50500 40.04900
H  29.81900 52.71200 38.52800
H  29.22100 51.54400 41.09500
H  30.47900 52.64100 41.41600
H  30.72200 51.37800 40.14800
H  26.30900 52.55300 37.92000
H  28.01700 52.21700 37.38200
H  27.92500 54.96300 37.39800
H  26.18100 54.56300 37.23400
H  34.41800 56.40700 38.74700
H  33.47700 55.03200 38.93100
H  34.67000 55.35400 40.23600
H  33.91000 60.60700 40.74800
H  35.32400 60.23400 41.70400
H  33.71700 60.02900 42.50400
H  29.97200 62.12700 42.07600
H  27.54100 61.58800 43.75700
H  30.40700 62.58500 44.45400
H  30.98400 60.91700 44.18800
H  29.42100 61.25400 44.94700
H  26.29400 62.28100 41.39200
H  27.84300 62.89000 41.11900
H  26.97400 63.81800 43.79200
H  25.76100 63.95800 42.43900
H  27.45200 64.68300 42.34900
H  23.29600 59.43600 41.84400
H  23.00800 58.28700 43.15200
H  22.37100 58.01400 41.50400
H  24.71300 54.14800 39.16100
H  23.65800 51.09600 42.00700
H  24.41400 50.12600 40.65400
H  22.74700 50.74800 40.54800
Mg 16.75100 51.54200 26.40400
C  18.67500 49.99900 29.02000
C  14.36000 52.30400 28.60100
C  15.03000 52.45100 23.72700
C  19.38500 50.30900 24.13600
N  16.59600 51.16600 28.52600
C  17.48800 50.63300 29.41500
C  17.02500 50.84000 30.89600
C  15.51100 51.32300 30.68700
C  15.47200 51.64100 29.16000
C  14.41500 50.34800 31.17400
C  17.99500 51.88500 31.61600
C  18.45700 51.52700 32.97300
H  17.36000 50.76900 33.89800
N  14.98700 52.31600 26.17300
C  14.12600 52.64200 27.24000
C  12.99000 53.33000 26.69800
C  13.20000 53.43700 25.28700
C  14.49900 52.79100 24.98100
C  11.88500 53.78900 27.58300
C  12.45500 54.21400 24.26300
O  12.82800 54.39400 23.10000
C  11.10400 54.87800 24.67000
N  17.21900 51.32800 24.25300
C  16.25300 51.81200 23.39000
C  16.57200 51.26100 21.97600
C  18.10200 50.99600 22.04500
C  18.33300 50.93400 23.58200
C  15.62800 50.11300 21.58400
C  19.09900 51.99500 21.35500
C  18.76200 53.50100 21.54000
N  18.64700 50.48900 26.53100
C  19.60600 50.07900 25.57000
C  20.69200 49.34500 26.15800
C  20.35400 49.31900 27.51900
C  19.10600 49.94100 27.68200
C  22.01600 48.77100 25.46200
C  20.83200 48.83500 28.74300
O  21.86300 48.21800 28.90400
C  19.86700 49.36000 29.82400
C  19.38300 48.27100 30.51800
O  18.99100 47.27300 29.98900
O  19.45600 48.45500 31.88200
C  18.93400 47.31600 32.62000
H  13.61700 52.58500 29.35100
H  14.35100 52.69600 22.90700
H  20.11400 49.95400 23.40500
H  17.06400 49.92000 31.47800
H  15.28400 52.18000 31.32000
H  13.90900 50.59400 32.10800
H  14.86100 49.36500 31.32400
H  13.76000 50.28200 30.30500
H  17.48300 52.84200 31.71200
H  18.91900 52.06400 31.06600
H  18.78100 52.38800 33.55800
H  19.24200 50.79500 32.78400
H  11.18000 52.98900 27.81000
H  11.38500 54.69200 27.23200
H  12.28600 54.03500 28.56600
H  10.37200 54.17800 25.07300
H  10.77700 55.34100 23.73900
H  11.34200 55.66400 25.38800
H  16.50600 52.12700 21.31700
H  18.32600 50.08900 21.48300
H  15.17200 50.46100 20.65700
H  14.85000 49.92200 22.32300
H  16.23900 49.34800 21.10400
H  18.93900 51.76400 20.30200
H  20.10000 51.66100 21.62700
H  19.64400 54.14000 21.51300
H  18.50600 53.60600 22.59400
H  18.02400 53.90600 20.84700
H  22.21500 49.06200 24.43000
H  21.86000 47.70300 25.31200
H  22.91500 48.90900 26.06200
H  20.34000 50.01200 30.55800
H  17.94300 46.96600 32.33100
H  18.83100 47.64700 33.65400
H  19.70400 46.54500 32.58100

