158

Mg 2.02200 -1.75400 44.66800
C  5.38900 -0.98200 44.11900
C  1.15900 0.70300 42.37100
C  -1.00200 -3.17900 44.61300
C  3.25500 -4.85300 46.13600
N  3.20600 -0.29700 43.35500
C  4.57500 -0.22200 43.27900
C  4.88100 0.99100 42.27200
C  3.51500 1.64500 42.00400
C  2.57800 0.64000 42.65100
C  3.35300 3.11900 42.40500
C  5.66300 0.43200 41.05100
C  7.07500 1.02200 40.89000
H  7.58400 1.33300 39.41400
N  0.32000 -1.24300 43.71700
C  0.12700 -0.16600 42.87500
C  -1.30100 -0.06900 42.65000
C  -1.97800 -1.20800 43.33500
C  -0.87100 -1.88700 43.96100
C  -1.82600 1.08200 41.78500
C  -3.40700 -1.41400 43.39100
O  -4.21100 -0.70700 42.73900
C  -4.13200 -2.40400 44.34500
N  1.28400 -3.66800 45.38700
C  -0.03600 -3.99100 45.20500
C  -0.40300 -5.41300 45.69000
C  0.99400 -6.01600 46.06500
C  1.91700 -4.78900 45.91100
C  -1.41600 -5.50100 46.91900
C  1.37600 -7.19500 45.14100
C  2.19000 -8.43700 45.76500
N  3.90000 -2.61400 45.35200
C  4.21800 -3.84200 45.92500
C  5.58300 -3.84800 46.20400
C  6.13500 -2.71100 45.57200
C  5.02300 -2.04700 44.99000
C  6.42500 -4.88000 46.89000
C  7.35900 -2.04700 45.25500
O  8.46200 -2.34300 45.56600
C  6.86700 -0.86800 44.26100
C  7.26100 0.43400 44.98400
O  6.92000 0.76100 46.14200
O  8.05600 1.17600 44.14900
C  8.19500 2.53600 44.60900
H  0.84600 1.51600 41.71300
H  -1.95600 -3.67300 44.41600
H  3.63900 -5.78900 46.54600
H  5.52300 1.49900 42.99200
H  3.32400 1.61100 40.93200
H  3.12000 3.70800 41.51800
H  4.32900 3.38900 42.80800
H  2.57700 3.19800 43.16700
H  5.09000 0.74100 40.17700
H  5.65500 -0.65100 41.17200
H  7.71300 0.23300 41.28900
H  7.23800 1.94800 41.44100
H  -1.19800 1.46200 40.98000
H  -2.11000 1.96700 42.35600
H  -2.75500 0.87700 41.25300
H  -4.19000 -3.33000 43.77300
H  -5.07000 -1.88900 44.55300
H  -3.59600 -2.56800 45.28000
H  -0.93800 -5.87400 44.86000
H  1.07700 -6.27300 47.12100
H  -1.01000 -5.68100 47.91500
H  -2.17600 -6.26700 46.76600
H  -2.00600 -4.59200 47.03100
H  1.81900 -6.81300 44.22200
H  0.37700 -7.57700 44.92700
H  2.52200 -8.21400 46.77900
H  3.09100 -8.69300 45.20800
H  1.47100 -9.25700 45.76700
H  6.50400 -5.66500 46.13800
H  5.81700 -5.25900 47.71100
H  7.39500 -4.49200 47.20100
H  7.36600 -0.98300 43.29900
H  7.21900 3.02200 44.58600
H  8.74500 3.16400 43.90700
H  8.75500 2.69500 45.53000
Mg 49.01500 46.52200 42.61800
C  45.74400 47.37100 41.77400
C  48.46300 43.55200 40.86000
C  52.26700 46.00600 42.62800
C  49.52300 49.87400 43.50900
N  47.30200 45.62700 41.37400
C  46.00900 46.05900 41.27000
C  44.98700 45.03000 40.80800
C  45.88600 43.75700 40.85300
C  47.28300 44.27500 41.05900
C  45.42400 42.71300 41.90800
C  44.24200 45.36000 39.49900
C  44.90600 46.30800 38.46500
H  45.80700 45.71400 37.42100
N  50.13600 44.85800 42.03800
C  49.76900 43.76600 41.30200
C  50.93000 42.91000 41.25700
C  52.00300 43.62900 41.87500
C  51.48600 44.96900 42.19300
C  50.94300 41.55700 40.66500
C  53.42700 42.98300 41.94000
O  53.54500 41.76300 41.78000
C  54.61300 43.77400 42.34700
N  50.73100 47.87100 42.70900
C  51.94000 47.34400 42.91800
C  52.96700 48.42100 43.34900
C  52.02600 49.62700 43.70100
C  50.68000 49.09700 43.23400
C  53.87900 47.95000 44.49600
C  52.34200 51.09400 43.08600
C  52.37600 52.20900 44.11600
N  47.90600 48.29300 42.66300
C  48.21300 49.52300 43.24000
C  46.99200 50.36200 43.29900
C  45.97900 49.54400 42.67600
C  46.57100 48.29500 42.41100
C  46.77400 51.82000 43.73200
C  44.60600 49.43300 42.28500
O  43.66700 50.23500 42.30500
C  44.37700 48.05600 41.78900
C  43.38300 47.40000 42.62300
O  43.55300 47.36200 43.81800
O  42.39300 46.82400 41.90800
C  41.49000 46.03100 42.76200
H  48.33900 42.58700 40.36300
H  53.34700 45.88000 42.72700
H  49.68200 50.89700 43.85700
H  44.28700 44.87700 41.62900
H  45.87800 43.25800 39.88400
H  46.20400 42.54300 42.65000
H  45.09900 41.78900 41.43100
H  44.51900 42.95500 42.46600
H  43.22800 45.66300 39.76000
H  44.07000 44.38200 39.05000
H  45.64200 46.93800 38.96400
H  44.16700 46.92800 37.95700
H  50.01500 41.54500 40.09300
H  50.87400 40.81700 41.46200
H  51.81900 41.30500 40.06800
H  54.33700 44.23700 43.29500
H  54.79500 44.39500 41.47000
H  55.40200 43.07400 42.62000
H  53.51700 48.77400 42.47700
H  52.02700 49.67100 44.79000
H  53.73500 46.87600 44.61400
H  53.58700 48.51900 45.37900
H  54.92800 48.11700 44.25000
H  51.58200 51.37100 42.35500
H  53.34000 50.99100 42.66200
H  51.99800 51.90600 45.09200
H  51.72900 53.03200 43.81200
H  53.35500 52.68000 44.20400
H  47.59500 52.13700 44.37400
H  45.82800 51.98100 44.24900
H  46.70100 52.44400 42.84100
H  43.93600 48.26200 40.81400
H  41.83300 45.00300 42.64400
H  40.50000 46.14600 42.32100
H  41.46900 45.97100 43.85000

