158

Mg 2.06200 -1.20700 43.58200
C  5.43200 -0.20100 42.75000
C  0.91400 1.62800 42.06100
C  -0.95900 -2.69500 43.52400
C  3.46500 -4.20600 44.88800
N  3.07600 0.41700 42.46800
C  4.44900 0.61900 42.26300
C  4.67800 1.99600 41.62100
C  3.29900 2.67500 41.68400
C  2.32800 1.53500 42.13400
C  3.20400 3.95600 42.63700
C  5.09700 1.79000 40.13900
C  5.94800 2.81900 39.41800
H  5.38300 3.52800 38.24200
N  0.17200 -0.57900 42.98200
C  -0.12000 0.66200 42.44300
C  -1.50400 0.83600 42.37900
C  -2.11600 -0.37600 42.87300
C  -0.99700 -1.33200 43.15000
C  -2.12900 2.14100 41.85300
C  -3.60400 -0.65100 43.06900
O  -4.43000 0.27500 42.78800
C  -4.02000 -1.98900 43.50700
N  1.33100 -3.09900 44.13200
C  0.09800 -3.52800 43.89900
C  -0.14400 -5.01700 44.07500
C  1.23300 -5.40400 44.78900
C  2.07000 -4.16600 44.59500
C  -1.43800 -5.27100 44.90400
C  2.02300 -6.59600 44.19400
C  2.15700 -7.79600 45.11600
N  4.00600 -2.03500 43.95400
C  4.36900 -3.22800 44.58200
C  5.80600 -3.20100 44.77400
C  6.25000 -2.08400 44.01100
C  5.11300 -1.41500 43.51700
C  6.64400 -4.17100 45.43800
C  7.57100 -1.38200 43.58900
O  8.73300 -1.71500 43.71200
C  6.97400 -0.07500 42.89800
C  7.40500 1.09000 43.69300
O  6.79200 1.60800 44.62000
O  8.66300 1.48500 43.24900
C  8.99700 2.88000 43.73300
H  0.69400 2.64700 41.73800
H  -1.86000 -3.30100 43.40700
H  3.94000 -5.07300 45.35200
H  5.38700 2.65600 42.12000
H  3.05600 3.07000 40.69700
H  4.04600 3.96300 43.32900
H  2.29500 3.96200 43.23900
H  3.20400 4.87500 42.05200
H  4.17900 1.51800 39.61800
H  5.59200 0.84200 39.92900
H  6.78800 2.20200 39.10000
H  6.20100 3.60900 40.12600
H  -3.06300 1.84400 41.37700
H  -1.54200 2.58800 41.05100
H  -2.25700 2.95700 42.56500
H  -5.07300 -1.93100 43.78500
H  -3.57800 -2.28100 44.46000
H  -3.80500 -2.60800 42.63600
H  -0.23200 -5.32300 43.03200
H  1.06000 -5.44000 45.86400
H  -1.22000 -6.06300 45.62100
H  -2.26600 -5.54200 44.25000
H  -1.52900 -4.48100 45.65000
H  2.98000 -6.44900 43.69400
H  1.40100 -7.00100 43.39600
H  2.43800 -7.58100 46.14700
H  2.96900 -8.42100 44.74500
H  1.32500 -8.50000 45.09400
H  5.99700 -4.47000 46.26200
H  7.53000 -3.68000 45.84000
H  6.85500 -5.04500 44.82200
H  7.43700 0.06100 41.92000
H  9.75700 3.27100 43.05700
H  9.33100 2.78500 44.76600
H  8.13000 3.54000 43.68400
Mg -2.04500 34.68900 27.50700
C  -3.72900 33.20800 30.22900
C  -0.72500 36.96600 29.71100
C  -0.80100 36.29700 24.98200
C  -3.80100 32.54400 25.38600
N  -2.38300 35.15300 29.67400
C  -2.89800 34.25600 30.58500
C  -2.71800 34.73300 32.06300
C  -1.89100 36.08400 31.94300
C  -1.63600 36.10700 30.35300
C  -2.65300 37.43500 32.48000
C  -1.99000 33.70500 33.00000
C  -1.42900 34.28200 34.37000
H  -1.59700 33.46400 35.56300
N  -0.94100 36.37000 27.40100
C  -0.41800 37.16900 28.39300
C  0.42500 38.25200 27.81600
C  0.34000 38.03600 26.38200
C  -0.55100 36.83600 26.19300
C  1.01400 39.40100 28.69900
C  1.00300 38.91000 25.24400
O  0.97200 38.70600 24.05600
C  1.77400 40.15800 25.55600
N  -2.30100 34.47300 25.43500
C  -1.57500 35.18300 24.59500
C  -1.76000 34.71400 23.14800
C  -2.67000 33.44600 23.30100
C  -2.83700 33.40800 24.81200
C  -2.21600 35.80400 22.18400
C  -1.87400 32.07800 22.89600
C  -2.67200 30.97600 22.28400
N  -3.54000 33.20300 27.74500
C  -4.15600 32.42700 26.77100
C  -5.03600 31.46100 27.36400
C  -4.90300 31.71200 28.77900
C  -4.03500 32.81000 28.87300
C  -5.81000 30.48400 26.72700
C  -5.29800 31.28000 30.06300
O  -5.98500 30.34900 30.47200
C  -4.45400 32.18600 31.07200
C  -5.34900 32.71800 32.08500
O  -6.18300 33.57000 31.83700
O  -5.22000 32.01400 33.22100
C  -6.30100 32.00800 34.13000
H  -0.10000 37.58100 30.36300
H  -0.40200 36.88100 24.15100
H  -4.34200 31.86500 24.72400
H  -3.70200 34.79500 32.52700
H  -0.94400 36.05300 32.48200
H  -2.15200 37.71600 33.40600
H  -3.69600 37.22600 32.71700
H  -2.57000 38.26900 31.78300
H  -1.11700 33.30600 32.48300
H  -2.55300 32.79100 33.19100
H  -1.81700 35.24800 34.69400
H  -0.36300 34.47600 34.24900
H  2.06000 39.13300 28.84900
H  0.46800 39.36800 29.64200
H  0.89200 40.35700 28.19100
H  1.09500 40.86600 26.03100
H  2.13600 40.66800 24.66400
H  2.61600 39.85000 26.17600
H  -0.76100 34.39500 22.85300
H  -3.63700 33.55300 22.80800
H  -2.20900 36.79000 22.64900
H  -3.14900 35.56900 21.67000
H  -1.42000 35.81700 21.44000
H  -1.25400 31.69700 23.70700
H  -1.12000 32.25000 22.12800
H  -3.71600 31.28200 22.21300
H  -2.45700 30.10100 22.89800
H  -2.32000 30.70400 21.28900
H  -5.82300 29.60600 27.37300
H  -5.36300 30.24400 25.76300
H  -6.80900 30.81900 26.44700
H  -3.72900 31.54000 31.56700
H  -5.99400 32.63900 34.96400
H  -6.56100 31.01200 34.48900
H  -7.15600 32.51000 33.67700

