158

Mg 6.34900 55.52200 41.25000
C  3.54100 53.46100 40.83600
C  8.33600 53.18900 40.12200
C  8.76100 57.94800 41.13100
C  4.06700 57.93300 42.31500
N  5.88100 53.64100 40.47900
C  4.70600 52.97900 40.27600
C  5.05000 51.66100 39.56200
C  6.54100 51.43100 39.89900
C  7.02700 52.81400 40.21700
C  6.93500 50.42400 40.97000
C  4.71800 51.83300 38.05300
C  3.93400 50.64300 37.49800
H  4.74100 49.95500 36.35500
N  8.26400 55.58400 40.58800
C  8.92800 54.50500 40.14300
C  10.25300 54.87600 39.87000
C  10.42800 56.22200 40.15900
C  9.10100 56.65400 40.66100
C  11.28200 53.99500 39.38700
C  11.73500 57.06600 39.94100
O  12.86600 56.59400 39.70200
C  11.76000 58.59800 40.04600
N  6.38200 57.69000 41.49100
C  7.57900 58.40400 41.58500
C  7.37600 59.80100 42.33900
C  5.76000 59.80600 42.47200
C  5.34700 58.36300 42.06000
C  8.07900 59.85600 43.68200
C  5.05700 60.92500 41.60300
C  3.87000 61.63800 42.31000
N  4.29500 55.64800 41.71600
C  3.51900 56.68700 42.20200
C  2.15500 56.23800 42.45500
C  2.13600 55.00700 41.90000
C  3.41300 54.70900 41.42500
C  0.96000 57.01700 42.97400
C  1.19800 53.92200 41.64600
O  -0.03500 53.76400 41.75900
C  2.15900 52.84700 40.88400
C  1.51300 52.64400 39.50100
O  1.43500 53.45300 38.59800
O  0.96100 51.35500 39.61300
C  0.26100 50.85000 38.45600
H  9.12100 52.47100 39.87500
H  9.60900 58.60000 41.35000
H  3.38100 58.72100 42.63300
H  4.50300 50.77800 39.89100
H  7.11200 51.14800 39.01400
H  6.03700 50.10500 41.50000
H  7.57500 50.85900 41.73700
H  7.52400 49.57000 40.63500
H  5.60500 51.88900 37.42200
H  4.14800 52.75400 37.93100
H  2.99700 51.04100 37.10900
H  3.61400 49.89200 38.22100
H  10.84600 53.07200 39.00500
H  12.03100 53.64400 40.09700
H  11.80900 54.38400 38.51700
H  12.50500 59.07600 39.41100
H  12.01700 58.71700 41.09900
H  10.80000 59.05200 39.80000
H  7.67000 60.61500 41.67700
H  5.53200 60.00400 43.51900
H  7.99700 58.81300 43.98900
H  7.50600 60.49000 44.35800
H  9.06200 60.28700 43.49200
H  4.66900 60.39300 40.73400
H  5.85500 61.62100 41.34400
H  3.78400 61.29900 43.34200
H  2.95500 61.43000 41.75500
H  4.09800 62.70200 42.25100
H  1.41500 57.96300 43.26500
H  0.59700 56.51300 43.86900
H  0.27900 57.09900 42.12700
H  2.07400 51.88500 41.39000
H  -0.65700 50.49100 38.92100
H  0.78800 50.03000 37.96800
H  0.13500 51.65000 37.72700
Mg 9.56600 48.47200 25.95700
C  7.68000 48.40000 28.85100
C  12.14000 49.54300 27.88600
C  11.39300 48.49700 23.14700
C  6.59700 48.01100 24.06700
N  9.88800 48.87700 28.11900
C  8.98900 48.78200 29.10100
C  9.58200 49.33900 30.36100
C  10.91700 49.90100 29.98200
C  10.97700 49.52300 28.52800
C  11.00400 51.44700 30.13800
C  9.74600 48.25700 31.49100
C  9.05800 48.66200 32.82700
H  8.96500 47.54000 33.81800
N  11.53900 48.94200 25.56300
C  12.47100 49.24400 26.51000
C  13.82800 49.35200 25.87800
C  13.56100 48.99900 24.50500
C  12.13300 48.85300 24.35000
C  15.10200 49.61200 26.58400
C  14.54700 48.91800 23.33400
O  14.26200 48.82100 22.17000
C  15.97200 48.94500 23.66500
N  9.13500 48.21700 23.91400
C  10.05100 48.26600 22.95200
C  9.51400 47.75900 21.61000
C  7.98800 47.43200 21.99800
C  7.83500 47.93800 23.40700
C  9.73200 48.73100 20.38900
C  7.73100 45.89400 21.96600
C  8.29600 45.07100 23.11900
N  7.53900 48.22200 26.29100
C  6.46200 48.07000 25.44900
C  5.26100 47.80900 26.24700
C  5.70500 48.01100 27.54600
C  7.07600 48.19500 27.57300
C  3.94400 47.42500 25.69000
C  5.22100 48.02100 28.89200
O  4.06900 47.87400 29.25300
C  6.46400 48.18400 29.83200
C  6.64100 46.89300 30.69500
O  7.25000 45.91100 30.33300
O  6.04900 47.12300 31.83900
C  6.02700 45.99500 32.76500
H  13.05100 49.83800 28.41100
H  12.02000 48.50500 22.25400
H  5.70900 47.93600 23.43700
H  8.93300 50.11400 30.76900
H  11.75100 49.40800 30.48200
H  11.04900 51.87900 29.13900
H  11.96000 51.64100 30.62500
H  10.12400 51.78500 30.68500
H  10.78000 48.14600 31.81700
H  9.37300 47.29100 31.15100
H  8.07600 49.03400 32.53500
H  9.69800 49.39300 33.32100
H  15.41200 50.65500 26.51400
H  15.97600 48.98200 26.41700
H  14.79800 49.38700 27.60600
H  16.20500 48.12500 24.34500
H  16.14100 49.86400 24.22600
H  16.55000 48.87800 22.74300
H  10.07800 46.86100 21.36100
H  7.33600 47.86100 21.23600
H  10.34600 49.59200 20.65300
H  8.76000 49.16900 20.15900
H  10.21700 48.15800 19.59900
H  8.20600 45.45000 21.09100
H  6.65000 45.90400 21.83000
H  9.11900 45.49300 23.69600
H  8.56100 44.07400 22.76600
H  7.44300 44.83900 23.75800
H  4.02200 46.45800 25.19100
H  3.55000 48.22900 25.06900
H  3.24100 47.24000 26.50200
H  6.37800 49.05300 30.48400
H  6.01500 46.62300 33.65600
H  6.92900 45.39000 32.68400
H  5.11400 45.40400 32.83500

