158

Mg 2.25700 -1.34000 44.67100
C  5.39600 0.04200 44.00600
C  0.80100 1.48500 43.28200
C  -0.67200 -2.86200 44.63900
C  3.86100 -4.34400 45.44700
N  3.05700 0.57700 43.72900
C  4.36000 0.89200 43.57600
C  4.46700 2.29300 42.78000
C  3.06800 2.88400 43.06200
C  2.19600 1.61800 43.39400
C  2.84900 3.98200 44.16900
C  4.93100 2.22700 41.28700
C  6.41100 2.64400 41.09000
H  7.15400 1.74200 40.05900
N  0.32300 -0.79100 44.08400
C  -0.11100 0.42800 43.56100
C  -1.55400 0.46500 43.38800
C  -1.99000 -0.80000 43.84800
C  -0.79900 -1.57000 44.23900
C  -2.36100 1.60000 42.78500
C  -3.41000 -1.24700 43.94600
O  -4.25700 -0.31800 43.85400
C  -3.91800 -2.68500 44.37700
N  1.76400 -3.42600 44.81200
C  0.41600 -3.77500 44.82700
C  0.18300 -5.13900 45.59100
C  1.66100 -5.69500 45.67600
C  2.46500 -4.46600 45.31100
C  -0.61300 -5.03200 46.94800
C  1.99800 -6.84700 44.75000
C  2.54000 -8.09900 45.49300
N  4.23900 -2.06000 44.71900
C  4.72600 -3.29400 45.05700
C  6.15200 -3.17000 45.15000
C  6.49200 -1.90000 44.71000
C  5.27800 -1.27500 44.46200
C  7.12800 -4.21700 45.58400
C  7.56700 -0.99800 44.47300
O  8.75600 -1.09600 44.67400
C  6.86500 0.30100 43.98000
C  7.27900 1.28600 44.98300
O  7.18200 1.21900 46.21400
O  7.70300 2.38900 44.33100
C  8.33200 3.47000 45.16000
H  0.37800 2.41300 42.89100
H  -1.61300 -3.39200 44.79600
H  4.38000 -5.23000 45.81900
H  5.13200 2.95700 43.33300
H  2.71100 3.36000 42.14800
H  3.74400 4.05000 44.78700
H  1.98700 3.80400 44.81200
H  2.79900 4.93600 43.64400
H  4.37200 2.94400 40.68500
H  4.80300 1.19000 40.97700
H  6.98000 2.58800 42.01800
H  6.39400 3.67800 40.74400
H  -2.74700 1.38800 41.78800
H  -1.84700 2.54600 42.61500
H  -3.17900 1.83600 43.46500
H  -3.47600 -3.42800 43.71400
H  -4.98400 -2.67400 44.15000
H  -3.80600 -2.82100 45.45300
H  -0.38100 -5.66200 44.81900
H  1.94000 -5.97100 46.69300
H  -1.22800 -4.13200 46.98500
H  0.16200 -5.09800 47.71100
H  -1.24400 -5.90900 47.09200
H  2.72300 -6.54800 43.99300
H  1.05300 -7.15100 44.29800
H  1.82300 -8.91700 45.41700
H  2.64300 -7.73000 46.51300
H  3.47900 -8.46300 45.07700
H  6.70200 -5.21400 45.47400
H  7.52400 -3.94600 46.56200
H  7.87600 -4.07200 44.80400
H  7.34500 0.44900 43.01200
H  9.24400 3.56800 44.57000
H  8.56600 3.19100 46.18700
H  7.76800 4.40200 45.12900
Mg 24.18800 -5.09300 45.72200
C  26.07300 -2.41900 44.57500
C  21.63400 -3.97600 43.74100
C  22.71900 -8.12700 46.03800
C  27.16500 -6.48300 47.09000
N  23.88700 -3.41800 44.38700
C  24.75000 -2.36100 44.14000
C  24.10500 -1.36800 43.21800
C  22.58300 -1.70600 43.28400
C  22.68300 -3.15700 43.79400
C  21.80100 -0.88100 44.20100
C  24.76800 -1.18700 41.76800
C  25.22400 -2.44400 41.11400
H  26.02900 -2.29800 39.71000
N  22.33800 -5.95200 45.04000
C  21.44400 -5.28700 44.27000
C  20.36600 -6.13500 44.07000
C  20.51600 -7.30200 44.90600
C  21.91100 -7.18900 45.38600
C  19.21600 -5.61200 43.27100
C  19.48900 -8.50000 45.06500
O  18.44400 -8.51700 44.44700
C  19.82100 -9.57500 46.04100
N  24.87400 -7.05300 46.37400
C  23.99700 -8.11600 46.46700
C  24.57500 -9.22700 47.32900
C  25.95200 -8.64300 47.80500
C  26.01200 -7.29600 47.07200
C  23.66900 -9.66500 48.55500
C  27.08100 -9.54500 47.26400
C  28.51500 -9.46000 47.95500
N  26.13700 -4.52800 45.98400
C  27.18900 -5.18900 46.55300
C  28.32900 -4.33800 46.50900
C  27.94600 -3.26000 45.77200
C  26.58500 -3.38100 45.43600
C  29.72200 -4.60500 46.98100
C  28.43400 -2.01100 45.15600
O  29.45600 -1.36600 45.25200
C  27.22700 -1.54800 44.23600
C  27.08000 -0.03800 44.34200
O  26.43200 0.59100 45.16100
O  27.89100 0.53100 43.37100
C  27.86900 1.98800 43.29800
H  20.77800 -3.69800 43.12300
H  22.27500 -9.12000 46.13200
H  28.02300 -6.90500 47.61800
H  24.26400 -0.37400 43.63500
H  22.20700 -1.58800 42.26700
H  22.26000 -0.90900 45.19000
H  20.85400 -1.41800 44.24900
H  21.69100 0.18900 44.02400
H  25.61400 -0.50400 41.68800
H  23.87800 -0.93600 41.19200
H  24.33000 -3.05200 40.97800
H  25.83800 -3.01900 41.80700
H  18.87500 -4.69900 43.75900
H  18.31600 -6.22600 43.24000
H  19.57600 -5.60100 42.24300
H  19.02000 -10.09000 46.57200
H  20.38300 -9.07700 46.83100
H  20.29300 -10.34500 45.43100
H  24.69000 -10.02100 46.59100
H  26.07000 -8.45800 48.87300
H  22.88300 -8.95000 48.80000
H  24.25100 -9.83200 49.46100
H  23.14100 -10.57600 48.27600
H  27.14600 -9.21800 46.22700
H  26.88600 -10.61800 47.25400
H  29.19800 -9.05300 47.20900
H  28.93200 -10.37500 48.37600
H  28.44200 -8.66600 48.69800
H  29.77200 -4.24400 48.00800
H  30.42100 -4.00900 46.39400
H  29.81500 -5.68900 46.90700
H  27.56200 -1.68400 43.20800
H  26.90000 2.45900 43.45800
H  28.23600 2.37500 42.34700
H  28.57200 2.20900 44.10100

