158

Mg 8.35400 3.99900 28.18400
C  9.73700 2.37300 31.09400
C  6.58600 6.01000 30.34700
C  6.79900 5.13200 25.53700
C  9.90500 1.43400 26.25000
N  8.15200 4.05900 30.49100
C  8.77100 3.34800 31.44600
C  8.62100 4.02100 32.80600
C  7.48800 5.06800 32.52400
C  7.36500 4.97900 31.00100
C  6.12000 4.94900 33.30800
C  9.94400 4.56200 33.33600
C  10.58100 3.97600 34.65100
H  10.66300 4.87600 35.90200
N  6.92000 5.47300 27.96200
C  6.33200 6.28100 28.95700
C  5.49700 7.26500 28.31500
C  5.63800 7.08900 26.90600
C  6.38700 5.83400 26.71200
C  4.72500 8.39000 29.06200
C  5.12100 7.92100 25.84800
O  4.99000 7.42600 24.67500
C  4.72600 9.38200 26.01800
N  8.13100 3.23900 26.26100
C  7.62600 4.01000 25.28000
C  8.05100 3.63000 23.86100
C  9.15400 2.61400 24.04500
C  9.06100 2.37600 25.59900
C  6.94300 3.24800 22.82500
C  10.57300 3.00200 23.51700
C  11.44700 3.88800 24.45400
N  9.58400 2.17800 28.51000
C  10.10800 1.25300 27.62500
C  11.03000 0.42500 28.30500
C  10.86200 0.84100 29.65400
C  9.92700 1.81200 29.73600
C  11.92400 -0.55900 27.69200
C  11.30300 0.56200 30.95900
O  12.08500 -0.25900 31.31000
C  10.62400 1.48300 31.94400
C  9.92300 0.76700 32.93500
O  8.79600 0.28300 32.78500
O  10.61900 0.70500 34.14300
C  9.69700 0.32000 35.22200
H  6.26900 6.76300 31.07100
H  6.46000 5.50800 24.56900
H  10.30700 0.69900 25.54900
H  8.20400 3.28700 33.49500
H  7.75800 6.10700 32.71400
H  5.57000 5.88800 33.37200
H  6.47900 4.62700 34.28500
H  5.58100 4.06400 32.97100
H  9.71200 5.61200 33.51300
H  10.68700 4.57800 32.53800
H  11.60200 3.68100 34.40800
H  9.98300 3.12100 34.96700
H  5.05000 9.39200 28.78400
H  4.95800 8.21000 30.11100
H  3.64200 8.31500 28.95800
H  3.83100 9.32200 26.63800
H  4.48500 9.77700 25.03100
H  5.51600 9.95100 26.50900
H  8.56800 4.49200 23.44000
H  8.81900 1.68200 23.59200
H  5.98300 3.07500 23.31100
H  7.21300 2.37500 22.23100
H  6.82800 4.07700 22.12700
H  10.47700 3.57300 22.59300
H  11.07900 2.05100 23.35300
H  10.96100 4.28800 25.34300
H  11.76500 4.72600 23.83200
H  12.34100 3.34100 24.75500
H  12.10300 -0.23400 26.66700
H  11.63900 -1.61000 27.73600
H  12.85400 -0.41900 28.24300
H  11.31500 2.05700 32.56300
H  9.37100 -0.71800 35.16000
H  8.89200 1.05300 35.16300
H  10.17900 0.38900 36.19700
Mg 41.44400 8.79900 30.11200
C  43.30900 10.13800 32.76800
C  39.11300 7.65400 32.49000
C  39.51000 7.67100 27.57600
C  43.96900 9.62600 27.89700
N  41.24700 8.74900 32.34400
C  42.12100 9.43700 33.22800
C  41.68600 9.29800 34.69700
C  40.42800 8.46800 34.57000
C  40.25200 8.24300 33.06100
C  40.39800 7.09900 35.45800
C  41.46800 10.71700 35.33500
C  40.39600 10.90500 36.36500
H  40.77400 11.99800 37.32800
N  39.50800 8.05600 30.00300
C  38.69300 7.54100 31.07000
C  37.48600 6.99200 30.59500
C  37.56700 7.15000 29.14400
C  38.88700 7.59800 28.82300
C  36.38000 6.28700 31.42500
C  36.49900 6.88100 28.09500
O  36.63000 6.94300 26.87800
C  35.11300 6.63200 28.54900
N  41.72500 8.53000 27.95600
C  40.83100 7.93000 27.13500
C  41.43500 7.91200 25.70900
C  42.69900 8.82100 25.76900
C  42.86400 8.90800 27.30700
C  41.65600 6.45000 25.23700
C  42.54700 10.20500 25.07000
C  41.27400 10.94800 25.39300
N  43.26400 9.58800 30.22700
C  44.23600 9.87300 29.27200
C  45.19500 10.77300 29.81700
C  44.89700 10.86500 31.14400
C  43.73300 10.14600 31.40000
C  46.38500 11.32000 29.01200
C  45.28500 11.60800 32.37200
O  46.15800 12.42200 32.52100
C  44.38100 11.06700 33.46800
C  45.17300 10.39000 34.47500
O  45.80100 9.37100 34.41500
O  45.11600 11.10500 35.61500
C  46.02400 10.80400 36.65900
H  38.24800 7.43900 33.12100
H  38.91100 7.27000 26.75600
H  44.71400 9.95700 27.17100
H  42.49700 8.87800 35.29200
H  39.57900 9.05300 34.92400
H  39.96400 7.37000 36.42000
H  41.39500 6.72700 35.69200
H  39.89800 6.29900 34.91300
H  41.31100 11.42500 34.52200
H  42.41300 10.95100 35.82500
H  40.18300 9.95100 36.84700
H  39.50200 11.24200 35.84000
H  36.75700 6.08700 32.42800
H  36.21600 5.30200 30.98800
H  35.42100 6.80300 31.47600
H  35.06500 5.63800 28.99200
H  34.29000 6.78500 27.85100
H  34.86600 7.40800 29.27400
H  40.72400 8.29200 24.97500
H  43.57400 8.37100 25.29900
H  40.86800 5.83100 25.66600
H  42.60500 6.02300 25.56200
H  41.50600 6.41000 24.15800
H  42.78100 10.17500 24.00500
H  43.33100 10.87500 25.42100
H  40.77100 10.41400 26.19900
H  40.67600 11.03100 24.48600
H  41.48400 11.92000 25.84000
H  46.79200 12.20300 29.50400
H  46.09100 11.53300 27.98400
H  47.15300 10.56900 28.82900
H  43.97500 12.02500 33.79000
H  45.57100 10.16900 37.42100
H  46.46300 11.62600 37.22400
H  46.91800 10.27600 36.32800

