158

Mg 2.37900 -1.91300 43.84100
C  5.75500 -1.47600 43.38300
C  1.78200 0.58800 41.54400
C  -0.90500 -2.89400 43.77500
C  3.19900 -4.97700 45.37300
N  3.68800 -0.80300 42.31300
C  5.03800 -0.64100 42.48900
C  5.53900 0.38100 41.46900
C  4.26700 1.03100 40.85500
C  3.16100 0.21100 41.63400
C  4.13900 2.58000 40.97200
C  6.42100 -0.44800 40.45200
C  7.77500 0.26500 40.14100
H  8.13600 0.53500 38.68100
N  0.62500 -1.12300 42.93900
C  0.62900 -0.12100 42.05600
C  -0.75300 0.18900 41.82800
C  -1.53000 -0.70000 42.55500
C  -0.60000 -1.62100 43.16700
C  -1.13600 1.30000 40.92000
C  -3.07200 -0.68900 42.59700
O  -3.74000 -0.09800 41.75700
C  -3.83700 -1.38800 43.70400
N  1.22400 -3.73100 44.37200
C  -0.11100 -3.80900 44.40800
C  -0.57300 -5.05000 45.12000
C  0.78000 -5.78700 45.36600
C  1.80100 -4.75600 45.10300
C  -1.42500 -4.58600 46.40800
C  1.11600 -7.03400 44.47400
C  1.65800 -8.25500 45.18100
N  4.03200 -2.98000 44.41000
C  4.25300 -4.11000 45.18800
C  5.64300 -4.18900 45.55800
C  6.22500 -3.09600 44.91400
C  5.25600 -2.47700 44.15300
C  6.32800 -5.23500 46.46900
C  7.49800 -2.39400 44.77000
O  8.57100 -2.56100 45.37500
C  7.23600 -1.35000 43.71500
C  7.51100 0.07300 44.13000
O  7.14700 0.57400 45.12700
O  8.25800 0.64700 43.12200
C  8.69800 2.01900 43.43400
H  1.63000 1.42800 40.86300
H  -1.93700 -3.23200 43.65400
H  3.38500 -5.86800 45.97700
H  6.05300 1.20100 41.97100
H  4.16000 0.79400 39.79700
H  3.67900 2.84000 41.92600
H  3.54100 2.94000 40.13500
H  5.15600 2.95800 40.87200
H  5.89900 -0.58000 39.50500
H  6.55200 -1.46200 40.82900
H  8.62900 -0.28200 40.54000
H  7.92200 1.22300 40.64100
H  -0.96800 0.84400 39.94400
H  -0.45800 2.14300 41.04900
H  -2.15900 1.66300 41.01300
H  -4.75800 -0.83500 43.88900
H  -3.26500 -1.19500 44.61200
H  -4.01300 -2.40600 43.35600
H  -1.23000 -5.64800 44.48700
H  0.67200 -6.05800 46.41600
H  -2.42200 -5.02400 46.35400
H  -1.49600 -3.49800 46.41900
H  -0.93600 -4.69600 47.37600
H  1.68800 -6.69600 43.61000
H  0.23100 -7.31400 43.90300
H  1.67400 -8.00600 46.24200
H  2.70900 -8.38100 44.92500
H  1.01400 -9.07600 44.86500
H  6.89500 -5.93900 45.86100
H  5.59600 -5.80400 47.04300
H  7.00400 -4.73300 47.16100
H  7.85800 -1.70900 42.89500
H  7.84000 2.63100 43.15400
H  9.55500 2.37900 42.86400
H  8.95900 2.02600 44.49200
Mg 26.78400 50.49200 27.16800
C  25.18200 51.81700 30.04000
C  29.22900 49.42900 29.24900
C  28.59000 49.58000 24.50900
C  24.42700 51.99000 25.17700
N  27.15800 50.78900 29.41900
C  26.32600 51.17000 30.38700
C  26.80300 50.68900 31.72600
C  28.24500 50.20400 31.44700
C  28.25500 50.17800 29.95200
C  29.35900 50.99700 32.13600
C  25.78900 49.61500 32.35200
C  24.87000 50.16100 33.52300
H  24.87800 49.34000 34.80900
N  28.76600 49.73100 26.90200
C  29.60600 49.28300 27.88100
C  30.71300 48.46800 27.27100
C  30.61500 48.65400 25.89100
C  29.31500 49.32700 25.70500
C  31.77400 47.74700 28.21100
C  31.55600 48.15000 24.80100
O  31.27300 48.32200 23.59300
C  32.89300 47.53900 25.19000
N  26.66100 50.84400 25.08800
C  27.37700 50.22500 24.18700
C  26.89500 50.58300 22.78500
C  25.42900 51.11000 23.01500
C  25.56000 51.34700 24.55100
C  27.83800 51.50700 21.93700
C  24.27900 50.12200 22.60400
C  24.46700 48.68100 22.97200
N  25.16600 51.60700 27.44100
C  24.28400 52.14900 26.56300
C  23.17000 52.75300 27.28900
C  23.52700 52.64500 28.60200
C  24.73500 51.97400 28.66400
C  21.97800 53.30700 26.62200
C  23.07500 52.99000 29.91500
O  22.03600 53.59700 30.26000
C  24.09300 52.29800 30.92600
C  24.59000 53.35100 31.86200
O  25.57900 53.98300 31.76400
O  23.70600 53.51900 32.90500
C  23.73300 54.76900 33.62000
H  29.98400 49.03700 29.93300
H  29.05300 49.16000 23.61400
H  23.54700 52.22100 24.57400
H  26.89200 51.55900 32.37700
H  28.43200 49.21200 31.85800
H  30.15000 51.27100 31.43800
H  29.87800 50.41600 32.89800
H  28.83200 51.88500 32.48400
H  26.36500 48.72900 32.61700
H  25.23600 49.27200 31.47700
H  23.85000 50.03400 33.16000
H  25.12300 51.18600 33.79500
H  31.66600 46.66200 28.21200
H  31.54900 48.12200 29.20900
H  32.80300 48.06100 28.03100
H  33.40300 47.26100 24.26800
H  32.65800 46.64800 25.77200
H  33.52100 48.19200 25.79600
H  26.90000 49.67700 22.17800
H  25.35800 52.00100 22.39100
H  28.70700 51.76900 22.54000
H  27.35500 52.34700 21.43900
H  28.22200 50.85200 21.15400
H  24.18900 50.11300 21.51700
H  23.36300 50.48800 23.06600
H  23.48800 48.43000 23.37800
H  25.22700 48.41000 23.70500
H  24.70900 48.17400 22.03800
H  22.26300 54.03300 25.86000
H  21.47400 53.83800 27.43000
H  21.31500 52.59100 26.13600
H  23.57600 51.45100 31.37700
H  22.69700 55.03700 33.82700
H  24.16000 55.58400 33.03600
H  24.34000 54.53000 34.49400

