158

Mg 44.01100 3.59300 47.67100
C  41.87800 6.37200 47.09000
C  41.34800 1.55900 47.23500
C  46.13700 1.03300 47.72100
C  46.74600 5.88100 47.35500
N  41.84400 3.90300 47.17800
C  41.17600 5.12700 47.06700
C  39.69800 4.81400 46.84100
C  39.50100 3.41800 47.35200
C  40.98600 2.87100 47.36200
C  38.67300 3.14500 48.60700
C  39.29800 4.97500 45.35500
C  38.37500 6.14500 45.05300
H  37.64500 6.07800 43.63200
N  43.74700 1.54100 47.53300
C  42.59700 0.88900 47.44300
C  42.81200 -0.57300 47.57800
C  44.20600 -0.73800 47.75500
C  44.78300 0.63800 47.66100
C  41.70800 -1.65900 47.45900
C  44.93800 -2.08400 48.00300
O  44.30500 -3.13800 47.86100
C  46.46200 -2.22800 48.34700
N  46.13400 3.46500 47.40900
C  46.74100 2.22900 47.65000
C  48.23000 2.42500 47.80300
C  48.44600 3.92900 47.38100
C  47.03100 4.49300 47.48000
C  48.77400 2.15800 49.20000
C  49.09900 4.14600 46.02900
C  48.48500 3.36800 44.77100
N  44.32500 5.68000 47.22600
C  45.44000 6.47100 47.23500
C  45.05900 7.88100 47.16900
C  43.68700 7.83500 47.08500
C  43.25100 6.52300 47.10700
C  46.00000 9.01400 47.15900
C  42.47600 8.67300 47.03100
O  42.44900 9.85200 47.01100
C  41.29600 7.76000 46.94100
C  40.28400 8.14700 47.93700
O  40.40200 8.04700 49.14700
O  39.08300 8.50300 47.34400
C  37.87100 8.60100 48.22700
H  40.51200 0.85700 47.22700
H  46.83800 0.20400 47.84300
H  47.51200 6.65200 47.46200
H  39.18200 5.64800 47.31700
H  38.97700 2.81300 46.61100
H  39.38000 3.07300 49.43400
H  37.98200 2.30600 48.52300
H  38.03600 4.00400 48.81400
H  38.80000 4.11600 44.90400
H  40.24200 5.17300 44.84800
H  38.91800 7.05100 44.78200
H  37.74100 6.32400 45.92200
H  42.10500 -2.32200 46.69100
H  40.75500 -1.31100 47.06100
H  41.59400 -2.24200 48.37300
H  47.04900 -2.27100 47.43000
H  46.56700 -3.17700 48.87300
H  46.77600 -1.45900 49.05300
H  48.90400 1.82400 47.19200
H  49.00100 4.47100 48.14700
H  49.33300 1.22200 49.20700
H  48.00400 2.07900 49.96700
H  49.49200 2.93100 49.47500
H  50.11700 3.75900 46.07200
H  49.14500 5.18200 45.69500
H  48.98600 2.46000 44.43600
H  48.64600 3.99600 43.89500
H  47.41600 3.20700 44.90900
H  46.74500 9.05000 47.95400
H  45.37500 9.90700 47.14900
H  46.47400 8.88200 46.18600
H  40.79000 7.95000 45.99500
H  37.97900 7.85500 49.01400
H  37.01700 8.30600 47.61800
H  37.85700 9.62100 48.61100
Mg 47.36000 34.86800 28.80000
C  45.70100 32.76000 31.19400
C  47.85600 37.15100 31.43900
C  48.21700 37.06700 26.53800
C  46.34600 32.61100 26.29100
N  46.83200 34.93200 30.98400
C  46.22100 33.95900 31.73200
C  46.31900 34.34600 33.28500
C  46.30800 35.88600 33.15600
C  47.12700 35.99400 31.79500
C  44.85400 36.55000 33.00000
C  47.60800 33.82800 34.01600
C  47.30600 33.15800 35.37600
H  46.39900 33.87900 36.41500
N  48.02300 36.81100 29.00900
C  48.32600 37.59000 30.11700
C  49.07200 38.78200 29.76600
C  49.01300 38.80500 28.37600
C  48.45200 37.51000 27.91400
C  49.63700 39.77700 30.74100
C  49.44400 39.86800 27.33500
O  49.21500 39.75100 26.13100
C  50.17000 41.10700 27.85400
N  47.20100 34.83700 26.70300
C  47.67600 35.85700 26.00600
C  47.67000 35.60100 24.51900
C  47.14100 34.14700 24.40400
C  46.87300 33.82200 25.87900
C  46.79800 36.55100 23.61800
C  48.13300 33.06500 23.78200
C  47.58900 32.06800 22.76600
N  46.29600 33.07500 28.66900
C  46.03800 32.24500 27.61500
C  45.46100 31.01300 28.05800
C  45.22000 31.23500 29.48900
C  45.78400 32.45400 29.81700
C  44.95400 29.93500 27.08900
C  44.69100 30.62300 30.67900
O  44.23000 29.48900 30.70200
C  44.94500 31.58700 31.76800
C  45.62600 30.95500 32.89000
O  46.81900 30.76700 33.04800
O  44.63300 30.60300 33.75100
C  45.01000 30.14500 35.07400
H  48.04700 37.88200 32.22800
H  48.59500 37.66700 25.70800
H  46.17400 31.84500 25.53200
H  45.37100 34.10100 33.76400
H  46.87100 36.32600 33.97900
H  44.78000 37.25300 33.83000
H  43.98700 35.91500 33.18100
H  44.73800 36.90700 31.97700
H  48.30000 34.65300 34.18500
H  48.05200 33.02000 33.43500
H  48.27000 32.86000 35.78800
H  46.82700 32.20600 35.15100
H  49.14400 40.73200 30.55600
H  50.71300 39.88100 30.60700
H  49.48900 39.50800 31.78700
H  49.43500 41.74800 28.34100
H  50.63200 41.48300 26.94100
H  51.00700 40.85500 28.50500
H  48.71600 35.70000 24.22600
H  46.18300 34.10000 23.88600
H  46.27800 37.21600 24.30700
H  46.09800 36.19900 22.86100
H  47.46300 37.26900 23.13800
H  48.40300 32.34500 24.55500
H  48.96300 33.63000 23.35900
H  48.12500 32.17200 21.82200
H  46.53800 32.22600 22.52400
H  47.65500 31.00400 22.99200
H  44.12400 30.35500 26.52100
H  44.54400 29.05900 27.59300
H  45.74500 29.46900 26.50200
H  43.95100 31.92200 32.06600
H  44.36600 29.32600 35.39600
H  44.79600 30.94400 35.78400
H  46.07100 29.95900 35.24100

