158

Mg 41.80000 41.15500 26.87800
C  40.91200 43.31500 29.56000
C  42.85300 38.95800 29.36900
C  43.16800 39.27100 24.50400
C  40.84300 43.52100 24.65000
N  41.82500 41.20900 29.28500
C  41.42200 42.14300 30.16800
C  41.58300 41.78600 31.69300
C  42.31900 40.43100 31.47000
C  42.38100 40.19800 29.90300
C  43.72600 40.41100 32.13600
C  40.13400 41.78200 32.47100
C  40.05300 40.99800 33.84800
H  39.91700 41.77200 35.12900
N  42.85000 39.40000 26.96400
C  43.11700 38.64000 28.03900
C  43.74200 37.44000 27.62700
C  43.98200 37.56100 26.23900
C  43.32200 38.78300 25.83800
C  44.07600 36.33500 28.57900
C  44.66400 36.55400 25.33300
O  44.76900 36.75800 24.13300
C  45.30400 35.34500 25.92100
N  42.21500 41.42200 24.92700
C  42.54100 40.45200 24.11200
C  42.26700 40.82600 22.63400
C  41.20700 41.87500 22.78100
C  41.42800 42.29600 24.20000
C  43.53600 41.28600 21.85000
C  39.73300 41.63000 22.31000
C  39.00100 40.33400 22.77100
N  41.10700 43.08700 27.03800
C  40.80800 43.91200 26.00000
C  40.31800 45.11700 26.51000
C  40.37200 44.93600 27.92800
C  40.80400 43.64600 28.16700
C  39.87800 46.25800 25.74300
C  39.99500 45.56600 29.17300
O  39.50500 46.69300 29.46000
C  40.20200 44.49700 30.22100
C  41.13900 45.04100 31.27000
O  42.23600 45.57600 31.13000
O  40.51400 44.97900 32.48100
C  41.15000 45.62200 33.67500
H  43.00100 38.22900 30.16800
H  43.47200 38.65600 23.65400
H  40.38600 44.14200 23.87700
H  42.27800 42.55300 32.03500
H  41.70400 39.64400 31.90600
H  44.03400 41.22700 32.78900
H  44.42500 40.26200 31.31300
H  43.79700 39.58800 32.84600
H  39.37300 41.43000 31.77500
H  39.87400 42.81300 32.71400
H  41.03500 40.52800 33.89000
H  39.38200 40.14200 33.91400
H  45.14300 36.45600 28.76600
H  43.71700 35.38600 28.18000
H  43.53300 36.41800 29.52100
H  46.03700 35.70300 26.64500
H  45.86600 34.78400 25.17500
H  44.65500 34.61800 26.41000
H  41.79700 39.96100 22.16500
H  41.52900 42.67000 22.10900
H  44.36800 40.77300 22.33200
H  43.71500 42.33300 22.09500
H  43.56700 41.06700 20.78300
H  39.67100 41.62300 21.22100
H  39.16900 42.48000 22.69300
H  38.46600 39.86200 21.94600
H  38.24300 40.64200 23.49100
H  39.75200 39.76400 23.31800
H  39.57400 45.96600 24.73800
H  40.64800 47.01200 25.58100
H  38.95600 46.63700 26.18500
H  39.18000 44.32300 30.56000
H  41.68300 44.88400 34.27400
H  40.37800 46.14300 34.24100
H  41.78000 46.46900 33.40100
Mg -10.60600 16.59200 42.62300
C  -7.36500 17.61200 42.51600
C  -11.49400 19.91400 41.79700
C  -13.81300 15.64900 42.49900
C  -9.58400 13.23100 43.11800
N  -9.53400 18.51500 42.04500
C  -8.15600 18.68400 42.14700
C  -7.75900 20.04700 41.67500
C  -9.06100 20.85600 41.89200
C  -10.08800 19.74900 41.89500
C  -8.98600 21.75500 43.13100
C  -7.14200 19.94200 40.22200
C  -5.61400 20.31500 39.97400
H  -4.76700 19.36500 39.33000
N  -12.41600 17.65500 42.27000
C  -12.54700 18.95600 41.95900
C  -13.92200 19.20600 41.65400
C  -14.58000 17.96100 41.78100
C  -13.59500 17.00700 42.23000
C  -14.51100 20.54000 41.22200
C  -16.03600 17.72300 41.53400
O  -16.67500 18.74400 41.28800
C  -16.80000 16.43700 41.72200
N  -11.51300 14.70100 42.67000
C  -12.87400 14.62600 42.73200
C  -13.35500 13.21700 43.02500
C  -12.07300 12.38900 43.29400
C  -10.94800 13.46100 42.89000
C  -14.44300 13.07400 44.03700
C  -11.81800 11.08500 42.46700
C  -11.28600 9.98600 43.32300
N  -8.84900 15.60200 42.78500
C  -8.54600 14.26800 43.12200
C  -7.09100 14.17700 43.17800
C  -6.63000 15.48000 43.06200
C  -7.72700 16.28300 42.74300
C  -6.35300 12.90600 43.27000
C  -5.38500 16.28700 43.04500
O  -4.20000 15.95500 43.21500
C  -5.87100 17.78800 42.75700
C  -5.58000 18.47000 44.08100
O  -6.22500 18.20400 45.07300
O  -4.46000 19.25700 44.08600
C  -4.08900 19.98400 45.24400
H  -11.76700 20.92600 41.48900
H  -14.84100 15.28300 42.45400
H  -9.27500 12.23600 43.44500
H  -6.91200 20.27600 42.32200
H  -9.14500 21.57900 41.08100
H  -7.94200 21.85900 43.42600
H  -9.63300 21.25000 43.84900
H  -9.42800 22.67800 42.75600
H  -7.65900 20.62800 39.55100
H  -7.24100 18.92600 39.83800
H  -5.19100 20.50500 40.96100
H  -5.58500 21.22900 39.38100
H  -15.04100 20.51100 40.27000
H  -13.74600 21.31400 41.15700
H  -15.22800 20.83800 41.98700
H  -17.77200 16.60300 41.25900
H  -16.94300 16.04000 42.72700
H  -16.41500 15.64200 41.08300
H  -13.79300 12.86600 42.09000
H  -12.01300 12.24600 44.37300
H  -15.35400 12.72600 43.55000
H  -14.74300 13.94500 44.62000
H  -14.20100 12.20400 44.64700
H  -11.05100 11.21600 41.70400
H  -12.73500 10.79300 41.95300
H  -12.10000 9.28800 43.51800
H  -10.97700 10.46500 44.25200
H  -10.44900 9.43400 42.89500
H  -5.30300 13.00400 42.99500
H  -6.86400 12.21800 42.59600
H  -6.32800 12.51500 44.28700
H  -5.24500 18.33300 42.05000
H  -4.80400 20.20300 46.03700
H  -3.64400 20.91800 44.89900
H  -3.27600 19.39600 45.67000

