158

Mg -1.94000 16.82200 27.40600
C  -2.55100 14.76800 30.26200
C  -2.15500 19.41300 29.34100
C  -1.78800 18.53700 24.52400
C  -1.75500 13.76200 25.52400
N  -2.15000 16.92900 29.56700
C  -2.24800 16.01700 30.58600
C  -2.11700 16.73300 31.98500
C  -1.97000 18.27300 31.57600
C  -2.07000 18.19500 30.04600
C  -2.83200 19.26800 32.33200
C  -0.92200 16.33800 32.94100
C  -0.41300 17.29700 34.06600
H  -0.37700 16.84200 35.57700
N  -2.03600 18.77700 26.99900
C  -2.14900 19.77100 27.94500
C  -2.12400 21.07200 27.29600
C  -2.10500 20.75200 25.91800
C  -1.97000 19.26200 25.74300
C  -2.17500 22.40300 27.95300
C  -2.13200 21.78600 24.80600
O  -2.19200 21.52100 23.63700
C  -2.20900 23.27200 25.05200
N  -1.72900 16.19300 25.30600
C  -1.69800 17.15700 24.34900
C  -1.71700 16.52000 22.94800
C  -1.36300 15.02700 23.27300
C  -1.49800 14.96100 24.81700
C  -3.12400 16.70300 22.23500
C  0.13600 14.81500 22.79500
C  1.18300 15.84100 23.26000
N  -2.22500 14.68800 27.72000
C  -2.09500 13.59000 26.88000
C  -2.53500 12.44600 27.60600
C  -2.65800 12.83100 28.96200
C  -2.41800 14.21700 28.95100
C  -2.71300 11.07200 26.99500
C  -2.91100 12.33800 30.27600
O  -3.17300 11.26800 30.78100
C  -2.69900 13.59900 31.23800
C  -1.37000 13.33100 31.84800
O  -0.35700 13.27700 31.15400
O  -1.39700 12.93800 33.22100
C  -0.16300 12.58400 33.92200
H  -2.17000 20.32600 29.93900
H  -1.79900 19.14800 23.61900
H  -1.44800 12.85900 24.99200
H  -3.03400 16.56600 32.54900
H  -0.90800 18.51400 31.62000
H  -3.71900 19.69100 31.86000
H  -2.20300 20.07500 32.70900
H  -3.21900 18.85500 33.26300
H  -0.02500 16.14900 32.35200
H  -1.21900 15.42200 33.45100
H  -1.07200 18.15800 33.94900
H  0.60900 17.49800 33.74200
H  -1.38500 23.06400 27.59500
H  -2.16100 22.28800 29.03700
H  -3.09900 22.90100 27.66000
H  -2.08100 23.77600 24.09400
H  -1.49900 23.78800 25.69800
H  -3.25300 23.51900 25.24400
H  -0.95900 16.93200 22.28100
H  -1.96700 14.25700 22.79200
H  -3.82000 17.23400 22.88400
H  -3.54100 15.75800 21.88800
H  -3.02100 17.36500 21.37600
H  0.06400 14.87000 21.70900
H  0.51600 13.80400 22.94400
H  1.55300 16.24800 22.31900
H  1.95500 15.31700 23.82300
H  0.91500 16.67100 23.91300
H  -3.70100 10.96100 26.54800
H  -2.60700 10.36800 27.82100
H  -1.97200 10.90800 26.21200
H  -3.48200 13.66700 31.99300
H  0.73800 12.75700 33.33300
H  -0.16600 11.50900 34.10200
H  -0.09400 13.02700 34.91500
Mg 53.25600 24.20400 44.88700
C  50.75300 26.48800 44.26000
C  51.17700 21.74900 43.82600
C  55.96100 22.06100 44.82600
C  55.47200 26.86400 45.65500
N  51.26600 24.19400 43.83600
C  50.41700 25.23300 43.83200
C  49.01100 24.86000 43.39400
C  49.09600 23.23900 43.59300
C  50.59400 23.03100 43.79600
C  48.25100 22.63500 44.79900
C  48.54100 25.31900 42.02900
C  49.59600 25.30800 40.97100
H  50.43500 24.05200 40.63000
N  53.56900 22.14300 44.33500
C  52.55800 21.33500 43.97600
C  53.17200 19.99400 43.90700
C  54.55100 20.04300 44.17900
C  54.77500 21.46700 44.50900
C  52.44000 18.78800 43.44900
C  55.54000 18.84400 44.05500
O  55.08800 17.73000 43.86800
C  57.02200 19.00800 43.96900
N  55.45500 24.47300 44.92300
C  56.34800 23.40600 45.14400
C  57.78100 23.93800 45.58400
C  57.56700 25.43300 45.72200
C  56.05100 25.60300 45.46200
C  58.41800 23.28400 46.78100
C  58.44500 26.23700 44.85600
C  57.92300 26.53900 43.43600
N  53.17300 26.24100 45.13700
C  54.10000 27.18100 45.49300
C  53.45500 28.47500 45.52400
C  52.12300 28.22700 45.20900
C  52.01400 26.85300 44.84400
C  54.09200 29.81900 45.76800
C  50.88500 28.90400 44.98500
O  50.55700 30.04800 45.25700
C  50.00200 27.84800 44.23800
C  49.73400 28.31000 42.88800
O  50.57500 28.43800 42.04700
O  48.43200 28.58900 42.63700
C  48.02900 29.00600 41.32300
H  50.47800 20.94000 43.60300
H  56.81000 21.38400 44.93600
H  56.17700 27.58400 46.07500
H  48.33000 25.21000 44.17000
H  48.79900 22.61200 42.75200
H  47.45000 23.33800 45.03100
H  48.92100 22.52200 45.65200
H  47.70100 21.73300 44.53000
H  47.96300 26.24200 42.07700
H  47.76000 24.61100 41.74900
H  50.18500 26.21200 41.13000
H  49.12900 25.53300 40.01200
H  52.92900 18.10100 42.75800
H  51.55100 19.16200 42.94100
H  51.98500 18.23900 44.27400
H  57.44200 19.81000 43.36200
H  57.44300 18.10200 43.53200
H  57.42800 19.14900 44.97100
H  58.40300 23.70400 44.72100
H  57.71500 25.73100 46.76000
H  57.66000 22.59100 47.14800
H  58.58200 24.01200 47.57600
H  59.41700 22.98200 46.46700
H  59.38300 25.68800 44.93700
H  58.54700 27.18700 45.37900
H  58.63600 26.26000 42.66000
H  57.74700 27.60500 43.29000
H  57.00000 25.99300 43.24200
H  55.16500 29.79000 45.57700
H  53.79500 30.03200 46.79500
H  53.68500 30.61400 45.14300
H  49.02600 27.83800 44.72300
H  48.11600 28.13800 40.67000
H  48.67900 29.82000 41.00000
H  47.02000 29.41300 41.37900

