158

Mg 42.58200 42.42000 26.53100
C  41.31900 44.77500 28.92400
C  44.09600 40.69700 29.06200
C  43.98400 40.45800 24.21600
C  41.54800 44.67200 23.95100
N  42.88000 42.86700 28.79200
C  42.06100 43.75200 29.57500
C  42.07900 43.26600 31.07900
C  43.20000 42.18900 31.09400
C  43.36300 41.82700 29.53700
C  44.51400 42.79000 31.57300
C  40.72300 42.73000 31.71100
C  40.16200 43.28800 33.01100
H  40.24600 42.44200 34.22500
N  43.64300 40.57000 26.67000
C  44.20900 40.08500 27.76700
C  44.89800 38.88800 27.37500
C  44.80500 38.78300 25.99400
C  44.04100 39.95100 25.55300
C  45.69500 38.09600 28.44800
C  45.39600 37.73300 25.04100
O  45.08700 37.71300 23.85400
C  46.39900 36.74600 25.48700
N  42.79700 42.65200 24.43500
C  43.40700 41.71500 23.70300
C  43.48400 42.18900 22.19500
C  42.33600 43.12800 22.09200
C  42.15500 43.47200 23.56800
C  44.91500 42.59300 21.66600
C  41.02800 42.53000 21.41300
C  40.19600 41.54800 22.21700
N  41.59300 44.36200 26.44300
C  41.28800 45.12300 25.28100
C  40.63900 46.31200 25.71800
C  40.42800 46.11100 27.16400
C  41.20200 44.94600 27.52400
C  40.19300 47.51200 24.97500
C  39.92000 46.79800 28.34000
O  39.42000 47.89500 28.46400
C  40.38800 45.88300 29.53200
C  41.01500 46.62900 30.64200
O  42.22400 46.82000 30.84700
O  39.99700 46.86000 31.57500
C  40.57000 47.21200 32.85000
H  44.51000 40.04500 29.83400
H  44.45900 39.87900 23.42100
H  41.30300 45.26400 23.06700
H  42.41700 44.11400 31.67500
H  43.06000 41.27800 31.67600
H  45.16600 41.92600 31.70400
H  44.39900 43.23300 32.56200
H  44.90600 43.43100 30.78400
H  40.81600 41.64400 31.73300
H  40.03300 43.02700 30.92100
H  39.09800 43.48900 32.88400
H  40.68200 44.22400 33.21700
H  45.11900 37.87500 29.34700
H  46.43400 38.82800 28.77300
H  46.32100 37.24100 28.19100
H  46.04300 36.13100 26.31400
H  47.28500 37.34700 25.69400
H  46.49100 36.14300 24.58400
H  43.23500 41.28300 21.64300
H  42.50900 44.07500 21.58000
H  45.79600 42.16500 22.14400
H  45.06600 43.66200 21.51400
H  44.96000 42.08400 20.70300
H  41.47800 42.02700 20.55700
H  40.43300 43.36500 21.04500
H  40.67700 41.41300 23.18600
H  40.10700 40.57900 21.72700
H  39.20200 41.95600 22.40300
H  40.40500 48.38500 25.59300
H  39.10600 47.54400 24.89600
H  40.61200 47.60900 23.97400
H  39.44900 45.43400 29.85600
H  41.12400 46.30700 33.09600
H  39.84700 47.47700 33.62100
H  41.29200 48.02200 32.74700
Mg -11.39700 37.08800 42.19900
C  -9.05800 34.51000 41.27200
C  -9.60100 39.26600 40.24900
C  -14.11900 39.16700 41.89300
C  -13.48100 34.59800 43.29400
N  -9.57500 36.90300 40.94400
C  -8.82200 35.77400 40.64400
C  -7.68000 36.08500 39.66300
C  -7.69300 37.69800 39.53700
C  -8.98200 38.01500 40.35600
C  -6.40900 38.41500 39.96600
C  -7.73900 35.21800 38.31800
C  -6.41900 34.44300 37.93800
H  -5.50600 35.30800 37.01800
N  -11.71400 39.05200 41.45400
C  -10.80700 39.76900 40.80500
C  -11.30800 41.08400 40.70100
C  -12.62200 41.14900 41.21400
C  -12.87800 39.78700 41.54900
C  -10.59200 42.25500 40.16500
C  -13.53000 42.33700 41.34400
O  -13.28900 43.44400 41.01600
C  -14.82200 42.26500 42.13800
N  -13.50300 36.92800 42.38300
C  -14.46800 37.89700 42.21000
C  -15.88500 37.41500 42.46500
C  -15.60900 35.92000 42.87800
C  -14.09900 35.79500 42.98400
C  -16.77300 38.21400 43.45600
C  -16.31000 34.86500 41.98900
C  -16.04600 35.02200 40.46600
N  -11.24400 35.04400 42.61100
C  -12.16900 34.14400 43.12400
C  -11.47700 32.93400 43.35400
C  -10.25800 32.93400 42.58500
C  -10.15900 34.31900 42.19800
C  -11.92200 31.86000 44.28800
C  -9.05700 32.25300 42.14300
O  -8.65800 31.12300 42.28500
C  -8.16100 33.28700 41.37800
C  -6.82600 33.44100 42.02400
O  -5.92100 32.55500 41.91800
O  -6.76600 34.65300 42.70300
C  -5.46700 35.00900 43.26600
H  -9.02800 40.01500 39.69900
H  -15.01300 39.79300 41.87100
H  -14.12500 33.83600 43.73800
H  -6.80300 35.84500 40.26300
H  -7.96100 38.05900 38.54400
H  -5.69700 37.75800 40.46500
H  -6.51800 39.19200 40.72300
H  -6.00600 38.82700 39.04100
H  -8.00400 35.94800 37.55300
H  -8.58000 34.52500 38.29900
H  -6.63100 33.46300 37.51200
H  -5.84900 34.27100 38.85100
H  -9.51200 42.11200 40.12600
H  -10.69500 43.10900 40.83400
H  -10.97000 42.55000 39.18600
H  -15.35000 43.20500 42.30000
H  -14.65900 41.67400 43.03900
H  -15.52900 41.70400 41.52700
H  -16.46100 37.36500 41.54000
H  -15.92100 35.90800 43.92300
H  -17.29700 37.56400 44.15700
H  -17.48500 38.72300 42.80600
H  -16.21900 38.93300 44.05900
H  -17.38500 34.90400 42.16500
H  -15.91200 33.91400 42.34300
H  -17.02400 35.17500 40.01000
H  -15.60800 34.16900 39.94800
H  -15.48900 35.90800 40.16000
H  -11.08000 31.51400 44.88800
H  -12.38200 31.04900 43.72300
H  -12.47700 32.37600 45.07100
H  -7.79700 33.07100 40.37400
H  -5.58100 36.05900 43.53700
H  -4.72600 35.00900 42.46700
H  -5.17200 34.24200 43.98200

