158

Mg -1.98700 17.35500 26.47400
C  -2.50800 15.01500 29.11300
C  -2.78000 19.84400 28.72500
C  -1.67000 19.41500 23.99000
C  -1.54600 14.53300 24.33500
N  -2.45500 17.36200 28.72600
C  -2.63400 16.33100 29.55200
C  -3.09900 16.85300 30.95500
C  -3.45000 18.37800 30.65700
C  -2.87900 18.59400 29.28900
C  -4.99600 18.67400 30.77800
C  -2.03000 16.59300 32.02700
C  -2.61100 16.10500 33.34200
H  -1.66800 15.89900 34.45500
N  -2.06000 19.39300 26.43000
C  -2.26900 20.24900 27.46800
C  -1.96500 21.61200 27.01200
C  -1.70100 21.43000 25.60800
C  -1.83700 20.03600 25.26900
C  -2.01200 22.77400 27.88800
C  -1.28800 22.47100 24.61900
O  -0.96300 22.27300 23.41400
C  -1.09200 23.79500 25.08900
N  -1.82500 16.97900 24.43200
C  -1.64600 18.03100 23.56500
C  -1.39500 17.57300 22.15600
C  -1.13400 16.07800 22.38100
C  -1.63700 15.84800 23.80200
C  -2.50800 17.91900 21.12900
C  0.36400 15.63200 22.14100
C  1.33500 15.52900 23.40300
N  -2.12800 15.20400 26.58200
C  -1.93500 14.19800 25.61900
C  -2.25500 12.91600 26.22700
C  -2.45300 13.15900 27.54400
C  -2.30800 14.57600 27.76500
C  -2.17300 11.62900 25.57900
C  -2.70600 12.53900 28.82600
O  -2.82000 11.38800 29.20800
C  -2.77400 13.70600 29.89400
C  -1.63000 13.49000 30.90400
O  -0.45500 13.75700 30.68300
O  -2.05100 12.87400 32.03500
C  -1.21800 12.63000 33.20100
H  -2.89500 20.65400 29.44700
H  -1.43700 20.06000 23.14000
H  -1.32000 13.70700 23.65800
H  -4.03100 16.29600 31.05400
H  -2.93500 19.00600 31.38300
H  -5.38100 19.30500 29.97800
H  -5.24000 19.17200 31.71700
H  -5.62300 17.79000 30.65700
H  -1.58600 17.56400 32.24600
H  -1.11000 16.06900 31.76600
H  -3.02900 15.15000 33.02500
H  -3.32500 16.87200 33.64000
H  -2.29300 22.50300 28.90500
H  -2.83300 23.44200 27.62700
H  -1.10100 23.36800 27.96100
H  -1.96200 24.20800 25.59900
H  -0.99800 24.41200 24.19500
H  -0.13400 23.92000 25.59300
H  -0.48800 18.06900 21.80800
H  -1.81200 15.45800 21.79400
H  -3.13500 18.73200 21.49500
H  -3.17400 17.06500 21.00200
H  -2.03300 18.15900 20.17800
H  0.87800 16.38600 21.54600
H  0.31400 14.73400 21.52600
H  0.87900 16.03800 24.25200
H  2.31600 16.00000 23.34400
H  1.50200 14.45900 23.53000
H  -1.17800 11.33700 25.24300
H  -2.79800 11.53300 24.69100
H  -2.51700 10.89300 26.30500
H  -3.70700 13.70600 30.45700
H  -1.60400 13.33200 33.94100
H  -0.14200 12.68200 33.04000
H  -1.41700 11.61500 33.54400
Mg 24.31300 -5.04000 46.45400
C  26.44400 -2.58000 45.24700
C  21.86300 -3.91500 44.27000
C  22.61300 -8.00700 46.88800
C  26.86900 -6.32900 48.45600
N  24.20800 -3.45700 44.85700
C  25.19400 -2.55100 44.55000
C  24.78200 -1.82800 43.26400
C  23.20200 -2.02100 43.12500
C  23.04000 -3.12800 44.23900
C  22.47300 -0.70800 43.49200
C  25.58400 -2.42700 42.04200
C  26.14100 -1.32300 41.15000
H  25.38400 -1.06800 39.87400
N  22.41300 -5.79100 45.81100
C  21.61000 -5.17900 44.91900
C  20.37300 -5.93100 44.78000
C  20.55500 -7.07700 45.52000
C  21.90900 -7.03400 46.03700
C  19.25200 -5.34800 43.98100
C  19.46300 -8.17000 45.82400
O  18.33300 -8.00600 45.34200
C  19.77300 -9.40600 46.62000
N  24.63300 -6.84500 47.62200
C  23.74600 -7.92700 47.66100
C  24.37400 -9.13000 48.42700
C  25.72700 -8.51300 48.93500
C  25.74200 -7.12400 48.35200
C  23.35000 -9.61700 49.47600
C  26.90800 -9.46100 48.35100
C  28.14100 -9.62000 49.24000
N  26.21900 -4.59800 46.87900
C  27.16800 -5.16600 47.72400
C  28.33500 -4.31600 47.73600
C  28.11800 -3.32900 46.77100
C  26.84000 -3.53100 46.25000
C  29.60700 -4.70600 48.45800
C  28.72900 -2.23900 46.08000
O  29.84800 -1.77700 46.34100
C  27.69100 -1.84100 44.94400
C  27.48600 -0.34700 45.05800
O  26.65900 0.19100 45.78100
O  28.23400 0.30100 44.15600
C  28.11800 1.80200 44.11400
H  20.98500 -3.52300 43.75200
H  22.19200 -8.98700 47.12400
H  27.63600 -6.54600 49.20300
H  25.05900 -0.77400 43.30200
H  22.91100 -2.33000 42.12100
H  21.48600 -0.96400 43.87500
H  22.28200 -0.10000 42.60700
H  23.00400 -0.05300 44.18300
H  24.91000 -2.97100 41.38000
H  26.32400 -3.12900 42.42600
H  27.14200 -1.65400 40.87400
H  26.41600 -0.45700 41.75200
H  19.60000 -4.88200 43.06000
H  18.53100 -4.73900 44.52700
H  18.68800 -6.14200 43.49100
H  19.83900 -9.00800 47.63200
H  20.72500 -9.87900 46.38100
H  19.00500 -10.16900 46.49500
H  24.43700 -9.92500 47.68400
H  25.93400 -8.40100 50.00000
H  22.50600 -8.95300 49.66200
H  23.88300 -9.68200 50.42500
H  22.98700 -10.56900 49.08800
H  27.20200 -9.02400 47.39700
H  26.50600 -10.40400 47.98100
H  28.01000 -9.03900 50.15300
H  29.00000 -9.30100 48.65100
H  28.24400 -10.68800 49.43500
H  30.29500 -5.24300 47.80500
H  29.46000 -5.36700 49.31200
H  30.19400 -3.87600 48.85000
H  28.05900 -2.12200 43.95700
H  27.12600 1.94500 43.68500
H  28.90000 2.29400 43.53500
H  28.13900 2.23200 45.11500

