158

Mg 45.75100 3.91200 47.08500
C  43.41800 6.63300 46.54600
C  43.17100 1.79400 46.54000
C  48.01000 1.63700 46.80200
C  48.37700 6.40700 47.13500
N  43.58300 4.23100 46.51600
C  42.81900 5.42300 46.41300
C  41.33900 5.04500 46.00200
C  41.26900 3.51500 46.19600
C  42.71400 3.11800 46.42400
C  40.23400 2.98800 47.23800
C  41.05500 5.48000 44.51400
C  40.34500 6.78000 44.21500
H  40.86900 7.61900 43.02200
N  45.59900 1.96400 46.87100
C  44.41100 1.23800 46.65500
C  44.74400 -0.12300 46.70700
C  46.18600 -0.20100 46.66200
C  46.67700 1.16000 46.82500
C  43.68400 -1.19300 46.55500
C  47.01500 -1.53900 46.60800
O  46.47800 -2.61300 46.56200
C  48.58700 -1.58100 46.70300
N  47.91200 4.03700 46.78300
C  48.61100 2.89000 46.74400
C  50.15500 3.12200 46.75300
C  50.29500 4.63200 46.92500
C  48.76100 5.08600 46.93200
C  50.94400 2.21500 47.68600
C  51.22700 5.36000 45.91400
C  52.52500 5.99400 46.35300
N  45.89800 6.05600 46.94000
C  47.06000 6.86800 47.00900
C  46.64700 8.32300 47.01000
C  45.18600 8.23600 46.91800
C  44.79100 6.88100 46.75700
C  47.46500 9.60500 46.82600
C  43.94300 9.02400 46.88800
O  43.75100 10.22600 47.00400
C  42.76200 8.00400 46.73500
C  41.92800 8.09100 47.99300
O  42.19800 7.58600 49.06300
O  40.86000 8.95400 47.78200
C  40.07300 9.34300 48.97800
H  42.33000 1.10700 46.42900
H  48.80900 0.92300 46.59300
H  49.20800 7.09700 47.29500
H  40.71200 5.67500 46.63400
H  40.87700 2.97300 45.33600
H  39.39400 2.71000 46.60200
H  39.96900 3.82800 47.88000
H  40.66100 2.13000 47.75800
H  40.59700 4.65900 43.96200
H  41.98800 5.52400 43.95200
H  40.31600 7.41400 45.10200
H  39.28600 6.64300 43.99600
H  43.78300 -1.62300 45.55800
H  42.62900 -0.92300 46.60900
H  43.82100 -1.93500 47.34100
H  48.84900 -0.95800 47.55900
H  48.97300 -1.19400 45.76000
H  48.87300 -2.61800 46.87500
H  50.50100 2.88000 45.74800
H  50.73400 4.83200 47.90200
H  50.37600 2.07600 48.60600
H  51.92000 2.67400 47.84300
H  51.13300 1.25400 47.20700
H  50.65100 6.18400 45.49300
H  51.40200 4.69700 45.06600
H  52.28400 7.04100 46.53500
H  53.32300 6.09300 45.61700
H  52.97700 5.49200 47.20800
H  48.33800 9.50300 47.47000
H  46.84100 10.37600 47.27800
H  47.72900 9.76200 45.78000
H  42.18400 8.25700 45.84600
H  40.68500 9.89000 49.69500
H  39.81800 8.44400 49.54100
H  39.19400 9.91200 48.67500
Mg 5.23800 54.33400 40.72400
C  4.87800 50.81200 40.41800
C  8.48200 53.97500 39.71100
C  5.41900 57.67400 40.45400
C  1.77700 54.53500 41.15100
N  6.50300 52.62600 39.97000
C  6.18000 51.27900 40.05300
C  7.45000 50.36400 39.80700
C  8.59500 51.38600 39.88200
C  7.77900 52.72300 39.90600
C  9.65900 51.43300 41.04300
C  7.42700 49.56000 38.38900
C  6.46100 50.08800 37.21700
H  7.03800 50.72300 35.95200
N  6.77200 55.62400 40.32900
C  8.03800 55.31400 39.91700
C  8.77000 56.48900 39.62000
C  7.97500 57.56200 40.15200
C  6.63600 56.97800 40.34300
C  10.19200 56.42900 39.15900
C  8.45200 59.02400 40.35100
O  9.55900 59.38800 40.06200
C  7.65700 59.97200 41.18900
N  3.81400 55.86400 40.52300
C  4.08900 57.21400 40.55700
C  2.89600 58.09600 40.76500
C  1.83000 57.03000 41.03500
C  2.49500 55.70200 40.85400
C  3.06200 59.23800 41.80200
C  0.55100 57.10300 40.12500
C  -0.77100 57.36300 40.86200
N  3.56300 52.98400 40.80600
C  2.24100 53.17700 41.11700
C  1.56800 51.93400 41.36200
C  2.56700 50.94500 41.14900
C  3.74400 51.62300 40.73000
C  0.11700 51.89100 41.49700
C  2.80200 49.55500 40.98900
O  2.01600 48.56400 41.05100
C  4.29500 49.43200 40.53000
C  4.17800 48.75800 39.21500
O  3.66400 49.25100 38.21600
O  4.55900 47.44000 39.31900
C  4.24900 46.52100 38.19900
H  9.55800 53.87800 39.54900
H  5.60900 58.74200 40.33600
H  0.73800 54.62000 41.47700
H  7.52300 49.67800 40.65100
H  9.14800 51.45900 38.94500
H  9.55700 52.37200 41.58800
H  10.67300 51.31300 40.66300
H  9.53500 50.61500 41.75300
H  7.10600 48.56700 38.70400
H  8.44100 49.40400 38.02200
H  5.73800 50.78400 37.64300
H  5.96800 49.19100 36.84200
H  10.42300 57.42300 38.77600
H  10.33300 55.69300 38.36800
H  10.78800 56.18700 40.03900
H  7.16000 59.51700 42.04500
H  6.90300 60.43800 40.55500
H  8.25300 60.75300 41.66100
H  2.71400 58.60700 39.82000
H  1.59000 57.05000 42.09800
H  2.19800 59.16700 42.46300
H  3.04300 60.16300 41.22700
H  3.91200 59.16300 42.48100
H  0.43400 56.17700 39.56100
H  0.64800 57.90400 39.39200
H  -1.33800 58.08000 40.26900
H  -0.63700 57.69900 41.89100
H  -1.37800 56.46500 40.97600
H  -0.39800 52.73000 41.02900
H  -0.09400 51.89000 42.56600
H  -0.24600 50.89000 41.26400
H  4.91100 48.94900 41.28900
H  5.17400 45.95300 38.09900
H  4.04300 47.07600 37.28300
H  3.45400 45.81300 38.43300

