158

Mg 46.43700 24.63500 28.16800
C  47.19900 26.81700 31.00900
C  45.74100 22.17100 30.48000
C  46.57000 22.43000 25.69300
C  47.43400 27.20100 26.14200
N  46.63600 24.49600 30.46600
C  46.76700 25.54200 31.38900
C  46.64600 24.99600 32.85800
C  46.26100 23.52000 32.60200
C  46.11100 23.34500 31.11100
C  47.10900 22.48400 33.27300
C  45.56800 25.79100 33.66200
C  45.86400 26.57900 34.90500
H  44.85800 26.49700 36.03500
N  46.09600 22.61900 28.09000
C  45.77900 21.77200 29.15400
C  45.58200 20.34700 28.65500
C  45.76400 20.44500 27.18100
C  46.19600 21.86300 26.90200
C  45.19200 19.12700 29.60100
C  45.74700 19.42600 26.20500
O  46.12400 19.51700 25.07100
C  45.31200 18.07100 26.70600
N  47.12800 24.76900 26.25100
C  46.96500 23.71500 25.33600
C  47.33800 24.25700 23.94100
C  47.17400 25.75900 24.07400
C  47.22300 25.97500 25.60100
C  48.78800 23.79900 23.64400
C  45.92000 26.35100 23.40200
C  44.59900 26.25900 24.27600
N  47.03300 26.64500 28.39100
C  47.43000 27.53600 27.41800
C  47.67000 28.80900 28.03500
C  47.63700 28.55500 29.47700
C  47.27900 27.25100 29.61000
C  48.03800 30.08700 27.36200
C  47.96500 29.15300 30.71300
O  48.35300 30.24900 31.02200
C  47.67000 28.03400 31.85100
C  48.92200 27.61900 32.55000
O  49.97100 27.36300 31.97500
O  48.75200 27.68100 33.92500
C  49.89300 27.28600 34.72500
H  45.36000 21.43000 31.18600
H  46.66900 21.72500 24.86500
H  47.46700 27.98300 25.38000
H  47.65500 25.07300 33.26300
H  45.29100 23.43400 33.09100
H  47.68300 21.91300 32.54300
H  46.53400 21.79700 33.89500
H  47.94600 22.91600 33.82200
H  44.65200 25.21700 33.79600
H  45.28000 26.59000 32.98000
H  45.95200 27.64300 34.68400
H  46.82000 26.23500 35.29900
H  46.07800 18.50900 29.74500
H  44.42100 18.55100 29.09000
H  44.78100 19.49000 30.54300
H  44.24400 17.95800 26.89300
H  45.96700 17.72100 27.50400
H  45.42200 17.43400 25.82900
H  46.69400 23.88900 23.14300
H  47.96000 26.33700 23.58900
H  49.46400 24.65200 23.58400
H  48.66500 23.44100 22.62200
H  49.23500 23.00800 24.24700
H  45.59700 25.95900 22.43700
H  46.11500 27.41500 23.26700
H  44.60300 27.17200 24.87200
H  44.70200 25.38500 24.91900
H  43.68200 26.20800 23.68800
H  47.72000 30.14100 26.32000
H  49.12800 30.09100 27.37000
H  47.74500 30.97800 27.91600
H  46.95100 28.44900 32.55800
H  50.69800 28.00500 34.87600
H  50.36000 26.41100 34.27200
H  49.58600 26.89700 35.69600
Mg 8.56200 48.48900 25.25000
C  6.33100 48.55600 28.11900
C  11.00000 49.40100 27.43400
C  10.44000 48.40500 22.68000
C  5.60200 48.15200 23.24200
N  8.59100 48.92600 27.59100
C  7.64800 48.73100 28.52700
C  8.14100 49.28100 29.90000
C  9.55600 49.96500 29.53900
C  9.76500 49.31400 28.10200
C  9.68800 51.53100 29.62800
C  8.22300 48.18200 30.93400
C  7.58100 48.62100 32.22900
H  7.55400 47.61200 33.42400
N  10.51900 48.60600 25.07900
C  11.36700 49.04600 26.07600
C  12.73400 49.18400 25.49600
C  12.61500 48.82900 24.14500
C  11.18100 48.55500 23.91300
C  13.93800 49.74400 26.30100
C  13.67800 48.72000 23.13500
O  13.36700 48.43000 21.98900
C  15.07400 49.03900 23.37300
N  8.04300 48.24000 23.21000
C  9.06100 48.17000 22.36600
C  8.51900 47.91900 20.87900
C  7.02200 47.47800 21.22800
C  6.82500 47.91000 22.63700
C  8.70400 49.10500 19.90200
C  6.83600 45.91800 21.06900
C  5.69900 45.52200 20.09600
N  6.48200 48.50400 25.51100
C  5.46100 48.29500 24.64400
C  4.18500 48.30800 25.34800
C  4.52200 48.34900 26.65100
C  5.91300 48.48900 26.76000
C  2.86500 48.13100 24.75900
C  3.85800 48.43100 27.94000
O  2.68400 48.33000 28.25800
C  5.07300 48.54900 29.00700
C  4.86100 47.36200 29.94100
O  5.48800 46.30400 29.82000
O  3.97000 47.62600 30.95100
C  3.84300 46.60700 32.00100
H  11.77200 49.70100 28.14600
H  11.03800 48.51700 21.77300
H  4.70800 48.18100 22.61600
H  7.39400 50.03900 30.13400
H  10.38700 49.60600 30.14500
H  8.76600 52.10800 29.69500
H  10.27800 51.93600 28.80500
H  10.25900 51.75000 30.53000
H  9.26300 48.05200 31.23400
H  7.72800 47.34900 30.43600
H  6.54700 48.82000 31.94500
H  7.95800 49.61400 32.47200
H  13.68400 49.97100 27.33600
H  14.20800 50.65100 25.76000
H  14.72600 48.99200 26.25200
H  15.24200 50.08800 23.61800
H  15.63400 48.71800 22.49500
H  15.44800 48.42400 24.19100
H  9.15600 47.10900 20.52500
H  6.35900 48.10000 20.62600
H  8.97900 50.07000 20.33000
H  7.79600 49.18300 19.30400
H  9.52700 48.77500 19.26800
H  6.63100 45.51700 22.06200
H  7.72700 45.46500 20.63500
H  5.63600 46.35600 19.39700
H  4.76000 45.41500 20.64000
H  5.81900 44.52400 19.67500
H  2.45700 47.18700 25.11900
H  2.77600 48.14800 23.67200
H  2.29400 48.96100 25.17400
H  4.97900 49.48300 29.56100
H  4.41100 45.68100 31.91100
H  2.77000 46.42400 32.05900
H  4.11000 47.08400 32.94400

