158

Mg 43.80100 4.15600 47.52300
C  41.55600 6.91700 47.27300
C  41.01700 2.19200 48.03600
C  45.72700 1.48200 47.26400
C  46.36300 6.28500 46.87300
N  41.54400 4.57100 47.62100
C  40.90600 5.74700 47.44300
C  39.40000 5.55700 47.63800
C  39.22500 4.03600 47.90900
C  40.66600 3.53800 47.90600
C  38.28700 3.60500 49.10700
C  38.47800 6.11800 46.54900
C  38.96900 6.09300 45.13300
H  38.53900 7.21000 44.16900
N  43.43100 2.09900 47.70300
C  42.22500 1.50600 47.89200
C  42.51400 0.05800 48.02200
C  43.84900 -0.20100 47.69900
C  44.39800 1.14500 47.58700
C  41.48300 -1.00700 48.30200
C  44.52900 -1.55800 47.70700
O  43.89800 -2.55900 48.00300
C  45.89300 -1.84800 47.26700
N  45.69800 3.91200 46.84800
C  46.27800 2.67500 47.04300
C  47.81600 2.82400 47.08700
C  48.04700 4.39700 46.88800
C  46.63500 4.92000 46.85500
C  48.54800 2.18400 48.36400
C  48.87800 4.73200 45.56900
C  50.32500 4.99100 45.86100
N  43.96300 6.20800 46.97000
C  45.13600 7.00100 46.86500
C  44.76600 8.40700 46.76100
C  43.39400 8.39500 46.86600
C  42.90800 7.09900 46.98100
C  45.69700 9.58500 46.63800
C  42.29400 9.23700 47.06000
O  42.27800 10.46600 47.13900
C  40.98200 8.32200 47.14600
C  40.07900 8.72800 48.33000
O  40.24600 8.46900 49.47800
O  38.96600 9.39200 47.78900
C  38.07300 9.97300 48.73800
H  40.11700 1.57600 48.09400
H  46.40800 0.63100 47.20800
H  47.25000 6.90800 46.74500
H  39.10500 6.08800 48.54300
H  38.69700 3.59300 47.06400
H  37.91000 4.53700 49.52800
H  38.85800 3.05100 49.85200
H  37.48500 2.92900 48.80900
H  38.07700 7.10900 46.76200
H  37.53400 5.57800 46.47600
H  38.49200 5.22000 44.68900
H  40.02900 5.84300 45.07900
H  41.65400 -1.44500 49.28500
H  41.51700 -1.60900 47.39400
H  40.45700 -0.64000 48.26400
H  46.73500 -1.45700 47.83700
H  46.00700 -1.41900 46.27100
H  45.93800 -2.93500 47.19300
H  48.32300 2.28000 46.29000
H  48.51900 4.66700 47.83200
H  47.75800 1.94500 49.07600
H  49.26900 2.80700 48.89300
H  49.00000 1.25600 48.01600
H  48.54600 5.71400 45.23200
H  48.71600 4.03600 44.74700
H  50.89000 4.83700 44.94100
H  50.76100 4.40900 46.67300
H  50.38300 6.03600 46.16700
H  46.49400 9.29800 45.95100
H  46.18600 9.66800 47.60900
H  45.19600 10.51900 46.38400
H  40.35400 8.35100 46.25600
H  38.59000 10.32100 49.63200
H  37.39800 9.17000 49.03400
H  37.62700 10.79100 48.17300
Mg 27.13100 50.68500 26.69800
C  24.99500 51.47000 29.51800
C  29.39800 49.76000 29.01500
C  28.97900 49.97500 24.13500
C  24.60300 51.93300 24.60300
N  27.17600 50.52800 29.03600
C  26.18400 50.91900 29.94700
C  26.72400 50.82700 31.39200
C  28.21600 50.34100 31.17300
C  28.27800 50.15100 29.67900
C  29.36900 51.35600 31.60200
C  25.94600 49.80800 32.36300
C  25.64400 50.27700 33.79000
H  25.67000 49.20700 34.89400
N  28.97400 50.02500 26.55900
C  29.73400 49.58800 27.65400
C  31.02600 49.09000 27.15200
C  30.94700 49.14500 25.71500
C  29.61100 49.69300 25.36900
C  32.18000 48.61700 28.06900
C  32.06100 48.87600 24.73900
O  31.85200 49.08300 23.55600
C  33.40100 48.29400 25.18500
N  26.85200 51.00000 24.72300
C  27.81100 50.56900 23.77600
C  27.24800 50.66300 22.31000
C  25.75400 51.23700 22.45700
C  25.67100 51.37600 24.04500
C  28.04500 51.54700 21.42500
C  24.60400 50.38700 21.94600
C  23.89000 50.81700 20.58600
N  25.21400 51.57700 26.98700
C  24.34200 52.06200 25.99900
C  23.16100 52.52400 26.70400
C  23.40900 52.39800 28.05100
C  24.61800 51.77200 28.17400
C  22.00500 53.22700 26.18400
C  22.91000 52.72300 29.42900
O  21.90500 53.22900 29.84700
C  23.94300 52.03900 30.35700
C  24.38900 53.20100 31.03400
O  25.22700 53.96400 30.63500
O  23.89500 53.26500 32.28800
C  24.53400 54.11200 33.27200
H  30.08900 49.28200 29.71300
H  29.48100 49.74200 23.19400
H  23.80400 52.27000 23.93900
H  26.71000 51.83600 31.80500
H  28.38600 49.36200 31.61900
H  28.92400 52.35000 31.55800
H  30.17700 51.50500 30.88600
H  29.70800 51.09300 32.60300
H  26.49800 48.88600 32.54700
H  24.97900 49.54100 31.93700
H  24.63400 50.68600 33.78000
H  26.38800 51.01800 34.08300
H  31.85200 48.51800 29.10400
H  32.96600 49.36000 27.92800
H  32.50100 47.63900 27.71100
H  33.21600 47.27200 25.51700
H  33.73500 48.91900 26.01300
H  34.08700 48.36400 24.34100
H  27.18500 49.66100 21.88500
H  25.71300 52.25300 22.06500
H  28.44300 52.41000 21.96000
H  27.48400 51.85000 20.54100
H  28.84500 50.89900 21.06600
H  23.81900 50.33600 22.70100
H  24.92200 49.34900 21.85600
H  24.15500 50.06900 19.83900
H  24.06600 51.84200 20.25700
H  22.80500 50.83200 20.68700
H  21.58400 52.62600 25.37800
H  22.21800 54.14100 25.63000
H  21.28200 53.40300 26.98100
H  23.39100 51.23900 30.85000
H  24.50800 55.10300 32.81900
H  25.56500 53.76700 33.34500
H  24.10200 54.02000 34.26900

