158

Mg 25.11600 1.43000 29.35100
C  27.40600 1.34300 32.00100
C  22.63900 1.38800 31.57200
C  22.85800 1.68100 26.82100
C  27.71500 0.95600 27.14100
N  25.15400 1.52500 31.54400
C  26.07600 1.50000 32.43400
C  25.60100 1.54900 33.93100
C  24.12200 1.39900 33.70000
C  23.88700 1.46700 32.15600
C  23.40900 0.27000 34.49500
C  26.18100 2.67600 34.77100
C  25.21500 3.21500 35.86000
H  25.98900 3.68100 37.05000
N  23.00900 1.48300 29.23600
C  22.17000 1.44500 30.26100
C  20.77900 1.42200 29.76600
C  20.81700 1.58100 28.38900
C  22.22000 1.70500 28.06300
C  19.56500 1.35900 30.67000
C  19.68500 1.62900 27.39900
O  19.97100 1.78400 26.24700
C  18.15600 1.44600 27.71200
N  25.28100 1.28000 27.35600
C  24.23800 1.57500 26.51600
C  24.70600 1.67100 25.01900
C  26.24000 1.57800 25.19200
C  26.44600 1.25000 26.63700
C  24.02600 0.62100 23.99500
C  27.12200 2.64900 24.56400
C  27.34800 3.99400 25.40100
N  27.15500 1.15900 29.48100
C  28.10700 1.03400 28.49400
C  29.38200 0.85800 29.06900
C  29.19300 1.05700 30.42200
C  27.78000 1.19100 30.65400
C  30.56500 0.45200 28.28000
C  29.78000 1.14500 31.72200
O  30.95300 0.87300 31.97700
C  28.66800 1.29900 32.79000
C  28.76700 0.16700 33.84300
O  28.16000 -0.87200 33.69400
O  29.47800 0.59100 34.92900
C  29.52300 -0.35800 36.07400
H  21.82400 1.30500 32.29400
H  22.26900 1.60600 25.90400
H  28.41000 0.97300 26.29800
H  25.97600 0.62400 34.37000
H  23.53200 2.24200 34.06000
H  22.81200 0.72700 35.28400
H  24.18800 -0.36400 34.91800
H  22.75700 -0.31500 33.84700
H  26.41300 3.46000 34.05100
H  27.17500 2.49700 35.17900
H  24.46800 2.49000 36.18200
H  24.61700 4.07300 35.55300
H  19.20000 2.35500 30.92000
H  19.96000 0.88100 31.56700
H  18.77900 0.72700 30.25800
H  17.99100 0.48800 28.20500
H  17.56300 1.57500 26.80700
H  17.96400 2.24900 28.42400
H  24.62900 2.69500 24.65200
H  26.54800 0.61700 24.77900
H  24.87800 0.09600 23.56400
H  23.42400 1.22500 23.31700
H  23.39600 -0.08900 24.53100
H  26.58300 2.94900 23.66500
H  28.14500 2.32800 24.37000
H  26.87700 3.85800 26.37500
H  26.81900 4.76600 24.84100
H  28.38000 4.27000 25.61700
H  31.17700 1.35300 28.26900
H  30.39400 0.04500 27.28300
H  31.13200 -0.35600 28.74400
H  28.71900 2.27000 33.28100
H  29.64200 -1.37100 35.68900
H  28.63600 -0.23600 36.69500
H  30.36600 -0.18500 36.74300
Mg 40.89500 9.36400 29.91100
C  42.82200 10.61500 32.51700
C  38.52900 8.43400 32.02200
C  39.31000 8.07800 27.14700
C  43.57200 10.36200 27.71700
N  40.72300 9.50500 31.98200
C  41.57400 10.14800 32.90000
C  41.04100 10.00200 34.37300
C  39.66000 9.33600 34.17800
C  39.61200 9.05800 32.65800
C  39.39300 8.03400 35.03200
C  40.98400 11.44200 35.06900
C  40.07700 11.55000 36.30400
H  40.64900 12.49000 37.40500
N  39.16500 8.33000 29.64000
C  38.27300 8.14200 30.60500
C  37.07800 7.54200 30.04100
C  37.26800 7.54600 28.64800
C  38.63000 7.97500 28.44400
C  35.84000 7.21300 30.88900
C  36.36000 7.05600 27.51800
O  36.58500 7.14500 26.34700
C  35.00300 6.57600 27.77400
N  41.43600 8.98000 27.74700
C  40.61900 8.53000 26.85600
C  41.29200 8.40100 25.48400
C  42.50900 9.43300 25.65500
C  42.56300 9.55000 27.14500
C  41.60700 6.96300 25.00900
C  42.23500 10.76100 24.88400
C  41.76200 12.03700 25.71900
N  42.89300 10.25300 30.04900
C  43.80600 10.65000 29.07100
C  44.93500 11.31500 29.67800
C  44.54500 11.34700 31.01600
C  43.28000 10.65200 31.18600
C  46.09700 11.81500 28.91700
C  44.94200 11.95000 32.31900
O  45.78300 12.72300 32.62700
C  43.89800 11.38000 33.30900
C  44.67500 10.51500 34.21700
O  45.63500 9.83600 33.86200
O  44.11200 10.46000 35.41700
C  44.50500 9.48900 36.49000
H  37.66400 8.42500 32.68900
H  38.80200 7.52600 26.35300
H  44.34400 10.78300 27.06900
H  41.69200 9.31900 34.91900
H  38.88100 10.03500 34.48300
H  40.24500 7.81300 35.67600
H  39.47400 7.25300 34.27600
H  38.44900 8.07500 35.57500
H  40.51100 12.00000 34.26100
H  41.98000 11.81300 35.31100
H  39.93600 10.54800 36.70800
H  39.15900 11.98900 35.91300
H  35.88500 7.56700 31.91900
H  35.79500 6.12500 30.94400
H  34.89900 7.60000 30.49800
H  34.46200 7.43100 28.17700
H  35.27900 5.80500 28.49400
H  34.76300 6.14500 26.80200
H  40.42800 8.76800 24.93000
H  43.45300 9.04100 25.27700
H  42.64700 6.99900 24.68400
H  40.93700 6.59700 24.23100
H  41.50800 6.33100 25.89200
H  41.37800 10.52200 24.25500
H  43.14500 11.02400 24.34300
H  41.86200 11.96200 26.80200
H  40.71300 12.16600 25.45200
H  42.39700 12.84700 25.35900
H  46.85100 12.12900 29.63800
H  45.90800 12.67900 28.28000
H  46.60200 11.06800 28.30500
H  43.44200 12.24200 33.79600
H  43.64500 8.90300 36.81400
H  44.86900 10.03400 37.36100
H  45.12900 8.68000 36.11000

