158

Mg 6.47200 54.34800 41.59300
C  5.92000 51.04100 41.04200
C  9.74000 53.89600 40.56500
C  6.68500 57.65100 41.20300
C  2.93600 54.83500 41.97300
N  7.57300 52.62700 40.52900
C  7.19000 51.39100 40.61800
C  8.34600 50.39600 40.25500
C  9.68100 51.24000 40.43700
C  8.97900 52.71300 40.54400
C  10.65400 50.98400 41.63200
C  8.21400 49.71500 38.90400
C  7.92800 50.55400 37.60800
H  6.95600 50.04200 36.54800
N  8.03700 55.58100 41.17700
C  9.29400 55.19200 40.74800
C  10.14100 56.34900 40.59400
C  9.31800 57.47000 40.75900
C  7.91600 56.92200 41.05100
C  11.58300 56.26000 40.24000
C  9.73400 58.97000 40.55300
O  10.90200 59.24100 40.26100
C  8.85100 60.09200 40.97100
N  5.02200 56.02100 41.55400
C  5.37400 57.28400 41.47300
C  4.18100 58.29700 41.61500
C  2.97300 57.35300 41.88100
C  3.73200 56.00400 41.95500
C  4.35000 59.22500 42.86800
C  1.82200 57.48900 40.84300
C  0.68200 58.51800 41.11800
N  4.76500 53.19000 41.68800
C  3.43400 53.49500 41.88000
C  2.76500 52.26800 41.98500
C  3.68200 51.24900 41.62100
C  4.86400 51.89800 41.43900
C  1.34500 52.16500 42.32200
C  3.82400 49.87100 41.53000
O  3.01700 48.96700 41.86400
C  5.29900 49.62400 41.05000
C  5.14000 48.92600 39.71900
O  4.82900 49.45700 38.64400
O  5.45500 47.62000 39.97900
C  5.16600 46.69400 38.95200
H  10.77700 53.64900 40.32700
H  6.70800 58.70200 40.90700
H  1.86900 54.86000 42.20300
H  8.21900 49.64800 41.03900
H  10.31900 51.11100 39.56300
H  10.44000 51.83100 42.28300
H  11.66000 50.97500 41.21300
H  10.51500 50.01800 42.11600
H  7.55700 48.85200 39.02100
H  9.20800 49.33900 38.66000
H  8.87200 50.61600 37.06600
H  7.54300 51.54200 37.86000
H  12.09300 57.16800 40.56300
H  11.68600 56.07900 39.17000
H  12.01000 55.47300 40.86100
H  8.29700 60.37200 40.07500
H  9.51800 60.93300 41.15800
H  8.26800 59.89000 41.86900
H  4.23900 58.96600 40.75600
H  2.51200 57.52400 42.85300
H  5.27400 59.79800 42.78900
H  4.38200 58.60700 43.76500
H  3.52100 59.93200 42.86200
H  1.36700 56.55200 40.52100
H  2.24100 57.79900 39.88500
H  -0.28900 58.04300 40.97400
H  0.86400 59.45900 40.59800
H  0.82500 58.86300 42.14200
H  0.69100 52.47000 41.50500
H  1.26800 52.79300 43.20900
H  1.00300 51.16200 42.57700
H  5.74400 48.86500 41.69300
H  5.89700 45.89200 39.05400
H  5.24400 47.06200 37.92900
H  4.28900 46.10800 39.22700
Mg 17.06600 52.19800 26.74200
C  19.17600 50.79100 29.30100
C  14.81800 52.90800 29.24100
C  15.20600 53.48100 24.39800
C  19.25800 50.80900 24.43400
N  17.06200 51.94200 28.98000
C  18.01800 51.42400 29.78300
C  17.61000 51.52600 31.23100
C  16.07600 51.70900 31.11200
C  15.97700 52.24100 29.65600
C  15.41900 50.29700 31.08800
C  18.36000 52.73200 31.90200
C  18.38000 52.66800 33.46600
H  17.39000 51.73500 34.19900
N  15.27800 53.11200 26.77200
C  14.52400 53.36400 27.94700
C  13.41500 54.27600 27.55000
C  13.55700 54.46600 26.12900
C  14.68000 53.63400 25.66900
C  12.32600 54.75800 28.50400
C  12.78000 55.41200 25.28900
O  12.97300 55.39400 24.07800
C  11.75000 56.37000 25.85100
N  17.15800 52.01100 24.67800
C  16.29200 52.73000 23.93600
C  16.83700 52.91300 22.56200
C  18.08400 51.92700 22.52000
C  18.21600 51.58200 23.96200
C  15.81600 52.50200 21.37800
C  19.43600 52.68600 22.13600
C  20.22100 52.22200 20.93900
N  18.78700 50.99500 26.81700
C  19.54700 50.45000 25.78000
C  20.63600 49.60600 26.25300
C  20.58500 49.73100 27.59500
C  19.47200 50.64200 27.87600
C  21.65500 48.88900 25.40000
C  21.23100 49.37600 28.84200
O  22.20000 48.67500 29.11700
C  20.39600 50.16600 29.92600
C  20.01800 49.22200 31.02200
O  19.45300 48.18700 30.79900
O  20.37200 49.60600 32.20700
C  20.25500 48.64000 33.32000
H  14.11800 53.05400 30.06600
H  14.94800 54.01400 23.47900
H  20.03800 50.54600 23.71600
H  17.93800 50.59300 31.69000
H  15.51400 52.40000 31.74100
H  16.16900 49.52100 30.93400
H  14.65800 50.28900 30.30700
H  14.89100 50.25300 32.04000
H  17.93300 53.67300 31.55500
H  19.41200 52.62100 31.64100
H  18.39900 53.68500 33.85800
H  19.38000 52.26300 33.62000
H  12.47200 55.83500 28.42100
H  12.56600 54.40100 29.50600
H  11.38300 54.34800 28.14500
H  11.05800 55.79800 26.46800
H  11.29000 56.94200 25.04500
H  12.07400 57.15200 26.53700
H  17.12500 53.95400 22.42100
H  17.87800 51.05300 21.90200
H  15.19000 51.64400 21.62200
H  16.47300 52.43200 20.51100
H  15.22400 53.40800 21.24900
H  20.18500 52.80800 22.91900
H  19.09100 53.69900 21.92800
H  21.22600 52.11800 21.34800
H  20.23200 52.87400 20.06500
H  19.74900 51.29000 20.62800
H  22.62300 49.10100 25.85300
H  21.61600 49.41800 24.44700
H  21.48300 47.81300 25.37700
H  21.15200 50.88300 30.24700
H  20.12000 47.57400 33.13700
H  19.37700 48.99500 33.85900
H  21.15700 48.65700 33.93200

