158

Mg 54.88000 24.38000 44.10900
C  52.21300 26.69100 43.78700
C  52.60400 21.85000 43.28000
C  57.48800 22.40300 43.69200
C  57.07000 27.13800 44.63300
N  52.64100 24.34200 43.37100
C  51.72800 25.39200 43.43700
C  50.35600 24.89200 42.83400
C  50.46100 23.39100 43.17000
C  52.00600 23.11500 43.29800
C  49.73900 23.07800 44.49400
C  50.31700 25.14700 41.35700
C  48.92200 24.94700 40.71600
H  48.93300 24.66600 39.15600
N  55.09500 22.41400 43.58400
C  54.04700 21.55000 43.30600
C  54.59000 20.24700 43.07800
C  55.98600 20.38200 43.18500
C  56.25100 21.76500 43.43400
C  53.71200 19.07300 42.80000
C  56.91500 19.18700 42.91500
O  56.52500 18.05100 42.59200
C  58.41400 19.33800 42.98600
N  57.01600 24.78000 44.02900
C  57.83700 23.72400 43.96000
C  59.38100 24.15000 44.00200
C  59.18400 25.63100 44.40100
C  57.69300 25.92200 44.29200
C  60.15400 23.36300 45.08200
C  60.13000 26.55600 43.64500
C  60.97300 27.58400 44.47400
N  54.62700 26.47800 44.35800
C  55.64700 27.42400 44.66200
C  54.98200 28.71600 44.82000
C  53.61300 28.49000 44.52500
C  53.50000 27.11900 44.24200
C  55.66800 29.92600 45.15100
C  52.31300 29.10400 44.35800
O  51.96800 30.28300 44.54300
C  51.42000 27.99200 43.85000
C  50.79100 28.57900 42.56600
O  51.43800 28.80600 41.53500
O  49.44300 28.45500 42.59200
C  48.69800 28.97200 41.50600
H  51.82500 21.09000 43.19200
H  58.29100 21.67000 43.59000
H  57.79100 27.85600 45.02900
H  49.55800 25.30600 43.45100
H  50.09500 22.79800 42.33200
H  48.97400 22.32600 44.30300
H  49.18700 23.98600 44.73800
H  50.40800 22.90900 45.33800
H  51.04600 24.49700 40.87200
H  50.61200 26.18800 41.22600
H  48.31500 25.84300 40.84400
H  48.43800 24.10200 41.20600
H  54.15600 18.53400 41.96300
H  52.78100 19.42800 42.35700
H  53.53400 18.29100 43.53800
H  58.72500 19.99300 42.17200
H  58.97500 18.42300 42.79700
H  58.66300 19.63300 44.00500
H  59.84000 24.01400 43.02300
H  59.32500 25.77100 45.47200
H  59.59100 22.52700 45.49600
H  60.31800 23.89900 46.01600
H  61.08800 23.16700 44.55500
H  59.50500 27.20900 43.03500
H  60.76300 26.01100 42.94500
H  60.74200 28.58800 44.12000
H  62.01800 27.47300 44.18300
H  60.77500 27.62800 45.54500
H  55.06600 30.82900 45.04300
H  56.59000 29.89800 44.57000
H  55.91400 29.89300 46.21200
H  50.58700 27.68600 44.48200
H  47.94200 29.71700 41.75400
H  48.03600 28.14300 41.25700
H  49.27100 29.12400 40.59100
Mg -5.56100 25.62100 26.14600
C  -4.29200 26.96300 29.21100
C  -7.71800 23.76500 28.04200
C  -6.43800 24.07900 23.37200
C  -2.97200 27.38700 24.43000
N  -5.73500 25.24600 28.40400
C  -5.24200 25.97200 29.42200
C  -5.91100 25.57100 30.74600
C  -6.65000 24.27800 30.36000
C  -6.79400 24.46900 28.83800
C  -6.04000 22.89300 30.78700
C  -6.93400 26.70800 31.23400
C  -7.12700 26.91600 32.74300
H  -6.51600 25.76100 33.57600
N  -6.99900 24.25500 25.70900
C  -7.82700 23.67200 26.61700
C  -8.80500 22.80400 25.88400
C  -8.39900 22.90600 24.54000
C  -7.22100 23.77600 24.49700
C  -9.82400 21.87300 26.64700
C  -9.00000 22.12500 23.34600
O  -8.45200 22.10600 22.24300
C  -10.23000 21.26900 23.59600
N  -4.66500 25.48800 24.27100
C  -5.27400 24.78100 23.26500
C  -4.69400 25.16800 21.86500
C  -3.82300 26.37400 22.18100
C  -3.82800 26.46100 23.72400
C  -4.07900 23.99900 21.04200
C  -4.34200 27.74100 21.57500
C  -3.79100 28.14300 20.24200
N  -4.02100 26.86100 26.62800
C  -3.01800 27.50500 25.87700
C  -2.25300 28.36200 26.70100
C  -2.71900 28.21300 27.97200
C  -3.79800 27.26000 27.90400
C  -1.13500 29.15400 26.23900
C  -2.53100 28.64700 29.36100
O  -1.82400 29.55800 29.79100
C  -3.50500 27.75300 30.26600
C  -2.62800 27.02500 31.15100
O  -1.73300 26.27800 30.82100
O  -2.88700 27.32800 32.45600
C  -1.97900 26.77400 33.50900
H  -8.34000 23.07400 28.61400
H  -6.76100 23.73600 22.38700
H  -2.19000 27.94100 23.90500
H  -5.08200 25.22800 31.36600
H  -7.68700 24.28100 30.69600
H  -6.14000 22.06100 30.09000
H  -6.27300 22.55700 31.79800
H  -4.97600 23.10500 30.89400
H  -7.87800 26.61300 30.69700
H  -6.44500 27.57800 30.79600
H  -8.18800 27.00500 32.97700
H  -6.69100 27.88300 32.99200
H  -10.73100 21.80500 26.04600
H  -10.10100 22.24200 27.63500
H  -9.35500 20.89800 26.78200
H  -10.49100 20.73200 22.68400
H  -11.18900 21.68800 23.89800
H  -10.07500 20.42800 24.27200
H  -5.61100 25.44900 21.34600
H  -2.82100 26.08800 21.86300
H  -3.77500 23.23100 21.75300
H  -3.26000 24.40500 20.44900
H  -4.88900 23.65800 20.39700
H  -4.16400 28.57700 22.25100
H  -5.42300 27.71100 21.44400
H  -4.58000 28.49100 19.57600
H  -3.18500 27.34300 19.81700
H  -3.20500 29.05200 20.37300
H  -0.57200 28.57800 25.50400
H  -0.59200 29.35100 27.16300
H  -1.48700 30.11600 25.86600
H  -3.94000 28.49000 30.94000
H  -2.58700 26.84200 34.41100
H  -1.06100 27.36200 33.53200
H  -1.79700 25.70200 33.42700

