158

Mg 41.42300 8.96400 29.20800
C  43.31900 9.91600 31.84800
C  39.05700 7.55200 31.33700
C  39.77600 7.77800 26.56200
C  44.20700 9.66100 26.98100
N  41.18600 8.77700 31.35800
C  42.01500 9.42800 32.25600
C  41.35500 9.32700 33.64700
C  40.06700 8.46600 33.50100
C  40.09600 8.28900 31.95900
C  40.11900 7.14600 34.24700
C  41.07400 10.65100 34.25600
C  41.79400 10.90900 35.55100
H  41.34800 12.09000 36.43900
N  39.63400 7.93000 29.00300
C  38.82300 7.36200 29.96600
C  37.77900 6.62700 29.36400
C  37.86600 6.82100 27.96700
C  39.16600 7.56000 27.82600
C  36.66000 5.91300 30.23700
C  36.88900 6.38500 26.83500
O  37.16700 6.51100 25.63900
C  35.61700 5.69700 27.22300
N  41.97800 8.64100 27.05100
C  41.06500 8.18000 26.16700
C  41.50900 8.15400 24.75200
C  42.83100 9.02200 24.89700
C  43.04600 9.12600 26.39600
C  41.46400 6.79700 24.01000
C  42.77200 10.38500 24.12200
C  41.79700 11.47200 24.55300
N  43.39200 9.52100 29.31700
C  44.35200 9.90500 28.35300
C  45.50200 10.44200 29.03400
C  45.20900 10.53000 30.38500
C  43.90000 9.86500 30.49600
C  46.79200 10.91500 28.34600
C  45.61600 10.86300 31.74500
O  46.63400 11.45800 32.16200
C  44.44800 10.43900 32.75600
C  45.00600 9.36900 33.62500
O  45.38600 8.31600 33.23700
O  44.98000 9.72600 34.95700
C  45.61300 8.81700 35.90300
H  38.30200 7.21600 32.05100
H  39.16400 7.54100 25.68900
H  44.93100 10.04200 26.25700
H  42.03200 8.79200 34.31200
H  39.12800 8.87700 33.87100
H  39.12800 6.94900 34.65700
H  40.85200 7.23500 35.04900
H  40.43000 6.38100 33.53600
H  40.02100 10.59900 34.53000
H  41.13800 11.44600 33.51300
H  42.77100 11.28300 35.24700
H  41.97900 10.05400 36.20100
H  35.77800 6.55200 30.26200
H  36.98000 5.74100 31.26500
H  36.35100 4.98200 29.76200
H  35.05200 5.58300 26.29700
H  35.05400 6.27500 27.95500
H  35.95400 4.77900 27.70500
H  40.83000 8.81600 24.21500
H  43.68900 8.48000 24.49900
H  42.47500 6.48300 23.74700
H  40.82900 6.84500 23.12500
H  40.95200 6.06000 24.62900
H  42.69300 10.11200 23.07000
H  43.72400 10.89200 24.27600
H  40.95600 11.51000 23.86100
H  42.36300 12.40300 24.53700
H  41.56900 11.37000 25.61400
H  46.55200 11.90500 27.95800
H  47.05200 10.23600 27.53300
H  47.61000 10.87700 29.06500
H  44.12500 11.28900 33.35700
H  44.76500 8.37300 36.42400
H  46.09900 9.51400 36.58600
H  46.29800 8.06100 35.51900
Mg 42.03100 40.91300 26.96300
C  41.28900 43.10700 29.52200
C  43.26800 38.70600 29.33000
C  42.53000 38.55900 24.50000
C  41.10600 43.20400 24.61400
N  42.30100 40.99000 29.23700
C  41.82500 41.96200 30.07700
C  41.90000 41.57000 31.51800
C  42.74300 40.23600 31.51000
C  42.71200 39.91600 29.95400
C  44.15500 40.20900 32.10300
C  40.42500 41.46200 32.16800
C  40.29800 42.31300 33.43500
H  39.71100 41.57800 34.66300
N  42.81900 38.89400 26.87100
C  43.27200 38.17400 27.95000
C  43.51700 36.80800 27.53200
C  43.19000 36.71200 26.14600
C  42.78000 38.08600 25.78600
C  43.95500 35.74600 28.44600
C  43.16100 35.47800 25.07500
O  42.85600 35.60100 23.86100
C  43.68300 34.15900 25.55700
N  41.98900 40.92800 24.83900
C  42.10800 39.90000 23.98700
C  41.73400 40.17100 22.56000
C  41.39600 41.66600 22.63900
C  41.46800 41.98600 24.14700
C  42.73500 39.81100 21.48600
C  39.98700 42.00300 22.16500
C  39.92200 43.30000 21.42000
N  41.40500 42.85400 27.04100
C  41.01300 43.63400 26.00000
C  40.45900 44.88700 26.51500
C  40.51300 44.70500 27.91300
C  41.13900 43.45900 28.17900
C  39.99200 46.06500 25.77700
C  40.15000 45.29500 29.22000
O  39.56000 46.35700 29.47300
C  40.75300 44.31300 30.27400
C  41.75300 45.05000 31.13200
O  42.98600 45.14000 31.00100
O  41.15100 45.51600 32.27500
C  41.96400 46.06500 33.34300
H  43.54800 38.02200 30.13400
H  42.58900 37.94200 23.60100
H  40.63900 43.85100 23.86900
H  42.44600 42.34100 32.06100
H  42.18400 39.49500 32.08000
H  44.40400 41.06700 32.72800
H  44.77600 40.12900 31.21000
H  44.14700 39.23800 32.59700
H  40.26700 40.41100 32.40700
H  39.71000 41.75700 31.39900
H  39.64200 43.18300 33.39500
H  41.24700 42.78300 33.69700
H  44.92300 35.38400 28.10000
H  43.28100 34.89400 28.36500
H  44.02000 35.98800 29.50700
H  44.74100 34.11700 25.81400
H  43.57800 33.39800 24.78400
H  43.06600 33.77400 26.36900
H  40.84600 39.57000 22.36400
H  42.18400 42.16100 22.07200
H  42.94800 40.68700 20.87300
H  42.27600 38.99900 20.92200
H  43.64400 39.37900 21.90400
H  39.32800 41.98700 23.03200
H  39.58100 41.19200 21.56000
H  39.50100 43.03400 20.45100
H  40.93800 43.68700 21.33700
H  39.36800 44.11400 21.88900
H  40.74800 46.83900 25.64200
H  39.20700 46.56500 26.34300
H  39.60700 45.84900 24.78000
H  40.05400 43.76100 30.90300
H  42.56500 45.24300 33.73200
H  41.38000 46.57600 34.10800
H  42.59700 46.87000 32.96800

