158

Mg 26.08200 -0.75500 29.13800
C  27.81900 -0.92400 32.26500
C  23.17000 -0.56000 30.76900
C  24.56500 -0.68700 26.14000
C  29.12900 -1.57000 27.56200
N  25.57700 -0.78500 31.29600
C  26.45100 -0.61500 32.34400
C  25.69500 -0.25200 33.65900
C  24.20000 -0.22200 33.13900
C  24.28300 -0.51800 31.61200
C  23.27400 -1.23500 33.84200
C  26.29800 1.06600 34.37700
C  27.26200 0.81700 35.56200
H  27.19000 1.74000 36.84400
N  24.14400 -0.67300 28.54800
C  23.06300 -0.58900 29.33900
C  21.81700 -0.59200 28.55800
C  22.24600 -0.63200 27.23600
C  23.71800 -0.61400 27.24600
C  20.41100 -0.54200 29.22900
C  21.32000 -0.47800 26.04200
O  21.62900 -0.42700 24.85400
C  19.85600 -0.43600 26.25100
N  26.75800 -1.08400 27.16600
C  25.90700 -0.91800 26.08900
C  26.69300 -0.90700 24.77500
C  28.15700 -1.01500 25.25700
C  28.02200 -1.26400 26.75600
C  26.22500 -1.95200 23.74800
C  29.10300 0.08900 24.81800
C  28.85700 1.56300 25.08900
N  28.06100 -1.18600 29.73900
C  29.14200 -1.54400 28.97500
C  30.27600 -1.65500 29.79000
C  29.81300 -1.53000 31.07900
C  28.42800 -1.19400 31.04500
C  31.69300 -1.87000 29.23600
C  30.26900 -1.48500 32.40500
O  31.38200 -1.57300 32.91600
C  29.01800 -1.01900 33.29800
C  28.82600 -2.14600 34.28700
O  28.11200 -3.14200 34.11700
O  29.40200 -1.81300 35.50100
C  28.87200 -2.58500 36.58400
H  22.24400 -0.29600 31.28400
H  23.97600 -0.69600 25.22000
H  30.03500 -1.87200 27.03100
H  25.82000 -1.10600 34.32500
H  23.83300 0.80200 33.21100
H  22.39500 -1.38000 33.21400
H  23.00000 -0.77700 34.79200
H  23.82500 -2.17400 33.79500
H  25.61000 1.90000 34.51200
H  26.84400 1.59100 33.59200
H  28.25500 1.17000 35.28100
H  27.20500 -0.22600 35.87200
H  19.76500 0.28300 28.92800
H  20.35300 -0.56300 30.31800
H  19.91400 -1.48900 29.02200
H  19.50800 -1.20300 26.94200
H  19.39100 -0.70200 25.30100
H  19.61700 0.59400 26.51600
H  26.43500 0.11700 24.50300
H  28.64600 -1.85000 24.75500
H  25.51800 -2.68300 24.14000
H  27.08500 -2.50900 23.37500
H  25.77000 -1.41700 22.91400
H  29.17200 -0.02600 23.73600
H  30.03800 -0.22700 25.28200
H  28.14900 1.81600 25.87800
H  28.63100 2.15400 24.20100
H  29.82700 1.94300 25.40700
H  31.55300 -1.49500 28.22300
H  31.82600 -2.94500 29.11200
H  32.43100 -1.35100 29.84700
H  29.15100 -0.01400 33.69900
H  27.84500 -2.92700 36.46000
H  29.07900 -1.99000 37.47400
H  29.50900 -3.46900 36.61000
Mg 45.94100 24.71200 28.51600
C  46.51800 27.04100 30.99200
C  44.97100 22.55200 30.86700
C  45.84200 22.17300 26.13600
C  47.20500 26.86100 26.16700
N  45.78000 24.81300 30.76700
C  46.03900 25.86500 31.58100
C  45.75500 25.54400 33.13100
C  45.17100 24.06100 32.92400
C  45.28900 23.75600 31.41700
C  45.84100 22.96700 33.77900
C  44.75600 26.55200 33.77200
C  45.24700 27.10200 35.17700
H  44.21800 26.95200 36.31900
N  45.32200 22.67700 28.45700
C  44.90500 21.96100 29.53900
C  44.57300 20.62300 29.14700
C  44.73900 20.48900 27.74700
C  45.29100 21.81500 27.39700
C  44.16100 19.55000 30.21200
C  44.67700 19.24900 26.85200
O  45.08400 19.21000 25.70600
C  44.00700 17.96300 27.41800
N  46.50200 24.50400 26.46200
C  46.49700 23.35100 25.76300
C  47.08000 23.51300 24.27700
C  47.19600 25.06600 24.29800
C  46.93900 25.54900 25.69300
C  48.39600 22.65500 24.12700
C  46.33400 25.78100 23.23300
C  45.02300 26.56200 23.58500
N  46.82400 26.53700 28.50800
C  47.16100 27.36300 27.45500
C  47.59300 28.65400 27.96700
C  47.32900 28.52100 29.32100
C  46.86700 27.28300 29.64600
C  48.10400 29.79600 27.15700
C  47.46100 29.32300 30.56800
O  47.76800 30.51500 30.67500
C  46.94100 28.38800 31.71300
C  48.09100 28.06200 32.68600
O  48.92300 27.22400 32.41700
O  47.92500 28.66300 33.91400
C  48.79700 28.26100 35.05500
H  44.66800 21.83900 31.63600
H  45.72500 21.54800 25.24800
H  47.41200 27.50000 25.30600
H  46.70000 25.47100 33.67000
H  44.10900 24.07100 33.16900
H  46.59700 23.38900 34.44200
H  46.35400 22.11200 33.33900
H  45.02800 22.64100 34.42700
H  43.76600 26.12800 33.94400
H  44.71400 27.41800 33.11200
H  45.36900 28.16200 34.95100
H  46.20400 26.73800 35.55100
H  43.11900 19.24000 30.14000
H  44.29900 19.89200 31.23800
H  44.85400 18.72000 30.07400
H  44.64200 17.33900 28.04600
H  43.69500 17.44400 26.51100
H  43.12200 18.22900 27.99700
H  46.31500 23.21900 23.55800
H  48.23000 25.32800 24.07200
H  48.58500 22.38800 25.16700
H  49.21800 23.17300 23.63300
H  48.23300 21.78400 23.49400
H  46.11600 25.19100 22.34300
H  46.99800 26.57500 22.89400
H  44.55600 26.03000 24.41300
H  44.35500 26.41900 22.73500
H  45.19000 27.63800 23.62100
H  47.59500 29.82700 26.19400
H  49.12700 29.64500 26.81200
H  48.02700 30.75500 27.67100
H  46.21200 29.01300 32.22900
H  48.78600 27.20200 35.31400
H  48.36100 28.93600 35.79100
H  49.82700 28.61600 35.01100

