158

Mg 8.96500 3.66400 27.84500
C  10.31600 2.08700 30.78200
C  7.31300 5.72600 29.84400
C  7.53900 4.76800 25.00000
C  10.31800 1.00000 26.03800
N  8.71100 3.77500 30.09000
C  9.48100 3.13100 31.09900
C  9.16000 3.75000 32.45000
C  8.13900 4.86800 32.11400
C  7.93800 4.72200 30.60800
C  6.73800 4.82700 32.76500
C  10.44700 4.36700 33.09700
C  10.32400 5.04100 34.49200
H  10.98500 4.23400 35.61500
N  7.68000 5.13800 27.41100
C  7.14400 5.87400 28.40000
C  6.32200 6.86700 27.73600
C  6.40300 6.67100 26.30000
C  7.22300 5.50400 26.15100
C  5.64700 7.91900 28.51600
C  5.75900 7.43000 25.21100
O  5.90000 7.12000 24.03700
C  4.85600 8.53700 25.55500
N  9.05000 2.96800 25.84100
C  8.43500 3.69300 24.82400
C  8.78800 3.15800 23.43900
C  9.70800 1.97200 23.77200
C  9.63200 1.89500 25.29500
C  7.63700 2.73100 22.48700
C  11.10400 1.91200 23.17200
C  11.26900 1.16600 21.86100
N  10.16300 1.90100 28.21100
C  10.57900 0.91200 27.38700
C  11.31400 -0.03600 28.06000
C  11.30700 0.42000 29.36900
C  10.49600 1.52600 29.44100
C  11.98300 -1.30400 27.47800
C  11.65200 0.08500 30.77100
O  12.29400 -0.87500 31.24700
C  11.18500 1.23500 31.66500
C  10.48600 0.71300 32.80100
O  9.46200 0.04700 32.83900
O  11.23600 0.85700 33.89100
C  10.96800 0.17300 35.16300
H  6.70300 6.48400 30.34100
H  7.25500 5.15500 24.01900
H  10.77500 0.20600 25.44400
H  8.84200 2.95000 33.11800
H  8.61000 5.81300 32.38400
H  6.84200 4.55100 33.81500
H  6.18100 4.13200 32.13800
H  6.30400 5.82200 32.66500
H  10.92000 5.09600 32.43900
H  11.15900 3.54800 33.20100
H  9.25600 4.96900 34.69800
H  10.64800 6.07700 34.58600
H  5.74600 8.86000 27.97600
H  5.84600 8.10800 29.57100
H  4.59900 7.62300 28.58100
H  4.55200 9.07900 24.65900
H  5.60100 9.25300 25.90100
H  4.03100 8.27200 26.21600
H  9.26200 4.06400 23.06300
H  9.24300 0.99000 23.68600
H  7.38800 3.61400 21.89800
H  6.74600 2.49800 23.07100
H  7.85900 1.89100 21.82900
H  11.83800 1.59300 23.91200
H  11.35700 2.94600 22.93700
H  11.73600 1.78200 21.09200
H  10.27200 1.03100 21.44100
H  11.83900 0.24300 21.96700
H  13.01300 -0.98100 27.32600
H  11.48600 -1.53000 26.53400
H  11.98400 -2.22400 28.06200
H  12.12600 1.68500 31.97900
H  9.93700 -0.17600 35.22400
H  11.25100 0.73900 36.05100
H  11.60300 -0.70900 35.24500
Mg 41.05200 41.50400 26.63000
C  40.42000 43.97200 29.11000
C  41.66800 39.36900 29.25500
C  42.14400 39.26500 24.32700
C  40.54600 43.91500 24.20000
N  41.22100 41.81000 28.98600
C  40.73200 42.81600 29.74800
C  40.64500 42.37200 31.22300
C  41.13400 40.90600 31.20200
C  41.21600 40.63900 29.68300
C  42.50900 40.72600 32.01500
C  39.21500 42.46200 31.80400
C  38.98000 41.92100 33.20300
H  38.34300 42.82700 34.32100
N  41.84300 39.56200 26.80200
C  42.07900 38.85900 27.97700
C  42.55600 37.49700 27.71100
C  42.58900 37.44700 26.23400
C  42.21600 38.81900 25.72100
C  42.84800 36.49900 28.87500
C  43.02100 36.25700 25.41000
O  43.18100 36.33900 24.18300
C  43.09000 34.92400 26.11700
N  41.38900 41.64100 24.56100
C  41.68200 40.50700 23.83700
C  41.26000 40.68600 22.36200
C  40.55400 42.06300 22.36600
C  40.80400 42.57100 23.81000
C  42.38500 40.57300 21.30200
C  39.10800 42.05100 21.97800
C  38.22600 40.98300 22.61000
N  40.69000 43.48700 26.57600
C  40.47600 44.35500 25.51900
C  40.18800 45.68500 25.95600
C  40.18700 45.62100 27.37200
C  40.42300 44.25200 27.72200
C  40.00700 46.97400 25.07200
C  39.93700 46.38300 28.56600
O  39.71500 47.55800 28.75500
C  40.17200 45.33400 29.83500
C  41.36500 45.98300 30.61300
O  42.57200 45.99200 30.30200
O  40.87600 46.46500 31.85400
C  41.80300 47.19700 32.67300
H  41.63700 38.65200 30.07800
H  42.46600 38.50700 23.61000
H  40.27300 44.67500 23.46400
H  41.25000 43.04300 31.83300
H  40.39500 40.19400 31.57000
H  42.73200 41.65500 32.53900
H  43.42700 40.50900 31.47000
H  42.36800 39.99300 32.80900
H  38.53900 41.89100 31.16600
H  38.81800 43.46600 31.65500
H  39.95500 41.65100 33.60900
H  38.34000 41.04900 33.06800
H  43.15000 37.03600 29.77400
H  43.73200 35.93800 28.57300
H  42.03300 35.78000 28.96000
H  42.12500 34.63400 26.53400
H  43.85800 35.00500 26.88600
H  43.38800 34.25600 25.30900
H  40.56200 39.92500 22.01300
H  41.05700 42.82900 21.77500
H  41.93400 40.63700 20.31100
H  43.01200 39.70200 21.48900
H  43.00500 41.46600 21.37700
H  39.05000 41.93400 20.89600
H  38.76500 43.04600 22.26200
H  37.39300 41.50500 23.08300
H  38.76600 40.26000 23.22100
H  37.85900 40.36400 21.79100
H  40.83200 47.68500 25.11100
H  39.21000 47.59100 25.48500
H  39.84700 46.63600 24.04800
H  39.30600 45.29400 30.49600
H  41.27200 47.99900 33.18600
H  42.71100 47.60900 32.23300
H  42.24200 46.51400 33.39900

