158

Mg 48.16100 16.18100 28.49700
C  46.12000 15.86500 31.20100
C  50.21400 18.18400 30.30200
C  49.91700 16.62800 25.63800
C  45.59500 14.62900 26.49500
N  48.17700 17.01500 30.46600
C  47.32700 16.56100 31.45400
C  47.73500 17.03200 32.84700
C  48.81000 18.06000 32.51300
C  49.07000 17.76500 30.99900
C  48.26400 19.48600 32.72000
C  48.04300 15.85500 33.82200
C  47.49300 15.92400 35.24300
H  47.22600 17.29000 35.88200
N  49.98900 17.10300 28.11100
C  50.62700 17.96100 28.95900
C  51.78300 18.44000 28.34300
C  51.75600 18.00400 26.96500
C  50.50000 17.26600 26.82700
C  52.84900 19.36300 29.00500
C  52.80100 18.37700 25.79300
O  52.64900 17.95500 24.66900
C  54.07200 19.05000 26.12400
N  47.84000 15.65600 26.29700
C  48.76700 15.85000 25.39100
C  48.40900 15.24900 24.05400
C  47.14600 14.42000 24.40000
C  46.84700 14.86300 25.84000
C  48.33000 16.33600 22.90000
C  47.25100 12.91000 24.13000
C  46.02200 12.19600 23.64800
N  46.20600 15.42000 28.71000
C  45.31300 14.78900 27.90800
C  44.12700 14.37500 28.63000
C  44.37500 14.82000 29.93000
C  45.68200 15.36900 29.94300
C  43.01500 13.61200 27.98500
C  43.90200 14.89500 31.23700
O  42.78700 14.53000 31.68000
C  45.05700 15.49800 32.18000
C  44.48900 16.61900 32.93200
O  44.29600 17.76900 32.49800
O  44.16800 16.12900 34.16500
C  43.43200 17.04500 35.10500
H  50.88900 18.78500 30.91600
H  50.52800 16.95900 24.79600
H  44.89000 14.05100 25.89300
H  46.82300 17.54600 33.14900
H  49.76600 17.94200 33.02300
H  48.98200 19.93900 33.40500
H  47.29100 19.56300 33.20500
H  48.08200 20.06000 31.81200
H  49.11100 15.67100 33.94100
H  47.65800 14.96000 33.33300
H  48.22100 15.44400 35.89700
H  46.54600 15.39100 35.33300
H  53.22400 20.15500 28.35700
H  53.56000 18.57000 29.23800
H  52.41800 19.79100 29.91000
H  54.53700 18.46300 26.91700
H  54.06600 20.12700 26.29200
H  54.61700 18.86100 25.19900
H  49.23100 14.58500 23.78700
H  46.32200 14.78000 23.78300
H  47.38700 16.16500 22.38000
H  49.13500 16.25000 22.17000
H  48.27600 17.35600 23.28000
H  47.48100 12.44700 25.09000
H  48.02100 12.68200 23.39300
H  46.20900 11.88500 22.62000
H  45.15600 12.82600 23.84900
H  45.98900 11.30100 24.26900
H  43.19400 12.56600 28.23600
H  42.99800 13.75000 26.90400
H  42.06300 13.95300 28.39100
H  45.41000 14.69000 32.82100
H  42.40200 17.21400 34.79100
H  43.95700 17.99300 34.98900
H  43.58300 16.54100 36.06000
Mg 34.97800 49.37500 26.74500
C  35.42600 46.82800 29.13200
C  34.00000 51.49000 29.29100
C  34.38900 51.60000 24.50000
C  35.80000 46.96800 24.36000
N  34.78300 49.20600 28.96500
C  35.05600 48.08400 29.73400
C  35.01000 48.37700 31.20300
C  34.18400 49.71800 31.19600
C  34.30500 50.24300 29.71000
C  32.70100 49.50100 31.55700
C  36.47000 48.54600 31.85700
C  36.55400 47.94600 33.25300
H  36.33500 48.98900 34.39300
N  34.30100 51.36100 26.84900
C  34.06300 52.10800 28.03000
C  33.91300 53.50800 27.61100
C  34.00500 53.55300 26.18900
C  34.25900 52.14100 25.76800
C  33.71100 54.64800 28.58700
C  34.03400 54.75000 25.27500
O  34.43900 54.72400 24.08100
C  33.63100 56.12600 25.90900
N  34.68900 49.16900 24.69400
C  34.56200 50.30200 23.95700
C  34.75400 49.97800 22.45600
C  35.60500 48.71800 22.60000
C  35.42200 48.27100 23.98200
C  33.40200 49.75700 21.69100
C  37.12900 48.91400 22.39200
C  37.85200 47.95200 21.52800
N  35.58100 47.36100 26.72900
C  35.87100 46.54300 25.67500
C  36.24300 45.19000 26.12900
C  36.09400 45.30500 27.53800
C  35.66800 46.61100 27.77600
C  36.62200 44.03700 25.30900
C  36.20700 44.62800 28.83000
O  36.55100 43.49500 29.09800
C  35.79000 45.62000 29.89200
C  34.59300 45.10900 30.61800
O  33.48300 44.95200 30.18300
O  35.07400 44.63800 31.83000
C  34.16300 43.77100 32.54700
H  33.64200 52.19600 30.04300
H  34.49000 52.38700 23.75000
H  36.15600 46.28300 23.58700
H  34.53900 47.59000 31.79300
H  34.58700 50.40800 31.93700
H  32.05400 49.78600 30.72700
H  32.47400 50.15100 32.40100
H  32.54200 48.46100 31.84200
H  36.72400 49.60200 31.76400
H  37.09400 47.87900 31.26300
H  37.56400 47.54900 33.35100
H  35.85200 47.13800 33.46200
H  34.48600 55.41200 28.51600
H  33.73700 54.26300 29.60700
H  32.68400 54.99600 28.48100
H  32.58400 56.08000 26.20900
H  33.69100 56.82200 25.07200
H  34.33800 56.44800 26.67300
H  35.41600 50.73300 22.03400
H  35.32700 47.95100 21.87700
H  32.65500 49.70800 22.48400
H  33.45500 48.82600 21.12700
H  33.19700 50.54400 20.96500
H  37.68300 48.88800 23.33100
H  37.44100 49.86300 21.95600
H  38.17600 48.49000 20.63700
H  37.37100 46.99900 21.30700
H  38.70300 47.60800 22.11600
H  36.09200 44.07200 24.35700
H  36.44400 43.07400 25.78900
H  37.68700 44.03200 25.07700
H  36.60000 45.78000 30.60300
H  33.49400 44.35300 33.18100
H  34.78800 43.14100 33.18000
H  33.66600 43.15700 31.79500

