158

Mg 29.84700 57.67400 40.25400
C  27.11300 55.65300 39.15800
C  32.01600 55.34700 39.48100
C  32.32400 60.04900 40.59300
C  27.49500 60.04800 41.27800
N  29.59900 55.86400 39.28600
C  28.40900 55.13500 39.08800
C  28.70000 53.65700 38.65300
C  30.27000 53.64200 38.72400
C  30.67100 55.06800 39.22500
C  30.81300 52.49500 39.71100
C  28.01100 53.13100 37.42800
C  27.61100 54.07700 36.24100
H  28.38300 54.02100 34.97500
N  31.96400 57.66300 40.00300
C  32.66500 56.55500 39.77700
C  34.09300 56.78300 39.74100
C  34.25200 58.11000 40.18800
C  32.83000 58.72400 40.27400
C  35.08600 55.72100 39.44500
C  35.60400 58.79600 40.46900
O  36.64300 58.09700 40.41400
C  35.66000 60.15000 40.79600
N  29.80900 59.76700 40.80600
C  31.01400 60.50100 40.86200
C  30.69100 61.91600 41.30900
C  29.16100 61.86000 41.54900
C  28.75200 60.41900 41.28700
C  31.43200 62.38200 42.59500
C  28.44000 62.91200 40.71500
C  27.28800 63.73700 41.42500
N  27.66700 57.87700 40.18700
C  26.88700 58.92700 40.64800
C  25.56300 58.66300 40.39100
C  25.55300 57.34400 39.84100
C  26.87400 56.93000 39.74300
C  24.38200 59.51700 40.72700
C  24.71300 56.22600 39.34600
O  23.48900 56.20700 39.28000
C  25.66600 55.10800 38.87700
C  25.25400 53.78600 39.63500
O  25.70800 53.39500 40.70000
O  24.22400 53.18900 38.93500
C  23.82200 51.92500 39.52400
H  32.69500 54.50600 39.32900
H  33.11900 60.76700 40.80400
H  26.79500 60.74000 41.75200
H  28.33600 52.97800 39.42400
H  30.84500 53.34500 37.84700
H  30.94200 52.79400 40.75100
H  31.78100 52.22400 39.29000
H  30.15700 51.63100 39.81600
H  27.15100 52.54900 37.76000
H  28.73100 52.43200 37.00400
H  27.76100 55.09700 36.59300
H  26.54100 54.06500 36.03500
H  36.10400 56.09700 39.33700
H  34.97900 55.12500 38.53900
H  35.02300 54.97200 40.23400
H  36.74000 60.29200 40.76700
H  35.11500 60.30400 41.72800
H  35.21500 60.83400 40.07300
H  30.97600 62.56800 40.48300
H  28.91200 62.06200 42.59100
H  32.25900 61.69700 42.78300
H  30.76300 62.43700 43.45400
H  31.88700 63.36100 42.44300
H  27.85100 62.35700 39.98400
H  29.15900 63.58000 40.24100
H  27.42900 63.55900 42.49100
H  26.24900 63.48500 41.21400
H  27.46800 64.78600 41.19300
H  23.60400 58.80500 40.99900
H  24.04100 60.14000 39.90000
H  24.60000 59.98700 41.68600
H  25.58700 55.00900 37.79400
H  24.70700 51.28900 39.50600
H  23.08600 51.39000 38.92500
H  23.56200 52.09500 40.56900
Mg -11.56500 38.45300 41.15700
C  -9.76500 35.57600 40.25800
C  -9.10400 40.41900 39.71800
C  -13.73700 40.97700 41.17100
C  -13.93500 36.31300 42.57900
N  -9.65400 37.96900 39.98000
C  -9.12600 36.77100 39.82800
C  -7.70800 36.82100 39.20600
C  -7.49600 38.42100 39.11600
C  -8.77900 39.01300 39.74300
C  -6.37000 38.88600 40.11100
C  -7.55300 36.10400 37.87100
C  -6.31300 35.18600 37.67500
H  -5.16000 35.60500 36.78700
N  -11.43300 40.44700 40.51200
C  -10.33100 41.06800 40.00300
C  -10.58600 42.49100 39.75400
C  -11.95600 42.68600 40.02700
C  -12.45300 41.37000 40.64300
C  -9.57200 43.30300 38.99400
C  -12.75400 43.93800 39.69600
O  -12.25500 44.84600 39.14400
C  -14.18600 43.95700 39.85800
N  -13.57800 38.56600 41.67100
C  -14.20400 39.74900 41.67300
C  -15.59700 39.64500 42.26300
C  -15.58900 38.23600 42.88200
C  -14.26900 37.62500 42.33400
C  -16.08600 40.70000 43.35000
C  -16.85800 37.39500 42.47000
C  -16.66400 36.47500 41.21100
N  -11.83400 36.33800 41.46000
C  -12.79500 35.62000 42.12500
C  -12.43900 34.21900 42.07100
C  -11.30200 34.16800 41.29100
C  -10.98300 35.46800 40.95600
C  -13.25100 33.15900 42.70000
C  -10.33600 33.31400 40.66000
O  -10.25000 32.12100 40.58900
C  -9.22900 34.18400 40.03200
C  -7.91800 33.81600 40.74900
O  -7.26600 32.86400 40.44000
O  -7.68800 34.69700 41.79300
C  -6.47800 34.40400 42.55400
H  -8.16700 40.86100 39.37100
H  -14.53900 41.71200 41.27100
H  -14.64100 35.65300 43.08700
H  -7.01500 36.27300 39.84500
H  -7.35700 38.74700 38.08500
H  -5.54900 38.19000 39.94100
H  -6.74900 38.96400 41.13000
H  -5.95600 39.86700 39.87600
H  -7.57800 36.86600 37.09200
H  -8.44100 35.53800 37.59200
H  -6.68900 34.21300 37.36000
H  -5.83600 35.00500 38.63800
H  -9.98800 43.59200 38.02900
H  -8.68500 42.69000 38.83500
H  -9.24500 44.19600 39.52800
H  -14.67500 43.26500 39.17300
H  -14.55100 44.88900 39.42600
H  -14.44400 43.83900 40.91000
H  -16.24100 39.63900 41.38400
H  -15.39900 38.15200 43.95200
H  -17.03000 41.15600 43.05300
H  -15.32400 41.47800 43.39500
H  -16.21200 40.28800 44.35100
H  -17.70800 38.06300 42.33000
H  -17.15100 36.75400 43.30100
H  -15.91100 36.77100 40.48100
H  -17.62800 36.22400 40.77000
H  -16.33900 35.52400 41.63300
H  -12.71800 32.21400 42.80100
H  -14.22600 32.97500 42.25000
H  -13.55200 33.51900 43.68300
H  -9.06500 34.01100 38.96800
H  -6.80100 33.69600 43.31800
H  -6.13700 35.35100 42.97200
H  -5.63500 33.98800 42.00200

