158

Mg 17.43600 -1.80200 27.83200
C  15.98500 0.04000 30.62400
C  19.47300 -3.34200 30.17200
C  19.09100 -3.18200 25.29900
C  15.36800 -0.01400 25.81000
N  17.70000 -1.58700 30.09200
C  16.96500 -0.84400 31.03400
C  17.45300 -1.11800 32.47600
C  18.79000 -2.02300 32.24200
C  18.64000 -2.36100 30.70800
C  20.07600 -1.21700 32.51100
C  16.41200 -1.79900 33.32300
C  16.30800 -1.20900 34.79500
H  17.47500 -0.42200 35.31000
N  19.08400 -3.12200 27.73800
C  19.71000 -3.65000 28.82100
C  20.65600 -4.69300 28.30700
C  20.60600 -4.65700 26.86800
C  19.53600 -3.65600 26.54300
C  21.32800 -5.61800 29.15500
C  21.38500 -5.49800 25.83500
O  21.03700 -5.46100 24.62000
C  22.53500 -6.39600 26.21500
N  17.32000 -1.62500 25.91000
C  18.18000 -2.20400 24.97500
C  17.98200 -1.66100 23.57100
C  16.59200 -0.96900 23.72200
C  16.32600 -0.89300 25.21000
C  19.21000 -0.82200 23.04600
C  15.40000 -1.63800 22.94700
C  15.26600 -1.07400 21.46900
N  15.88800 -0.41700 28.12800
C  15.06100 0.21400 27.18300
C  14.08200 1.11200 27.77400
C  14.41100 1.00300 29.09600
C  15.51400 0.11900 29.25900
C  13.05800 1.96000 27.12300
C  14.07500 1.50600 30.36800
O  13.25400 2.30200 30.76100
C  15.11500 1.01500 31.37200
C  15.94700 2.23900 31.74100
O  16.72500 2.87600 31.02100
O  15.56300 2.42100 33.07200
C  16.44200 3.39600 33.78300
H  20.02600 -3.88800 30.94000
H  19.52000 -3.66100 24.41700
H  14.80000 0.56700 25.08200
H  17.66100 -0.11800 32.85700
H  18.76600 -3.00700 32.71200
H  20.64400 -1.87000 33.17400
H  20.02600 -0.32300 33.13300
H  20.64500 -0.84400 31.66000
H  16.70200 -2.84700 33.39300
H  15.46100 -1.66900 32.80700
H  16.16700 -1.99600 35.53500
H  15.35600 -0.70800 34.96700
H  21.54900 -6.58000 28.69300
H  20.76300 -5.81000 30.06800
H  22.24600 -5.12400 29.47400
H  23.35600 -5.83100 26.65600
H  22.97300 -6.85600 25.32900
H  22.29500 -7.17100 26.94300
H  17.83600 -2.49600 22.88500
H  16.69200 0.06800 23.40300
H  18.97200 0.17500 22.67600
H  19.94200 -1.40000 22.48200
H  19.68300 -0.57000 23.99500
H  14.48800 -1.44500 23.51200
H  15.66700 -2.69400 22.99400
H  16.15200 -0.45100 21.34300
H  14.42300 -0.42400 21.23300
H  15.33900 -1.84400 20.70100
H  13.00000 2.90100 27.66900
H  12.06700 1.54900 27.31200
H  13.17700 2.18400 26.06300
H  14.64000 0.55300 32.23700
H  16.08900 4.42800 33.80200
H  17.51200 3.27600 33.61500
H  16.38200 3.18400 34.85000
Mg 10.05100 47.88100 26.10400
C  7.92600 48.05100 28.94900
C  12.53200 49.33300 27.81400
C  11.84000 47.82200 23.43400
C  7.09000 47.19800 24.24200
N  10.12500 48.81800 28.04900
C  9.29400 48.53300 29.09800
C  10.01800 48.93500 30.41300
C  11.15000 49.73100 29.93900
C  11.28100 49.29000 28.48800
C  10.98600 51.24100 29.98400
C  10.44400 47.67100 31.23800
C  9.76900 47.49000 32.60600
H  10.17800 46.32100 33.47600
N  11.98600 48.43800 25.70100
C  12.92600 48.89800 26.56100
C  14.26700 48.92400 25.91500
C  14.03600 48.44400 24.59900
C  12.55400 48.23400 24.50300
C  15.60200 49.26100 26.73100
C  15.02500 48.27200 23.45500
O  14.75000 47.90800 22.27200
C  16.52000 48.43100 23.72300
N  9.48500 47.82300 24.03700
C  10.54700 47.66000 23.21100
C  9.99700 47.30700 21.78900
C  8.46000 46.94700 22.06000
C  8.32300 47.30000 23.51600
C  10.16300 48.38900 20.68300
C  8.08300 45.44500 21.69100
C  8.33300 44.26200 22.65300
N  7.96300 47.62800 26.49800
C  6.90400 47.34400 25.64800
C  5.65000 47.28800 26.33100
C  6.06500 47.48400 27.67200
C  7.42000 47.70100 27.65900
C  4.32300 47.00000 25.79600
C  5.49900 47.51500 29.02000
O  4.31600 47.48700 29.29900
C  6.69300 47.71500 29.87500
C  6.94700 46.45800 30.60700
O  7.65700 45.55600 30.26900
O  6.08200 46.56400 31.70100
C  6.23400 45.45400 32.66800
H  13.37200 49.76300 28.36400
H  12.41500 47.74200 22.50900
H  6.18400 46.95100 23.68500
H  9.27700 49.49600 30.98200
H  12.11200 49.59000 30.43400
H  11.76900 51.62300 30.63900
H  10.02600 51.49600 30.43400
H  11.24500 51.76000 29.06100
H  11.52000 47.68500 31.41000
H  10.11100 46.73800 30.78200
H  8.70400 47.56900 32.38800
H  9.99000 48.41200 33.14400
H  16.19300 48.35200 26.61800
H  15.35900 49.50200 27.76600
H  15.99400 50.16400 26.26200
H  16.81100 47.81700 24.57500
H  16.82200 49.47800 23.67700
H  16.99400 48.01600 22.83400
H  10.57300 46.43500 21.48100
H  7.83500 47.63100 21.48500
H  9.28300 49.00200 20.48800
H  10.28600 47.78700 19.78300
H  11.02700 49.00400 20.93400
H  8.76200 45.20700 20.87300
H  7.08300 45.46800 21.25700
H  7.43400 43.99600 23.20800
H  9.02900 44.52400 23.44900
H  8.70600 43.40800 22.08700
H  3.66700 46.63300 26.58500
H  4.34100 46.37500 24.90300
H  3.91100 47.94600 25.44300
H  6.58100 48.58300 30.52500
H  6.07000 46.01900 33.58500
H  7.26800 45.11100 32.63900
H  5.52900 44.62300 32.63300

