158

Mg 24.39900 -6.39300 46.61300
C  26.40900 -3.77500 45.27300
C  21.81300 -5.34800 44.34700
C  22.58400 -9.20600 47.25600
C  27.14100 -7.73800 48.15600
N  24.18500 -4.73300 45.14800
C  25.11800 -3.80200 44.74200
C  24.62900 -2.91700 43.59100
C  23.11200 -3.27800 43.48100
C  23.04000 -4.58100 44.37700
C  22.14700 -2.08400 43.80000
C  25.48200 -3.04600 42.33400
C  25.77800 -1.79500 41.57000
H  24.83900 -1.65300 40.36100
N  22.41600 -7.07100 45.99600
C  21.59200 -6.50700 45.05100
C  20.31400 -7.21000 45.07500
C  20.49900 -8.37100 45.91500
C  21.82800 -8.20800 46.46900
C  19.09500 -6.82300 44.24500
C  19.47000 -9.43900 46.21900
O  18.41400 -9.50100 45.60100
C  19.66700 -10.32100 47.35200
N  24.83400 -8.21200 47.48000
C  23.85300 -9.16900 47.81400
C  24.49300 -10.38400 48.60100
C  25.93700 -9.89100 48.88700
C  26.01000 -8.53900 48.14000
C  23.76000 -10.86100 49.86800
C  27.03600 -10.84900 48.48500
C  28.04100 -11.19500 49.68300
N  26.34100 -5.81500 46.85100
C  27.31700 -6.43000 47.56700
C  28.50100 -5.68200 47.52300
C  28.24600 -4.60100 46.61600
C  26.88400 -4.72700 46.20200
C  29.70500 -5.92600 48.36500
C  28.84200 -3.48700 45.95000
O  30.02900 -3.08800 45.94300
C  27.61100 -2.83200 45.06100
C  27.33500 -1.42200 45.45900
O  28.01600 -0.42200 45.23900
O  26.13100 -1.36400 46.23200
C  25.76200 0.02200 46.68200
H  21.00000 -5.03800 43.68800
H  22.11000 -10.18400 47.36200
H  27.98400 -8.20100 48.67300
H  24.94300 -1.97600 44.04100
H  22.91300 -3.55900 42.44700
H  22.79500 -1.32800 44.24300
H  21.38100 -2.31800 44.54000
H  21.60700 -1.75900 42.91200
H  25.06400 -3.88300 41.77400
H  26.48800 -3.35600 42.61500
H  26.82700 -1.67100 41.30100
H  25.52500 -0.85900 42.06800
H  18.16700 -7.20700 44.66800
H  19.32100 -7.26100 43.27300
H  18.94100 -5.78600 43.94600
H  20.23900 -11.21300 47.09500
H  18.66100 -10.64000 47.62400
H  20.15400 -9.84400 48.20300
H  24.56200 -11.17900 47.85900
H  26.03200 -9.69100 49.95500
H  22.95900 -11.48600 49.47400
H  23.31500 -9.97500 50.32200
H  24.39600 -11.38900 50.57700
H  27.53500 -10.44100 47.60500
H  26.57300 -11.78400 48.17000
H  27.99900 -12.23600 50.00400
H  28.05900 -10.45500 50.48400
H  29.02200 -11.04500 49.23300
H  29.32100 -6.00400 49.38200
H  30.44900 -5.14300 48.21700
H  30.23400 -6.80100 47.99000
H  28.01400 -2.67100 44.06100
H  25.62500 0.59900 45.76800
H  26.45600 0.44600 47.40800
H  24.78700 -0.10600 47.15300
Mg 41.46600 40.54900 26.96200
C  40.92400 43.06700 29.41100
C  42.22800 38.42300 29.45000
C  42.70700 38.46900 24.59400
C  41.20300 43.10500 24.51500
N  41.59600 40.82400 29.16800
C  41.19900 41.87900 30.01400
C  41.08500 41.45800 31.52400
C  41.67900 39.97100 31.41600
C  41.87800 39.72800 29.86600
C  43.00200 39.60200 32.25300
C  39.63400 41.51200 32.11500
C  39.34200 42.76700 33.02500
H  38.62100 42.59300 34.38700
N  42.13700 38.59700 27.06600
C  42.31400 37.86900 28.15100
C  42.59100 36.51500 27.74500
C  42.99600 36.49600 26.36900
C  42.60600 37.91100 25.95100
C  42.60000 35.31400 28.73600
C  43.72200 35.48800 25.56100
O  44.14000 35.64000 24.37800
C  43.98900 34.15300 26.13800
N  41.93000 40.74200 24.90000
C  42.32000 39.69100 24.11000
C  42.18300 39.95500 22.66400
C  41.46300 41.38100 22.62000
C  41.56100 41.78700 24.09500
C  43.44800 39.83100 21.92000
C  40.02400 41.50900 22.01200
C  38.93700 40.66200 22.63100
N  41.19000 42.62500 26.90100
C  40.93700 43.45100 25.80500
C  40.34500 44.68300 26.36000
C  40.39800 44.58700 27.72900
C  40.93000 43.35200 28.00400
C  39.71800 45.83300 25.56400
C  40.00900 45.32100 28.87400
O  39.67000 46.45400 29.11800
C  40.31500 44.29300 30.05800
C  41.30400 44.92400 31.00900
O  42.49200 44.71500 30.90000
O  40.68300 45.65600 32.00400
C  41.53700 46.24000 33.03700
H  42.42300 37.68300 30.22900
H  42.88700 37.66500 23.87700
H  40.84300 43.73700 23.70000
H  41.83100 42.00900 32.09700
H  40.97700 39.21700 31.77100
H  43.88600 39.57900 31.61600
H  42.85900 38.61800 32.69800
H  43.05300 40.39200 33.00200
H  39.33800 40.67200 32.74300
H  38.97400 41.65000 31.25900
H  38.62900 43.43900 32.54700
H  40.29300 43.28900 33.13200
H  43.63300 35.01800 28.92100
H  42.06800 34.47000 28.29700
H  42.14300 35.42000 29.72100
H  44.50500 34.25800 27.09200
H  44.51300 33.37800 25.57800
H  43.01900 33.74700 26.42400
H  41.49400 39.22200 22.24400
H  42.08400 42.02300 21.99600
H  43.38300 40.54400 21.09800
H  43.46300 38.80700 21.54500
H  44.32300 40.08500 22.51800
H  40.04700 41.23800 20.95700
H  39.83600 42.58200 21.97500
H  38.52000 39.99000 21.88000
H  38.19000 41.36700 22.99400
H  39.18700 39.89600 23.36600
H  39.33700 45.45900 24.61400
H  40.52500 46.54900 25.40700
H  38.87500 46.27800 26.09200
H  39.34500 44.15200 30.53400
H  42.37500 46.66500 32.48400
H  41.72000 45.40800 33.71700
H  40.91800 47.06800 33.38300

