158

Mg 45.54600 4.95800 48.24600
C  43.89500 7.74600 47.10600
C  42.77200 3.13600 47.26600
C  47.38000 2.11900 48.71100
C  48.43700 6.79300 48.65700
N  43.52500 5.44800 47.30400
C  43.01500 6.67400 46.97200
C  41.60800 6.57700 46.39000
C  41.21600 5.08900 46.76100
C  42.63400 4.51700 47.05000
C  40.15500 5.00900 47.90100
C  41.64200 7.02700 44.85300
C  40.74100 8.23800 44.31900
H  39.71900 7.97300 43.17400
N  45.15600 2.92900 48.09100
C  43.94100 2.35800 47.60700
C  44.03500 0.94200 47.78900
C  45.31900 0.60300 48.05300
C  46.06900 1.89300 48.27800
C  42.82100 0.08600 47.56800
C  45.89900 -0.81700 48.01000
O  45.16000 -1.80700 47.81500
C  47.31100 -1.08800 48.20200
N  47.65000 4.55000 48.43700
C  48.14600 3.33600 48.76800
C  49.62900 3.32600 49.18300
C  50.01300 4.78700 48.84600
C  48.60500 5.45900 48.58800
C  49.89300 2.87400 50.71300
C  50.92200 5.10200 47.64100
C  52.35300 4.33000 47.60000
N  46.08700 6.82900 47.94600
C  47.26700 7.47400 48.30500
C  47.10500 8.87700 48.26300
C  45.79500 9.02800 47.79000
C  45.22200 7.77100 47.64000
C  48.18900 9.93300 48.44000
C  44.84100 10.07000 47.34800
O  44.99000 11.27300 47.29100
C  43.57300 9.22100 46.78700
C  42.25500 9.71000 47.26800
O  41.55600 9.33300 48.22700
O  41.93400 10.74800 46.36000
C  40.55800 11.22600 46.74300
H  41.87900 2.56800 46.99400
H  47.87800 1.17800 48.95400
H  49.39600 7.29300 48.81000
H  40.92900 7.19300 46.98000
H  40.76400 4.59600 45.90000
H  39.95400 5.92900 48.45000
H  40.53500 4.27900 48.61700
H  39.30200 4.55700 47.39600
H  41.24600 6.13300 44.37100
H  42.58900 7.28000 44.37700
H  41.51700 8.93700 44.00600
H  40.15800 8.65200 45.14200
H  42.76500 -0.70700 48.31300
H  42.96800 -0.35800 46.58300
H  41.86200 0.58700 47.44100
H  47.47600 -1.88300 47.47500
H  47.63600 -1.24100 49.23000
H  47.84500 -0.28300 47.69600
H  50.27700 2.72000 48.55100
H  50.50700 5.18200 49.73400
H  50.86900 3.20000 51.07100
H  49.87600 1.78500 50.74900
H  49.20400 3.38500 51.38700
H  51.16600 6.14200 47.85800
H  50.32100 5.05700 46.73200
H  52.54400 3.57400 48.36200
H  53.06700 5.14700 47.70500
H  52.47800 3.83800 46.63500
H  49.16200 9.48200 48.63500
H  47.93000 10.64100 49.22700
H  48.28100 10.40100 47.46000
H  43.57700 9.21700 45.69700
H  40.76700 11.82100 47.63300
H  39.83800 10.40800 46.77300
H  40.10400 11.91300 46.02800
Mg 29.94900 57.45900 39.43600
C  27.09200 55.59800 38.40900
C  31.91900 55.17000 37.76100
C  32.47000 59.67900 39.68200
C  27.62800 60.07500 40.05700
N  29.49600 55.61800 38.23000
C  28.30900 55.03600 37.99000
C  28.50900 53.82900 37.10600
C  30.00800 53.58400 37.07400
C  30.51200 54.87600 37.72700
C  30.62500 52.23700 37.61200
C  27.86300 53.90100 35.58300
C  27.75700 55.38600 35.03700
H  27.44200 55.47700 33.56300
N  31.92000 57.35900 39.02400
C  32.56700 56.32800 38.32200
C  33.95600 56.54100 38.28600
C  34.13100 57.89600 38.73100
C  32.81200 58.38500 39.19800
C  34.94000 55.57600 37.71900
C  35.42800 58.58600 38.50900
O  36.41100 58.01800 38.10000
C  35.51200 60.00600 38.83300
N  30.03200 59.58100 39.93400
C  31.22300 60.15500 40.11200
C  31.07900 61.63300 40.52500
C  29.55400 61.71200 40.63800
C  28.96400 60.38900 40.22700
C  31.79100 62.16400 41.77300
C  28.81900 62.99800 40.05900
C  27.76600 63.58600 41.00200
N  27.78400 57.82000 39.35300
C  27.05100 58.88200 39.67700
C  25.63000 58.59200 39.52600
C  25.60000 57.25200 39.04400
C  26.92200 56.84900 38.97300
C  24.39000 59.47700 39.96300
C  24.71500 56.15100 38.59100
O  23.52700 56.13700 38.49100
C  25.73900 55.01800 38.19100
C  25.46600 53.82100 39.05800
O  26.13600 53.37200 39.96200
O  24.35500 53.21400 38.57400
C  23.84200 52.02000 39.22400
H  32.53000 54.37200 37.33400
H  33.35100 60.32400 39.71300
H  26.93200 60.88100 40.30000
H  27.97200 53.00200 37.57100
H  30.37300 53.49500 36.05100
H  31.57000 52.47900 38.09800
H  30.66600 51.53100 36.78200
H  30.05300 51.75400 38.40400
H  26.88300 53.42500 35.54000
H  28.47900 53.30200 34.91200
H  28.61800 55.95400 35.39000
H  26.86900 55.77400 35.53600
H  35.16600 55.71600 36.66200
H  34.54700 54.57600 37.90200
H  35.96000 55.67700 38.08900
H  36.42600 60.43400 38.41900
H  35.59500 60.10900 39.91500
H  34.75900 60.60500 38.32100
H  31.41400 62.22900 39.67600
H  29.26800 61.63900 41.68700
H  32.53000 61.42000 42.07200
H  31.11000 62.34600 42.60400
H  32.39100 63.03700 41.51500
H  28.22600 62.63700 39.21800
H  29.53800 63.77700 39.80400
H  28.15200 64.57100 41.26600
H  27.52500 63.13600 41.96500
H  26.86400 63.57700 40.39000
H  24.65900 60.07500 40.83400
H  23.49100 58.87400 40.08800
H  24.06800 60.10600 39.13400
H  25.58100 54.78000 37.13900
H  24.50400 51.16100 39.33100
H  22.85600 51.78700 38.82200
H  23.76300 52.28800 40.27800

