158

Mg 46.34300 17.34300 28.70400
C  44.48700 16.76200 31.54700
C  48.57800 19.19400 30.59300
C  47.74500 18.59400 25.87800
C  43.81900 15.92100 26.85900
N  46.51100 17.86800 30.91000
C  45.65300 17.52800 31.84900
C  46.12300 17.95200 33.22700
C  47.36600 18.80600 32.93900
C  47.49600 18.64600 31.36900
C  47.28400 20.27000 33.38300
C  46.43600 16.62700 34.08900
C  46.71400 16.90900 35.54600
H  46.50600 18.35100 36.09400
N  48.05700 18.70200 28.30100
C  48.84300 19.33300 29.23100
C  49.88800 20.00700 28.54800
C  49.65100 19.83200 27.13400
C  48.44900 19.08900 27.01500
C  50.87500 20.79100 29.24800
C  50.37900 20.50500 25.93700
O  50.05000 20.28000 24.78400
C  51.65300 21.41600 26.27800
N  45.85800 17.35500 26.75000
C  46.56300 17.89800 25.73900
C  45.94500 17.67200 24.32500
C  45.09700 16.43400 24.74000
C  44.85400 16.57500 26.20800
C  45.38300 19.05800 23.64000
C  45.61700 15.00900 24.23100
C  46.28700 14.19600 25.32400
N  44.53300 16.49000 29.08500
C  43.63700 15.85800 28.23400
C  42.62400 15.22700 28.99300
C  42.88500 15.60000 30.35500
C  44.06300 16.31100 30.32700
C  41.53500 14.51100 28.43600
C  42.46700 15.51400 31.74700
O  41.51000 14.89800 32.18300
C  43.45200 16.35100 32.56300
C  42.76400 17.51000 33.16900
O  42.23000 18.40900 32.57900
O  42.70100 17.31800 34.54700
C  41.87700 18.27300 35.23600
H  49.21400 19.83200 31.21000
H  48.17500 18.86800 24.91200
H  43.11400 15.39800 26.20900
H  45.27300 18.57300 33.51100
H  48.27300 18.36100 33.34800
H  47.33500 20.96600 32.54600
H  48.19300 20.41100 33.96900
H  46.35900 20.56900 33.87600
H  47.29900 16.15400 33.62200
H  45.58500 15.94600 34.05700
H  47.74400 16.71200 35.84300
H  46.10000 16.21900 36.12300
H  51.87200 20.40000 29.04500
H  50.74400 20.78100 30.33000
H  50.76900 21.84400 28.98800
H  52.21600 20.84900 27.02100
H  51.33800 22.37400 26.69200
H  52.12000 21.58900 25.30800
H  46.80300 17.27000 23.78600
H  44.21700 16.64300 24.13200
H  44.32200 18.96300 23.40600
H  45.92800 19.24400 22.71500
H  45.51000 19.84900 24.37900
H  46.40200 15.20000 23.49900
H  44.82600 14.46800 23.71200
H  45.73300 13.26000 25.40400
H  46.40600 14.52200 26.35700
H  47.32700 14.07700 25.02200
H  40.81700 15.07100 27.83700
H  41.06000 13.90700 29.20900
H  42.01100 13.86100 27.70200
H  43.87200 15.65400 33.28800
H  40.85800 18.01000 34.95400
H  42.09700 19.27400 34.86300
H  42.15200 18.26500 36.29000
Mg 35.84000 49.49600 24.82300
C  36.25400 47.65300 27.92400
C  34.37000 51.97000 26.67900
C  35.22700 51.02700 21.94000
C  37.22000 46.76600 23.07000
N  35.39800 49.73500 26.98500
C  35.57300 48.87200 28.03500
C  35.17500 49.51300 29.37200
C  34.46900 50.87700 28.91100
C  34.69600 50.81400 27.40000
C  32.96600 51.09300 29.28300
C  36.40200 49.58100 30.35500
C  36.06200 49.27400 31.81500
H  34.61000 49.01700 32.38600
N  35.16400 51.28100 24.42600
C  34.61500 52.20300 25.31500
C  34.13500 53.40300 24.58200
C  34.42300 53.19600 23.18900
C  34.94800 51.76800 23.11600
C  33.65300 54.65400 25.28300
C  34.18400 54.12300 21.89300
O  34.58300 53.84700 20.76800
C  33.43100 55.43500 22.03400
N  36.24600 48.98100 22.77100
C  35.85600 49.81400 21.73400
C  36.35400 49.32500 20.37300
C  37.27100 48.02100 20.80100
C  36.94900 47.90300 22.30000
C  35.23100 49.05900 19.30000
C  38.79100 48.17100 20.57700
C  39.61100 47.24000 19.76000
N  36.48700 47.52100 25.33400
C  37.03800 46.53400 24.47300
C  37.54100 45.42500 25.30600
C  37.18300 45.83700 26.61700
C  36.61400 47.08100 26.60000
C  38.14500 44.07800 24.90000
C  37.16100 45.37200 28.02100
O  37.50000 44.25000 28.45100
C  36.56800 46.53900 28.90300
C  35.44300 46.15800 29.83500
O  34.27100 46.14500 29.51800
O  35.93600 45.73700 31.00800
C  35.07200 45.09300 32.02700
H  33.93500 52.73000 27.33200
H  35.01300 51.51800 20.98900
H  37.71300 45.99200 22.47900
H  34.46600 48.77200 29.74100
H  35.02500 51.71300 29.33500
H  32.42500 50.67500 28.43400
H  32.74100 52.14100 29.48200
H  32.77600 50.47300 30.15900
H  36.75200 50.61300 30.38000
H  37.24900 48.98100 30.02300
H  36.64100 49.84600 32.54000
H  36.41700 48.24900 31.91600
H  33.87900 55.54900 24.70300
H  34.07600 54.71900 26.28600
H  32.56600 54.58700 25.31900
H  33.06600 55.66300 21.03200
H  34.03100 56.17400 22.56500
H  32.60500 55.31400 22.73500
H  36.97900 50.18100 20.12100
H  36.89500 47.19200 20.20200
H  35.78400 49.45600 18.44900
H  34.33000 49.62900 19.52700
H  35.00300 48.02300 19.05000
H  39.32000 48.44200 21.49000
H  38.93800 49.13700 20.09300
H  40.63300 47.31800 20.12900
H  39.54800 47.45400 18.69300
H  39.30300 46.19700 19.82600
H  38.02900 43.97500 23.82100
H  37.72700 43.21100 25.41100
H  39.21500 44.03600 25.10300
H  37.35400 46.74000 29.63100
H  35.68600 45.50500 32.82700
H  35.23200 44.04200 32.27100
H  34.04200 45.44700 32.07800

