158

Mg 47.81000 34.82000 26.75500
C  45.99700 33.66300 29.42400
C  48.74400 37.57300 28.59400
C  48.96700 36.23800 23.87700
C  46.53800 32.12700 24.83600
N  47.55600 35.46800 28.87600
C  46.71000 34.84600 29.75000
C  46.80800 35.51800 31.14500
C  47.37400 36.97500 30.72900
C  47.89300 36.73500 29.25100
C  46.38500 38.05700 30.67400
C  47.77500 34.79000 32.09900
C  47.52700 34.96000 33.63500
H  46.68400 36.12900 34.11400
N  48.82300 36.67000 26.37700
C  49.21600 37.58300 27.28000
C  49.99900 38.58200 26.60600
C  50.11900 38.25600 25.20000
C  49.27100 37.01600 25.11700
C  50.50400 39.84900 27.32900
C  50.87400 38.89200 23.99400
O  50.93900 38.50800 22.82000
C  51.56900 40.20300 24.33500
N  47.71200 34.35800 24.67000
C  48.34200 35.03200 23.66700
C  48.23800 34.38100 22.26000
C  47.56300 33.00400 22.61900
C  47.26500 33.09900 24.18000
C  47.32700 35.14600 21.29200
C  48.36400 31.71700 22.20800
C  49.39600 31.19800 23.24800
N  46.58100 33.09800 27.02700
C  46.27600 32.07900 26.22800
C  45.58600 31.09500 27.05800
C  45.35300 31.76000 28.30100
C  46.02400 32.90800 28.21200
C  45.09700 29.80900 26.59300
C  44.72400 31.66600 29.51800
O  44.03200 30.78300 29.94400
C  44.90700 33.00100 30.29000
C  45.16200 32.65200 31.72700
O  46.05500 31.88100 32.11200
O  44.20600 33.07900 32.56200
C  44.30200 32.78200 34.00200
H  49.04000 38.41000 29.23000
H  49.33000 36.55800 22.89800
H  46.41600 31.25200 24.19400
H  45.80700 35.49900 31.57700
H  48.15600 37.36400 31.38100
H  45.70400 38.14600 31.52000
H  45.85400 38.16600 29.72900
H  46.95200 38.98400 30.58200
H  48.82400 35.02500 31.91900
H  47.70500 33.72200 31.89100
H  48.44300 35.05400 34.22000
H  47.09400 34.09000 34.12800
H  51.59400 39.87700 27.31500
H  50.02600 39.92400 28.30600
H  50.06600 40.64300 26.72400
H  52.49600 40.00300 24.87200
H  50.98400 40.97700 24.83400
H  51.83900 40.77800 23.45000
H  49.19800 34.34400 21.74500
H  46.61100 32.91300 22.09600
H  46.27000 34.99300 21.51100
H  47.45700 34.67800 20.31600
H  47.54900 36.21200 21.34100
H  48.82900 31.92600 21.24400
H  47.69900 30.86300 22.07700
H  49.19800 30.18400 23.59400
H  49.66200 31.81100 24.10900
H  50.36700 31.10700 22.76100
H  45.98600 29.25500 26.29400
H  44.49900 29.89200 25.68600
H  44.59600 29.21100 27.35400
H  43.99000 33.58900 30.26700
H  43.33100 32.61600 34.46700
H  44.67200 33.66100 34.52900
H  44.97800 31.93400 34.12000
Mg 9.74200 48.57400 26.26900
C  7.50700 48.43200 29.04900
C  12.24100 49.43200 28.41700
C  11.72700 48.56000 23.64300
C  6.92600 47.76700 24.21800
N  9.75100 49.13300 28.45600
C  8.81200 48.81600 29.37500
C  9.38600 48.94400 30.79300
C  10.72100 49.73100 30.55900
C  10.92200 49.44300 29.01700
C  10.60800 51.26700 30.82700
C  9.47700 47.53800 31.59800
C  10.63700 47.29300 32.59400
H  10.35000 46.36500 33.76700
N  11.74100 49.02200 26.06200
C  12.60500 49.33200 27.02900
C  13.86400 49.29200 26.53800
C  13.80500 48.99200 25.11900
C  12.43900 48.90600 24.85000
C  15.14700 49.61000 27.29800
C  14.94900 48.81500 23.94300
O  14.71500 48.58300 22.78200
C  16.30400 48.58400 24.54000
N  9.29500 48.40600 24.18500
C  10.36000 48.33300 23.28800
C  9.83100 48.04400 21.89600
C  8.37500 47.66000 22.15300
C  8.13300 48.04700 23.56900
C  10.14900 49.22200 20.89900
C  8.16800 46.15400 21.96500
C  6.93400 45.78900 21.04600
N  7.58000 48.24900 26.49400
C  6.59100 47.89900 25.59000
C  5.37600 47.60000 26.29000
C  5.63200 47.75300 27.63800
C  7.02100 48.20700 27.68300
C  4.05500 47.16000 25.64700
C  5.11100 47.81700 28.97900
O  3.95900 47.65100 29.37200
C  6.27400 48.09400 29.92600
C  6.42900 46.81100 30.74100
O  6.85800 45.74100 30.24700
O  5.91000 46.94500 31.98100
C  6.08400 45.87500 32.92900
H  13.05900 49.65000 29.10700
H  12.28300 48.45000 22.71000
H  6.06300 47.48500 23.61000
H  8.56500 49.52100 31.21900
H  11.64400 49.33500 30.98300
H  11.05400 51.86000 30.02800
H  11.12500 51.57200 31.73700
H  9.58200 51.46300 31.13600
H  9.20100 46.75700 30.88900
H  8.63400 47.68200 32.27300
H  10.94300 48.22800 33.06300
H  11.53900 46.99700 32.05800
H  15.04200 49.97600 28.32000
H  15.75000 50.35000 26.77200
H  15.68700 48.66600 27.36900
H  16.64700 49.54200 24.93200
H  17.04200 48.36600 23.76800
H  16.27800 47.78200 25.27700
H  10.41500 47.21300 21.50000
H  7.61600 48.12200 21.52100
H  10.68400 48.81800 20.03900
H  10.70100 49.94400 21.50000
H  9.26600 49.63500 20.41000
H  8.01400 45.59000 22.88500
H  9.08200 45.73000 21.54800
H  7.18900 45.65300 19.99500
H  6.10300 46.49200 21.10600
H  6.53900 44.81800 21.34400
H  4.27300 46.55000 24.77000
H  3.47700 48.03100 25.33900
H  3.39000 46.60000 26.30500
H  6.07300 48.99800 30.50100
H  5.05800 45.57900 33.14600
H  6.60500 46.24200 33.81300
H  6.55200 44.96300 32.55900

