158

Mg 47.59300 16.39200 28.89600
C  45.42000 15.55200 31.60300
C  49.42500 18.32000 31.06800
C  49.93600 16.81300 26.39700
C  45.60500 14.50300 26.77000
N  47.32500 16.95300 30.96900
C  46.51700 16.35900 31.95900
C  46.95400 16.76600 33.32800
C  47.76700 18.04500 33.04200
C  48.24000 17.76300 31.57000
C  47.09800 19.41100 33.08200
C  47.70200 15.66100 34.06800
C  47.80000 15.83200 35.61900
H  49.11400 15.90200 36.28700
N  49.46000 17.41300 28.75500
C  50.02600 18.17600 29.78600
C  51.19900 18.81300 29.23400
C  51.43200 18.35300 27.95000
C  50.22800 17.58300 27.59600
C  52.14000 19.70600 30.01700
C  52.61600 18.53100 26.97600
O  52.53500 18.12600 25.81800
C  53.72300 19.46300 27.40000
N  47.69000 15.89900 26.77400
C  48.83100 15.96700 26.07300
C  48.76900 15.12400 24.77800
C  47.51700 14.30100 25.04700
C  46.85500 14.96800 26.26700
C  48.78200 16.08400 23.55700
C  47.76400 12.81400 25.32700
C  47.22200 11.81600 24.28200
N  45.78500 15.38800 29.01500
C  45.04300 14.71800 28.05800
C  43.90000 14.13900 28.69100
C  43.98900 14.38200 30.03500
C  45.10500 15.28400 30.23100
C  42.89900 13.28100 27.96900
C  43.47800 14.11700 31.38800
O  42.50700 13.47300 31.69600
C  44.28700 14.99000 32.40700
C  43.48600 16.01900 33.06300
O  42.82500 16.86400 32.45900
O  43.50700 15.83600 34.40500
C  42.54900 16.42200 35.35000
H  50.05800 18.98700 31.65700
H  50.66400 16.81700 25.58300
H  45.10900 13.75900 26.14300
H  46.04600 17.08800 33.83800
H  48.73000 18.07100 33.55400
H  46.01800 19.30800 32.97900
H  47.48100 20.05900 32.29300
H  47.39800 19.88400 34.01700
H  48.72600 15.56800 33.70700
H  47.07500 14.79300 33.86700
H  47.43100 14.84500 35.89700
H  47.15900 16.66300 35.91600
H  53.02800 19.17200 30.35300
H  51.63300 20.20800 30.84100
H  52.47400 20.47900 29.32500
H  53.35000 20.48700 27.40700
H  54.47900 19.39200 26.61800
H  54.16900 19.02000 28.29100
H  49.61400 14.46200 24.59000
H  46.93800 14.38100 24.12800
H  48.73500 17.10500 23.93600
H  47.86100 16.08800 22.97500
H  49.66600 15.87600 22.95400
H  47.09500 12.56000 26.14900
H  48.82300 12.64200 25.51700
H  46.42300 11.26200 24.77400
H  48.02100 11.12900 24.00300
H  46.90700 12.34100 23.38000
H  41.93100 13.73800 28.17400
H  43.00000 12.31800 28.47000
H  43.22000 13.23600 26.92800
H  44.71100 14.35200 33.18300
H  41.75300 16.95400 34.82700
H  43.09700 17.02400 36.07500
H  42.01800 15.63100 35.87900
Mg 8.76500 47.13100 25.28800
C  6.45700 46.92100 28.06800
C  11.18200 47.86800 27.52600
C  10.82400 47.27200 22.69100
C  6.06700 46.89800 23.14300
N  8.81300 47.58600 27.55500
C  7.80200 47.21300 28.46300
C  8.26300 47.56900 29.90200
C  9.77300 47.91900 29.69300
C  9.95100 47.84300 28.16600
C  10.36500 49.21000 30.38000
C  8.04600 46.44700 30.96200
C  8.95800 46.42600 32.21500
H  8.28100 46.02100 33.51200
N  10.72300 47.61700 25.07400
C  11.60500 47.83900 26.13900
C  13.00600 47.97700 25.58500
C  12.90000 47.81900 24.20600
C  11.45400 47.58300 23.89900
C  14.16600 48.28700 26.42600
C  13.94200 47.71900 23.16200
O  13.75200 47.57300 21.91000
C  15.31400 47.58500 23.60800
N  8.44700 47.09700 23.16100
C  9.50000 47.11700 22.32200
C  9.02300 46.91400 20.85000
C  7.47700 46.67500 21.03000
C  7.27100 46.91000 22.51900
C  9.46800 48.06800 19.92200
C  7.00000 45.33600 20.43100
C  5.59800 45.47000 19.85600
N  6.72300 46.91200 25.52800
C  5.78000 46.78400 24.53700
C  4.47600 46.46300 25.11500
C  4.68300 46.47100 26.49600
C  6.07600 46.77500 26.66500
C  3.15700 46.20800 24.36700
C  4.10100 46.37500 27.81600
O  2.90300 46.05300 28.03200
C  5.21700 46.66100 28.89300
C  5.25700 45.44400 29.75000
O  5.83700 44.42500 29.51600
O  4.40000 45.65300 30.78400
C  4.46500 44.60700 31.78600
H  11.99100 48.03500 28.24100
H  11.43500 47.26700 21.78600
H  5.19800 46.97900 22.48600
H  7.77000 48.49800 30.18800
H  10.32600 47.00900 29.92300
H  10.52800 49.91800 29.56700
H  11.24600 49.15700 31.02100
H  9.60400 49.67900 31.00400
H  8.05300 45.45500 30.51200
H  7.04800 46.69600 31.32500
H  9.34600 47.43600 32.34600
H  9.68900 45.63400 32.04900
H  14.98300 47.56800 26.48800
H  13.83000 48.45900 27.44900
H  14.54900 49.26000 26.11800
H  15.78200 48.42300 24.12600
H  15.83500 47.47700 22.65700
H  15.47700 46.68800 24.20600
H  9.41400 45.97100 20.46700
H  6.90800 47.44600 20.51000
H  9.87300 47.61300 19.01800
H  10.29500 48.60100 20.39100
H  8.68200 48.79800 19.72700
H  7.10700 44.54300 21.17000
H  7.54100 45.09500 19.51600
H  5.71700 45.10200 18.83700
H  5.20000 46.48500 19.85800
H  4.89100 44.78600 20.32700
H  2.60300 47.12300 24.15800
H  2.52300 45.57800 24.99100
H  3.28900 45.72200 23.40000
H  4.89800 47.53100 29.46700
H  4.19100 45.17000 32.67800
H  5.47100 44.20500 31.90500
H  3.79300 43.79600 31.50300

