158

Mg -0.77300 17.82800 27.07900
C  -1.48700 15.81300 30.02600
C  -1.28900 20.59300 29.21300
C  -0.65200 19.69700 24.39100
C  -1.03800 14.95400 25.14000
N  -1.20200 18.17300 29.43500
C  -1.44400 17.22500 30.35900
C  -1.65400 17.85400 31.76000
C  -2.02000 19.32400 31.38800
C  -1.52700 19.39400 29.92700
C  -3.61000 19.54500 31.61600
C  -0.50000 17.68600 32.76200
C  -0.91000 16.98900 33.99800
H  0.11400 16.38100 35.05700
N  -0.75700 19.94000 26.81300
C  -0.91700 20.87700 27.81900
C  -0.77600 22.17300 27.15600
C  -0.56300 21.93200 25.73600
C  -0.65200 20.44700 25.57700
C  -1.00800 23.54000 27.79400
C  -0.32000 22.91200 24.57900
O  -0.11900 22.54900 23.40300
C  -0.23900 24.42300 24.91800
N  -0.62700 17.39200 25.07900
C  -0.67100 18.34000 24.15200
C  -0.59600 17.67800 22.75900
C  -0.63000 16.18100 23.05700
C  -0.68700 16.13800 24.54600
C  -1.55200 18.20300 21.75600
C  0.53500 15.41400 22.38500
C  1.92900 15.54200 22.99700
N  -1.16500 15.77600 27.48000
C  -1.23300 14.76000 26.51100
C  -1.49300 13.57200 27.20500
C  -1.61600 13.87500 28.58100
C  -1.47500 15.31700 28.68200
C  -1.77500 12.21500 26.64600
C  -1.91500 13.36900 29.89200
O  -2.09100 12.15900 30.18100
C  -1.75000 14.56000 30.92500
C  -0.77100 14.23400 31.90800
O  0.33900 14.67400 31.92000
O  -1.30600 13.45600 32.90700
C  -0.26700 13.12100 33.90600
H  -1.41100 21.52700 29.76500
H  -0.73400 20.18400 23.41700
H  -1.05900 14.05100 24.52700
H  -2.58300 17.35700 32.04000
H  -1.54000 20.05800 32.03600
H  -4.04300 19.62700 30.61900
H  -3.83200 20.44700 32.18500
H  -4.20800 18.74000 32.04200
H  -0.12800 18.64700 33.11700
H  0.43300 17.21900 32.44400
H  -1.82000 16.45000 33.73300
H  -1.32900 17.78300 34.61500
H  -1.72200 24.22600 27.33700
H  -0.10500 24.13000 27.95100
H  -1.35800 23.39000 28.81500
H  -1.20200 24.82000 25.23900
H  0.07300 24.88800 23.98300
H  0.57400 24.66400 25.60200
H  0.40600 17.91300 22.40200
H  -1.61200 15.82300 22.74900
H  -2.23400 18.95700 22.14800
H  -2.19700 17.45900 21.28700
H  -1.05500 18.75200 20.95600
H  0.59700 15.80600 21.36900
H  0.27900 14.36600 22.22900
H  1.96200 16.14300 23.90600
H  2.54800 15.99000 22.22000
H  2.24400 14.54100 23.29400
H  -1.53100 11.52500 27.45400
H  -1.03300 11.97100 25.88500
H  -2.80000 12.05700 26.31100
H  -2.71200 14.51100 31.43500
H  -0.19900 12.03300 33.87800
H  -0.70100 13.47200 34.84200
H  0.76200 13.47100 33.83100
Mg 4.70800 55.40400 40.52200
C  3.52100 52.09100 40.67800
C  7.57600 54.34400 38.89400
C  5.67400 58.56300 40.06400
C  1.58400 56.50200 41.81300
N  5.30100 53.40800 39.67200
C  4.74300 52.20900 39.92300
C  5.42500 51.11400 39.08600
C  6.81400 51.77900 38.95200
C  6.57900 53.32200 39.15600
C  7.98600 51.23100 39.88300
C  4.56700 50.91100 37.77200
C  4.55200 49.50500 37.06000
H  5.18500 49.35800 35.63300
N  6.51500 56.31400 39.75200
C  7.61900 55.67200 39.26100
C  8.64900 56.62200 39.07200
C  8.06600 57.93600 39.20600
C  6.71400 57.65100 39.72100
C  10.02800 56.34200 38.50300
C  8.66900 59.24400 38.99300
O  9.78800 59.33900 38.50800
C  8.07500 60.55400 39.43000
N  3.66800 57.26500 40.72300
C  4.37000 58.40900 40.61600
C  3.54000 59.65100 41.14200
C  2.22000 58.94100 41.47500
C  2.50000 57.47700 41.40500
C  4.27300 60.39900 42.28500
C  1.06200 59.28600 40.46500
C  -0.26500 59.83700 41.08900
N  2.80900 54.53000 41.03100
C  1.68900 55.07900 41.63000
C  0.88100 54.04600 42.06100
C  1.47500 52.81800 41.67200
C  2.71500 53.21800 41.12600
C  -0.43700 54.17700 42.75700
C  1.42700 51.38000 41.75900
O  0.51800 50.71600 42.22000
C  2.78700 50.84900 41.08300
C  2.49700 49.87900 40.03800
O  1.69200 50.07400 39.14200
O  3.19700 48.72400 40.31800
C  2.78700 47.53900 39.50800
H  8.48800 53.92600 38.46300
H  6.07200 59.57900 40.04400
H  0.72500 56.92900 42.33400
H  5.29900 50.28800 39.78600
H  7.19500 51.61500 37.94400
H  7.73600 50.29200 40.37700
H  8.28900 51.91100 40.67800
H  8.81300 51.06200 39.19300
H  5.00500 51.43900 36.92500
H  3.63100 51.45100 37.91000
H  3.53300 49.14000 36.93500
H  5.09700 48.75400 37.63300
H  10.12600 55.27000 38.32900
H  10.79700 56.69700 39.19000
H  10.24900 56.88900 37.58700
H  8.78600 61.38000 39.39100
H  7.95400 60.62300 40.51100
H  7.13500 60.74700 38.91300
H  3.49100 60.41200 40.36300
H  1.95000 59.17200 42.50600
H  5.35400 60.26700 42.30900
H  3.75300 60.14900 43.21100
H  4.23100 61.47500 42.11900
H  0.80300 58.31900 40.03400
H  1.38100 59.97400 39.68200
H  -0.95400 59.76300 40.24800
H  -0.27300 60.86100 41.46300
H  -0.68800 59.29100 41.93300
H  -0.65400 55.21900 42.99100
H  -0.40800 53.55300 43.65000
H  -1.26200 53.83800 42.13100
H  3.42800 50.33200 41.79800
H  2.67100 47.80200 38.45600
H  1.80800 47.22600 39.87200
H  3.53100 46.75400 39.64700

