158

Mg 40.15300 9.32800 30.22500
C  41.72500 10.60600 33.06800
C  37.70900 8.01400 32.21600
C  38.58200 8.12600 27.48600
C  42.99300 10.10300 28.37600
N  39.79300 9.30300 32.36400
C  40.47700 9.97100 33.38300
C  39.81000 9.97300 34.74600
C  38.56600 8.98800 34.46800
C  38.67400 8.79100 32.93800
C  38.48200 7.68500 35.25800
C  39.43200 11.38600 35.26700
C  38.53800 11.37100 36.55600
H  39.17700 12.23600 37.66500
N  38.32000 8.29200 29.90100
C  37.47700 7.80300 30.86200
C  36.44200 7.02900 30.27000
C  36.65200 7.17100 28.85300
C  37.88500 7.97000 28.66600
C  35.44900 6.21700 31.07500
C  35.84800 6.54900 27.73500
O  36.02600 6.84000 26.52800
C  34.75700 5.62100 28.00600
N  40.70400 9.28300 28.16900
C  39.87200 8.63100 27.25800
C  40.58900 8.44700 25.98000
C  41.88100 9.29600 26.14300
C  41.85500 9.63900 27.62600
C  40.91700 6.95500 25.56600
C  41.99400 10.46900 25.17100
C  41.80000 11.86400 25.70600
N  41.92800 10.28300 30.56300
C  43.04500 10.46000 29.70300
C  44.00900 11.17400 30.39600
C  43.53800 11.25400 31.68100
C  42.24000 10.65600 31.78800
C  45.36000 11.64800 29.82500
C  43.85100 11.79300 32.92200
O  44.70500 12.62900 33.20300
C  42.76500 11.24300 33.91800
C  43.45800 10.36300 34.86200
O  43.55400 9.16500 34.76000
O  43.84500 11.15700 35.90700
C  44.43400 10.37900 36.97200
H  36.87300 7.67800 32.83300
H  38.18100 7.59600 26.61900
H  43.92500 10.32900 27.85200
H  40.47300 9.58400 35.51800
H  37.58900 9.42500 34.67600
H  38.60000 6.78300 34.65800
H  37.54500 7.58200 35.80500
H  39.33800 7.68600 35.93400
H  38.88900 11.91900 34.48600
H  40.37100 11.91900 35.42100
H  38.45800 10.33200 36.87500
H  37.54700 11.78500 36.36800
H  36.16500 5.92100 31.84200
H  35.03700 5.31900 30.61300
H  34.58500 6.82500 31.33900
H  34.07900 6.12700 28.69200
H  35.16400 4.64600 28.27200
H  34.26400 5.50500 27.04000
H  39.95300 8.91500 25.22900
H  42.74500 8.63200 26.16700
H  40.26200 6.29800 26.13800
H  41.93900 6.63100 25.76600
H  40.64600 6.83700 24.51700
H  41.23900 10.34000 24.39600
H  42.99000 10.42400 24.72900
H  41.38400 12.49200 24.91800
H  42.72100 12.34100 26.04000
H  41.09200 11.93900 26.53100
H  45.25400 12.23000 28.91000
H  46.12300 10.89800 29.61300
H  45.68200 12.29100 30.64400
H  42.30600 12.02700 34.51900
H  45.01800 9.52500 36.62900
H  43.59000 10.09800 37.60300
H  45.14500 11.07300 37.42300
Mg 47.66100 34.42400 27.00600
C  46.05800 33.33800 30.00400
C  48.54900 37.19900 28.57500
C  49.03800 35.22800 24.12700
C  46.43800 31.43100 25.50600
N  47.34800 35.07300 29.09600
C  46.75100 34.55500 30.17200
C  46.96800 35.45500 31.44200
C  47.35500 36.82000 30.74300
C  47.81600 36.34100 29.39300
C  46.19000 37.88300 30.51800
C  48.12900 34.86600 32.37200
C  47.72700 34.56600 33.88900
H  48.52800 35.40500 34.90700
N  48.58200 36.08200 26.40000
C  48.92200 37.15600 27.19900
C  49.58800 38.15900 26.32600
C  49.65900 37.61400 25.05500
C  49.05500 36.26200 25.12900
C  50.00600 39.46500 26.82800
C  50.12600 38.24300 23.85900
O  50.07000 37.73000 22.75400
C  50.63000 39.63200 23.90100
N  47.67100 33.41300 25.02000
C  48.43400 33.99200 24.04200
C  48.50800 33.01700 22.85500
C  47.64800 31.83200 23.24200
C  47.26700 32.18400 24.68200
C  48.09800 33.72000 21.49600
C  48.36300 30.48900 22.97500
C  49.46300 29.99800 24.02700
N  46.48700 32.75900 27.53700
C  46.15800 31.63700 26.85400
C  45.34200 30.77000 27.75500
C  45.24400 31.46700 28.91700
C  46.07700 32.58600 28.78100
C  44.73000 29.46000 27.50500
C  44.65200 31.34200 30.25300
O  43.98600 30.44400 30.74300
C  45.00400 32.68200 30.88900
C  45.18200 32.55800 32.33600
O  46.19400 32.20800 32.85300
O  43.91600 32.78500 32.92000
C  43.64300 32.34500 34.25000
H  48.89400 38.11300 29.06300
H  49.69500 35.40000 23.27200
H  46.14900 30.49300 25.02700
H  45.98900 35.44400 31.91900
H  48.14800 37.33600 31.28500
H  45.89700 38.02300 29.47700
H  46.60100 38.83900 30.84100
H  45.29000 37.81100 31.12900
H  48.93900 35.59000 32.46100
H  48.53400 33.96200 31.91900
H  47.98000 33.56300 34.23100
H  46.65400 34.71500 34.00700
H  50.95900 39.81100 26.42700
H  50.08400 39.30800 27.90400
H  49.20600 40.19000 26.67500
H  51.65500 39.61500 24.27100
H  49.87000 40.22400 24.41100
H  50.60200 40.01500 22.88100
H  49.54600 32.70000 22.75400
H  46.74400 31.82400 22.63300
H  47.31100 33.09700 21.07200
H  48.96600 33.67500 20.83800
H  47.81100 34.74000 21.75100
H  48.87400 30.55000 22.01400
H  47.62800 29.68400 22.98000
H  49.72000 30.72200 24.79900
H  50.32200 29.53100 23.54300
H  48.99300 29.20600 24.61000
H  43.68100 29.45000 27.80300
H  45.32000 28.61500 27.86100
H  44.69300 29.32500 26.42400
H  44.12000 33.31600 30.83200
H  43.02200 31.45100 34.29500
H  43.18400 33.15000 34.82400
H  44.58800 32.04000 34.70100

