158

Mg 1.87500 -2.18100 44.36300
C  5.26900 -0.96800 44.04100
C  0.98100 0.42400 42.46400
C  -1.03100 -3.65100 44.20300
C  3.25800 -5.15700 45.81200
N  3.01900 -0.55900 43.14100
C  4.38600 -0.28400 43.22700
C  4.65400 0.99200 42.48700
C  3.22500 1.63200 42.41400
C  2.35000 0.45000 42.80300
C  3.08300 2.94300 43.35100
C  5.45200 0.75600 41.17700
C  6.86000 1.37800 41.26800
H  7.93100 1.22300 40.20100
N  0.17600 -1.68400 43.42400
C  -0.07100 -0.50200 42.71400
C  -1.48900 -0.26100 42.48000
C  -2.08400 -1.50100 43.02600
C  -0.96500 -2.33600 43.57500
C  -2.06000 0.91200 41.75200
C  -3.55500 -1.79000 42.87500
O  -4.29600 -0.95600 42.36900
C  -4.16900 -3.05800 43.44800
N  1.21100 -4.13200 44.97700
C  -0.04500 -4.46700 44.69300
C  -0.41700 -5.89200 45.24000
C  0.99500 -6.36300 45.78600
C  1.90600 -5.19300 45.44700
C  -1.46300 -5.99300 46.37500
C  1.50700 -7.75800 45.30800
C  2.10600 -8.68500 46.42400
N  3.79500 -2.92000 44.92300
C  4.18400 -4.09600 45.55700
C  5.60300 -4.03300 45.91600
C  5.97200 -2.75200 45.43100
C  4.89100 -2.19800 44.72200
C  6.37100 -5.03900 46.65000
C  7.18000 -1.87200 45.26000
O  8.31700 -2.00200 45.62100
C  6.71300 -0.68600 44.33400
C  6.96600 0.49800 45.18100
O  6.31800 0.71500 46.18500
O  8.02200 1.31200 44.72600
C  8.13600 2.60200 45.49100
H  0.63500 1.36400 42.03000
H  -2.02900 -4.08200 44.31300
H  3.56400 -6.07500 46.31700
H  5.22800 1.58000 43.20400
H  3.11800 2.05500 41.41500
H  2.24400 3.04500 44.04000
H  3.00600 3.68500 42.55700
H  3.99900 3.16900 43.89800
H  4.96600 1.27400 40.35000
H  5.57500 -0.30500 40.95700
H  7.26900 1.21500 42.26500
H  6.58700 2.43300 41.25700
H  -3.00600 1.20900 42.20600
H  -2.19500 0.76400 40.68000
H  -1.49600 1.83400 41.89100
H  -4.04900 -3.98200 42.88300
H  -5.22700 -2.81600 43.35400
H  -3.87600 -3.04700 44.49800
H  -0.69100 -6.43800 44.33800
H  0.91000 -6.30700 46.87100
H  -1.51500 -4.98400 46.78300
H  -1.14900 -6.66500 47.17400
H  -2.40300 -6.27300 45.89800
H  2.33200 -7.52100 44.63700
H  0.82900 -8.36800 44.71100
H  1.72200 -9.68500 46.22200
H  1.84300 -8.31100 47.41300
H  3.18700 -8.58600 46.32400
H  6.08700 -5.05700 47.70200
H  7.43800 -4.86100 46.51600
H  6.23000 -5.99500 46.14500
H  7.39300 -0.73000 43.48300
H  7.27200 3.21500 45.23600
H  8.93100 3.21000 45.05900
H  8.17200 2.43500 46.56700
Mg 9.81200 47.83700 25.61400
C  7.49200 47.84300 28.17700
C  12.19600 49.01800 27.89100
C  12.16900 48.11300 23.04200
C  7.24300 47.63300 23.28000
N  9.90600 48.24500 27.82100
C  8.79000 48.12200 28.66600
C  9.23600 48.43200 30.12400
C  10.59100 49.17500 29.90700
C  10.95000 48.73600 28.48700
C  10.56000 50.72500 30.07900
C  9.44400 47.15800 31.09000
C  9.85200 47.57100 32.51500
H  9.19100 46.80600 33.72900
N  11.86700 48.37000 25.46500
C  12.65600 48.88300 26.52600
C  14.06600 48.96300 26.04800
C  14.11200 48.51000 24.69900
C  12.67400 48.33600 24.29500
C  15.17100 49.40000 26.97700
C  15.29900 48.23700 23.77800
O  15.19000 47.82000 22.63700
C  16.70600 48.40800 24.40500
N  9.72700 47.96700 23.43500
C  10.81400 47.85900 22.64400
C  10.33600 47.59000 21.24500
C  8.87700 47.42500 21.35900
C  8.53200 47.69000 22.79300
C  10.72800 48.72200 20.23900
C  8.31800 46.03600 20.85600
C  8.31300 44.81900 21.79800
N  7.80400 47.61500 25.70800
C  6.84600 47.59900 24.65700
C  5.53100 47.44400 25.19600
C  5.72000 47.52200 26.59600
C  7.09800 47.67900 26.83000
C  4.26000 47.35000 24.44500
C  4.99000 47.63200 27.85700
O  3.81800 47.66700 28.12900
C  6.18400 47.73800 28.91000
C  6.23700 46.50200 29.68100
O  6.90500 45.51800 29.33700
O  5.42000 46.58600 30.75100
C  5.12300 45.34200 31.50400
H  12.87100 49.38300 28.66800
H  12.88200 48.14400 22.21600
H  6.49200 47.53700 22.49300
H  8.49200 49.14900 30.47100
H  11.31900 48.73400 30.58800
H  10.61400 51.23200 29.11600
H  11.46300 51.00400 30.62200
H  9.70700 51.06600 30.66700
H  10.21300 46.56500 30.59400
H  8.45000 46.74400 31.26000
H  9.70800 48.65000 32.58200
H  10.91700 47.33700 32.52700
H  14.91900 49.63300 28.01100
H  15.48100 50.27500 26.40600
H  15.96600 48.65500 27.00800
H  17.45300 47.97200 23.74100
H  16.80700 47.76900 25.28300
H  16.85900 49.46000 24.64300
H  10.77300 46.64200 20.93300
H  8.38100 48.12600 20.68900
H  10.39500 49.65200 20.70000
H  10.24100 48.61500 19.27000
H  11.80000 48.65800 20.05000
H  8.89900 45.69400 19.99900
H  7.29600 46.15700 20.49700
H  8.50600 45.07300 22.84000
H  9.12000 44.11100 21.61100
H  7.40000 44.22400 21.78300
H  3.41900 47.53700 25.11200
H  4.10600 46.42700 23.88600
H  4.42100 48.13300 23.70400
H  6.03700 48.55100 29.62000
H  4.05400 45.17600 31.36700
H  5.44300 45.55200 32.52500
H  5.66800 44.46600 31.15300

