158

Mg 40.35700 9.78000 29.35500
C  42.13300 10.52700 32.32900
C  38.06300 8.03300 31.26900
C  38.87100 8.72500 26.51700
C  43.01100 10.96200 27.46800
N  40.28700 9.22300 31.56900
C  41.09500 9.60600 32.57500
C  40.50200 9.25600 33.93800
C  39.39200 8.21100 33.53600
C  39.18300 8.53700 32.05000
C  39.62000 6.69200 33.85200
C  39.92100 10.48700 34.66500
C  40.30600 10.61200 36.17400
H  40.53800 11.98000 36.76200
N  38.67400 8.65100 28.90000
C  37.89900 8.01300 29.83200
C  36.82100 7.25800 29.15400
C  36.97700 7.54300 27.77600
C  38.17700 8.36100 27.65500
C  35.89000 6.36500 29.81500
C  36.15900 7.02900 26.60500
O  36.38500 7.37900 25.45100
C  35.07200 6.10800 26.93700
N  40.94700 9.77100 27.27200
C  40.17100 9.23100 26.34900
C  40.80000 9.39300 24.93900
C  42.04000 10.21400 25.22900
C  41.99300 10.34900 26.77200
C  40.99600 8.03200 24.21300
C  41.88700 11.63600 24.55200
C  40.60200 12.40200 24.78800
N  42.23700 10.56100 29.76600
C  43.17900 11.07900 28.89500
C  44.20400 11.69500 29.65400
C  43.82400 11.60600 30.97700
C  42.61100 10.88900 31.01700
C  45.38700 12.39700 29.23700
C  44.14100 11.86100 32.44700
O  45.13400 12.43500 32.90100
C  43.03100 11.18100 33.36700
C  43.77500 10.23900 34.26800
O  44.47100 9.33000 33.89700
O  43.50500 10.59500 35.53400
C  44.36000 9.93900 36.54500
H  37.34900 7.46300 31.86600
H  38.43200 8.44600 25.55700
H  43.90000 11.37900 26.98900
H  41.09300 8.69000 34.65700
H  38.45200 8.41200 34.05100
H  40.06500 6.21600 32.97800
H  38.69800 6.14300 34.04600
H  40.35800 6.46100 34.62000
H  38.83700 10.42800 34.56500
H  40.24700 11.39300 34.15400
H  41.18900 10.07800 36.52600
H  39.48700 10.16400 36.73700
H  34.84700 6.55900 29.56500
H  35.76000 6.68700 30.84800
H  36.19500 5.32300 29.71000
H  35.37000 5.10500 27.24200
H  34.50100 5.95800 26.02100
H  34.42700 6.76300 27.52300
H  40.03300 9.94800 24.39900
H  42.98200 9.75700 24.92700
H  42.07100 8.01700 24.03700
H  40.62400 7.97300 23.19000
H  40.66100 7.19100 24.81900
H  41.96600 11.53800 23.46900
H  42.80700 12.16300 24.80600
H  40.77700 13.37800 25.24000
H  39.85200 11.92000 25.41500
H  40.09700 12.77200 23.89600
H  45.39100 13.27700 29.88100
H  45.32600 12.75400 28.20900
H  46.31400 11.83400 29.34400
H  42.42600 11.88700 33.93600
H  45.42100 9.92100 36.29400
H  43.86300 8.98300 36.71100
H  44.18700 10.41900 37.50900
Mg -1.30300 34.26600 27.24200
C  -3.02200 32.56400 29.89600
C  -0.02100 36.38700 29.75900
C  0.16400 35.95800 24.90700
C  -3.03700 32.28100 24.92200
N  -1.58500 34.41200 29.69300
C  -2.31500 33.65100 30.50100
C  -2.00600 34.05500 31.89900
C  -1.12900 35.41300 31.82600
C  -0.89600 35.42600 30.30400
C  -1.83700 36.65100 32.38500
C  -1.31800 32.92700 32.74300
C  -1.97100 32.60000 34.08200
H  -0.93400 32.49300 35.22800
N  -0.17000 35.96500 27.28700
C  0.39500 36.59400 28.40900
C  1.36800 37.59300 27.95800
C  1.42800 37.52000 26.56400
C  0.37100 36.51500 26.17500
C  2.17200 38.53900 28.89600
C  2.28900 38.32200 25.57300
O  2.33300 38.13600 24.33300
C  3.13100 39.42500 26.05500
N  -1.46700 34.24900 25.22600
C  -0.75000 35.08700 24.41100
C  -0.93900 34.65700 22.92200
C  -1.95700 33.46000 22.93600
C  -2.11400 33.30800 24.49600
C  -1.27200 35.85400 21.91200
C  -1.56600 32.26700 22.14900
C  -0.86100 31.08600 22.88600
N  -2.64900 32.68600 27.32100
C  -3.33100 32.08300 26.27700
C  -4.15700 31.03000 26.86000
C  -3.98500 31.13800 28.25100
C  -3.09300 32.17200 28.49000
C  -5.09900 30.10800 26.07500
C  -4.41200 30.54800 29.50200
O  -5.12300 29.58300 29.71400
C  -3.92000 31.50300 30.62900
C  -5.09800 32.21100 31.30400
O  -5.84600 33.07300 30.82300
O  -5.28200 31.64600 32.52500
C  -6.38300 32.22200 33.29600
H  0.36200 37.05300 30.53500
H  0.70100 36.46400 24.10300
H  -3.50600 31.55500 24.25500
H  -2.94200 34.43900 32.30600
H  -0.21800 35.26100 32.40500
H  -2.71300 36.48400 33.01200
H  -1.96500 37.40200 31.60500
H  -1.04900 37.07900 33.00600
H  -0.24000 33.03200 32.86600
H  -1.53200 31.99400 32.22200
H  -2.26600 31.55100 34.10100
H  -2.78100 33.22900 34.45300
H  2.08500 39.57500 28.56900
H  3.21900 38.23900 28.94700
H  1.90100 38.43500 29.94600
H  3.69800 39.80000 25.20300
H  3.73200 38.97000 26.84300
H  2.52000 40.22300 26.47800
H  0.10200 34.38500 22.74800
H  -2.97800 33.75700 22.69800
H  -0.49200 36.11900 21.19800
H  -1.33000 36.76900 22.50100
H  -2.21800 35.76700 21.37700
H  -0.88300 32.40600 21.31100
H  -2.54500 31.91500 21.82600
H  -1.68100 30.36900 22.93300
H  -0.63400 31.47400 23.87800
H  -0.11200 30.55100 22.30200
H  -5.26700 30.59800 25.11600
H  -6.11500 30.10700 26.47000
H  -4.81300 29.06300 25.95500
H  -3.36100 30.95400 31.38700
H  -7.11100 32.79200 32.72000
H  -5.92100 32.91100 34.00300
H  -6.89800 31.47100 33.89600

