158

Mg 9.13800 3.75400 27.45800
C  10.47400 2.21600 30.35300
C  7.56700 5.99600 29.39700
C  7.72800 4.95700 24.79400
C  10.46300 1.08100 25.51900
N  8.89800 3.90300 29.62600
C  9.62600 3.29800 30.61900
C  9.38800 3.93800 32.00200
C  8.20000 4.94900 31.68100
C  8.29200 5.02200 30.12900
C  6.83400 4.51300 32.14600
C  10.66400 4.48900 32.60100
C  11.07500 3.98000 34.02100
H  11.34800 5.05800 35.06100
N  7.92300 5.40700 27.10600
C  7.42500 6.23600 28.11700
C  6.49800 7.21200 27.49200
C  6.60300 6.98700 26.07100
C  7.38700 5.74200 25.93900
C  5.67400 8.26800 28.27200
C  6.07400 7.69200 24.81500
O  6.44900 7.44100 23.66800
C  5.09700 8.78600 24.98800
N  9.17900 3.10300 25.42200
C  8.42700 3.80200 24.51800
C  8.47100 3.24800 23.08500
C  9.37100 1.95600 23.33100
C  9.71300 2.07700 24.86600
C  7.13900 3.06500 22.34200
C  10.61000 1.71600 22.38100
C  10.49100 0.40100 21.68700
N  10.33900 2.06300 27.78100
C  10.82800 1.06200 26.91200
C  11.62900 0.11800 27.62400
C  11.59200 0.57000 29.00800
C  10.75700 1.69100 29.05700
C  12.31400 -0.99000 26.98600
C  11.93500 0.28200 30.31900
O  12.56800 -0.67700 30.75100
C  11.29500 1.35800 31.28400
C  10.34600 0.64800 32.28500
O  9.44700 -0.12700 32.02900
O  10.66900 1.07300 33.57200
C  9.95100 0.39100 34.64600
H  7.01200 6.65500 30.06700
H  7.30800 5.34400 23.86400
H  10.90500 0.30900 24.88600
H  9.02400 3.16400 32.67900
H  8.28700 5.94800 32.10700
H  6.18100 4.80000 31.32100
H  6.55500 5.12900 33.00100
H  6.79200 3.48100 32.49500
H  10.61800 5.56700 32.75400
H  11.47700 4.30500 31.89900
H  11.97700 3.48400 33.66300
H  10.24800 3.45200 34.49600
H  5.82600 8.40600 29.34300
H  4.64000 8.08600 27.98100
H  5.84600 9.25400 27.84200
H  5.70100 9.65700 25.24500
H  4.53900 8.60100 25.90500
H  4.41900 8.91700 24.14400
H  8.99800 4.04100 22.55400
H  8.71800 1.08600 23.38000
H  6.96900 3.78100 21.53800
H  6.25500 3.26100 22.94800
H  7.15100 2.04500 21.95700
H  11.57900 1.67900 22.87900
H  10.63400 2.64800 21.81700
H  9.57000 -0.17400 21.78400
H  11.34000 -0.20400 22.00700
H  10.58100 0.72500 20.65100
H  12.33400 -1.68800 27.82400
H  13.30500 -0.72500 26.61800
H  11.69200 -1.43100 26.20800
H  11.96300 2.04100 31.80900
H  10.68900 -0.04600 35.31800
H  9.33200 -0.45400 34.34500
H  9.35600 1.16700 35.12700
Mg 9.11200 48.16600 26.47700
C  7.43100 48.52700 29.54200
C  11.91800 49.20000 28.02900
C  10.54400 48.15300 23.58400
C  6.02800 48.34000 24.89900
N  9.56300 48.78500 28.56300
C  8.77400 48.80700 29.64200
C  9.59600 49.00700 30.94300
C  10.88900 49.62700 30.34100
C  10.83800 49.13000 28.87600
C  11.00700 51.19600 30.28800
C  9.80400 47.69200 31.65600
C  9.39400 47.72200 33.09700
H  9.37300 46.38200 33.94400
N  11.04400 48.37800 25.92200
C  12.06700 48.75600 26.70200
C  13.26600 48.85600 25.92000
C  12.88700 48.54600 24.57400
C  11.45500 48.30900 24.66700
C  14.65300 49.14200 26.64400
C  13.69700 48.34700 23.27600
O  13.17400 48.00200 22.23600
C  15.25200 48.39600 23.49600
N  8.38700 48.26500 24.37200
C  9.16200 48.25300 23.38200
C  8.38100 48.10400 22.04000
C  6.93500 48.40700 22.47900
C  7.11100 48.28900 23.99900
C  8.77900 49.00600 20.87800
C  5.72200 47.61500 21.82000
C  5.31700 48.13800 20.40600
N  7.07800 48.36400 27.04900
C  5.94600 48.34300 26.25200
C  4.79500 48.25200 27.10500
C  5.31400 48.28300 28.41100
C  6.72900 48.34100 28.31900
C  3.33900 48.04700 26.74100
C  5.05900 48.21100 29.83000
O  4.03300 48.01100 30.45900
C  6.41000 48.31500 30.64200
C  6.57500 47.00500 31.32200
O  6.99200 45.94100 30.90300
O  6.05800 47.14100 32.58900
C  5.95600 45.83300 33.23300
H  12.76000 49.65700 28.55300
H  10.98400 48.04200 22.59100
H  5.05200 48.33100 24.40900
H  9.03500 49.75500 31.50500
H  11.84000 49.35400 30.79700
H  10.25800 51.62900 30.95200
H  10.87500 51.56100 29.27000
H  11.98300 51.48300 30.67800
H  10.86100 47.48000 31.49500
H  9.33500 46.86400 31.12600
H  8.35900 48.06400 33.13100
H  10.00400 48.42300 33.66700
H  14.51600 49.32900 27.70900
H  15.20200 49.92500 26.12000
H  15.29500 48.27500 26.49100
H  15.81300 47.51500 23.80700
H  15.44700 49.17600 24.23300
H  15.70500 48.89300 22.63800
H  8.51100 47.03800 21.85400
H  6.91100 49.49100 22.37600
H  9.76500 49.40500 21.11400
H  8.05000 49.74300 20.54100
H  8.88000 48.31700 20.04100
H  4.78100 47.48400 22.35500
H  6.18500 46.65800 21.57700
H  5.71800 47.53300 19.59300
H  5.62700 49.16800 20.23100
H  4.23400 48.06000 20.30700
H  3.04500 48.64900 25.88200
H  2.76000 48.35700 27.61000
H  3.28500 47.01200 26.40200
H  6.33300 49.12500 31.36700
H  4.98200 45.40800 32.98700
H  6.00300 45.84700 34.32200
H  6.72300 45.08400 33.03600

