158

Mg 35.76300 3.01300 30.76200
C  33.41400 4.30800 33.03000
C  38.11400 2.94000 33.31400
C  38.03800 2.20200 28.45300
C  33.43300 3.60300 28.21800
N  35.82600 3.76600 32.91000
C  34.65500 3.97700 33.64000
C  34.92600 3.88500 35.19800
C  36.48900 3.61400 35.22400
C  36.87500 3.46300 33.72400
C  37.23600 4.79600 35.85500
C  34.08800 2.69000 35.73000
C  33.35300 3.01200 37.10200
H  33.99200 4.14800 37.93900
N  37.70300 2.45200 30.89000
C  38.50300 2.51200 32.02400
C  39.80900 1.99600 31.73300
C  39.78700 1.65200 30.30300
C  38.48300 2.14800 29.80800
C  40.88300 1.67800 32.82400
C  40.79200 0.96400 29.43600
O  40.53500 0.67900 28.24500
C  42.16500 0.55200 30.05100
N  35.69500 2.82800 28.59700
C  36.73700 2.41500 27.88400
C  36.41900 2.45200 26.45900
C  34.85200 2.40400 26.34500
C  34.65200 3.05000 27.78600
C  37.04300 3.71100 25.83800
C  34.21500 0.98000 26.16100
C  33.47300 0.80700 24.87800
N  33.86500 3.91900 30.62200
C  33.04100 3.99200 29.51100
C  31.78500 4.56700 29.86500
C  31.82900 4.70400 31.26300
C  33.13500 4.30900 31.67800
C  30.63300 4.83000 28.85400
C  31.14900 5.13000 32.44400
O  30.06600 5.61900 32.42400
C  32.13400 4.81600 33.65900
C  32.23700 6.02200 34.55300
O  33.04500 6.97400 34.39400
O  31.36800 5.88900 35.54800
C  31.38300 6.80300 36.66800
H  38.70100 2.88400 34.23300
H  38.75600 1.99900 27.65500
H  32.63700 3.56700 27.47100
H  34.58400 4.80900 35.66700
H  36.77900 2.71400 35.76400
H  38.01500 5.10900 35.16000
H  37.84500 4.48100 36.70200
H  36.69200 5.69800 36.13300
H  34.75800 1.83300 35.80300
H  33.30900 2.32000 35.06200
H  33.49300 2.07000 37.63100
H  32.28000 3.12100 36.94500
H  41.90700 2.02800 32.69800
H  40.99400 0.60100 32.95200
H  40.59300 2.14100 33.76700
H  42.50800 -0.21800 29.35900
H  41.87600 0.11800 31.00800
H  42.90700 1.34100 30.17400
H  36.81600 1.48500 26.15000
H  34.55800 3.08800 25.54900
H  37.38600 4.44500 26.56700
H  36.38700 4.28000 25.17900
H  37.92800 3.35600 25.31000
H  33.72700 0.75600 27.11000
H  35.01700 0.24400 26.10900
H  33.61900 1.62400 24.17100
H  32.39900 0.73000 25.04600
H  33.85300 -0.12600 24.46300
H  30.01500 5.66300 29.18900
H  30.03300 3.94300 29.05800
H  30.83300 4.95700 27.79000
H  31.69300 4.02000 34.26000
H  30.75000 7.67900 36.52300
H  32.37000 7.12800 36.99700
H  31.01700 6.10200 37.41900
Mg 41.61900 40.64100 26.23000
C  40.77100 43.20400 28.71200
C  42.83800 38.82900 28.76600
C  42.57900 38.54500 23.97700
C  40.59100 43.03700 23.93200
N  41.83200 40.99800 28.42800
C  41.29900 41.97400 29.21800
C  41.45900 41.60800 30.72300
C  42.35300 40.32600 30.71500
C  42.27300 40.00800 29.21300
C  43.82700 40.66200 31.28100
C  40.04800 41.52500 31.41400
C  39.80400 42.28600 32.63000
H  39.85700 41.43000 33.89400
N  42.64900 38.91700 26.39300
C  43.05100 38.32500 27.51500
C  43.76100 37.06300 27.18500
C  43.68800 36.89200 25.73400
C  42.98700 38.16800 25.28000
C  44.38600 36.18300 28.27900
C  44.13300 35.79000 24.82400
O  44.03100 35.92200 23.60800
C  44.68300 34.50600 25.45700
N  41.83800 40.89100 24.24800
C  42.10700 39.77500 23.51200
C  41.68000 39.95500 22.02000
C  41.10000 41.47000 22.03900
C  41.14800 41.85300 23.53000
C  42.77700 39.66100 20.92000
C  39.60800 41.63600 21.45700
C  39.35300 42.36700 20.12100
N  40.96000 42.74500 26.26400
C  40.57200 43.53300 25.24200
C  39.96000 44.77300 25.69900
C  40.01800 44.68800 27.09900
C  40.68500 43.47500 27.33300
C  39.25200 45.89400 24.86800
C  39.72400 45.39600 28.35000
O  39.13100 46.49500 28.51200
C  40.18400 44.38200 29.50400
C  41.14100 45.07200 30.52800
O  42.28500 44.83400 30.52400
O  40.45300 46.00300 31.32600
C  41.42000 46.65600 32.28100
H  43.02700 38.11000 29.56500
H  42.69600 37.86100 23.13400
H  40.02900 43.64800 23.22300
H  42.11600 42.34800 31.18100
H  41.77700 39.61400 31.30700
H  44.56800 40.20200 30.62800
H  43.87200 40.13000 32.23100
H  44.02800 41.72900 31.37400
H  40.02500 40.45200 31.60600
H  39.19700 41.64600 30.74400
H  38.76900 42.60800 32.51700
H  40.53600 43.09200 32.68400
H  45.42700 35.87800 28.17300
H  43.87800 35.22500 28.39100
H  44.27200 36.63900 29.26200
H  45.06800 33.86200 24.66600
H  43.84200 34.07400 25.99900
H  45.53600 34.72800 26.09800
H  40.92700 39.22400 21.72400
H  41.78600 42.09800 21.47100
H  43.66000 39.32600 21.46400
H  42.95600 40.46100 20.20100
H  42.48000 38.83500 20.27400
H  39.02000 42.14600 22.22000
H  39.16900 40.65100 21.30000
H  38.99000 41.61700 19.41800
H  40.28200 42.77600 19.72300
H  38.61000 43.16200 20.05900
H  38.87000 46.70100 25.49300
H  38.50600 45.35300 24.28500
H  39.97100 46.33200 24.17600
H  39.29000 44.07000 30.04300
H  40.86500 47.36900 32.89000
H  42.14600 47.33700 31.83800
H  41.95100 46.01900 32.98800

