158

Mg 36.37900 49.34900 26.23500
C  36.64800 47.48500 29.34200
C  35.43500 52.06300 28.04500
C  36.06600 50.81900 23.28700
C  37.66000 46.44600 24.59400
N  36.06000 49.68900 28.49600
C  36.31700 48.86200 29.54600
C  36.25900 49.61600 30.87900
C  35.86200 51.08200 30.41100
C  35.84900 50.98200 28.88000
C  34.64800 51.77200 31.09700
C  37.61400 49.59000 31.75200
C  37.70000 49.29700 33.31000
H  36.53200 49.60500 34.21300
N  35.68700 51.22600 25.75400
C  35.41500 52.21600 26.61500
C  35.11200 53.42300 25.89100
C  35.25900 53.09100 24.48100
C  35.68000 51.67900 24.42900
C  34.79400 54.77500 26.55200
C  35.21600 53.99500 23.27200
O  35.17000 53.50200 22.17500
C  35.16300 55.42400 23.51100
N  36.77600 48.63700 24.22200
C  36.64200 49.52600 23.17800
C  37.05600 48.87800 21.91700
C  37.80400 47.52800 22.30400
C  37.43600 47.54100 23.82000
C  36.01200 48.80900 20.77200
C  39.39100 47.47900 22.06500
C  39.94400 46.05800 21.85100
N  36.81800 47.37000 26.75000
C  37.35900 46.35600 25.95900
C  37.44300 45.16600 26.79600
C  37.20900 45.57900 28.07700
C  36.78500 46.92400 28.01500
C  37.94800 43.83000 26.38100
C  37.20600 45.11900 29.45400
O  37.59400 44.05800 29.93700
C  36.89600 46.35500 30.34700
C  35.83300 45.94500 31.27800
O  34.67600 45.43700 31.01500
O  36.16200 46.32400 32.54100
C  35.08100 46.20100 33.55600
H  35.20200 52.97100 28.60400
H  35.94500 51.38800 22.36300
H  38.03400 45.51900 24.15500
H  35.50100 49.11500 31.48200
H  36.75700 51.65700 30.64900
H  34.87700 52.62000 31.74300
H  34.06000 51.05300 31.66800
H  33.90900 52.16800 30.40100
H  38.15800 50.52800 31.64100
H  38.18900 48.77400 31.31300
H  38.57400 49.82400 33.69300
H  37.94300 48.24100 33.43000
H  35.65600 55.41400 26.74000
H  34.35100 54.58300 27.52900
H  34.05500 55.32800 25.97200
H  34.13700 55.72200 23.72400
H  35.54900 55.91300 22.61700
H  35.89600 55.66400 24.28100
H  37.87300 49.49400 21.54200
H  37.26300 46.69600 21.85400
H  35.62600 47.80300 20.61000
H  36.45900 49.03200 19.80300
H  35.15200 49.45800 20.93600
H  39.92200 47.82500 22.95200
H  39.68200 47.99700 21.15200
H  39.11600 45.35000 21.82000
H  40.63300 45.77100 22.64600
H  40.58100 45.83600 20.99500
H  37.71600 43.75800 25.31800
H  37.40700 43.11600 27.00200
H  39.03600 43.80100 26.43800
H  37.81000 46.56700 30.90100
H  34.71100 45.23100 33.88600
H  34.24900 46.79100 33.17200
H  35.35800 46.69500 34.48700
Mg -11.46400 16.88100 40.06100
C  -7.96300 16.36400 40.43400
C  -10.69700 20.31400 39.65000
C  -14.54200 17.51400 39.19300
C  -11.86000 13.36300 40.01600
N  -9.50300 18.18900 39.98000
C  -8.23200 17.68000 40.18200
C  -7.18600 18.82200 40.10700
C  -8.14300 20.09900 40.22700
C  -9.54400 19.51700 39.93700
C  -7.95400 20.90800 41.52500
C  -6.43600 19.03200 38.78400
C  -5.15700 18.23800 38.54000
H  -5.03500 17.03000 37.57900
N  -12.49400 18.66400 39.46400
C  -11.99200 19.92200 39.36100
C  -12.99200 20.81900 38.92400
C  -14.19300 20.07400 38.84500
C  -13.81100 18.70500 39.14500
C  -12.75800 22.26200 38.79000
C  -15.58300 20.63500 38.46600
O  -15.75700 21.85500 38.24900
C  -16.83700 19.83700 38.49700
N  -12.89600 15.63800 39.48700
C  -14.12300 16.16100 39.36700
C  -15.19500 14.99600 39.32000
C  -14.34200 13.71200 39.36100
C  -12.95200 14.25200 39.67100
C  -16.44200 15.10500 40.33500
C  -14.48600 12.84000 38.10800
C  -14.33000 11.31700 38.36100
N  -10.20200 15.12500 40.24000
C  -10.53100 13.80600 40.12900
C  -9.33700 13.06400 40.30800
C  -8.30300 14.03700 40.55300
C  -8.90900 15.32000 40.39600
C  -9.12700 11.65900 40.40100
C  -6.89800 14.21500 40.81300
O  -6.01500 13.39100 40.93400
C  -6.64700 15.76200 40.83800
C  -6.31900 15.99400 42.29300
O  -7.07100 16.19500 43.22700
O  -4.93500 15.80200 42.47600
C  -4.34100 15.99800 43.81300
H  -10.45100 21.36300 39.46900
H  -15.58200 17.61500 38.87500
H  -12.03200 12.28400 40.02800
H  -6.56900 18.66800 40.99200
H  -7.91700 20.83200 39.45300
H  -7.01900 21.46200 41.61900
H  -7.90700 20.13400 42.29100
H  -8.83500 21.54800 41.57000
H  -6.23700 20.10000 38.69000
H  -7.12900 18.75200 37.99100
H  -4.73400 18.03900 39.52400
H  -4.68500 19.10900 38.08400
H  -12.80900 22.67600 39.79700
H  -13.43800 22.75500 38.09600
H  -11.75100 22.58200 38.52500
H  -16.71300 19.12500 37.68100
H  -17.71800 20.45100 38.31100
H  -16.93700 19.29900 39.44000
H  -15.56500 15.18200 38.31200
H  -14.78800 13.22700 40.23000
H  -16.16800 15.87900 41.05200
H  -16.76400 14.25900 40.94200
H  -17.31500 15.42800 39.76800
H  -13.76000 13.20300 37.37900
H  -15.46200 13.02000 37.65700
H  -15.27100 10.91200 37.98900
H  -14.32400 11.13600 39.43500
H  -13.44400 10.94800 37.84500
H  -8.12600 11.27900 40.60300
H  -9.55000 11.30600 39.46000
H  -9.80100 11.21400 41.13300
H  -5.80300 15.96100 40.17800
H  -3.43600 16.58700 43.66300
H  -4.06400 14.97600 44.07100
H  -4.97800 16.37400 44.61300

