158

Mg 1.70300 -1.12900 43.88200
C  4.99400 0.02300 43.28600
C  0.60100 1.88500 42.75800
C  -1.38800 -2.47900 43.90400
C  3.11300 -4.24200 44.73600
N  2.72300 0.72800 43.19700
C  4.06900 0.95300 42.99700
C  4.33100 2.41400 42.64700
C  2.87600 3.01400 42.68300
C  1.94900 1.78600 42.82900
C  2.59300 4.14100 43.80100
C  5.02800 2.49300 41.23900
C  5.81100 3.70700 40.86500
H  5.52100 4.52200 39.55300
N  -0.14400 -0.32500 43.47900
C  -0.43800 0.93800 43.04300
C  -1.88900 1.08500 42.90200
C  -2.43900 -0.20900 43.19200
C  -1.27900 -1.06900 43.59900
C  -2.54200 2.35200 42.57000
C  -3.92000 -0.56900 43.19600
O  -4.73400 0.31900 42.76400
C  -4.53500 -1.84400 43.78400
N  0.90800 -3.11900 44.17800
C  -0.39800 -3.36200 44.26600
C  -0.68500 -4.85600 44.70200
C  0.78700 -5.39500 44.95100
C  1.68800 -4.20000 44.62200
C  -1.72500 -5.02300 45.83300
C  1.32200 -6.50900 44.08300
C  1.68500 -7.89200 44.77500
N  3.59400 -1.98400 43.99400
C  3.97600 -3.22600 44.48200
C  5.40900 -3.24700 44.51200
C  5.80900 -2.02000 44.06300
C  4.74500 -1.30500 43.70300
C  6.17900 -4.43300 44.85400
C  6.95000 -1.15600 43.88900
O  8.15700 -1.32000 44.05800
C  6.48400 0.16800 43.24800
C  7.00000 1.25200 44.14100
O  6.62400 1.39500 45.29100
O  7.86400 2.13800 43.53700
C  8.32100 3.31200 44.39700
H  0.22400 2.83500 42.37400
H  -2.42400 -2.72000 44.15100
H  3.60800 -5.14800 45.09300
H  4.93000 2.94500 43.38700
H  2.71600 3.47800 41.71000
H  3.49400 4.36200 44.37400
H  1.89600 3.82400 44.57700
H  2.31900 5.09100 43.34100
H  4.23200 2.49500 40.49400
H  5.57100 1.57600 41.01200
H  6.83800 3.44100 40.61600
H  5.87000 4.39100 41.71100
H  -1.82200 3.14700 42.37600
H  -3.20800 2.55000 43.41000
H  -3.25700 2.24000 41.75500
H  -5.59500 -1.59600 43.72600
H  -4.20600 -2.09200 44.79300
H  -4.30000 -2.72500 43.18600
H  -0.96900 -5.52400 43.88900
H  1.02300 -5.56100 46.00300
H  -2.26000 -4.09600 46.03800
H  -1.17500 -5.40300 46.69400
H  -2.57800 -5.67700 45.64600
H  2.15100 -6.33000 43.39800
H  0.54700 -6.83800 43.39100
H  0.79400 -8.46000 45.04300
H  2.23700 -7.74800 45.70300
H  2.31600 -8.53200 44.15800
H  5.97700 -5.26100 44.17500
H  6.05500 -4.71100 45.90100
H  7.23800 -4.17600 44.84000
H  6.89500 0.23200 42.24000
H  8.52900 3.13900 45.45300
H  7.58500 4.10200 44.54600
H  9.18600 3.77500 43.92200
Mg -1.94800 34.70900 26.49600
C  -3.93100 33.30200 29.08300
C  -0.69700 36.92600 28.78200
C  -0.60400 36.32000 23.89400
C  -3.70600 32.82000 24.23200
N  -2.37500 35.14200 28.71300
C  -3.06700 34.34900 29.53200
C  -2.81500 34.71900 31.00700
C  -1.85800 36.02300 30.90600
C  -1.59300 36.06900 29.41000
C  -2.29800 37.34900 31.46400
C  -2.17000 33.54300 31.81000
C  -1.57000 33.90000 33.20200
H  -2.49200 33.70700 34.41700
N  -0.83100 36.38400 26.36100
C  -0.39000 37.15900 27.41300
C  0.54500 38.08800 26.88200
C  0.62500 37.89100 25.47900
C  -0.28100 36.78400 25.16800
C  1.21700 39.16100 27.67800
C  1.57200 38.58800 24.51200
O  1.35800 38.57100 23.26900
C  2.81600 39.27500 25.07900
N  -2.15100 34.58600 24.31200
C  -1.51400 35.36700 23.51000
C  -1.74500 35.01500 22.01200
C  -2.81600 33.90000 22.12100
C  -2.91300 33.73900 23.64500
C  -2.10900 36.28100 21.12200
C  -2.48200 32.53700 21.45300
C  -1.16500 31.90000 22.02700
N  -3.51400 33.37300 26.56200
C  -4.15700 32.70300 25.54200
C  -5.14700 31.75500 26.03000
C  -5.08000 31.98800 27.39200
C  -4.16000 32.96000 27.70600
C  -6.05100 30.97000 25.26700
C  -5.53600 31.48200 28.71700
O  -6.22900 30.58800 28.94900
C  -4.85400 32.35200 29.82700
C  -5.75800 33.17000 30.69900
O  -6.68600 33.79600 30.28300
O  -5.46800 32.96600 32.01300
C  -6.44800 33.55900 32.99800
H  -0.04400 37.49200 29.45000
H  -0.36800 36.94000 23.02700
H  -4.15100 32.11100 23.53100
H  -3.75500 34.98700 31.49000
H  -0.82700 35.93300 31.24800
H  -1.48200 37.81700 32.01500
H  -3.13500 37.25200 32.15500
H  -2.53500 37.91200 30.56200
H  -1.37500 33.22400 31.13600
H  -2.95000 32.83800 32.09700
H  -1.46800 34.98600 33.19800
H  -0.62200 33.37100 33.30100
H  0.72700 39.33400 28.63600
H  1.24600 40.12300 27.16600
H  2.20900 38.78300 27.92700
H  2.73000 40.36100 25.11900
H  3.49900 39.04400 24.26100
H  3.28600 38.73800 25.90200
H  -0.86800 34.57500 21.53800
H  -3.79200 34.22400 21.75900
H  -2.12500 37.19800 21.71100
H  -3.08100 36.20400 20.63400
H  -1.45100 36.47400 20.27500
H  -2.25700 32.84600 20.43200
H  -3.29200 31.80900 21.49700
H  -0.40200 31.96900 21.25200
H  -1.43900 30.87700 22.28500
H  -0.77300 32.28400 22.96800
H  -5.54600 30.00600 25.20900
H  -6.13200 31.36400 24.25400
H  -7.06900 30.84800 25.63700
H  -4.23300 31.73100 30.47300
H  -7.32600 32.92200 33.09900
H  -6.85700 34.48800 32.59900
H  -6.12000 33.68400 34.03000

