158

Mg 15.80500 -2.29300 27.88800
C  15.06900 -0.20100 30.56900
C  17.85500 -4.09800 30.11400
C  17.27100 -3.92000 25.33600
C  14.77400 0.17800 25.64600
N  16.53900 -1.99200 30.08200
C  15.97300 -1.21500 30.97700
C  16.36700 -1.56400 32.37300
C  17.54200 -2.55600 32.18600
C  17.24400 -3.01100 30.76700
C  19.05200 -2.02300 32.27100
C  15.13500 -2.11200 33.21800
C  14.81300 -1.27000 34.50100
H  15.89600 -0.87700 35.48500
N  17.09200 -3.99200 27.74200
C  17.90100 -4.53400 28.78100
C  18.62300 -5.67200 28.24500
C  18.41900 -5.67000 26.83800
C  17.55300 -4.50000 26.57400
C  19.47200 -6.53300 29.07200
C  18.95200 -6.57700 25.77400
O  18.75300 -6.37100 24.60600
C  19.80600 -7.75200 26.16300
N  15.82600 -1.97700 25.82800
C  16.56200 -2.78100 24.98400
C  16.48300 -2.31000 23.53200
C  15.58900 -1.06900 23.58500
C  15.35000 -0.96200 25.09200
C  17.80700 -2.13000 22.82300
C  14.41500 -0.94000 22.62100
C  13.27100 -1.84000 23.08800
N  14.97200 -0.40500 27.95100
C  14.48800 0.42200 27.00700
C  13.66900 1.44200 27.68900
C  13.89200 1.27800 29.10000
C  14.74600 0.17300 29.19300
C  12.68800 2.36300 27.00300
C  13.56300 1.78200 30.38900
O  12.75200 2.63500 30.64700
C  14.35400 0.90700 31.37900
C  15.22100 1.92100 32.14900
O  16.15200 2.51600 31.67400
O  14.62000 2.33200 33.33500
C  15.30200 3.43800 34.06600
H  18.46300 -4.72000 30.77500
H  17.73500 -4.41100 24.47800
H  14.30100 0.76900 24.85800
H  16.65700 -0.61600 32.82600
H  17.41200 -3.28800 32.98300
H  19.66900 -2.58300 32.97500
H  19.04300 -0.99200 32.62500
H  19.56300 -2.00200 31.30800
H  15.25400 -3.09900 33.66600
H  14.17100 -1.99000 32.72400
H  13.97500 -1.78300 34.97200
H  14.26200 -0.39400 34.15900
H  19.49100 -7.56500 28.72000
H  19.02400 -6.54500 30.06600
H  20.45300 -6.11400 29.29600
H  20.83000 -7.52200 26.45900
H  20.01400 -8.27500 25.23000
H  19.34900 -8.44200 26.87200
H  15.92500 -3.14100 23.10000
H  16.12500 -0.13200 23.43200
H  17.99700 -1.09900 22.52500
H  17.64600 -2.56900 21.83800
H  18.67200 -2.58300 23.30600
H  14.64100 -1.22600 21.59400
H  14.13100 0.10700 22.51600
H  12.34700 -1.32200 23.34600
H  13.49300 -2.48600 23.93700
H  13.11300 -2.48200 22.22100
H  12.32500 3.09700 27.72300
H  11.81000 1.80500 26.67700
H  13.18800 2.92700 26.21500
H  13.57400 0.48000 32.00900
H  14.52700 3.99400 34.59300
H  15.88800 4.15800 33.49400
H  15.96400 3.10800 34.86700
Mg 49.80000 46.30600 41.98400
C  46.90500 48.06800 41.11700
C  48.56700 43.60300 40.26100
C  52.78200 44.89400 41.95500
C  51.20600 49.31800 43.17000
N  47.81600 45.88100 40.95200
C  46.79100 46.73000 40.72300
C  45.65500 46.01900 39.92800
C  46.33300 44.58400 39.75100
C  47.68900 44.63400 40.34200
C  45.47500 43.42600 40.26800
C  45.29900 46.71300 38.53300
C  43.97800 46.19000 37.88900
H  44.00500 45.02500 36.90100
N  50.49400 44.38100 41.43900
C  49.80700 43.41200 40.79900
C  50.64500 42.24100 40.65300
C  51.94700 42.61700 41.11000
C  51.78200 44.01200 41.57100
C  50.15800 40.85800 40.04000
C  53.09100 41.69100 41.24300
O  53.00500 40.49700 40.80200
C  54.37600 41.96400 41.95600
N  51.75700 47.08600 42.54900
C  52.84500 46.25200 42.36900
C  54.08800 47.07400 42.76800
C  53.58400 48.47100 43.18200
C  52.10000 48.30000 43.02900
C  55.08300 46.27700 43.65200
C  54.32600 49.72000 42.49700
C  55.71500 50.06700 43.16700
N  49.16000 48.27200 42.18600
C  49.88900 49.36000 42.69700
C  48.90600 50.50600 42.79600
C  47.76000 49.98200 42.21100
C  47.94100 48.63400 41.85800
C  49.09100 51.91200 43.31200
C  46.40900 50.31600 41.83000
O  45.76100 51.31200 41.95700
C  45.93600 49.12000 40.93900
C  44.67300 48.63300 41.45400
O  44.48900 48.14300 42.55100
O  43.73700 48.68700 40.47600
C  42.36400 48.42000 41.03400
H  48.11200 42.73500 39.77900
H  53.73500 44.36500 41.89000
H  51.66300 50.25700 43.49000
H  44.77400 46.05500 40.56800
H  46.42200 44.34500 38.69100
H  45.33300 42.73000 39.44100
H  44.49900 43.74800 40.63200
H  46.09100 42.90100 40.99900
H  46.12100 46.43400 37.87400
H  45.36900 47.79900 38.57700
H  43.46000 47.04300 37.45000
H  43.31500 45.80300 38.66200
H  50.78700 40.69100 39.16500
H  49.09400 40.80000 39.81200
H  50.25300 40.06900 40.78600
H  54.92500 41.02200 41.94400
H  54.15200 42.34200 42.95400
H  54.98000 42.62500 41.33600
H  54.62900 47.36600 41.86900
H  53.65800 48.61900 44.25900
H  54.48800 45.43800 44.01100
H  55.43400 46.81800 44.53000
H  55.85100 45.91800 42.96700
H  53.62200 50.54800 42.58500
H  54.53500 49.51500 41.44700
H  56.53900 50.11900 42.45600
H  55.96400 49.30200 43.90200
H  55.61300 51.02600 43.67500
H  50.01500 52.34500 42.92900
H  49.14300 51.85000 44.39900
H  48.29400 52.48700 42.84100
H  45.82400 49.49600 39.92200
H  42.24500 47.68100 41.82600
H  41.93300 47.92700 40.16200
H  41.91800 49.40200 41.19200

