158

Mg 44.96600 3.09200 47.20900
C  42.99900 5.97000 46.77200
C  42.07800 1.14500 46.74300
C  46.99400 0.36900 46.61200
C  47.85000 5.18400 46.72500
N  42.80700 3.53800 46.80000
C  42.27400 4.76900 46.78900
C  40.74500 4.64000 46.39800
C  40.38500 3.09000 46.62400
C  41.83300 2.52200 46.79800
C  39.54000 2.97000 47.94500
C  40.40500 5.17400 44.94400
C  39.21200 6.20800 44.81400
H  38.29500 6.04200 43.68700
N  44.57500 1.08400 46.96500
C  43.34500 0.47200 46.89100
C  43.55300 -0.99600 46.83800
C  44.94800 -1.25200 46.81700
C  45.59700 0.09900 46.87400
C  42.34700 -1.93100 46.76500
C  45.59800 -2.63500 46.65900
O  44.92100 -3.65700 46.86100
C  46.90200 -2.81700 46.24100
N  47.10100 2.81900 46.72400
C  47.67000 1.59400 46.62100
C  49.22000 1.73600 46.38600
C  49.51200 3.25000 46.40200
C  48.06600 3.78800 46.63500
C  50.00000 0.90800 47.38900
C  50.13600 3.80500 45.08000
C  51.04100 4.94800 45.19200
N  45.45900 5.14500 47.04200
C  46.63600 5.86900 46.93500
C  46.35300 7.33700 46.82900
C  44.92000 7.40800 46.77700
C  44.42600 6.05400 46.88000
C  47.29800 8.41400 46.52400
C  43.70900 8.28100 46.60600
O  43.61500 9.49200 46.54500
C  42.46800 7.40500 46.52400
C  41.64300 7.90600 47.68700
O  41.75900 7.49600 48.79500
O  40.84500 8.99600 47.22500
C  40.15600 9.74400 48.33100
H  41.19000 0.52200 46.61700
H  47.74800 -0.39100 46.40000
H  48.77100 5.71100 46.46700
H  40.08700 5.25800 47.00900
H  39.93900 2.66500 45.72600
H  40.15700 2.53200 48.73100
H  38.69200 2.36900 47.61800
H  39.24300 3.95400 48.30900
H  40.10500 4.32600 44.32900
H  41.31900 5.66700 44.61100
H  39.54300 7.24200 44.71800
H  38.63500 6.19200 45.73900
H  42.63100 -2.70600 46.05300
H  41.39300 -1.54700 46.40300
H  42.24400 -2.41700 47.73500
H  47.11600 -2.24500 45.33900
H  47.12500 -3.84400 45.95200
H  47.60500 -2.55700 47.03200
H  49.25400 1.35400 45.36600
H  50.14600 3.47100 47.26100
H  49.35500 0.25500 47.97700
H  50.61800 1.49500 48.06800
H  50.59400 0.15400 46.87200
H  49.36600 4.00200 44.33400
H  50.61200 2.92300 44.65100
H  50.92200 5.37900 46.18600
H  50.62100 5.79600 44.65000
H  52.04500 4.66700 44.87300
H  48.10900 8.48800 47.24900
H  46.73700 9.34800 46.54900
H  47.69100 8.32500 45.51200
H  41.97200 7.45900 45.55400
H  39.24700 9.22500 48.63500
H  39.86500 10.74000 47.99700
H  40.74400 9.84600 49.24300
Mg 53.75600 24.07000 45.12800
C  51.11400 26.08000 43.76100
C  52.72600 21.41000 43.30400
C  56.69800 22.73200 45.70900
C  54.94600 27.23000 46.49700
N  52.28600 23.84700 43.49400
C  51.27300 24.76000 43.26500
C  50.19500 24.13400 42.43100
C  50.44800 22.54000 42.63300
C  51.90900 22.56800 43.18500
C  49.43500 21.97600 43.68700
C  50.28900 24.54600 40.93900
C  48.89600 24.80400 40.26800
H  48.51100 23.80100 39.20700
N  54.58000 22.26900 44.60800
C  53.99700 21.29200 43.87300
C  54.86600 20.16700 43.86900
C  56.03700 20.49400 44.67800
C  55.78900 21.85800 45.07600
C  54.58200 18.88700 43.11800
C  57.26300 19.58000 44.96400
O  57.21500 18.40800 44.61100
C  58.52100 20.12700 45.67300
N  55.50300 24.88500 45.93500
C  56.57800 24.05000 46.06500
C  57.72600 24.85400 46.73100
C  57.21200 26.26900 46.63900
C  55.77000 26.14000 46.34900
C  58.18000 24.30700 48.08400
C  57.94900 27.20700 45.56700
C  58.55000 28.44300 46.26300
N  53.05200 26.21000 45.40100
C  53.62700 27.25800 46.02800
C  52.71100 28.32900 46.02000
C  51.72700 27.97100 45.08100
C  52.06100 26.65000 44.68900
C  52.84700 29.54800 46.77200
C  50.40900 28.34100 44.47900
O  49.75100 29.36200 44.57200
C  49.96600 27.04900 43.62000
C  49.66200 27.45400 42.22200
O  50.37100 27.89600 41.31800
O  48.34800 27.45000 42.18800
C  47.63800 28.08400 41.01100
H  52.28900 20.47600 42.94400
H  57.68400 22.36000 45.99300
H  55.22600 28.14500 47.02400
H  49.22800 24.42400 42.84300
H  50.35400 21.96200 41.71400
H  49.08900 22.82000 44.28300
H  50.03200 21.35100 44.35100
H  48.59000 21.41800 43.28300
H  50.80100 23.73000 40.42900
H  50.98600 25.37400 40.80800
H  48.95200 25.81300 39.85900
H  48.09000 24.66600 40.98900
H  53.82400 19.15800 42.38300
H  54.21300 18.13900 43.82000
H  55.43300 18.42400 42.61700
H  58.99300 21.02300 45.27200
H  59.27200 19.33800 45.61900
H  58.33200 20.19600 46.74400
H  58.57900 24.70200 46.07000
H  57.26400 26.70200 47.63800
H  58.44500 25.09600 48.78800
H  59.12800 23.79000 47.93600
H  57.46200 23.64900 48.57400
H  57.11700 27.55300 44.95300
H  58.73000 26.69200 45.00800
H  57.90000 29.27200 45.98200
H  59.48300 28.70000 45.76200
H  58.73600 28.30500 47.32800
H  51.90200 29.98400 47.09600
H  53.39100 30.24200 46.13100
H  53.46800 29.46500 47.66400
H  49.02100 26.74600 44.07300
H  47.97800 29.10400 40.83000
H  46.57100 28.10900 41.23200
H  47.78200 27.57400 40.05900

