158

Mg 0.93600 8.01500 24.91400
C  2.04300 9.93600 27.68800
C  0.69000 5.34700 26.92600
C  0.65200 6.24700 22.22300
C  1.35600 10.97800 22.92400
N  1.58700 7.68600 27.07100
C  1.81600 8.63300 27.99500
C  1.70400 8.05300 29.42000
C  1.61400 6.53500 29.12700
C  1.20100 6.50700 27.62300
C  2.96300 5.74600 29.28900
C  0.56900 8.65800 30.38200
C  1.05200 9.13500 31.71100
H  2.01300 8.28600 32.49100
N  0.57100 6.15900 24.54400
C  0.41700 5.16600 25.53100
C  0.20800 3.84200 24.81200
C  0.33300 4.08900 23.40800
C  0.45600 5.55900 23.36000
C  -0.00500 2.45300 25.53500
C  0.19800 3.13000 22.18900
O  0.27700 3.52700 21.04600
C  -0.08900 1.59600 22.46400
N  1.01600 8.56600 22.83400
C  0.91400 7.60000 21.89100
C  1.34800 8.23300 20.51900
C  1.19700 9.71900 20.70400
C  1.18300 9.79900 22.18900
C  2.76500 7.71200 20.22600
C  -0.13100 10.31700 20.13400
C  -1.52500 9.63900 20.38200
N  1.48700 10.08700 25.17500
C  1.59800 11.12000 24.27900
C  1.98300 12.33900 25.06300
C  2.03000 11.96600 26.40900
C  1.89300 10.53900 26.40100
C  2.13400 13.71200 24.46800
C  2.29900 12.43300 27.73000
O  2.50900 13.53400 28.17300
C  2.21000 11.12800 28.64300
C  3.31900 11.06300 29.54300
O  4.41900 10.48100 29.41200
O  3.08300 11.96300 30.57300
C  4.27100 12.07600 31.47800
H  0.54200 4.50200 27.60300
H  0.62100 5.82500 21.21600
H  1.52100 11.86700 22.31000
H  2.60500 8.32400 29.97000
H  0.74600 6.10000 29.62200
H  2.73000 4.86600 29.88900
H  3.68600 6.36700 29.81600
H  3.36500 5.43000 28.32700
H  -0.16300 7.86900 30.55500
H  0.17800 9.56000 29.91100
H  0.20300 9.39000 32.34500
H  1.49000 10.13200 31.66900
H  -0.82600 1.87000 25.11700
H  -0.18100 2.54500 26.60700
H  0.83800 1.80000 25.30800
H  0.78000 1.05700 22.84200
H  -0.42300 1.14700 21.52900
H  -0.93000 1.52600 23.15300
H  0.61300 8.01900 19.74300
H  2.05800 10.21500 20.25600
H  3.24100 7.06500 20.96200
H  3.44500 8.53000 19.99300
H  2.69500 7.21800 19.25700
H  0.11900 10.49900 19.08900
H  -0.29300 11.26700 20.64300
H  -1.41000 8.70600 20.93400
H  -1.91200 9.52700 19.37000
H  -2.24200 10.29600 20.87400
H  1.19000 14.01700 24.01600
H  2.91800 13.59100 23.72100
H  2.35700 14.36700 25.31000
H  1.32800 11.32600 29.25200
H  3.93000 12.75800 32.25700
H  5.13800 12.46900 30.94700
H  4.47800 11.12300 31.96700
Mg 8.80200 48.06400 28.48100
C  7.25000 47.19100 31.49900
C  11.82600 47.93800 30.18300
C  10.25700 49.00300 25.58300
C  5.71000 48.59100 27.05800
N  9.41300 47.88500 30.67700
C  8.66000 47.34900 31.67800
C  9.47000 47.28700 33.03400
C  10.94000 47.58700 32.59600
C  10.72000 47.86200 31.04800
C  11.70500 48.77400 33.33000
C  9.29800 45.91000 33.70400
C  10.30900 45.41800 34.78300
H  9.81700 44.94900 36.23900
N  10.66000 48.43000 27.96400
C  11.85000 48.27600 28.81700
C  13.00300 48.33500 27.94100
C  12.57500 48.65100 26.63800
C  11.13700 48.65500 26.64900
C  14.45100 48.17100 28.45400
C  13.38700 48.90600 25.33300
O  12.89800 49.21200 24.23200
C  14.86600 48.82600 25.50200
N  8.09100 48.66300 26.62400
C  8.82900 49.06100 25.54400
C  8.05800 49.49800 24.30800
C  6.60800 49.29500 24.78000
C  6.82600 48.92100 26.26500
C  8.26200 50.98200 23.88800
C  5.88200 48.16900 24.08700
C  5.61700 48.28700 22.53300
N  6.83700 47.82500 29.07100
C  5.65900 48.05200 28.37000
C  4.54900 47.64200 29.17000
C  5.10500 47.34300 30.46300
C  6.49000 47.49900 30.34000
C  3.16000 47.42400 28.66900
C  4.77600 47.01300 31.83500
O  3.69600 46.94800 32.34500
C  6.19300 46.73800 32.59600
C  6.22000 45.33100 32.95300
O  6.65100 44.38900 32.23400
O  5.87400 45.25400 34.32700
C  6.02600 43.98900 35.02300
H  12.75500 47.66800 30.69000
H  10.62400 49.30900 24.60100
H  4.73200 48.75300 26.60100
H  9.06500 48.14400 33.57300
H  11.55200 46.69800 32.74700
H  12.77100 48.70200 33.11000
H  11.76400 48.71800 34.41700
H  11.30000 49.73900 33.02700
H  9.38700 45.20700 32.87600
H  8.34900 45.76900 34.22200
H  11.06000 46.17700 35.00200
H  10.90100 44.57400 34.42900
H  15.04600 49.08400 28.45600
H  14.90600 47.39200 27.84200
H  14.46100 47.90900 29.51200
H  15.23000 48.99400 24.48900
H  15.19700 47.84600 25.84500
H  15.19200 49.74100 25.99700
H  8.29500 48.87600 23.44500
H  5.98100 50.18600 24.81000
H  8.59700 51.00800 22.85100
H  8.98200 51.42700 24.57500
H  7.36300 51.59500 23.95100
H  5.02300 47.90700 24.70500
H  6.58400 47.33500 24.05500
H  6.25900 49.01100 22.03000
H  4.54200 48.43400 22.42800
H  5.85700 47.33100 22.06800
H  2.57000 46.88300 29.40900
H  3.08400 46.82700 27.75900
H  2.60300 48.34000 28.47100
H  6.22000 47.41900 33.44700
H  5.12900 43.39800 34.84200
H  5.97300 44.23900 36.08200
H  6.95400 43.50500 34.72000

