158

Mg 53.60500 24.19700 44.92900
C  51.35600 26.59200 44.03600
C  51.82100 21.87900 43.14500
C  56.19300 22.02800 45.12400
C  55.65900 26.66300 46.31100
N  51.97900 24.30100 43.48900
C  51.10600 25.36200 43.37600
C  49.87100 25.02200 42.59600
C  49.91500 23.42500 42.59800
C  51.31200 23.15800 43.19100
C  48.79100 22.70800 43.48500
C  49.85200 25.56300 41.13300
C  51.20600 26.01100 40.45400
H  51.96000 24.98300 39.61400
N  53.94900 22.15900 44.34600
C  53.00700 21.37900 43.68000
C  53.53600 20.02300 43.74600
C  54.81500 20.14100 44.41700
C  55.01700 21.44600 44.65600
C  52.79700 18.75000 43.25100
C  55.63100 18.93600 44.84300
O  55.43000 17.84200 44.34400
C  56.71000 18.95600 45.92900
N  55.68500 24.34100 45.40100
C  56.55500 23.29300 45.48800
C  57.92600 23.68300 46.04100
C  57.61600 25.07300 46.66200
C  56.20100 25.38000 46.10900
C  58.58400 22.74100 47.07200
C  58.59900 26.21200 46.34500
C  58.48900 26.89500 44.98500
N  53.52400 26.19500 45.20100
C  54.30600 27.03600 45.89800
C  53.65700 28.30500 46.18200
C  52.43900 28.10500 45.51800
C  52.42200 26.88700 44.89000
C  53.99000 29.40900 47.06600
C  51.18500 28.70800 45.23400
O  50.68800 29.78800 45.51500
C  50.37200 27.75000 44.24000
C  50.07000 28.53500 42.99100
O  50.79600 28.72900 42.06900
O  48.75800 28.62800 42.98100
C  48.09100 28.96100 41.72500
H  51.12300 21.15200 42.72600
H  56.93400 21.25300 45.32900
H  56.20700 27.35900 46.95000
H  49.01900 25.36500 43.18200
H  49.77200 22.96600 41.62000
H  48.86400 23.15700 44.47600
H  48.94200 21.62900 43.46400
H  47.74500 22.84000 43.20900
H  49.26900 26.47900 41.03300
H  49.29100 24.85100 40.52800
H  51.94600 26.30300 41.19900
H  51.15900 26.87500 39.79100
H  52.13900 18.94700 42.40500
H  52.14900 18.37100 44.04100
H  53.54500 18.06100 42.85800
H  56.80700 17.98300 46.41200
H  56.23900 19.63400 46.64000
H  57.60200 19.21700 45.35900
H  58.65600 23.78000 45.23700
H  57.41100 25.09400 47.73300
H  59.59200 22.43800 46.79100
H  57.99100 21.83600 47.21000
H  58.71600 23.21600 48.04300
H  59.58300 25.90500 46.70000
H  58.42100 27.00900 47.06600
H  58.01400 26.18900 44.30300
H  59.50800 27.14500 44.68900
H  57.82300 27.75600 44.92200
H  54.09600 29.18400 48.12700
H  53.24400 30.20300 47.08700
H  54.91800 29.85200 46.70400
H  49.47600 27.46200 44.79000
H  47.51000 29.86600 41.90400
H  47.50600 28.05500 41.56600
H  48.76000 29.23200 40.90800
Mg -2.26500 34.25700 25.51800
C  -4.04000 32.79200 28.14900
C  -0.67100 36.28400 27.74400
C  -0.77300 35.80800 22.92200
C  -4.12700 32.28600 23.27500
N  -2.50400 34.67900 27.68800
C  -3.16900 33.80600 28.54700
C  -2.74400 34.05400 30.04500
C  -1.93700 35.44100 29.96000
C  -1.68600 35.49300 28.44500
C  -2.46400 36.74100 30.55100
C  -1.97700 32.83600 30.76000
C  -2.77100 32.14400 31.92000
H  -2.04500 31.89700 33.27300
N  -0.97000 35.80400 25.32700
C  -0.35200 36.44400 26.38700
C  0.66500 37.39800 25.89600
C  0.69600 37.13900 24.51700
C  -0.34800 36.20100 24.17200
C  1.55300 38.20200 26.76100
C  1.71600 37.60300 23.53500
O  1.75800 37.26500 22.33900
C  2.82000 38.50800 23.91000
N  -2.47100 34.11200 23.39500
C  -1.67000 34.80500 22.54500
C  -1.94500 34.37700 21.05500
C  -2.88400 33.21000 21.17600
C  -3.21900 33.22300 22.65200
C  -2.37400 35.50200 20.07600
C  -2.37800 31.76600 20.70100
C  -1.54600 30.86900 21.56700
N  -3.82000 32.89600 25.62100
C  -4.36500 32.08700 24.64600
C  -5.34300 31.17000 25.32400
C  -5.21000 31.45500 26.73000
C  -4.33200 32.44800 26.84400
C  -6.24700 30.15600 24.60400
C  -5.71600 31.11800 27.98800
O  -6.52200 30.28900 28.33700
C  -4.91900 31.93300 28.98800
C  -5.87800 32.67700 29.82000
O  -6.18200 33.79200 29.56400
O  -6.08800 32.03400 30.98500
C  -6.83900 32.80100 32.03600
H  -0.05300 36.66500 28.56000
H  -0.25700 36.23200 22.05800
H  -4.80200 31.75600 22.60000
H  -3.64000 34.14400 30.65900
H  -0.93500 35.33800 30.37600
H  -3.34400 36.56900 31.17000
H  -2.67100 37.44300 29.74300
H  -1.69400 37.18300 31.18400
H  -1.01400 33.23200 31.08400
H  -1.65900 32.22300 29.91700
H  -3.05600 31.15200 31.56800
H  -3.69300 32.69000 32.11600
H  2.55500 37.78500 26.66200
H  1.26400 38.20400 27.81200
H  1.62800 39.28000 26.62200
H  2.44900 39.28000 24.58500
H  3.13200 39.11700 23.06100
H  3.75700 38.05800 24.23700
H  -1.05200 33.90000 20.65000
H  -3.81800 33.42600 20.65700
H  -1.58800 35.99300 19.50300
H  -2.85600 36.31900 20.61300
H  -3.18000 35.24900 19.38800
H  -1.76200 31.99900 19.83200
H  -3.23700 31.27100 20.24800
H  -0.67600 30.64200 20.95100
H  -2.04500 29.93100 21.81000
H  -1.27500 31.37600 22.49300
H  -5.79000 30.01600 23.62500
H  -7.20700 30.59200 24.32800
H  -6.28500 29.26200 25.22700
H  -4.27300 31.24900 29.53800
H  -6.49400 33.81000 32.26000
H  -6.72500 32.32800 33.01200
H  -7.88300 32.83300 31.72400

