158

Mg 29.13600 56.66400 41.21000
C  26.38800 54.85200 39.77000
C  31.21600 54.44300 39.92000
C  31.39900 59.14800 41.27600
C  26.67900 59.21900 41.91400
N  28.79000 54.95700 39.77200
C  27.67300 54.30700 39.52300
C  28.05700 53.05000 38.65200
C  29.49800 52.64500 39.23100
C  29.88100 54.10200 39.65900
C  29.49400 51.60200 40.38400
C  28.10900 53.49900 37.16000
C  27.02600 52.89300 36.25600
H  26.34500 53.80800 35.25700
N  31.03400 56.68100 40.88300
C  31.72700 55.64500 40.33100
C  33.12200 56.01400 40.41400
C  33.21900 57.35400 40.74900
C  31.86900 57.80900 40.97600
C  34.21800 54.99200 40.01400
C  34.55500 58.07500 40.69900
O  35.63400 57.57000 40.41400
C  34.66700 59.48200 41.00000
N  29.08300 58.92800 41.57300
C  30.18300 59.65100 41.64900
C  29.93900 61.08800 42.06400
C  28.41800 61.03600 42.50000
C  28.03300 59.66400 41.89900
C  30.92300 61.60000 43.16500
C  27.56300 62.23400 41.92600
C  26.80600 62.99600 42.93000
N  27.00300 57.01800 40.98300
C  26.17100 58.04000 41.35600
C  24.74500 57.77100 41.02600
C  24.85800 56.42200 40.52000
C  26.25400 56.06700 40.44300
C  23.57700 58.64700 41.31300
C  24.08700 55.33300 40.02600
O  22.88400 55.24200 39.86000
C  25.00400 54.23100 39.52500
C  24.75800 53.10400 40.32400
O  25.27500 52.86300 41.41200
O  23.90100 52.15200 39.64100
C  23.58300 50.98600 40.49900
H  31.92400 53.64800 39.67700
H  32.14000 59.94700 41.34100
H  26.00900 60.01900 42.23700
H  27.38100 52.19900 38.74000
H  30.10500 52.37700 38.36700
H  29.83100 50.64100 39.99600
H  28.54700 51.50700 40.91500
H  30.12400 51.86500 41.23400
H  29.05800 53.27300 36.67600
H  27.89600 54.56800 37.16900
H  26.32000 52.30600 36.84200
H  27.51200 52.14400 35.63000
H  34.68200 55.35500 39.09700
H  33.79000 54.00700 39.82200
H  34.95500 54.85700 40.80500
H  34.09100 60.14000 40.34900
H  35.71500 59.74100 41.15700
H  34.31900 59.57100 42.02900
H  30.14500 61.62200 41.13600
H  28.31600 60.82500 43.56500
H  31.52600 62.38600 42.71000
H  31.61000 60.90200 43.64500
H  30.24000 62.11800 43.83700
H  26.88600 61.79400 41.19400
H  28.19700 62.84300 41.28200
H  26.89600 62.59000 43.93700
H  25.76800 62.80800 42.65400
H  27.10100 64.04100 42.83700
H  23.10200 58.53400 42.28800
H  22.87600 58.43400 40.50600
H  23.94000 59.66300 41.15800
H  24.79800 54.02100 38.47500
H  23.55300 51.25300 41.55600
H  24.34600 50.21500 40.39400
H  22.65100 50.49400 40.21800
Mg -13.03000 39.06300 41.59900
C  -11.43500 36.11500 40.25400
C  -10.53400 40.94900 40.07000
C  -14.94000 41.84700 42.07800
C  -15.71900 37.05300 42.41500
N  -11.16000 38.52900 40.23000
C  -10.73100 37.30700 39.82300
C  -9.38300 37.39200 39.04200
C  -9.22800 38.95500 38.86500
C  -10.45700 39.56500 39.71400
C  -7.84900 39.44300 39.34600
C  -9.28300 36.57600 37.64400
C  -8.09700 35.60000 37.57100
H  -7.01400 36.00100 36.60800
N  -12.69500 41.10100 41.33000
C  -11.62100 41.68800 40.70200
C  -11.75200 43.15200 40.73900
C  -12.94200 43.44300 41.40700
C  -13.57800 42.11500 41.65500
C  -10.73900 44.18800 40.13800
C  -13.38900 44.83700 41.74100
O  -12.65900 45.77100 41.50700
C  -14.80700 45.21500 42.28900
N  -15.06700 39.33600 42.10200
C  -15.62600 40.63000 42.26500
C  -17.11800 40.52900 42.64400
C  -17.22600 39.07100 43.07300
C  -15.95800 38.42400 42.47700
C  -17.67900 41.52100 43.68300
C  -18.56000 38.34700 42.62800
C  -19.25300 37.39600 43.58500
N  -13.52300 36.98200 41.43100
C  -14.61700 36.28500 41.88200
C  -14.42300 34.90300 41.84800
C  -13.21700 34.75500 41.13900
C  -12.72200 36.06300 40.92200
C  -15.24800 33.85500 42.47100
C  -12.20500 33.82500 40.67900
O  -12.03500 32.60300 40.73600
C  -11.05500 34.67700 40.06800
C  -9.84800 34.32700 40.88800
O  -8.86000 33.74600 40.51500
O  -10.01000 34.76700 42.25100
C  -8.90400 34.57900 43.19100
H  -9.86500 41.56500 39.46600
H  -15.63600 42.66600 42.26900
H  -16.60900 36.62900 42.88400
H  -8.68100 36.91400 39.72500
H  -9.33400 39.20300 37.80900
H  -7.40500 40.15300 38.64900
H  -7.12600 38.65800 39.57100
H  -7.98200 40.05400 40.23900
H  -9.15800 37.14500 36.72300
H  -10.23000 36.04900 37.52500
H  -8.40900 34.58000 37.34500
H  -7.48300 35.58100 38.47200
H  -10.02900 43.65500 39.50500
H  -10.22500 44.74900 40.91900
H  -11.30600 44.83700 39.47000
H  -15.42900 44.84100 41.47700
H  -15.02800 46.27900 42.37900
H  -15.13700 44.62700 43.14500
H  -17.66200 40.58500 41.70200
H  -17.09600 38.86200 44.13500
H  -16.96600 42.28200 44.00000
H  -18.02000 41.07200 44.61600
H  -18.54100 41.95200 43.17300
H  -18.40600 37.82000 41.68700
H  -19.26000 39.14200 42.37300
H  -19.33800 36.45400 43.04400
H  -20.20000 37.82100 43.91600
H  -18.57800 37.21800 44.42200
H  -14.62900 33.06700 42.89800
H  -15.90700 33.40000 41.73100
H  -15.81800 34.35500 43.25400
H  -10.95800 34.51100 38.99500
H  -8.57000 35.58300 43.45200
H  -8.14100 33.89800 42.81600
H  -9.25200 34.02400 44.06200

