158

Mg 35.48400 49.26500 26.73900
C  35.61100 47.11700 29.58100
C  34.29200 51.73400 28.75100
C  35.00800 50.94300 24.02200
C  36.25400 46.32700 24.85200
N  35.10200 49.30100 28.86700
C  35.10400 48.38600 29.84500
C  34.94300 48.91600 31.24500
C  34.23200 50.23500 30.86500
C  34.61900 50.49000 29.40500
C  32.71700 50.29800 31.06600
C  36.28200 49.17800 32.08500
C  36.32800 48.59500 33.52900
H  35.05700 48.71700 34.37100
N  34.76700 51.12300 26.39000
C  34.35900 51.99600 27.33800
C  34.19000 53.27300 26.70600
C  34.34900 53.06300 25.29300
C  34.65100 51.65600 25.16700
C  33.91700 54.51500 27.54900
C  34.35600 53.98900 24.14200
O  34.64200 53.71900 22.96700
C  33.79400 55.40200 24.38600
N  35.61600 48.70500 24.76200
C  35.46200 49.62200 23.76000
C  35.79400 49.10300 22.39300
C  36.21800 47.65500 22.67500
C  35.99900 47.54500 24.19600
C  34.73700 49.25600 21.28800
C  37.66600 47.16800 22.22900
C  38.91900 47.73500 22.78100
N  35.86900 47.14300 27.03900
C  36.22300 46.11300 26.21400
C  36.51200 44.92400 26.92000
C  36.28200 45.26600 28.25000
C  35.90000 46.64000 28.29700
C  37.15600 43.62200 26.31400
C  36.47100 44.72300 29.61800
O  36.96200 43.61100 29.97800
C  35.87600 45.89000 30.51700
C  34.58900 45.47700 31.19500
O  33.46600 45.35000 30.62000
O  34.88100 45.11600 32.45100
C  33.86900 44.38100 33.23800
H  33.83000 52.50900 29.36600
H  34.76000 51.51100 23.12300
H  36.51900 45.44200 24.27000
H  34.27100 48.27100 31.81100
H  34.53700 51.06900 31.49600
H  32.52400 51.16300 31.69900
H  32.28000 49.40900 31.52100
H  32.15100 50.53700 30.16600
H  36.51100 50.23300 32.23300
H  36.99700 48.66500 31.44100
H  37.07200 49.08800 34.15500
H  36.73500 47.58400 33.53200
H  33.66500 54.32100 28.59200
H  33.02400 54.93900 27.09200
H  34.64200 55.32800 27.49800
H  32.82000 55.46500 24.87200
H  33.70100 55.87600 23.41000
H  34.54400 55.92300 24.98100
H  36.65500 49.72800 22.15900
H  35.54600 47.01300 22.10600
H  34.55500 48.29000 20.81800
H  35.14100 49.93000 20.53300
H  33.74300 49.50200 21.66300
H  37.69100 47.30900 21.14800
H  37.67200 46.09400 22.41300
H  38.71600 47.84200 23.84600
H  39.24400 48.68400 22.35400
H  39.70800 46.98600 22.70600
H  38.19000 43.56000 26.65300
H  37.08000 43.57700 25.22700
H  36.65600 42.73400 26.70200
H  36.59100 46.08300 31.31700
H  33.90000 43.30800 33.04800
H  32.84300 44.69700 33.05000
H  34.04500 44.50300 34.30700
Mg 6.40000 54.79600 40.20700
C  5.21400 51.47100 39.61300
C  9.53100 53.66700 39.61500
C  7.36000 58.06200 39.80100
C  3.11300 55.75700 40.57100
N  7.25100 52.85400 39.50000
C  6.59400 51.60900 39.34400
C  7.62900 50.53200 39.03500
C  8.91600 51.22400 39.55200
C  8.59000 52.64600 39.53300
C  9.54000 50.83200 40.87700
C  7.75800 50.24700 37.45800
C  6.85100 51.07000 36.53400
H  6.28200 50.48800 35.30800
N  8.24100 55.72600 39.90500
C  9.43900 55.07900 39.68300
C  10.48300 56.00900 39.50900
C  9.89100 57.33800 39.46600
C  8.40000 57.08400 39.69600
C  11.94300 55.71100 39.39900
C  10.60500 58.63700 39.20700
O  11.77300 58.56800 38.88800
C  10.07900 59.93700 39.46600
N  5.37200 56.68800 40.13900
C  6.01400 57.88400 40.18000
C  5.01700 59.04500 40.29700
C  3.71400 58.28000 40.59000
C  4.03500 56.82200 40.31100
C  5.48100 60.18500 41.30000
C  2.53200 58.67500 39.67200
C  1.13200 58.60300 40.36000
N  4.59600 53.86400 40.05600
C  3.34600 54.40300 40.37300
C  2.39800 53.40300 40.33700
C  3.08100 52.12800 40.14200
C  4.39800 52.51500 39.93500
C  0.88400 53.58200 40.29100
C  2.92000 50.73000 39.89700
O  1.91900 50.06100 39.74700
C  4.34400 50.24600 39.65600
C  4.46100 49.32600 38.52600
O  4.04900 49.59100 37.41400
O  4.95700 48.12900 38.94000
C  5.16400 47.04800 37.94500
H  10.55100 53.27600 39.59600
H  7.66800 59.08500 39.57700
H  2.12900 56.00400 40.97600
H  7.29700 49.70200 39.66000
H  9.74200 51.02900 38.86800
H  9.54300 51.69300 41.54500
H  10.59000 50.58500 40.72500
H  8.95700 50.03800 41.34400
H  7.45300 49.21400 37.29300
H  8.75700 50.39200 37.04700
H  7.55500 51.89500 36.42700
H  5.94100 51.52200 36.92800
H  12.20200 55.70700 38.34100
H  12.18700 54.73500 39.81900
H  12.59400 56.38500 39.95600
H  10.87900 60.67600 39.49400
H  9.71700 60.05600 40.48800
H  9.25900 60.15700 38.78200
H  4.94800 59.57500 39.34700
H  3.42300 58.37500 41.63600
H  4.59000 60.34100 41.90900
H  5.86100 61.03300 40.73200
H  6.27800 59.84200 41.95900
H  2.51100 57.98200 38.83100
H  2.70600 59.68100 39.29000
H  0.51100 59.42400 40.00100
H  1.15200 58.67600 41.44700
H  0.62000 57.68700 40.06800
H  0.61700 53.75000 39.24800
H  0.64500 54.44100 40.91700
H  0.40600 52.66900 40.64800
H  4.64800 49.70600 40.55200
H  4.42000 46.25400 38.00700
H  6.17700 46.68600 38.11800
H  5.11200 47.52300 36.96500

