158

Mg 49.99800 44.72200 42.28600
C  46.51500 45.14500 41.51200
C  49.68400 41.45600 41.69800
C  53.27000 44.69400 42.28100
C  50.05600 48.30300 42.70700
N  48.26900 43.44700 41.67100
C  46.95100 43.77600 41.39300
C  46.16600 42.59700 40.99200
C  47.02300 41.45800 41.55600
C  48.42500 42.10000 41.71900
C  46.55000 40.62000 42.77200
C  45.99800 42.52100 39.42900
C  44.63500 42.00300 38.89500
H  44.52900 41.33500 37.57600
N  51.33000 43.29900 41.81800
C  51.03000 41.99400 41.65200
C  52.28200 41.29100 41.45400
C  53.38400 42.18500 41.53500
C  52.68100 43.47200 41.88900
C  52.30100 39.77200 41.32200
C  54.88800 41.90000 41.36700
O  55.28900 40.73500 41.26400
C  55.93100 42.99600 41.25000
N  51.42500 46.23100 42.43100
C  52.69700 45.97200 42.55800
C  53.59500 47.20300 42.86400
C  52.55300 48.37000 43.06500
C  51.26800 47.57800 42.76900
C  54.54500 47.11600 44.01400
C  52.74700 49.66600 42.21700
C  52.80400 50.98200 43.09600
N  48.59800 46.41500 42.23600
C  48.79800 47.77900 42.44600
C  47.59700 48.51000 42.33700
C  46.65200 47.53300 41.86400
C  47.35500 46.24200 41.85200
C  47.40900 50.04200 42.55600
C  45.27400 47.25500 41.49800
O  44.32500 47.99800 41.43900
C  45.22300 45.75300 41.18500
C  43.97800 45.12900 41.77300
O  42.99400 44.70800 41.20800
O  43.94300 45.45800 43.10300
C  42.71200 45.13500 43.78100
H  49.60800 40.37300 41.57900
H  54.34900 44.63000 42.43900
H  50.14800 49.38400 42.83600
H  45.18700 42.68400 41.46400
H  47.25400 40.65900 40.85100
H  45.89800 41.20000 43.42400
H  47.33900 40.35100 43.47400
H  46.08800 39.71700 42.37400
H  46.75900 41.82700 39.07000
H  46.24500 43.51600 39.06000
H  43.92000 42.82500 38.94900
H  44.22700 41.22600 39.54200
H  52.69000 39.45100 40.35500
H  51.30700 39.32700 41.28100
H  52.91700 39.30100 42.08800
H  55.43900 43.83500 40.75700
H  56.70300 42.52000 40.64500
H  56.25000 43.36800 42.22400
H  54.11400 47.43800 41.93500
H  52.52300 48.65500 44.11700
H  54.45100 46.08300 44.34700
H  54.25500 47.62200 44.93600
H  55.57500 47.45600 43.91300
H  51.87800 49.79900 41.57200
H  53.72300 49.50900 41.75800
H  53.49600 51.67100 42.61200
H  53.03300 50.86300 44.15500
H  51.78200 51.36000 43.08800
H  46.38200 50.21600 42.23300
H  48.07000 50.76300 42.07600
H  47.32100 50.24100 43.62400
H  44.96400 45.64200 40.13200
H  42.86500 45.32400 44.84400
H  42.61500 44.05100 43.71800
H  41.98900 45.83600 43.36300
Mg -0.97400 33.73500 26.94000
C  -2.89500 32.09200 29.10400
C  0.21700 35.82500 29.51800
C  0.82400 35.43200 24.68400
C  -2.75800 32.32200 24.21200
N  -1.43500 34.04300 28.99700
C  -2.09100 33.02600 29.73200
C  -1.99500 33.29600 31.23000
C  -1.46900 34.80200 31.15600
C  -0.82700 34.91700 29.80800
C  -2.58200 35.85400 31.36500
C  -1.10500 32.23800 31.98100
C  -0.76100 32.57000 33.40000
H  -1.24300 31.46200 34.45100
N  0.53900 35.19000 27.09300
C  0.86600 35.92100 28.22400
C  1.94000 36.79500 27.91300
C  2.01900 36.82000 26.53900
C  1.11300 35.77700 26.05500
C  2.55500 37.71400 28.95400
C  2.77000 37.74400 25.51500
O  2.40700 37.84800 24.33500
C  3.85000 38.62900 25.97000
N  -0.98600 34.00600 24.73400
C  -0.07700 34.64900 24.01600
C  -0.27100 34.43900 22.50400
C  -1.20800 33.14700 22.45400
C  -1.74600 33.18900 23.86500
C  -0.59000 35.72200 21.65900
C  -0.55100 31.78800 22.02700
C  0.55000 31.33400 22.93700
N  -2.53600 32.59600 26.67800
C  -3.12900 31.99600 25.56000
C  -4.05800 31.03700 25.97500
C  -4.04300 31.06100 27.38500
C  -3.10000 31.99200 27.72100
C  -4.85800 30.25400 25.10600
C  -4.62000 30.44700 28.56800
O  -5.43900 29.56900 28.70700
C  -3.80100 31.08900 29.77500
C  -4.80500 31.81200 30.55100
O  -5.37900 32.89400 30.14500
O  -5.04600 31.26400 31.75400
C  -6.03600 31.85500 32.65200
H  0.53500 36.49300 30.32100
H  1.52400 35.85100 23.95800
H  -3.18000 31.79800 23.35200
H  -2.99600 33.39400 31.65000
H  -0.74400 35.05600 31.93000
H  -2.76700 36.08500 32.41400
H  -3.50900 35.46600 30.94300
H  -2.22200 36.76300 30.88300
H  -0.17700 32.09400 31.42700
H  -1.63200 31.28600 31.92000
H  -1.15200 33.51700 33.77300
H  0.32800 32.62600 33.37300
H  2.58900 37.20700 29.91900
H  1.96400 38.63000 28.98100
H  3.58600 37.81600 28.61600
H  4.51000 38.97300 25.17300
H  4.41200 38.25500 26.82500
H  3.20800 39.46900 26.23600
H  0.69500 34.14100 22.09800
H  -1.96400 33.38700 21.70600
H  -1.17400 35.45600 20.77900
H  0.35700 36.03200 21.21700
H  -1.14700 36.36400 22.34200
H  -0.04000 31.97100 21.08200
H  -1.33900 31.05000 21.87500
H  0.55200 31.82500 23.91000
H  1.53200 31.52400 22.50300
H  0.53600 30.25400 23.08500
H  -4.89900 29.25200 25.53300
H  -4.38200 30.14400 24.13200
H  -5.88700 30.58000 24.95200
H  -3.32900 30.26800 30.31500
H  -5.63200 32.59800 33.33900
H  -6.56900 31.07500 33.19400
H  -6.76200 32.50100 32.15700

