158

Mg 44.99100 4.60600 47.18700
C  43.25400 7.63900 46.72200
C  42.00800 3.00500 46.41900
C  46.78700 1.80300 46.85800
C  47.93400 6.54300 47.06400
N  42.85400 5.30000 46.55200
C  42.38600 6.55700 46.61400
C  40.88400 6.60700 46.32100
C  40.50400 5.09400 46.33600
C  41.84500 4.40100 46.43200
C  39.54900 4.58200 47.40900
C  40.41700 7.54900 45.18900
C  41.13500 7.70200 43.84800
H  40.30300 7.32800 42.60100
N  44.44200 2.68800 46.78500
C  43.15800 2.18000 46.55800
C  43.20800 0.78300 46.31400
C  44.61500 0.44500 46.47100
C  45.30900 1.69800 46.74400
C  42.07600 -0.04600 45.73300
C  45.15200 -0.97500 46.21900
O  44.39900 -1.89700 46.02700
C  46.67500 -1.29600 46.24700
N  47.09400 4.25700 46.85400
C  47.55300 2.94300 47.05500
C  49.10200 2.88600 47.09300
C  49.43100 4.35800 47.02700
C  48.06600 5.12100 46.93100
C  49.58400 2.08100 48.38500
C  50.38500 4.86800 45.86600
C  51.56800 5.89600 46.17300
N  45.53900 6.70300 47.08700
C  46.75200 7.31000 47.12300
C  46.59400 8.79400 47.21100
C  45.22100 8.95300 47.08000
C  44.62000 7.63400 46.91800
C  47.72900 9.84500 47.23600
C  44.16900 9.92200 46.91300
O  44.23900 11.15600 46.99800
C  42.92200 9.09900 46.67700
C  41.96400 9.39300 47.76600
O  41.72400 8.68200 48.75000
O  41.33700 10.51200 47.47800
C  39.94400 10.41100 47.96100
H  41.07800 2.47000 46.22200
H  47.41600 0.91500 46.94300
H  48.83400 7.14800 47.19100
H  40.43600 7.12000 47.17200
H  40.17500 4.80100 45.33900
H  38.81500 5.27500 47.81900
H  40.16900 4.30600 48.26200
H  38.92800 3.73000 47.13400
H  40.22400 8.56800 45.52200
H  39.44700 7.20700 44.82900
H  42.07200 7.14600 43.79900
H  41.29500 8.77400 43.73100
H  42.38300 -0.50900 44.79500
H  41.20300 0.58900 45.58700
H  41.96900 -0.89200 46.41200
H  46.72700 -2.37600 46.11100
H  47.02600 -1.01600 47.24000
H  47.30000 -0.75100 45.53900
H  49.31300 2.42300 46.12900
H  49.86300 4.74900 47.94800
H  49.37300 1.01200 48.39900
H  49.14200 2.57800 49.24900
H  50.65200 2.26100 48.50500
H  49.83600 5.22200 44.99400
H  50.90900 3.98100 45.51100
H  51.38800 6.75100 45.52200
H  52.52700 5.48700 45.85600
H  51.50400 6.30400 47.18200
H  48.12500 10.19500 46.28300
H  48.46000 9.16000 47.66700
H  47.70600 10.64700 47.97300
H  42.41300 9.41600 45.76700
H  39.37900 11.25300 47.56000
H  39.84100 10.32100 49.04300
H  39.40300 9.56100 47.54600
Mg 46.96300 25.23600 27.49500
C  48.06400 27.40800 30.02100
C  45.67800 23.18300 29.89500
C  46.17200 23.02100 25.08000
C  48.70200 27.19100 25.22900
N  46.90200 25.35200 29.66400
C  47.29400 26.37800 30.53300
C  46.96000 26.03600 32.00000
C  46.29700 24.66400 31.94600
C  46.29000 24.35700 30.40700
C  46.94600 23.60300 32.80900
C  46.23300 27.08700 32.79300
C  46.70800 27.39600 34.29400
H  45.51100 27.32700 35.35700
N  45.94200 23.40700 27.46900
C  45.46400 22.72700 28.57000
C  44.81300 21.56900 28.09600
C  44.82200 21.55600 26.64400
C  45.70600 22.72200 26.27600
C  44.21600 20.52200 28.99600
C  44.09700 20.70100 25.69500
O  44.24900 20.76700 24.48900
C  42.89600 19.99300 26.15800
N  47.47800 24.98200 25.48200
C  47.01600 24.05600 24.65600
C  47.65400 24.18400 23.26900
C  48.12600 25.66300 23.21100
C  48.03300 26.02400 24.68700
C  48.78200 22.99300 23.06500
C  47.38000 26.64200 22.22300
C  48.17900 27.23200 21.01500
N  48.09000 26.99300 27.53400
C  48.67200 27.70800 26.53200
C  49.30800 28.87100 27.02400
C  49.24900 28.77500 28.43600
C  48.41900 27.64200 28.69000
C  49.89400 29.95300 26.25600
C  49.49900 29.39200 29.66600
O  49.98800 30.43100 29.98600
C  48.82800 28.43600 30.80900
C  49.88800 27.96100 31.72200
O  51.05900 27.81600 31.39500
O  49.46900 27.95700 33.07900
C  50.45000 27.46200 34.02500
H  45.20400 22.51400 30.61600
H  46.03200 22.33100 24.24600
H  49.14100 27.81400 24.44800
H  47.94100 25.96800 32.47000
H  45.24200 24.70800 32.21700
H  46.18600 23.04100 33.35100
H  47.57600 24.06700 33.56900
H  47.43500 22.84500 32.19800
H  45.16000 26.94500 32.65800
H  46.47100 28.02600 32.29200
H  47.11400 28.40600 34.34700
H  47.51000 26.72500 34.60000
H  43.13400 20.52100 29.12800
H  44.63700 20.43400 29.99800
H  44.42300 19.52300 28.61100
H  42.39200 20.49900 26.98100
H  43.11800 18.95100 26.38800
H  42.27600 20.03600 25.26300
H  46.86700 24.02400 22.53200
H  49.19700 25.73800 23.02300
H  48.85100 22.49200 24.03100
H  49.68200 23.47500 22.68200
H  48.47000 22.20700 22.37800
H  46.94400 27.48400 22.76200
H  46.47500 26.18200 21.82700
H  47.64400 26.98300 20.09900
H  49.24400 27.01000 20.94500
H  48.30500 28.31300 21.07100
H  50.89400 30.10500 26.66100
H  49.24700 30.80600 26.46400
H  49.95600 29.66400 25.20700
H  48.09500 29.05400 31.32700
H  51.04800 28.20500 34.55400
H  51.18100 26.82900 33.52200
H  49.93700 26.87200 34.78400

