158

Mg 15.78300 -1.87200 27.38400
C  14.80000 0.21800 30.37400
C  17.87300 -3.57700 29.48200
C  16.96300 -3.30700 24.75000
C  13.88900 0.37900 25.52000
N  16.32100 -1.60500 29.69100
C  15.75700 -0.80400 30.68000
C  16.32800 -1.23900 32.00700
C  17.19100 -2.50900 31.72200
C  17.11600 -2.58600 30.21700
C  18.64800 -2.40600 32.32900
C  15.30100 -1.59200 33.12000
C  15.53800 -0.83300 34.49200
H  16.86800 -0.28000 34.94700
N  17.23600 -3.36800 27.12600
C  17.98700 -3.93500 28.06300
C  18.83400 -4.92200 27.48100
C  18.50900 -4.89200 26.09300
C  17.54100 -3.81000 25.89100
C  19.80000 -5.84800 28.24900
C  19.12900 -5.66400 25.00700
O  18.82800 -5.53600 23.81800
C  20.09600 -6.78100 25.28100
N  15.32400 -1.59600 25.39200
C  15.99900 -2.31100 24.44500
C  15.61100 -1.75300 23.05600
C  14.39700 -0.79600 23.30300
C  14.44200 -0.70600 24.82700
C  16.81700 -1.08200 22.33800
C  13.08900 -1.41600 22.87900
C  12.81500 -1.23200 21.37600
N  14.69200 -0.07300 27.76700
C  14.01600 0.64300 26.87500
C  13.34500 1.75200 27.53600
C  13.59500 1.63200 28.89200
C  14.36300 0.47500 29.03800
C  12.64100 2.88800 26.85400
C  13.34000 2.28400 30.22500
O  12.97600 3.39100 30.57200
C  14.10900 1.34100 31.24200
C  15.00400 2.22700 32.04300
O  15.99000 2.77000 31.59900
O  14.49800 2.50500 33.23100
C  15.20000 3.39800 34.13300
H  18.44300 -4.18100 30.19100
H  17.37900 -3.65900 23.80400
H  13.25300 1.05800 24.94900
H  16.96300 -0.45900 32.42600
H  16.59700 -3.37900 32.00500
H  18.71100 -1.47200 32.88700
H  19.39700 -2.40800 31.53700
H  18.67900 -3.35700 32.86100
H  15.33000 -2.66600 33.30600
H  14.31200 -1.33000 32.74600
H  15.15900 -1.43200 35.32000
H  14.96400 0.06800 34.27400
H  20.77100 -5.37600 28.40100
H  19.91000 -6.88900 27.94300
H  19.40700 -5.90000 29.26400
H  21.02200 -6.32800 25.63500
H  20.27600 -7.42700 24.42100
H  19.64400 -7.38600 26.06700
H  15.21500 -2.50700 22.37600
H  14.58300 0.23100 22.98800
H  16.77100 -0.02800 22.61200
H  16.76000 -1.23800 21.26100
H  17.79000 -1.47000 22.64000
H  12.25500 -0.95600 23.40900
H  12.93300 -2.43000 23.24700
H  13.76800 -0.91200 20.95400
H  12.17300 -0.37400 21.17700
H  12.39800 -2.08300 20.83900
H  13.30100 3.45400 26.19600
H  12.25400 3.55300 27.62600
H  11.81500 2.54400 26.23100
H  13.41800 0.91200 31.96700
H  15.04200 4.45400 33.91500
H  16.24500 3.11100 34.25600
H  14.72200 3.28700 35.10600
Mg 9.60700 47.40400 26.66000
C  7.66000 46.99000 29.55000
C  12.04800 48.69200 28.54200
C  11.22800 48.10900 23.76200
C  6.83600 46.37000 24.73400
N  9.82700 47.84500 28.77700
C  8.96100 47.51700 29.78800
C  9.54400 47.91600 31.17000
C  10.90400 48.60500 30.77800
C  10.95800 48.38300 29.27000
C  10.97800 50.17000 31.09100
C  9.77500 46.82700 32.26100
C  9.52700 47.45900 33.66500
H  9.63900 46.49700 34.81500
N  11.46100 48.21700 26.20200
C  12.36500 48.61500 27.12200
C  13.61000 48.77300 26.43600
C  13.38200 48.51400 25.07400
C  11.96400 48.26700 24.96900
C  14.95400 49.04800 27.18900
C  14.38300 48.64100 23.92500
O  14.07900 48.36500 22.76300
C  15.87800 48.89900 24.16600
N  9.12600 47.42300 24.55000
C  9.95000 47.70600 23.50400
C  9.33200 47.48300 22.08900
C  8.18800 46.56400 22.53400
C  8.02500 46.80100 24.03700
C  8.97100 48.82800 21.38000
C  8.19900 45.10100 22.12600
C  8.74400 44.09300 23.17800
N  7.69000 46.77800 27.03300
C  6.68300 46.36000 26.12600
C  5.55700 45.91400 26.81500
C  5.86000 46.17000 28.19400
C  7.19300 46.68900 28.27500
C  4.23900 45.26200 26.27300
C  5.32200 46.12200 29.47300
O  4.22400 45.67700 29.85200
C  6.52000 46.50400 30.49400
C  6.74700 45.19000 31.20000
O  7.37400 44.28900 30.73000
O  6.26000 45.22200 32.44100
C  6.42600 44.06600 33.33800
H  12.91200 48.93700 29.16300
H  11.72300 48.47600 22.86000
H  5.96200 45.91600 24.26300
H  8.87000 48.61800 31.66100
H  11.85400 48.18600 31.11000
H  11.82800 50.32000 31.75600
H  10.11100 50.54200 31.63800
H  11.09300 50.74100 30.17000
H  10.74300 46.33200 32.19100
H  9.03500 46.04900 32.07100
H  8.48300 47.77200 33.65400
H  10.20000 48.30100 33.83000
H  15.49300 49.88700 26.74600
H  15.51300 48.11500 27.12000
H  14.91300 49.25600 28.25800
H  16.29500 48.23000 24.91900
H  15.91500 49.94500 24.46800
H  16.34300 48.81700 23.18400
H  10.03900 46.93900 21.46300
H  7.23100 46.98500 22.22600
H  9.38300 49.65500 21.95800
H  7.88100 48.83700 21.35200
H  9.39400 48.74800 20.37900
H  8.84400 44.99200 21.25400
H  7.19400 44.78600 21.84900
H  9.41000 44.53900 23.91600
H  9.37600 43.40300 22.61900
H  7.90700 43.55400 23.62400
H  4.46500 44.27500 25.87000
H  3.76700 45.79500 25.44800
H  3.43000 45.13300 26.99300
H  6.26700 47.25600 31.24100
H  6.70100 44.45300 34.31900
H  7.17300 43.34500 33.00600
H  5.50900 43.48500 33.42900

