158

Mg 17.20600 -1.70800 27.67800
C  16.01100 0.20800 30.36500
C  18.69300 -3.86400 29.78700
C  18.64100 -3.15400 24.90900
C  15.44900 0.49500 25.61800
N  17.31000 -1.80600 29.82500
C  16.76400 -0.96200 30.73900
C  17.17500 -1.36000 32.19500
C  18.10000 -2.64600 32.03700
C  18.05700 -2.76200 30.44600
C  19.48300 -2.39700 32.65400
C  15.88500 -1.44900 33.13900
C  16.00900 -0.75100 34.46900
H  17.33500 -0.25200 34.97700
N  18.44200 -3.25600 27.42900
C  18.96400 -4.04300 28.42600
C  19.66300 -5.19400 27.87300
C  19.70200 -4.95300 26.45200
C  18.89200 -3.79300 26.13800
C  20.26900 -6.24900 28.72200
C  20.43700 -5.76000 25.35400
O  20.51500 -5.44300 24.17000
C  21.15400 -7.06600 25.66400
N  16.89600 -1.49100 25.57700
C  17.74600 -2.10200 24.65800
C  17.52700 -1.63000 23.21000
C  16.36900 -0.57800 23.47400
C  16.20800 -0.49000 24.92900
C  18.68400 -1.05100 22.44200
C  15.11900 -0.77500 22.64100
C  14.77600 0.31700 21.61700
N  15.97300 0.02700 27.90400
C  15.29900 0.76200 26.99000
C  14.59000 1.86100 27.68500
C  14.87500 1.64200 28.99400
C  15.81100 0.60200 29.03700
C  13.73700 2.91700 27.01400
C  14.61200 2.25700 30.25400
O  13.92200 3.22800 30.51600
C  15.48000 1.37200 31.19000
C  16.51000 2.17400 31.71100
O  17.61700 2.27200 31.20600
O  16.06700 2.87600 32.82000
C  16.93500 3.95200 33.36600
H  19.23300 -4.56000 30.43200
H  19.21800 -3.55800 24.07600
H  15.04900 1.32800 25.03400
H  17.80500 -0.54200 32.54500
H  17.60700 -3.55800 32.37500
H  19.57800 -1.59900 33.39000
H  20.15900 -2.24700 31.81200
H  19.82200 -3.30000 33.16000
H  15.86900 -2.50400 33.41100
H  14.94300 -1.15400 32.67600
H  15.50700 -1.29700 35.26900
H  15.34600 0.11400 34.46600
H  19.83500 -6.45500 29.70100
H  21.31400 -6.01700 28.92700
H  20.32200 -7.14100 28.09800
H  21.70300 -6.91200 26.59300
H  21.81300 -7.25900 24.81700
H  20.45600 -7.90400 25.65900
H  17.19000 -2.45300 22.58100
H  16.74600 0.40800 23.20100
H  18.62900 -0.07300 21.96400
H  18.92700 -1.71900 21.61600
H  19.59200 -1.08900 23.04400
H  14.29500 -0.95900 23.33100
H  15.22800 -1.73600 22.13800
H  13.71300 0.26700 21.38000
H  15.39200 0.06000 20.75500
H  15.15100 1.26900 21.99300
H  14.11900 3.92200 27.19800
H  12.73300 2.82600 27.42800
H  13.76200 2.84700 25.92600
H  14.87600 1.04400 32.03700
H  16.40500 4.41700 34.19700
H  17.14900 4.74700 32.65200
H  17.86700 3.43300 33.58800
Mg 46.52600 24.76900 28.55800
C  47.07400 27.13300 31.06000
C  45.66200 22.53600 31.11300
C  46.35600 22.53500 26.25500
C  47.86400 27.10500 26.32700
N  46.00800 24.95400 30.82500
C  46.40800 25.97000 31.59400
C  46.02800 25.74300 33.07400
C  46.02400 24.19400 33.09500
C  45.90700 23.85000 31.61600
C  47.23400 23.52000 33.90100
C  44.87000 26.60100 33.53900
C  44.16000 26.20600 34.85000
H  44.39700 27.22500 35.97000
N  46.01300 22.86100 28.61300
C  45.65500 22.08600 29.70200
C  45.33100 20.74300 29.25200
C  45.54600 20.71400 27.84400
C  45.98900 22.04400 27.48300
C  44.84400 19.63200 30.12900
C  45.44700 19.50500 26.75400
O  45.57500 19.64700 25.52700
C  45.14300 18.11600 27.29000
N  46.96500 24.83000 26.51400
C  46.93400 23.72300 25.77600
C  47.11800 23.99000 24.27000
C  47.64500 25.41000 24.37500
C  47.44700 25.77900 25.81100
C  48.18800 23.03400 23.57400
C  47.02000 26.35800 23.32200
C  45.54500 26.84600 23.60100
N  47.29300 26.73700 28.62300
C  47.90200 27.50200 27.62800
C  48.43900 28.77000 28.16100
C  48.10400 28.59600 29.50500
C  47.46500 27.33500 29.72700
C  48.88200 29.91100 27.31000
C  48.20500 29.34000 30.76800
O  48.67000 30.44000 31.01500
C  47.59900 28.34500 31.83700
C  48.69700 27.87300 32.81900
O  49.62400 27.09900 32.53000
O  48.40200 28.35100 34.10500
C  49.03900 27.67800 35.27300
H  45.48700 21.80000 31.90000
H  46.38300 21.83400 25.41800
H  48.39500 27.73300 25.60800
H  46.89500 26.20900 33.54200
H  45.09100 23.90400 33.57800
H  48.09800 24.13400 34.15700
H  47.69600 22.77200 33.25700
H  46.89900 23.01600 34.80800
H  44.15000 26.68300 32.72400
H  45.29700 27.59900 33.63400
H  44.40500 25.20900 35.21500
H  43.08400 26.06900 34.74400
H  45.68500 18.93900 30.14000
H  43.85300 19.33300 29.78900
H  44.76100 19.93900 31.17100
H  45.13600 17.36100 26.50400
H  44.11500 18.25100 27.62800
H  45.70600 17.79200 28.16500
H  46.15600 24.04600 23.76000
H  48.72100 25.42200 24.20000
H  48.69400 22.42900 24.32700
H  48.75600 23.60600 22.84000
H  47.64500 22.25900 23.03200
H  46.93900 25.81900 22.37800
H  47.77300 27.13800 23.21800
H  45.67500 27.90900 23.80300
H  44.97200 26.40500 24.41600
H  44.85000 26.76400 22.76500
H  49.71800 29.58100 26.69400
H  49.10300 30.80400 27.89400
H  48.08100 30.21100 26.63500
H  46.73700 28.74700 32.36900
H  49.75300 26.89900 35.00800
H  48.20100 27.18500 35.76500
H  49.66100 28.32700 35.88900

