158

Mg -0.24600 7.01000 25.05500
C  0.71800 8.97900 27.89200
C  0.06300 4.23700 27.09000
C  -1.23400 5.12300 22.45500
C  0.34600 9.69400 23.03500
N  0.42000 6.68300 27.25800
C  0.63100 7.65300 28.25600
C  0.74300 7.06200 29.68100
C  0.55100 5.56300 29.31400
C  0.30600 5.47900 27.78300
C  1.69300 4.56400 29.80000
C  -0.34000 7.66300 30.61800
C  0.06600 7.92400 32.07100
H  1.11800 6.97800 32.72000
N  -0.52400 4.92700 24.79200
C  -0.29900 3.96000 25.72700
C  -0.66900 2.62300 25.16200
C  -1.03700 2.90400 23.79100
C  -0.96200 4.34600 23.62500
C  -0.47600 1.32400 25.98100
C  -1.42300 1.93400 22.68700
O  -1.79700 2.24500 21.57500
C  -1.29200 0.45600 23.09000
N  -0.49600 7.38500 23.12700
C  -0.99200 6.46500 22.23900
C  -1.20400 7.11300 20.79900
C  -0.96300 8.56100 21.20100
C  -0.22600 8.51800 22.51500
C  -0.14600 6.50900 19.84200
C  -2.31200 9.37200 21.32700
C  -2.44000 10.73100 20.57300
N  0.31700 8.97100 25.33000
C  0.56400 9.96100 24.41300
C  0.92200 11.20400 25.10000
C  0.90600 10.90100 26.52800
C  0.61700 9.50700 26.59800
C  1.13800 12.52700 24.48400
C  1.08500 11.49200 27.85600
O  1.41700 12.63100 28.16400
C  0.84100 10.26800 28.80600
C  2.02400 10.27600 29.69100
O  3.11700 9.84500 29.33000
O  1.72200 10.63100 30.96200
C  2.88400 10.87400 31.74900
H  0.06000 3.43100 27.82600
H  -1.67100 4.60700 21.59700
H  0.54200 10.52000 22.34900
H  1.78000 7.20800 29.98400
H  -0.28900 5.12300 29.85000
H  2.34000 5.02100 30.54900
H  2.30900 4.21300 28.97300
H  1.13800 3.70300 30.17200
H  -1.19600 6.98800 30.64100
H  -0.61800 8.60600 30.14800
H  -0.83900 7.92000 32.67900
H  0.48200 8.93200 32.06500
H  0.21000 0.60600 25.53100
H  -1.37600 0.71100 25.93600
H  -0.10100 1.46200 26.99500
H  -2.00300 0.24100 23.88700
H  -0.26700 0.34000 23.44400
H  -1.51400 -0.14900 22.21100
H  -2.16700 6.83600 20.37200
H  -0.26000 9.03100 20.51300
H  0.78800 7.07100 19.84900
H  -0.55600 6.43700 18.83500
H  0.23500 5.52700 20.12100
H  -2.56800 9.36700 22.38700
H  -3.04700 8.72700 20.84700
H  -1.47000 11.18100 20.36000
H  -3.14200 11.33400 21.14900
H  -2.78100 10.46500 19.57200
H  1.77700 13.14700 25.11300
H  0.19400 13.07100 24.48000
H  1.64700 12.48800 23.52100
H  -0.04200 10.48300 29.40700
H  2.57200 11.15100 32.75500
H  3.56200 11.59700 31.29500
H  3.39100 9.91900 31.88300
Mg 8.04900 2.92700 27.68900
C  9.48200 1.30400 30.54600
C  6.42100 4.92800 29.85200
C  6.73300 4.28100 25.04800
C  9.86000 0.59300 25.73000
N  7.88700 3.04800 30.00200
C  8.67600 2.36200 30.94600
C  8.46300 2.93200 32.34800
C  7.37400 4.03100 32.11000
C  7.14000 3.94500 30.55900
C  6.07400 3.78600 32.85600
C  9.81900 3.35300 33.09300
C  9.59900 4.35400 34.28900
H  10.49100 4.38600 35.51800
N  6.66700 4.34700 27.48300
C  6.11300 5.06800 28.45300
C  5.35400 6.20600 27.88400
C  5.46100 6.00500 26.48000
C  6.25800 4.78200 26.24400
C  4.62500 7.26800 28.68200
C  4.92100 6.98900 25.44100
O  5.13000 6.83000 24.23500
C  3.97000 8.23800 25.76800
N  8.10200 2.29300 25.69800
C  7.60200 3.14300 24.79000
C  7.98000 2.85000 23.38000
C  8.99200 1.72400 23.55800
C  9.01200 1.53200 25.06500
C  6.71900 2.44500 22.61900
C  10.36900 1.93900 22.94000
C  10.99700 0.68300 22.24200
N  9.27900 1.19500 28.04400
C  10.01100 0.37200 27.14900
C  10.90700 -0.50400 27.81600
C  10.63100 -0.15300 29.15200
C  9.69500 0.88900 29.24400
C  11.97800 -1.34100 27.21600
C  11.04900 -0.55100 30.45900
O  11.84300 -1.39400 30.91100
C  10.29100 0.46200 31.37000
C  9.58300 -0.32400 32.43100
O  8.49500 -0.85800 32.24300
O  10.41000 -0.45300 33.55000
C  9.72700 -1.07800 34.68400
H  6.00600 5.76600 30.41600
H  6.46100 4.87100 24.17100
H  10.50200 0.11600 24.98600
H  7.97700 2.18700 32.97900
H  7.80000 5.03200 32.17900
H  5.45500 3.03000 32.37400
H  5.49700 4.71000 32.81900
H  6.22300 3.36800 33.85200
H  10.42000 3.83400 32.32100
H  10.43400 2.59200 33.57400
H  8.54600 4.31600 34.56600
H  9.71100 5.32400 33.80500
H  5.08300 8.24700 28.54500
H  4.46900 7.15700 29.75500
H  3.62500 7.23400 28.24800
H  4.46500 8.92200 26.45700
H  3.03500 7.86600 26.18600
H  3.80100 8.82900 24.86800
H  8.44100 3.72200 22.91600
H  8.53700 0.76700 23.30400
H  5.79000 2.71400 23.12200
H  6.70100 1.42800 22.22500
H  6.63600 3.06100 21.72400
H  11.05300 2.27400 23.72100
H  10.41700 2.75200 22.21500
H  11.15800 0.82000 21.17300
H  10.34900 -0.16400 22.46900
H  12.00400 0.49700 22.61500
H  12.81400 -1.23200 27.90700
H  12.23200 -1.01800 26.20700
H  11.59200 -2.36000 27.19600
H  11.00900 1.08800 31.89900
H  9.08100 -1.91400 34.41300
H  9.14700 -0.31800 35.20700
H  10.53800 -1.54000 35.24700

