158

Mg -1.69600 18.38700 27.19500
C  -2.10900 16.08800 29.78400
C  -2.15100 20.88900 29.35100
C  -1.53400 20.46500 24.62000
C  -1.54700 15.67400 24.94200
N  -2.26000 18.45900 29.30400
C  -2.28000 17.43700 30.20100
C  -2.51000 17.85300 31.74400
C  -2.57500 19.44900 31.43600
C  -2.29700 19.63700 29.95700
C  -3.92000 20.14500 31.85000
C  -1.41600 17.50600 32.78500
C  -1.19200 18.41300 34.01400
H  -0.88900 17.77500 35.35100
N  -1.97700 20.42000 27.02000
C  -2.10400 21.29400 28.00200
C  -2.16100 22.63600 27.47600
C  -1.75800 22.53500 26.07700
C  -1.77000 21.08000 25.85700
C  -2.21400 23.87300 28.29300
C  -1.48300 23.66400 25.03000
O  -1.03500 23.33900 23.94200
C  -1.63800 25.05300 25.36100
N  -1.74500 18.11100 25.07100
C  -1.50100 19.16400 24.21400
C  -1.37000 18.70300 22.73700
C  -0.99500 17.21300 22.96100
C  -1.55800 16.96300 24.35700
C  -2.68800 18.95400 21.81700
C  0.49700 16.72700 22.80000
C  0.76500 15.27100 22.37000
N  -1.73200 16.31700 27.29700
C  -1.64300 15.34600 26.30700
C  -1.65100 14.01300 26.98700
C  -1.92500 14.27600 28.31100
C  -1.86800 15.73100 28.48600
C  -1.60900 12.69200 26.31300
C  -2.17500 13.70600 29.63300
O  -2.28100 12.52700 30.00700
C  -2.27400 14.82100 30.62700
C  -1.18400 14.66500 31.56300
O  -0.04000 15.11500 31.39900
O  -1.71500 14.01300 32.67200
C  -0.77900 13.76400 33.74400
H  -2.14900 21.72100 30.05900
H  -1.44500 21.12000 23.75100
H  -1.29300 14.82500 24.30400
H  -3.44900 17.38800 32.04500
H  -1.77800 20.00000 31.93600
H  -3.57100 21.03800 32.37000
H  -4.55500 19.51100 32.46900
H  -4.51600 20.48900 31.00500
H  -0.45500 17.30200 32.31300
H  -1.62500 16.61700 33.38000
H  -2.03800 19.09800 34.06900
H  -0.29000 18.94600 33.71500
H  -1.17500 24.19400 28.37200
H  -2.57200 23.56400 29.27500
H  -2.87800 24.66800 27.95400
H  -2.65200 25.38100 25.13600
H  -0.90100 25.59300 24.76700
H  -1.29500 25.27800 26.37100
H  -0.49800 19.16900 22.27900
H  -1.56200 16.64600 22.22200
H  -3.43200 19.62200 22.25100
H  -3.16600 18.03600 21.47700
H  -2.26100 19.57500 21.02900
H  1.10200 16.91500 23.68600
H  0.90800 17.33300 21.99200
H  1.66000 14.91500 22.88100
H  0.86800 15.24000 21.28500
H  -0.12000 14.65900 22.54200
H  -1.14800 11.79000 26.71400
H  -1.11300 12.75100 25.34400
H  -2.57900 12.44500 25.88100
H  -3.25800 14.80500 31.09400
H  -0.61700 14.63600 34.37800
H  0.14500 13.43200 33.27000
H  -1.23000 12.91800 34.26200
Mg 17.92600 -0.22300 28.13900
C  16.51800 2.00800 30.50700
C  19.49100 -1.82500 30.88900
C  19.58200 -1.95400 25.88500
C  16.49000 1.70400 25.64500
N  17.96300 0.10300 30.48700
C  17.23600 1.04700 31.18100
C  17.42900 0.79300 32.68200
C  18.66600 -0.18500 32.74100
C  18.74800 -0.69400 31.27900
C  20.02700 0.52000 33.24500
C  16.04100 0.24200 33.33300
C  15.85700 0.65200 34.81500
H  17.11300 0.98800 35.55400
N  19.33100 -1.77800 28.36100
C  19.72300 -2.33600 29.55900
C  20.59800 -3.50200 29.17200
C  20.72300 -3.56400 27.72800
C  19.86300 -2.38300 27.24100
C  21.32400 -4.32900 30.22100
C  21.51700 -4.49800 26.77900
O  21.41800 -4.49400 25.57600
C  22.31200 -5.59200 27.42600
N  17.85900 -0.26100 26.02900
C  18.74900 -0.99400 25.30000
C  18.83100 -0.45100 23.85000
C  17.80100 0.67600 23.80600
C  17.27300 0.68200 25.23400
C  20.23800 -0.03500 23.25800
C  16.72700 0.34900 22.67700
C  17.06400 0.37500 21.25100
N  16.68200 1.44200 28.07800
C  16.18800 2.07600 26.97600
C  15.27700 3.16700 27.42900
C  15.43000 3.18600 28.81500
C  16.31300 2.14900 29.14900
C  14.50700 4.16600 26.57900
C  15.05800 3.92900 29.99500
O  14.41000 4.99400 30.06100
C  15.73500 3.13900 31.23300
C  16.69900 4.15700 31.74500
O  17.79500 4.31400 31.24700
O  16.30600 4.54300 33.04000
C  17.41900 5.28700 33.70400
H  19.77700 -2.49300 31.70400
H  20.16500 -2.55000 25.18000
H  16.01200 2.29300 24.85900
H  17.79000 1.74700 33.06700
H  18.42500 -1.01700 33.40300
H  19.83700 1.42200 33.82700
H  20.65800 0.67600 32.37000
H  20.65100 -0.21700 33.75100
H  16.20500 -0.82900 33.44800
H  15.18700 0.36100 32.66500
H  15.37900 -0.19500 35.30600
H  15.18900 1.50800 34.90800
H  22.29200 -4.61700 29.81100
H  20.75900 -5.24900 30.37300
H  21.61600 -3.76000 31.10400
H  22.92500 -6.18200 26.74500
H  21.72200 -6.24600 28.06800
H  23.09300 -5.22600 28.09300
H  18.51500 -1.32600 23.28300
H  18.30900 1.61900 23.60500
H  20.20900 0.92800 22.74800
H  20.39700 -0.82500 22.52400
H  21.00300 -0.00600 24.03400
H  15.86600 1.00800 22.79500
H  16.43500 -0.66900 22.93500
H  16.65700 1.27200 20.78600
H  16.61500 -0.47000 20.72800
H  18.14500 0.48100 21.16300
H  14.93700 3.97900 25.59500
H  14.85400 5.15500 26.87700
H  13.41700 4.14700 26.55800
H  15.08300 2.93600 32.08300
H  17.48600 5.03600 34.76300
H  17.24000 6.34100 33.48900
H  18.43300 5.07300 33.36600

