158

Mg 2.54600 -0.95000 44.55300
C  5.82100 -0.52600 43.35500
C  1.55600 1.53100 42.37200
C  -0.61700 -2.08600 44.88400
C  3.66200 -4.11400 45.81900
N  3.62400 0.37100 43.10100
C  4.96900 0.44200 42.76900
C  5.30200 1.44600 41.65200
C  3.96900 2.22100 41.51600
C  2.95100 1.36800 42.34300
C  3.95500 3.69100 42.21300
C  5.82800 0.69500 40.33900
C  7.01100 1.34500 39.72400
H  6.77300 1.87500 38.29000
N  0.77900 -0.27800 43.92100
C  0.56400 0.82400 43.08500
C  -0.82900 1.11800 42.96700
C  -1.53800 0.03500 43.55700
C  -0.46600 -0.84100 44.18900
C  -1.35200 2.21800 42.04400
C  -3.04700 -0.16800 43.65300
O  -3.79600 0.68600 43.21100
C  -3.72800 -1.38500 44.32800
N  1.62500 -2.88100 45.33600
C  0.27400 -3.01400 45.40400
C  -0.11300 -4.41900 46.13200
C  1.31500 -5.16200 46.15600
C  2.29000 -3.95500 45.81800
C  -0.73200 -4.16400 47.53800
C  1.47500 -6.35100 45.12800
C  2.04600 -7.63900 45.77500
N  4.36800 -2.07100 44.90800
C  4.67000 -3.31300 45.33400
C  6.13000 -3.48500 45.28600
C  6.61300 -2.46900 44.51700
C  5.47100 -1.60200 44.27400
C  6.78000 -4.76700 45.68800
C  7.80400 -1.90000 43.96800
O  8.95900 -2.33000 43.98200
C  7.33900 -0.60400 43.20900
C  8.10300 0.45400 43.99500
O  8.15300 0.46600 45.20700
O  8.79000 1.39200 43.21400
C  9.68600 2.36500 43.87900
H  1.32100 2.50000 41.92600
H  -1.59600 -2.56500 44.95800
H  3.97800 -5.11100 46.13400
H  6.03800 2.04100 42.19200
H  3.68400 2.26700 40.46400
H  3.35500 4.37600 41.61400
H  4.98500 4.03600 42.31300
H  3.58000 3.66800 43.23600
H  4.95400 0.65700 39.68800
H  6.00700 -0.33300 40.65400
H  7.73400 0.52900 39.70700
H  7.43000 2.14400 40.33600
H  -2.37000 2.01200 41.71300
H  -0.74900 2.21000 41.13600
H  -1.33400 3.22200 42.46700
H  -4.81700 -1.38100 44.29500
H  -3.38700 -1.46400 45.36000
H  -3.38900 -2.26800 43.78700
H  -0.85000 -5.03000 45.61100
H  1.52200 -5.44600 47.18800
H  -1.15100 -3.16000 47.60500
H  0.03500 -4.36500 48.28500
H  -1.50200 -4.91300 47.72300
H  2.05400 -6.05100 44.25400
H  0.50500 -6.55800 44.67500
H  2.17000 -7.61500 46.85800
H  3.08800 -7.84300 45.52800
H  1.48100 -8.53800 45.52700
H  6.40200 -5.51700 44.99300
H  6.45300 -4.91400 46.71700
H  7.85600 -4.59500 45.68400
H  7.66200 -0.62200 42.16800
H  8.97800 3.06200 44.32500
H  10.33000 2.87100 43.15900
H  10.37200 1.82800 44.53500
Mg 44.39400 3.04400 46.66300
C  42.56700 5.95600 46.21100
C  41.57100 1.26100 46.15700
C  46.50000 0.42100 46.40100
C  47.36300 5.12900 46.27000
N  42.26700 3.56100 46.05100
C  41.75400 4.84400 45.95800
C  40.17700 4.75600 45.98300
C  39.95600 3.27300 46.11400
C  41.30300 2.63800 46.17100
C  39.04400 2.75900 47.22700
C  39.55000 5.43000 44.76300
C  40.10700 4.80200 43.39600
H  40.99500 5.53800 42.49200
N  44.07400 1.15400 46.28500
C  42.80400 0.57300 46.10800
C  43.01900 -0.87100 46.00100
C  44.41400 -1.10000 45.93700
C  45.12000 0.20300 46.24000
C  41.92300 -1.87400 45.89000
C  45.16000 -2.44600 45.67100
O  44.61500 -3.49300 45.45000
C  46.58400 -2.54900 45.50400
N  46.59700 2.80800 46.43900
C  47.20600 1.60500 46.55800
C  48.76100 1.71900 46.69800
C  48.92900 3.22900 46.30800
C  47.52200 3.71700 46.38800
C  49.17500 1.22500 48.15200
C  49.60800 3.43300 44.92200
C  51.10500 3.70800 44.92200
N  44.90900 5.09000 46.40100
C  46.10600 5.78900 46.34500
C  45.92000 7.21700 46.36000
C  44.48500 7.28100 46.36700
C  43.97300 5.98900 46.33800
C  46.99200 8.17900 46.37100
C  43.43500 8.21200 46.33900
O  43.47300 9.47800 46.31300
C  42.08300 7.41900 46.17700
C  41.27000 7.61800 47.47500
O  41.09000 6.79100 48.36100
O  40.53600 8.83000 47.44600
C  39.42000 8.91100 48.37000
H  40.68100 0.64000 46.03300
H  47.24700 -0.35900 46.56000
H  48.20800 5.81700 46.35400
H  39.71100 5.23900 46.84100
H  39.64800 2.80400 45.18000
H  38.16500 2.27700 46.80100
H  38.79100 3.58300 47.89500
H  39.47700 1.97700 47.85200
H  39.83700 6.48100 44.71100
H  38.46100 5.38400 44.78300
H  39.20000 4.68000 42.80400
H  40.58900 3.82600 43.46300
H  41.52000 -1.94000 44.87900
H  41.07000 -1.59900 46.51000
H  42.16000 -2.90500 46.15100
H  46.93300 -1.72800 44.87700
H  46.80500 -3.54000 45.10700
H  47.05200 -2.55800 46.48800
H  49.13800 0.95000 46.02400
H  49.50700 3.80600 47.03000
H  49.77600 1.95800 48.69100
H  49.72400 0.28500 48.11100
H  48.29300 1.09200 48.77900
H  49.06600 4.00500 44.16800
H  49.70700 2.46300 44.43300
H  51.55600 3.77900 45.91100
H  51.19000 4.64600 44.37200
H  51.62100 2.94300 44.34200
H  47.51900 8.17000 47.32500
H  46.54500 9.17100 46.31300
H  47.57300 7.97100 45.47300
H  41.45500 7.69300 45.32900
H  39.17100 9.96500 48.49500
H  39.45900 8.41600 49.34000
H  38.60100 8.40700 47.85800

