158

Mg 30.69700 58.52200 40.68000
C  28.11100 56.49900 39.31700
C  32.85600 56.23900 39.30000
C  33.17700 60.75500 41.18100
C  28.33000 60.96000 41.39400
N  30.46400 56.67500 39.45800
C  29.34600 56.04500 38.99600
C  29.66800 54.67400 38.20500
C  31.10200 54.48000 38.72300
C  31.54000 55.89300 39.18200
C  31.28500 53.38300 39.80500
C  29.60900 55.03600 36.64300
C  28.55500 54.34700 35.71000
H  27.92900 55.13800 34.61900
N  32.75700 58.47500 40.34400
C  33.44500 57.41900 39.82500
C  34.79300 57.56800 40.15600
C  34.94600 58.80000 40.79100
C  33.58600 59.47100 40.72000
C  35.96600 56.59100 39.94100
C  36.25000 59.33600 41.46900
O  37.30900 58.66400 41.33100
C  36.24800 60.63800 42.27400
N  30.78600 60.61000 41.11600
C  31.94000 61.31500 41.33200
C  31.71200 62.70300 41.91100
C  30.10000 62.83500 41.88600
C  29.68200 61.36300 41.44900
C  32.47600 62.90300 43.29100
C  29.51400 64.02300 41.16100
C  28.70600 65.03900 41.91100
N  28.67800 58.64500 40.58500
C  27.87100 59.72700 40.91600
C  26.49000 59.36300 40.76400
C  26.57200 58.13300 39.98100
C  27.87300 57.69300 39.99600
C  25.24400 60.09400 41.14500
C  25.71400 57.05600 39.32400
O  24.51200 56.93600 39.18000
C  26.79200 55.92900 38.95200
C  26.60000 54.65800 39.82300
O  27.15200 54.35300 40.85800
O  25.67000 53.90500 39.19600
C  25.06900 52.74200 39.68500
H  33.54900 55.51000 38.87600
H  33.98800 61.37600 41.56700
H  27.64600 61.79600 41.55600
H  29.00700 53.87700 38.54600
H  31.74100 54.17300 37.89500
H  30.38600 52.80700 40.02300
H  31.65300 53.74600 40.76400
H  31.98500 52.63900 39.42600
H  30.55200 54.75100 36.17700
H  29.45900 56.10000 36.45900
H  27.89500 53.91700 36.46400
H  29.11000 53.52400 35.26100
H  36.72500 56.91800 39.23000
H  35.55700 55.66000 39.54800
H  36.42300 56.14700 40.82500
H  37.17500 60.68000 42.84500
H  35.39200 60.61000 42.94800
H  36.12400 61.42000 41.52500
H  32.14000 63.50900 41.31500
H  29.69600 62.92200 42.89500
H  33.34700 63.45800 42.94300
H  32.82100 61.92600 43.63100
H  32.02400 63.45000 44.11800
H  28.91300 63.61300 40.34900
H  30.35300 64.56800 40.73000
H  27.82900 65.40300 41.37600
H  29.33800 65.92400 41.98700
H  28.40900 64.70800 42.90600
H  25.04600 60.67700 40.24500
H  25.40700 60.71900 42.02300
H  24.45100 59.35600 41.26200
H  26.65200 55.64400 37.90900
H  25.69500 52.28900 40.45300
H  24.93400 52.12200 38.79800
H  24.16700 53.09300 40.18700
Mg 5.87400 55.58400 40.95500
C  4.32400 52.46100 41.10300
C  8.43000 54.15500 39.22100
C  7.16800 58.60300 40.71200
C  2.67300 57.04400 41.92600
N  6.10500 53.64600 39.94700
C  5.40300 52.50200 40.23600
C  5.88600 51.37000 39.29900
C  7.33300 51.81600 39.10500
C  7.30800 53.33300 39.44800
C  8.55000 51.03300 39.61200
C  4.97100 51.17500 37.98100
C  4.78000 49.75800 37.53200
H  5.43200 49.32300 36.21100
N  7.69100 56.23000 40.30900
C  8.69700 55.50900 39.64300
C  9.83700 56.35300 39.41300
C  9.53400 57.62100 39.92000
C  8.09700 57.58700 40.36100
C  11.23800 55.82500 39.05600
C  10.44400 58.91900 39.82200
O  11.60500 58.88500 39.40600
C  9.83900 60.24000 40.18300
N  4.92600 57.50000 41.15200
C  5.82000 58.62200 41.03300
C  5.07600 59.94500 41.33700
C  3.74500 59.40700 41.93400
C  3.75800 57.89200 41.75500
C  6.00100 60.96900 42.07200
C  2.49000 60.02100 41.26200
C  1.50600 60.79900 42.23400
N  3.84600 54.90600 41.45200
C  2.67900 55.62100 41.85200
C  1.66900 54.67000 42.10500
C  2.31600 53.39300 42.01000
C  3.57000 53.61400 41.50100
C  0.26900 54.94000 42.51200
C  2.18500 51.90800 42.20900
O  1.24900 51.28200 42.70000
C  3.53600 51.23500 41.64400
C  3.13000 50.16300 40.71600
O  2.36000 50.13000 39.77200
O  3.88500 49.00100 41.01500
C  3.54800 47.84500 40.18200
H  9.34000 53.70700 38.81800
H  7.40400 59.65400 40.53300
H  1.76700 57.46000 42.37300
H  6.05100 50.45900 39.87300
H  7.55000 51.82300 38.03600
H  8.21200 50.29800 40.34200
H  9.31500 51.69900 40.01200
H  8.99100 50.60000 38.71500
H  5.44700 51.68200 37.14100
H  3.99400 51.65700 38.03500
H  3.70200 49.62700 37.44700
H  5.05500 49.05000 38.31300
H  11.24500 54.74700 38.89800
H  12.04900 56.08600 39.73600
H  11.60800 56.40100 38.20800
H  10.56600 61.05000 40.23500
H  9.31800 60.12300 41.13400
H  9.10400 60.47600 39.41400
H  4.92500 60.33500 40.33000
H  3.78200 59.48000 43.02100
H  6.70600 60.31400 42.58400
H  5.50400 61.63700 42.77500
H  6.51700 61.72000 41.47400
H  1.81200 59.24800 40.90000
H  2.81500 60.70000 40.47400
H  1.90200 60.66100 43.24000
H  0.48700 60.42400 42.14300
H  1.51100 61.87600 42.06300
H  -0.27300 55.68100 41.92300
H  0.22100 55.07100 43.59300
H  -0.27200 54.01200 42.32600
H  4.01200 50.80500 42.52500
H  4.34800 47.10600 40.14900
H  3.41600 48.00400 39.11200
H  2.65600 47.38400 40.60600

