158

Mg 47.05000 16.82400 27.59000
C  45.21300 16.75000 30.56600
C  49.51500 18.37300 29.50400
C  48.87700 17.07800 24.85800
C  44.31300 15.90100 25.84800
N  47.19800 17.74900 29.80600
C  46.37800 17.48100 30.77300
C  46.93800 17.87600 32.09800
C  48.20600 18.69300 31.67400
C  48.33300 18.20200 30.21800
C  47.97500 20.25600 31.80600
C  47.23700 16.66600 33.09100
C  47.29000 16.91200 34.60300
H  47.00500 18.33000 35.02700
N  48.94600 17.48000 27.29900
C  49.81200 18.00800 28.15400
C  51.12100 18.13900 27.56800
C  50.93800 17.70200 26.23200
C  49.50500 17.36300 26.06400
C  52.30000 18.82300 28.25600
C  51.96400 17.58600 25.20000
O  51.76900 17.03100 24.13900
C  53.30000 18.30400 25.38100
N  46.61900 16.62500 25.59500
C  47.53600 16.83300 24.61900
C  46.87000 16.66400 23.12800
C  45.46200 16.05500 23.50800
C  45.48000 16.15200 25.09900
C  46.82700 17.94600 22.31700
C  45.20300 14.54600 23.03800
C  45.34300 13.40500 24.10900
N  45.16900 16.40800 28.07800
C  44.13500 15.93400 27.25600
C  42.97900 15.54800 28.04000
C  43.35000 15.89300 29.33800
C  44.67700 16.41100 29.26700
C  41.74200 14.95700 27.46900
C  42.90300 15.82600 30.69100
O  41.87100 15.41100 31.25200
C  44.11400 16.22200 31.49100
C  43.74000 17.26200 32.52200
O  43.48500 18.44700 32.29700
O  43.69000 16.72900 33.77900
C  43.07300 17.55600 34.84600
H  50.26100 18.76800 30.19800
H  49.53700 16.87000 24.01400
H  43.42000 15.58100 25.30800
H  46.25200 18.53500 32.62900
H  49.14100 18.49700 32.19800
H  48.70900 20.77000 32.42500
H  47.01400 20.43800 32.28800
H  48.05600 20.75100 30.83900
H  48.21900 16.37400 32.72100
H  46.66100 15.75900 32.90300
H  48.29700 16.76800 34.99400
H  46.64900 16.18800 35.10700
H  53.23600 18.28200 28.11500
H  52.19000 18.88500 29.33800
H  52.30500 19.82600 27.83000
H  53.14400 19.34400 25.66800
H  53.77400 18.39200 24.40400
H  53.82500 17.77500 26.17700
H  47.61800 16.01800 22.66900
H  44.65100 16.70400 23.18000
H  47.68000 18.59800 22.50000
H  45.87400 18.46500 22.42100
H  46.94200 17.55700 21.30500
H  45.87200 14.26400 22.22400
H  44.24200 14.53600 22.52300
H  44.37300 13.12700 24.52000
H  46.03300 13.71500 24.89400
H  45.78600 12.57700 23.55500
H  41.77900 13.90400 27.18900
H  41.48500 15.48400 26.55000
H  40.94400 15.12700 28.19200
H  44.62100 15.36600 31.93700
H  43.17500 18.62300 34.65100
H  43.52400 17.45600 35.83300
H  42.04800 17.20700 34.97300
Mg 16.63400 52.92500 26.24100
C  18.86600 51.00800 28.31400
C  14.76100 53.48500 29.20200
C  14.59800 54.72500 24.38300
C  18.65000 52.17700 23.61700
N  16.84500 52.32000 28.46100
C  17.82100 51.61800 29.06000
C  17.58000 51.45200 30.56200
C  16.01500 51.72300 30.65500
C  15.76000 52.51500 29.35600
C  15.04700 50.55000 30.95900
C  18.41100 52.52100 31.28600
C  18.61900 52.37700 32.81800
H  17.64000 51.56400 33.76000
N  14.95300 53.91700 26.67100
C  14.42200 54.15300 27.96600
C  13.30800 55.07600 27.75900
C  13.25500 55.49900 26.41100
C  14.28600 54.72300 25.77900
C  12.43800 55.44100 28.97500
C  12.37000 56.60800 25.78000
O  12.48900 56.95700 24.59600
C  11.34700 57.22600 26.64400
N  16.57200 53.26600 24.28100
C  15.60200 54.04600 23.68200
C  15.80100 54.08600 22.12500
C  17.23000 53.47200 21.96900
C  17.47900 52.93000 23.36100
C  14.68600 53.31600 21.33500
C  18.39000 54.42800 21.58700
C  19.37100 54.00400 20.45600
N  18.36600 51.80100 25.92400
C  19.00900 51.55000 24.78200
C  20.21700 50.73600 25.08600
C  20.23400 50.54300 26.43800
C  19.05000 51.13700 26.94200
C  21.32500 50.33100 24.11100
C  20.90500 49.81900 27.57100
O  21.99600 49.17600 27.65400
C  20.11200 50.30900 28.85700
C  19.92100 49.20700 29.85500
O  19.08000 48.31400 29.73100
O  20.67100 49.43200 30.91200
C  20.25900 48.60000 32.06200
H  14.19700 53.54400 30.13500
H  13.89400 55.27500 23.75400
H  19.24000 51.87900 22.74800
H  17.83200 50.46100 30.94000
H  15.85500 52.40700 31.48900
H  14.35100 50.77200 31.76800
H  15.56700 49.59300 30.99500
H  14.42200 50.43700 30.07400
H  18.05700 53.54400 31.16500
H  19.40100 52.49900 30.83000
H  18.65300 53.39200 33.21500
H  19.64900 52.04100 32.94100
H  12.64600 56.48700 29.20100
H  12.71400 54.98900 29.92800
H  11.39300 55.34400 28.68000
H  10.76400 57.71400 25.86300
H  11.82600 57.97100 27.27900
H  10.75000 56.55900 27.26700
H  15.77500 55.15100 21.89700
H  17.28500 52.59100 21.32900
H  13.84200 53.30500 22.02500
H  14.95900 52.32500 20.97200
H  14.46200 53.88600 20.43300
H  18.94900 54.84000 22.42700
H  17.87500 55.29800 21.18000
H  19.21200 54.60100 19.55800
H  19.41500 52.94100 20.21900
H  20.41100 54.17900 20.73100
H  20.86600 49.64100 23.40300
H  21.98100 49.70400 24.71600
H  21.77900 51.11500 23.50600
H  20.65200 51.01300 29.49100
H  20.41200 49.29600 32.88700
H  20.86500 47.69500 32.11000
H  19.19500 48.42800 32.22200

