158

Mg -0.57400 7.39500 26.05700
C  -0.07500 9.55300 28.95000
C  -0.63400 4.82900 28.25300
C  -0.64300 5.49000 23.43300
C  -0.18500 10.21200 24.15400
N  -0.50200 7.23300 28.37200
C  -0.34000 8.24800 29.32600
C  -0.44100 7.62500 30.77100
C  -0.35600 6.09400 30.46100
C  -0.52200 6.03100 28.90100
C  0.97900 5.32700 30.90100
C  -1.66300 8.19500 31.43700
C  -1.29900 8.76900 32.78600
H  -1.82300 8.04900 34.04900
N  -0.69400 5.45300 25.89300
C  -0.79800 4.50700 26.90500
C  -0.87000 3.12300 26.32900
C  -0.89100 3.30500 24.92900
C  -0.79200 4.81100 24.71200
C  -0.93100 1.95000 27.27300
C  -0.75500 2.28200 23.85400
O  -0.68200 2.56200 22.66900
C  -0.75200 0.91400 24.22600
N  -0.23300 7.83500 24.05300
C  -0.42700 6.83200 23.11200
C  -0.63900 7.37200 21.69500
C  -0.61100 8.93100 21.92000
C  -0.32800 9.04600 23.41700
C  0.42900 6.86300 20.63000
C  -1.82500 9.76800 21.30400
C  -2.73100 10.48000 22.37200
N  -0.26900 9.43100 26.40500
C  -0.09600 10.47600 25.51800
C  0.14700 11.73400 26.20000
C  0.20100 11.36900 27.49500
C  -0.06400 9.99100 27.61600
C  0.44700 13.06500 25.53300
C  0.58700 11.88900 28.74600
O  1.09200 12.94600 29.08700
C  0.32400 10.73700 29.75900
C  1.55900 10.39100 30.51000
O  2.52800 9.70800 30.15300
O  1.42600 11.03100 31.68500
C  2.51300 11.07400 32.57600
H  -0.64700 4.02800 28.99500
H  -0.92800 4.85200 22.59400
H  -0.02300 11.04700 23.46900
H  0.52700 7.81900 31.23400
H  -1.25100 5.58000 30.81000
H  0.85600 4.46600 31.55800
H  1.59200 6.13000 31.30900
H  1.44600 4.77100 30.08700
H  -2.32600 7.35900 31.66100
H  -2.09100 9.04000 30.89700
H  -1.56800 9.82400 32.84600
H  -0.21800 8.74200 32.92200
H  0.06600 1.58400 27.52000
H  -1.50400 1.16100 26.78600
H  -1.44000 2.25500 28.18700
H  -0.15500 0.76800 25.12600
H  -0.31300 0.31300 23.43000
H  -1.77300 0.64900 24.50000
H  -1.65700 7.14600 21.37600
H  0.33700 9.32700 21.55500
H  -0.03400 6.43300 19.74200
H  1.12500 6.13300 21.04300
H  1.04200 7.65500 20.20100
H  -2.47000 9.17100 20.65800
H  -1.37600 10.56200 20.70700
H  -2.96600 9.73600 23.13300
H  -3.63600 10.84300 21.88400
H  -2.25300 11.28800 22.92600
H  1.02700 13.02200 24.61000
H  1.10400 13.53600 26.26500
H  -0.38900 13.73100 25.32200
H  -0.37600 11.13300 30.49500
H  2.56500 12.10800 32.91800
H  3.51500 10.71700 32.33800
H  2.26300 10.50800 33.47300
Mg 16.68600 -1.12200 27.40600
C  15.26900 0.70300 30.11500
C  18.63600 -2.71800 29.67800
C  18.18200 -2.57300 24.85400
C  15.00800 1.04900 25.17800
N  16.88300 -1.00900 29.70800
C  16.23000 -0.20200 30.56400
C  16.72900 -0.45000 31.98300
C  17.96000 -1.39400 31.80400
C  17.83200 -1.74100 30.35000
C  19.27700 -0.87900 32.27600
C  15.61500 -1.06400 32.79500
C  15.61800 -0.73800 34.29500
H  16.81700 0.13500 34.88900
N  18.05000 -2.56100 27.28800
C  18.66400 -3.19700 28.34300
C  19.40900 -4.33400 27.85400
C  19.31400 -4.33100 26.41400
C  18.49700 -3.10500 26.10000
C  20.13700 -5.18500 28.76400
C  19.97800 -5.23000 25.38900
O  19.78500 -5.15300 24.14100
C  20.87400 -6.41200 25.73800
N  16.87400 -0.52900 25.35800
C  17.52600 -1.45500 24.53400
C  17.30400 -1.14600 23.03000
C  16.27200 0.01400 23.06800
C  15.99900 0.20500 24.59200
C  18.58000 -0.77900 22.19200
C  15.03400 -0.03000 22.19400
C  14.81000 1.19200 21.29800
N  15.38600 0.46000 27.52600
C  14.75700 1.23600 26.54700
C  13.76000 2.11400 27.16900
C  14.00400 1.94300 28.55800
C  14.98700 0.95300 28.71700
C  12.91400 3.05200 26.41000
C  13.54600 2.43100 29.89200
O  12.66900 3.20700 30.18800
C  14.45400 1.66500 30.87700
C  15.15600 2.63900 31.78800
O  16.29300 3.03900 31.77000
O  14.26800 3.00900 32.78200
C  14.70700 4.02300 33.69400
H  19.19900 -3.20000 30.48000
H  18.52300 -3.22300 24.04500
H  14.40600 1.62800 24.47600
H  17.09900 0.49500 32.38100
H  17.88100 -2.23500 32.49400
H  19.70300 -0.31400 31.44800
H  19.91400 -1.69200 32.62700
H  19.20300 -0.23300 33.15100
H  15.49000 -2.13500 32.63700
H  14.63900 -0.65100 32.53700
H  15.86700 -1.65200 34.83400
H  14.62500 -0.35100 34.52500
H  19.71600 -6.18000 28.90300
H  20.35800 -4.70600 29.71800
H  21.11500 -5.47800 28.38400
H  20.63100 -6.98400 26.63300
H  21.78400 -5.85300 25.95900
H  20.86800 -7.03200 24.84200
H  16.76300 -1.98600 22.59300
H  16.90000 0.83800 22.73100
H  18.40500 0.13200 21.62000
H  18.87400 -1.60300 21.54300
H  19.38900 -0.51600 22.87400
H  14.14200 -0.09600 22.81700
H  15.15600 -0.96300 21.64300
H  15.69900 1.75200 21.00500
H  14.23700 1.93600 21.85100
H  14.28100 0.75600 20.45100
H  13.58800 3.84400 26.08300
H  12.20900 3.55100 27.07400
H  12.33100 2.57800 25.61900
H  13.82400 1.11600 31.57600
H  14.80100 4.88600 33.03500
H  15.70800 3.91300 34.11100
H  13.99900 4.25800 34.48900

