158

Mg 41.27200 8.90100 29.32100
C  43.32600 10.21700 31.93100
C  39.13900 7.71200 31.63700
C  39.40500 7.64100 26.78900
C  43.66000 10.03300 27.04300
N  41.40200 8.80300 31.53100
C  42.19200 9.52500 32.40200
C  41.80200 9.44400 33.89800
C  40.49600 8.63800 33.71700
C  40.32700 8.34700 32.19000
C  40.40300 7.37300 34.68500
C  41.58700 10.91700 34.51500
C  40.85200 10.96600 35.90600
H  41.54400 11.90200 36.95900
N  39.39900 7.94800 29.21300
C  38.78300 7.43700 30.27400
C  37.56100 6.80800 29.80700
C  37.59400 6.92000 28.41000
C  38.82100 7.51100 28.05200
C  36.54000 6.24600 30.79100
C  36.59000 6.45700 27.45700
O  36.67600 6.67900 26.24400
C  35.30800 5.84100 27.93900
N  41.59800 8.75500 27.23200
C  40.64000 8.20900 26.40600
C  40.98100 8.33100 24.90200
C  42.14800 9.37900 25.00200
C  42.49000 9.46500 26.49300
C  41.34700 6.90400 24.30000
C  41.72500 10.83700 24.47600
C  41.43200 12.00200 25.44600
N  43.16700 9.84400 29.42800
C  44.00600 10.19400 28.41000
C  45.11500 10.98600 28.95300
C  44.88300 10.86300 30.27100
C  43.67500 10.25400 30.57700
C  46.14100 11.77000 28.21300
C  45.41400 11.25700 31.50100
O  46.46900 11.76200 31.78700
C  44.37000 11.01900 32.64500
C  44.97400 10.26000 33.80700
O  45.31300 9.07500 33.73900
O  45.15600 11.05500 34.91300
C  45.57800 10.39000 36.16400
H  38.49800 7.31800 32.42900
H  38.93300 7.20600 25.90600
H  44.33300 10.34200 26.24000
H  42.51500 8.79200 34.40400
H  39.77300 9.36900 34.08000
H  41.38000 7.03300 35.03000
H  39.93500 6.57800 34.10600
H  39.91000 7.68700 35.60500
H  41.00500 11.57800 33.87300
H  42.57800 11.35400 34.63700
H  40.85700 9.97400 36.35600
H  39.81300 11.29400 35.88700
H  36.19200 5.27500 30.43900
H  35.76800 7.01500 30.82100
H  36.94100 6.20500 31.80300
H  34.87300 6.42100 28.75300
H  35.60600 4.93100 28.45900
H  34.59000 5.70700 27.13000
H  40.15300 8.77800 24.35200
H  43.05200 9.00000 24.52500
H  40.97700 6.16300 25.00800
H  42.43600 6.85500 24.27400
H  41.05900 6.82500 23.25100
H  40.88700 10.82800 23.77900
H  42.55600 11.10600 23.82300
H  41.29500 11.57700 26.44000
H  40.48500 12.50100 25.24100
H  42.32200 12.63000 25.40900
H  46.04900 11.73300 27.12800
H  47.10600 11.42400 28.58500
H  46.01300 12.81400 28.49900
H  43.93400 11.98200 32.90900
H  44.98100 10.69500 37.02300
H  46.62800 10.66200 36.26300
H  45.61700 9.30100 36.12600
Mg -4.43000 25.47500 26.24000
C  -3.32700 27.11700 29.09600
C  -6.22300 23.41800 28.19600
C  -4.78900 23.41900 23.59800
C  -2.07800 27.41700 24.43800
N  -4.60400 25.22100 28.38000
C  -4.15500 26.03900 29.37100
C  -4.65100 25.63000 30.76100
C  -5.32300 24.25700 30.44200
C  -5.39900 24.26700 28.90000
C  -4.62200 22.93700 31.06100
C  -5.54900 26.68500 31.42900
C  -6.73800 26.22300 32.24600
H  -6.43700 25.16100 33.26800
N  -5.49800 23.73900 25.87300
C  -6.20700 23.07100 26.83300
C  -6.99100 22.02000 26.17800
C  -6.66300 22.14000 24.82400
C  -5.57600 23.08900 24.69900
C  -8.11200 21.28700 26.86100
C  -7.23100 21.37200 23.68500
O  -6.70200 21.42000 22.56700
C  -8.38700 20.35400 23.79200
N  -3.31000 25.33400 24.39000
C  -3.82000 24.47700 23.45800
C  -3.02400 24.70200 22.13400
C  -2.19600 25.98100 22.33100
C  -2.62900 26.28900 23.79500
C  -2.20100 23.48700 21.65600
C  -2.41200 27.24800 21.33200
C  -1.10300 27.84100 20.83300
N  -3.16600 27.05200 26.62000
C  -2.30400 27.78500 25.79900
C  -1.59500 28.78300 26.54800
C  -2.04400 28.61900 27.86600
C  -2.95100 27.54500 27.82600
C  -0.66300 29.77400 26.10400
C  -2.02800 29.12800 29.22700
O  -1.58400 30.18300 29.69900
C  -2.82300 28.09600 30.11700
C  -1.81500 27.56800 31.06600
O  -0.73400 26.99600 30.79400
O  -2.30000 27.77500 32.32000
C  -1.64600 27.10200 33.39400
H  -6.83800 22.71500 28.76200
H  -5.01900 22.94800 22.64000
H  -1.34100 28.05200 23.94100
H  -3.79200 25.54600 31.42700
H  -6.37700 24.32100 30.71400
H  -4.13000 22.51800 30.18300
H  -5.33400 22.26000 31.53200
H  -3.87900 23.26700 31.78700
H  -5.79200 27.44300 30.68400
H  -4.86800 27.19900 32.10800
H  -7.58500 25.96300 31.61200
H  -7.08900 27.16200 32.67400
H  -7.97800 20.22400 26.66300
H  -9.05500 21.47300 26.34600
H  -8.36900 21.48900 27.90100
H  -9.32600 20.83300 24.07100
H  -8.10200 19.63100 24.55600
H  -8.56400 19.74700 22.90400
H  -3.87100 24.95600 21.49700
H  -1.13400 25.82000 22.51800
H  -2.79900 22.78900 21.07000
H  -1.87900 22.97100 22.56000
H  -1.31000 23.75600 21.08900
H  -2.82100 28.09900 21.87500
H  -3.07900 26.98300 20.51200
H  -0.98600 28.83200 21.27300
H  -1.12700 27.97500 19.75200
H  -0.27400 27.22000 21.17200
H  -1.17400 30.70400 25.85400
H  -0.14000 29.39400 25.22600
H  0.01100 29.94400 26.94300
H  -3.50900 28.77400 30.62400
H  -0.70600 26.63200 33.10600
H  -2.29100 26.27900 33.70000
H  -1.45300 27.78900 34.21800

