158

Mg 34.68600 2.81700 29.84900
C  32.20700 3.78000 32.18400
C  36.95800 2.59900 32.46000
C  37.07400 1.98400 27.62500
C  32.36300 3.29600 27.28400
N  34.59000 3.30300 32.01600
C  33.46300 3.53500 32.80700
C  33.78600 3.55500 34.31100
C  35.31400 3.32700 34.32600
C  35.61600 2.98700 32.83300
C  36.20500 4.35600 35.03400
C  33.05700 2.49800 35.10900
C  33.00100 2.52700 36.64200
H  33.86700 3.48400 37.39100
N  36.68000 2.42700 30.00300
C  37.46000 2.36600 31.22100
C  38.82600 1.98000 30.82400
C  38.92500 1.74200 29.47400
C  37.54000 2.07100 28.95000
C  39.94700 1.82800 31.79000
C  40.04200 1.37200 28.61300
O  39.81200 1.06200 27.46800
C  41.50300 1.32000 29.15000
N  34.71200 2.81200 27.74800
C  35.78500 2.28400 27.07500
C  35.34400 1.99200 25.55100
C  33.94700 2.59200 25.44500
C  33.65200 2.95600 26.90400
C  36.36300 2.57800 24.45600
C  32.98200 1.68900 24.55000
C  32.04600 0.78900 25.31100
N  32.65100 3.38700 29.69700
C  31.86500 3.52500 28.59000
C  30.56200 3.99700 29.02700
C  30.62400 4.16500 30.42000
C  31.96200 3.79000 30.77500
C  29.27900 4.02200 28.20000
C  29.92700 4.52900 31.60200
O  28.80000 5.03500 31.75800
C  30.86500 4.19200 32.85800
C  31.02000 5.47300 33.59100
O  31.44900 6.56100 33.09900
O  30.77900 5.21900 34.89000
C  31.06600 6.25100 35.90700
H  37.64800 2.51200 33.30300
H  37.79500 1.65600 26.87400
H  31.68500 3.52300 26.45800
H  33.51900 4.51600 34.75100
H  35.52700 2.45600 34.94500
H  36.79900 4.91200 34.30900
H  36.84300 3.86900 35.77200
H  35.67300 5.01200 35.72300
H  33.63400 1.62700 34.79700
H  32.05500 2.44300 34.68400
H  33.02200 1.52900 37.08100
H  31.99200 2.83400 36.91500
H  40.31300 0.80100 31.77800
H  39.62300 2.11300 32.79000
H  40.74600 2.52400 31.53600
H  41.69200 2.33400 29.50400
H  42.21900 1.04200 28.37600
H  41.64000 0.65300 30.00000
H  35.28400 0.90400 25.54700
H  34.06300 3.60100 25.05100
H  36.95000 3.47000 24.67800
H  35.84800 2.83000 23.52900
H  37.07900 1.77600 24.27700
H  33.46200 1.00600 23.85000
H  32.45200 2.41700 23.93600
H  31.06400 1.12600 24.97900
H  32.20900 0.80600 26.38900
H  32.05600 -0.22800 24.91900
H  29.59000 3.52700 27.28000
H  28.97800 5.06800 28.14400
H  28.55600 3.43900 28.77000
H  30.43700 3.46500 33.54800
H  31.98900 5.95700 36.40600
H  30.35600 6.27800 36.73400
H  31.21500 7.23600 35.46500
Mg -6.00700 24.97700 26.84700
C  -4.59900 26.38500 29.68100
C  -7.87600 22.88900 28.76900
C  -7.08000 23.43500 23.92000
C  -3.79200 26.91400 24.84900
N  -6.15700 24.68000 29.07900
C  -5.56400 25.42100 30.00500
C  -6.10000 24.99600 31.37500
C  -7.04900 23.75400 31.09800
C  -7.12800 23.77600 29.51800
C  -6.61900 22.36300 31.69600
C  -6.84700 26.19000 32.10200
C  -7.07400 26.04600 33.61200
H  -6.35600 24.95600 34.41600
N  -7.29400 23.47800 26.41100
C  -7.97900 22.72900 27.36300
C  -8.83300 21.86800 26.67200
C  -8.64900 21.98900 25.29000
C  -7.62400 23.00600 25.16900
C  -9.72000 20.89600 27.40300
C  -9.36200 21.24400 24.10900
O  -9.21400 21.63400 22.97600
C  -10.37800 20.09200 24.41200
N  -5.30800 24.95500 24.69000
C  -6.04900 24.36400 23.72000
C  -5.41700 24.66200 22.35800
C  -4.41700 25.85900 22.62800
C  -4.52900 25.96200 24.14900
C  -4.77300 23.43000 21.67200
C  -4.67200 27.21100 21.83100
C  -3.62900 27.69600 20.88000
N  -4.51200 26.31800 27.11500
C  -3.71400 27.04400 26.26600
C  -2.84200 27.95900 27.03400
C  -3.25000 27.71200 28.38300
C  -4.20000 26.73700 28.38600
C  -1.71300 28.84800 26.56200
C  -2.98700 28.13600 29.72700
O  -2.20800 29.02700 30.18900
C  -3.85900 27.26900 30.62600
C  -2.98000 26.44600 31.44500
O  -2.58100 25.31800 31.23400
O  -2.58300 27.17100 32.58800
C  -1.80600 26.35100 33.56100
H  -8.60800 22.29100 29.31500
H  -7.43300 22.98100 22.99200
H  -3.05700 27.48500 24.27800
H  -5.22300 24.74200 31.97000
H  -8.05300 24.02400 31.42600
H  -5.72600 22.43200 32.31700
H  -6.42700 21.81100 30.77600
H  -7.40200 21.84500 32.25000
H  -7.84100 26.13800 31.65800
H  -6.39500 27.14100 31.82200
H  -8.13800 25.93500 33.81900
H  -6.86900 27.01700 34.06300
H  -9.87500 19.95900 26.86800
H  -10.71100 21.29400 27.61900
H  -9.27000 20.62300 28.35800
H  -11.11100 19.97000 23.61500
H  -11.00800 20.42900 25.23500
H  -9.81100 19.19900 24.67600
H  -6.22800 25.02500 21.72700
H  -3.42600 25.47600 22.38300
H  -3.69200 23.51600 21.77600
H  -5.01100 23.48000 20.60900
H  -5.06800 22.50100 22.15800
H  -4.96700 28.05300 22.45800
H  -5.54600 26.93400 21.24100
H  -2.74100 27.07100 20.96900
H  -3.43600 28.75800 21.03100
H  -3.90600 27.49200 19.84600
H  -1.88800 29.78300 27.09600
H  -1.88400 29.07000 25.50900
H  -0.66700 28.59800 26.74300
H  -4.39600 27.92100 31.31600
H  -0.75400 26.42600 33.28700
H  -2.15100 25.31900 33.50100
H  -1.85700 26.73000 34.58200

