158

Mg 3.47600 1.06200 44.35200
C  6.22600 3.25800 43.84700
C  1.53200 3.50200 42.71100
C  1.15700 -1.22200 43.80600
C  5.84900 -1.39100 45.26100
N  3.88500 3.03000 43.26000
C  5.00100 3.71500 43.36900
C  4.81500 5.11200 42.74300
C  3.31700 5.26900 42.80600
C  2.85800 3.86100 42.85700
C  2.74800 6.11300 43.97300
C  5.35500 5.25500 41.34200
C  5.42400 3.96700 40.51300
H  5.67000 4.10400 39.01400
N  1.59200 1.16000 43.52700
C  0.94400 2.25000 42.99900
C  -0.44700 1.93100 42.85600
C  -0.58400 0.54400 43.17200
C  0.75600 0.07400 43.57300
C  -1.43600 2.91800 42.29900
C  -1.90300 -0.26500 43.15100
O  -2.94900 0.22000 42.77400
C  -1.95900 -1.67600 43.41600
N  3.59100 -1.03100 44.38900
C  2.44600 -1.78500 44.16600
C  2.57600 -3.30900 44.57400
C  3.99400 -3.26300 45.23700
C  4.60300 -1.87600 44.90300
C  1.44100 -3.80100 45.50500
C  4.82400 -4.50300 44.86100
C  5.43200 -5.25100 45.99800
N  5.66100 0.95000 44.56500
C  6.44300 -0.13000 44.99300
C  7.82300 0.32900 44.94500
C  7.72100 1.69400 44.58200
C  6.43400 2.00900 44.30700
C  9.08400 -0.43800 45.44800
C  8.52600 2.87100 44.39800
O  9.76200 3.02400 44.44900
C  7.57600 3.92100 43.83800
C  7.63300 5.21900 44.58600
O  8.12200 6.27600 44.25600
O  6.94000 4.95300 45.79000
C  6.57500 6.20700 46.52500
H  0.85600 4.28000 42.34800
H  0.45700 -2.04000 43.62300
H  6.52100 -2.16900 45.62900
H  5.33200 5.90900 43.27700
H  2.81000 5.69300 41.93900
H  2.54900 7.15100 43.70700
H  3.38500 6.29400 44.83900
H  1.82100 5.76100 44.42500
H  6.31300 5.75500 41.48900
H  4.75100 5.94200 40.74900
H  4.45600 3.46700 40.55600
H  6.24600 3.31700 40.81200
H  -1.43100 2.98800 41.21100
H  -1.19100 3.91800 42.65700
H  -2.47900 2.70500 42.53400
H  -1.74100 -2.10700 44.39300
H  -1.40600 -2.11200 42.58300
H  -2.96400 -2.08900 43.32300
H  2.63400 -3.91000 43.66600
H  3.87100 -3.09100 46.30700
H  0.54200 -4.09400 44.96300
H  1.16000 -2.99200 46.18000
H  1.70000 -4.66700 46.11400
H  5.65300 -4.15300 44.24600
H  4.25600 -5.16200 44.20500
H  5.30300 -6.26600 45.62200
H  4.96800 -5.10100 46.97300
H  6.51900 -5.18800 46.04400
H  9.76100 -0.74400 44.65000
H  8.80100 -1.31800 46.02600
H  9.59900 0.12700 46.22500
H  8.06600 4.11200 42.88400
H  5.69400 5.92800 47.10300
H  6.43100 7.00700 45.79900
H  7.34200 6.40500 47.27400
Mg 40.47800 41.69400 27.07800
C  39.67700 44.09100 29.61600
C  41.31500 39.48700 29.60100
C  41.40700 39.64300 24.64400
C  40.10600 44.43900 24.85400
N  40.47500 41.79200 29.37600
C  40.06300 42.86200 30.16200
C  40.03100 42.42900 31.66400
C  40.61300 40.94500 31.63200
C  40.82900 40.68400 30.13200
C  41.85800 40.64400 32.53000
C  38.60400 42.61500 32.32800
C  38.33100 41.74100 33.55200
H  37.61100 42.46400 34.59000
N  41.27000 39.79500 27.10300
C  41.51000 39.03300 28.24000
C  42.04300 37.72400 27.77900
C  42.09400 37.75300 26.34500
C  41.59600 39.08300 25.95200
C  42.36000 36.57000 28.82000
C  42.54700 36.71600 25.34600
O  42.81000 36.95400 24.16200
C  42.88200 35.33300 25.89000
N  40.77000 42.01200 25.02800
C  41.14300 40.99000 24.22300
C  41.29100 41.44600 22.79000
C  40.80200 42.88900 22.85200
C  40.47800 43.17100 24.33900
C  42.76100 41.31700 22.21100
C  39.71800 43.14100 21.79300
C  38.31500 43.36900 22.36900
N  40.04800 43.80300 27.16200
C  39.96200 44.74000 26.16700
C  39.50100 46.02100 26.69100
C  39.36900 45.82100 28.06200
C  39.80000 44.46200 28.26500
C  39.14800 47.34200 26.06200
C  38.95900 46.39600 29.33200
O  38.60800 47.50000 29.52800
C  39.17100 45.32500 30.40700
C  40.09400 45.87100 31.46900
O  41.31200 45.89400 31.35700
O  39.37900 46.33800 32.53700
C  40.18300 46.85500 33.62900
H  41.41000 38.81300 30.45500
H  41.53300 38.94200 23.81600
H  39.82600 45.14400 24.06900
H  40.67600 43.09800 32.23500
H  39.85200 40.22200 31.92800
H  41.73000 39.68800 33.03900
H  42.00200 41.42600 33.27500
H  42.71500 40.49200 31.87300
H  37.76800 42.36300 31.67600
H  38.64400 43.66100 32.63200
H  39.22600 41.35000 34.03700
H  37.71300 40.86600 33.34700
H  41.63000 35.76100 28.79700
H  42.23600 36.80400 29.87700
H  43.37000 36.20300 28.63700
H  41.96000 35.09400 26.42000
H  43.79900 35.34200 26.48000
H  43.03200 34.66000 25.04500
H  40.69400 40.89800 22.06000
H  41.60200 43.59300 22.62500
H  43.21600 40.52700 22.80900
H  43.36300 42.21300 22.35900
H  42.77100 40.97900 21.17400
H  39.78700 42.36700 21.02900
H  40.07100 44.04900 21.30300
H  37.86200 44.32700 22.11300
H  38.16800 43.15200 23.42700
H  37.76500 42.62600 21.79000
H  38.94900 48.08100 26.83800
H  38.27900 47.23100 25.41300
H  39.91400 47.82200 25.45400
H  38.21700 45.12000 30.89300
H  40.90200 47.59700 33.28000
H  40.79200 46.13100 34.16900
H  39.56100 47.41000 34.33100

