158

Mg 31.24900 57.51400 38.63000
C  28.47400 55.45600 37.60700
C  33.24900 54.70900 38.00400
C  33.88400 59.50000 38.91800
C  29.12800 60.19000 38.73100
N  30.87300 55.35300 37.67200
C  29.68700 54.73200 37.56700
C  29.79300 53.24900 37.25900
C  31.32800 53.00400 37.56700
C  31.83400 54.41100 37.82000
C  31.62400 51.98900 38.64500
C  29.28000 52.70400 35.93100
C  29.68700 53.52000 34.67500
H  28.63000 54.08500 33.76900
N  33.33000 57.12600 38.62700
C  33.91200 55.96600 38.31000
C  35.35300 56.20000 38.11400
C  35.62500 57.59900 38.34600
C  34.25700 58.15300 38.63800
C  36.41800 55.14300 37.84500
C  36.96700 58.31100 38.22600
O  38.03700 57.77700 37.81300
C  37.11900 59.71800 38.78800
N  31.39800 59.53700 38.79200
C  32.66400 60.13300 38.96000
C  32.48000 61.61200 39.23600
C  30.91100 61.90600 39.26400
C  30.39700 60.48000 38.90900
C  33.30400 62.42000 40.32700
C  30.46100 63.00300 38.31900
C  29.78600 64.18700 38.97300
N  29.21200 57.85600 38.23200
C  28.46500 58.99000 38.45200
C  27.04500 58.73700 38.30000
C  27.05400 57.36300 37.96900
C  28.37400 56.88100 37.88100
C  25.87100 59.59700 38.54100
C  26.17500 56.27200 37.59500
O  24.99600 56.32900 37.41600
C  27.07000 54.99600 37.48200
C  26.55200 54.06700 38.48800
O  27.24000 53.74800 39.41800
O  25.44900 53.43900 37.95800
C  25.02800 52.18600 38.59200
H  33.96500 53.89500 37.87400
H  34.70400 60.21900 38.86600
H  28.46000 61.03600 38.90300
H  29.26200 52.77200 38.08300
H  31.79600 52.67800 36.63900
H  32.01100 52.51500 39.51800
H  32.34300 51.30700 38.19000
H  30.70200 51.47900 38.92700
H  28.20600 52.79000 36.09700
H  29.62600 51.67300 35.86300
H  30.25700 52.84700 34.03600
H  30.22600 54.43300 34.93000
H  37.12800 55.40000 37.05900
H  35.96400 54.24900 37.41700
H  37.02400 54.90000 38.71800
H  36.55300 59.81000 39.71500
H  36.71600 60.29600 37.95600
H  38.13900 60.01600 39.02900
H  32.95900 61.97800 38.32700
H  30.67800 62.04600 40.31900
H  33.76300 63.32000 39.91800
H  34.11300 61.85500 40.78900
H  32.62000 62.85500 41.05700
H  29.79800 62.45000 37.65300
H  31.33000 63.38700 37.78500
H  30.53800 64.97100 38.88000
H  29.58800 64.06800 40.03800
H  28.86600 64.37300 38.41900
H  24.96500 58.99200 38.54200
H  25.86500 60.48000 37.90100
H  26.10900 60.03100 39.51200
H  26.92400 54.59100 36.48100
H  25.19200 52.06200 39.66200
H  25.34400 51.33200 37.99300
H  23.96600 52.02900 38.40400
Mg 10.44600 47.41300 26.53700
C  8.31600 47.66900 29.57400
C  12.99000 48.59100 28.50600
C  12.29200 47.75500 23.73500
C  7.53200 46.88600 24.60800
N  10.59000 47.91800 28.80400
C  9.66300 47.86500 29.81700
C  10.44400 48.16700 31.21900
C  11.78300 48.78700 30.77400
C  11.82500 48.37200 29.25800
C  11.93600 50.28500 30.87200
C  10.64900 46.95800 32.22300
C  10.35400 47.41800 33.60600
H  10.48900 46.35800 34.80200
N  12.36900 47.87900 26.16100
C  13.26900 48.34800 27.10200
C  14.60400 48.39200 26.56100
C  14.43900 48.04700 25.20800
C  13.00000 47.91100 24.96900
C  15.73500 48.82200 27.43500
C  15.51500 47.96100 24.10600
O  15.19100 47.78100 22.90800
C  17.01300 48.11300 24.32400
N  10.00400 47.37800 24.53500
C  10.92800 47.51900 23.58300
C  10.38500 47.26300 22.17700
C  8.91000 46.80400 22.43300
C  8.75200 47.01900 23.95200
C  10.48700 48.54700 21.30500
C  8.59800 45.34100 22.04800
C  9.57800 44.27100 22.60800
N  8.27700 47.30700 26.92500
C  7.25400 47.06500 26.02200
C  6.02700 47.09400 26.78500
C  6.34700 47.28400 28.18500
C  7.75700 47.43800 28.21300
C  4.66200 46.79400 26.18200
C  5.80100 47.34600 29.60400
O  4.67500 47.23300 30.03500
C  7.14100 47.57000 30.49100
C  7.24900 46.33100 31.31200
O  7.78300 45.27600 30.93500
O  6.64900 46.48600 32.52400
C  6.67300 45.28900 33.41700
H  13.76600 48.94300 29.18900
H  12.74100 47.67100 22.74300
H  6.68700 46.74900 23.92900
H  9.75000 48.85400 31.70400
H  12.67600 48.36500 31.23300
H  11.22000 50.78300 31.52600
H  11.81200 50.76600 29.90100
H  12.95700 50.47300 31.20200
H  11.71000 46.70700 32.21600
H  9.96400 46.17100 31.90700
H  9.31300 47.73700 33.55100
H  10.98400 48.25600 33.90600
H  15.90200 48.01400 28.14800
H  15.52000 49.74900 27.96600
H  16.67300 48.89400 26.88400
H  17.21300 48.90100 25.05000
H  17.52700 48.46400 23.42800
H  17.53300 47.21500 24.65600
H  10.86700 46.42000 21.68200
H  8.22300 47.53000 21.99900
H  10.67700 49.40800 21.94600
H  9.67600 48.64100 20.58300
H  11.44000 48.27300 20.85100
H  8.67900 45.25000 20.96500
H  7.56400 45.05300 22.24100
H  9.09100 43.56700 23.28300
H  10.34900 44.74500 23.21600
H  10.03700 43.61000 21.87300
H  4.82600 46.32800 25.21000
H  4.01500 47.63400 25.93200
H  4.22600 46.18400 26.97300
H  7.08400 48.46900 31.10400
H  5.68700 44.84900 33.26800
H  6.89900 45.42300 34.47400
H  7.38500 44.53400 33.08500

