158

Mg 48.10700 25.33200 29.54400
C  49.52000 27.42200 31.89600
C  46.85300 23.54400 32.00700
C  47.42900 23.04000 27.23200
C  49.79700 27.34800 27.05100
N  48.23300 25.46800 31.68800
C  48.86700 26.36700 32.49400
C  48.53300 26.27600 33.90800
C  47.72600 24.94000 33.91400
C  47.51300 24.69400 32.46500
C  48.42800 23.68400 34.53700
C  47.64000 27.46700 34.50100
C  48.23700 28.30100 35.62100
H  47.33200 28.43200 36.85900
N  47.19100 23.52500 29.57600
C  46.77700 22.96100 30.71400
C  46.07500 21.74400 30.32000
C  46.32000 21.55000 28.88500
C  47.01700 22.73500 28.50900
C  45.31100 20.88000 31.31500
C  45.78500 20.44300 28.01900
O  45.95000 20.38100 26.78700
C  44.94900 19.40800 28.58300
N  48.66400 25.14800 27.48100
C  48.16200 24.13700 26.73100
C  48.36100 24.30300 25.25200
C  48.86400 25.79000 25.17600
C  49.14600 26.14300 26.68200
C  49.27300 23.29900 24.57400
C  47.93500 26.87300 24.71100
C  48.41100 27.88100 23.54500
N  49.41100 27.02800 29.45400
C  49.97300 27.74700 28.38100
C  50.62700 28.89200 28.93500
C  50.42700 28.87100 30.26900
C  49.77500 27.65900 30.57300
C  51.18700 29.96300 28.12700
C  50.69500 29.54200 31.55200
O  51.21600 30.60600 31.89200
C  50.14600 28.56400 32.63500
C  51.24100 28.23100 33.54100
O  52.02900 27.33100 33.42000
O  51.32500 29.22500 34.51700
C  52.01400 28.93100 35.71700
H  46.42600 22.98000 32.83900
H  47.01500 22.39000 26.45800
H  50.16600 28.04500 26.29500
H  49.45300 26.20600 34.48800
H  46.77200 25.07500 34.42500
H  48.94100 23.99400 35.44700
H  48.99200 23.19500 33.74200
H  47.74400 22.88500 34.82200
H  46.73500 27.07600 34.96500
H  47.32800 28.18200 33.73900
H  48.41400 29.28400 35.18600
H  49.17500 27.95700 36.05600
H  44.25400 20.78600 31.06800
H  45.34200 21.31400 32.31500
H  45.75000 19.88300 31.28300
H  45.55700 18.67600 29.11500
H  44.43300 18.97000 27.72900
H  44.09400 19.86000 29.08600
H  47.42700 24.29400 24.69100
H  49.77800 25.76300 24.58300
H  49.71100 22.66800 25.34600
H  50.06900 23.66900 23.92700
H  48.63100 22.78300 23.86000
H  47.44900 27.40900 25.52600
H  46.99700 26.45100 24.34900
H  48.40700 28.94000 23.80200
H  47.77800 27.69600 22.67700
H  49.43700 27.70600 23.22000
H  50.46300 30.70500 27.79000
H  51.61800 29.41700 27.28800
H  52.01400 30.42900 28.66200
H  49.39100 29.12600 33.18500
H  51.34500 28.31000 36.31200
H  52.14100 29.80500 36.35500
H  53.01200 28.49300 35.67100
Mg 29.30900 57.40500 41.68800
C  26.82800 55.08500 40.61400
C  31.52900 55.61100 40.03100
C  31.47900 59.85800 42.31100
C  26.75200 59.33900 43.16700
N  29.12000 55.58700 40.28200
C  28.08700 54.74400 40.15700
C  28.40200 53.64700 39.17700
C  29.93800 53.64400 39.22400
C  30.24100 55.05700 39.75400
C  30.59300 52.46900 39.97200
C  27.78100 54.12300 37.74100
C  27.31600 52.96100 36.90900
H  27.94100 52.84800 35.49900
N  31.35000 57.73500 41.19200
C  32.09000 56.80100 40.57200
C  33.44100 57.18200 40.65100
C  33.54000 58.43800 41.38000
C  32.08800 58.72500 41.68800
C  34.65400 56.44100 40.00200
C  34.68300 59.20300 41.59300
O  35.81400 58.75300 41.41300
C  34.60100 60.51000 42.40800
N  29.13000 59.34400 42.55900
C  30.21300 60.21600 42.64800
C  29.76700 61.58600 43.12200
C  28.34800 61.27600 43.77200
C  28.03700 59.90600 43.07100
C  30.83500 62.38000 43.99400
C  27.22600 62.41000 43.66600
C  27.40000 63.62400 42.66500
N  27.21600 57.25300 41.94500
C  26.33200 58.09200 42.59300
C  25.00900 57.48600 42.58800
C  25.10100 56.30100 41.79100
C  26.52400 56.25800 41.42600
C  23.78800 58.02500 43.22100
C  24.39800 55.17000 41.23600
O  23.28900 54.74700 41.40000
C  25.50000 54.38700 40.36500
C  25.60100 52.99400 40.90000
O  26.27400 52.54400 41.84600
O  24.70600 52.17700 40.19500
C  25.02200 50.79700 40.04700
H  32.28500 54.93400 39.62700
H  32.16900 60.69800 42.42300
H  26.08000 59.94000 43.78400
H  27.97500 52.70100 39.51000
H  30.27500 53.61400 38.18800
H  29.87100 51.74800 40.35600
H  31.15700 52.86900 40.81500
H  31.18900 51.82600 39.32500
H  28.63100 54.45300 37.14300
H  27.07800 54.94400 37.88000
H  26.24300 52.85200 36.75200
H  27.56600 52.03900 37.43400
H  35.36900 57.05400 39.45300
H  34.35900 55.79900 39.17200
H  35.07800 55.72800 40.70900
H  34.12100 61.24800 41.76600
H  35.61400 60.87800 42.57000
H  34.08000 60.39400 43.35800
H  29.57000 62.14100 42.20500
H  28.56700 61.05000 44.81600
H  30.76600 63.37800 43.56300
H  31.89600 62.13600 44.04500
H  30.49900 62.51000 45.02300
H  26.91300 62.83300 44.62100
H  26.33500 61.87900 43.33200
H  28.44900 63.85300 42.47300
H  26.93800 64.47100 43.17200
H  26.88700 63.37600 41.73600
H  23.67500 57.28000 44.00800
H  22.96000 58.04500 42.51300
H  23.98900 59.03400 43.58200
H  25.16600 54.40900 39.32700
H  26.07900 50.57700 39.90100
H  24.36400 50.27300 39.35300
H  24.77600 50.33900 41.00400

