158

Mg 1.33400 -1.56000 43.81300
C  4.58800 -0.75300 42.97600
C  0.17300 1.20600 42.21800
C  -1.91500 -2.78300 44.15600
C  2.50600 -4.60800 45.07000
N  2.32800 -0.08800 42.43000
C  3.70700 0.18700 42.45300
C  4.07600 1.52600 41.86900
C  2.62600 2.25300 41.89600
C  1.58300 1.07200 42.22300
C  2.32800 3.45600 42.81200
C  4.65800 1.23100 40.42700
C  6.00300 1.85200 40.16400
H  6.07900 2.58300 38.80700
N  -0.66600 -0.81000 43.34800
C  -0.85800 0.34900 42.65300
C  -2.30600 0.42700 42.45200
C  -2.97600 -0.60200 43.23500
C  -1.86700 -1.46800 43.62800
C  -2.94200 1.44100 41.62100
C  -4.41700 -0.77600 43.38000
O  -5.22100 0.08600 42.94200
C  -4.97500 -2.04500 44.02400
N  0.43700 -3.48200 44.38600
C  -0.90700 -3.69200 44.46000
C  -1.12200 -5.12500 44.96300
C  0.24600 -5.63900 45.33400
C  1.15200 -4.51400 44.91500
C  -2.16600 -5.18500 46.20000
C  0.66400 -7.07900 44.80700
C  1.16100 -8.15700 45.68500
N  3.18000 -2.51300 44.00300
C  3.44500 -3.68600 44.61900
C  4.90700 -3.84000 44.71100
C  5.42200 -2.71800 44.12300
C  4.30300 -1.91900 43.65400
C  5.70200 -4.88600 45.41300
C  6.59000 -1.95100 43.74800
O  7.72400 -2.30200 43.85100
C  6.12700 -0.73500 42.95000
C  6.72500 0.40900 43.59600
O  6.21000 1.01200 44.55900
O  7.89700 0.78600 42.91200
C  8.49400 2.08700 43.17000
H  -0.24700 2.17800 41.95100
H  -2.87700 -3.29900 44.12900
H  2.89100 -5.56100 45.44000
H  4.68100 2.14000 42.53600
H  2.33400 2.66200 40.92800
H  1.82000 4.31900 42.38000
H  3.36000 3.71600 43.04600
H  1.78900 3.11500 43.69600
H  3.96700 1.48300 39.62300
H  4.82300 0.16200 40.29400
H  6.80500 1.11700 40.09800
H  6.15900 2.62200 40.91900
H  -3.72200 1.05300 40.96600
H  -2.35600 1.89500 40.82200
H  -3.33800 2.22200 42.26900
H  -6.05600 -1.92000 44.08400
H  -4.59700 -2.39200 44.98600
H  -4.83200 -2.85300 43.30600
H  -1.56000 -5.70100 44.14800
H  0.36500 -5.64100 46.41800
H  -3.10600 -5.64400 45.89400
H  -2.39000 -4.13200 46.37600
H  -1.69500 -5.67400 47.05300
H  1.44100 -7.00400 44.04600
H  -0.17500 -7.49500 44.25000
H  0.31100 -8.78100 45.96100
H  1.65500 -7.71300 46.55000
H  1.94300 -8.72800 45.18400
H  6.68600 -5.01000 44.96100
H  5.06500 -5.77100 45.42700
H  5.90400 -4.46500 46.39800
H  6.44500 -0.85200 41.91400
H  9.20600 1.99100 43.99000
H  7.76800 2.76800 43.61300
H  8.90900 2.58800 42.29500
Mg -2.54900 34.67300 26.61700
C  -4.39100 33.45200 29.19900
C  -1.41500 37.27100 28.62400
C  -0.94200 36.04100 23.96200
C  -4.00100 32.30000 24.43200
N  -2.96300 35.25500 28.61100
C  -3.59700 34.54800 29.53800
C  -3.27300 35.05000 30.92600
C  -2.63000 36.48100 30.63300
C  -2.29800 36.31200 29.21800
C  -3.55800 37.71000 30.89400
C  -2.41000 34.15100 31.86000
C  -3.10000 33.81900 33.20600
H  -2.90700 34.85000 34.32300
N  -1.29600 36.35800 26.31300
C  -0.89800 37.23900 27.28800
C  -0.00100 38.17900 26.74500
C  0.15600 37.93000 25.34600
C  -0.69500 36.73200 25.15300
C  0.58700 39.42800 27.50000
C  0.85700 38.65200 24.28700
O  0.81500 38.34400 23.10400
C  1.78700 39.81200 24.58300
N  -2.52800 34.23200 24.42300
C  -1.76600 34.95100 23.55500
C  -1.85700 34.42600 22.11800
C  -2.59900 33.03100 22.31500
C  -3.08300 33.16900 23.84400
C  -2.40200 35.47700 21.13700
C  -1.83000 31.68200 22.05700
C  -2.74100 30.58700 21.57900
N  -3.88800 33.11800 26.77000
C  -4.35000 32.22000 25.85000
C  -5.23600 31.28700 26.49900
C  -5.35100 31.72500 27.83300
C  -4.41100 32.81800 27.91000
C  -5.95100 30.01900 25.93500
C  -5.95000 31.57800 29.18400
O  -6.85200 30.83100 29.48800
C  -5.17900 32.54100 30.12300
C  -6.09700 33.38800 30.99500
O  -6.76700 34.43000 30.73300
O  -6.33900 32.53900 32.10200
C  -7.34400 32.96600 33.08100
H  -1.03900 37.97800 29.36700
H  -0.29300 36.37400 23.14900
H  -4.36200 31.45000 23.84900
H  -4.21400 35.32100 31.40400
H  -1.71600 36.62700 31.21000
H  -3.89800 38.10500 29.93600
H  -3.04100 38.52300 31.40500
H  -4.49800 37.47600 31.39300
H  -1.40700 34.53500 32.04400
H  -2.32800 33.18900 31.35400
H  -2.77500 32.82000 33.49700
H  -4.13800 33.58700 32.96900
H  0.31200 39.61200 28.53800
H  0.06200 40.21900 26.96400
H  1.67100 39.49700 27.40700
H  1.18300 40.61500 25.00400
H  2.08200 40.07400 23.56700
H  2.65200 39.47700 25.15600
H  -0.78600 34.30600 21.95300
H  -3.49100 33.06400 21.69000
H  -1.56100 35.51800 20.44400
H  -2.73200 36.38000 21.65100
H  -3.27800 35.12800 20.59000
H  -1.40000 31.33400 22.99700
H  -0.99800 31.85800 21.37600
H  -2.37000 30.10000 20.67700
H  -3.78300 30.83800 21.38200
H  -2.85500 29.96400 22.46600
H  -5.19800 29.23300 25.88500
H  -6.20400 30.18100 24.88800
H  -6.74800 29.70800 26.61100
H  -4.47800 31.98400 30.74400
H  -8.13900 32.99200 32.33600
H  -7.09100 33.95800 33.45300
H  -7.64600 32.29500 33.88500

