158

Mg 46.10700 25.06600 28.11800
C  46.78200 27.23400 30.88000
C  45.15600 22.71500 30.38800
C  46.02100 22.84600 25.57800
C  47.82500 27.20900 26.09000
N  45.90300 25.08800 30.33800
C  46.11700 26.09300 31.27700
C  45.66700 25.74500 32.75300
C  45.37200 24.21300 32.55000
C  45.51500 23.97700 31.00200
C  46.31200 23.35200 33.32800
C  44.47400 26.57000 33.32400
C  44.63300 27.26700 34.68200
H  43.61600 27.13600 35.84500
N  45.55700 23.05300 27.99300
C  45.06600 22.25800 28.99900
C  44.67700 20.88100 28.52700
C  45.11200 20.86700 27.09200
C  45.62600 22.28500 26.83600
C  44.18500 19.80800 29.32600
C  45.09700 19.70900 26.15200
O  45.53800 19.77300 25.01500
C  44.67800 18.35300 26.63500
N  46.78800 25.04000 26.16200
C  46.47800 24.09100 25.23800
C  46.87600 24.57800 23.82900
C  47.14400 26.09900 24.02300
C  47.18300 26.18200 25.49600
C  48.09300 23.83500 23.20300
C  45.96500 27.02700 23.50500
C  46.32300 28.00200 22.33700
N  47.25900 26.77500 28.34800
C  47.87700 27.58600 27.39300
C  48.38300 28.82700 28.01900
C  47.94800 28.69100 29.37900
C  47.27000 27.51000 29.56900
C  49.04900 29.92400 27.30600
C  47.93700 29.30600 30.66200
O  48.48800 30.38900 30.94100
C  47.23700 28.36200 31.77400
C  48.19800 27.83500 32.85200
O  49.01100 26.98600 32.58400
O  48.11900 28.54300 34.05700
C  48.85800 28.06800 35.24900
H  44.76800 22.07900 31.18600
H  46.00600 22.07100 24.80900
H  48.22100 27.91000 25.35300
H  46.56800 25.91000 33.34300
H  44.36800 23.89100 32.82700
H  47.05400 22.87000 32.69200
H  45.75100 22.58700 33.86500
H  46.89900 23.87600 34.08200
H  43.58100 25.95000 33.40200
H  44.21200 27.29300 32.55200
H  44.77400 28.31100 34.40200
H  45.62900 26.96800 35.00900
H  43.36700 19.33600 28.78200
H  44.07200 20.19600 30.33800
H  44.97800 19.08300 29.50600
H  45.45000 18.03200 27.33500
H  44.53000 17.77500 25.72300
H  43.69900 18.38600 27.11200
H  46.09100 24.56000 23.07200
H  48.09900 26.48200 23.66200
H  48.32100 22.92900 23.76400
H  49.01200 24.41400 23.10800
H  47.77800 23.47200 22.22500
H  45.70200 27.64600 24.36300
H  45.03200 26.50100 23.30100
H  46.31300 28.99600 22.78300
H  45.47000 27.94800 21.66000
H  47.26200 27.76900 21.83400
H  48.38600 30.74100 27.02300
H  49.56900 29.52700 26.43400
H  49.86500 30.30300 27.92100
H  46.36100 28.83900 32.21200
H  48.49200 27.04600 35.35000
H  48.71400 28.58000 36.20000
H  49.91700 28.09200 34.99300
Mg -5.61500 24.93900 26.48500
C  -3.75400 26.26200 29.07000
C  -7.09200 22.75500 28.72500
C  -7.09900 23.37100 23.79200
C  -3.77600 27.02700 24.20700
N  -5.45500 24.58200 28.67900
C  -4.67000 25.31800 29.51600
C  -5.14100 25.09000 31.02200
C  -6.02100 23.80400 30.88000
C  -6.22800 23.67200 29.36600
C  -5.38900 22.54500 31.50900
C  -5.74800 26.40200 31.49000
C  -5.31000 26.93200 32.89900
H  -5.06200 25.98600 34.05000
N  -7.02900 23.39500 26.24700
C  -7.45000 22.59400 27.28300
C  -8.42800 21.51400 26.71800
C  -8.44200 21.75200 25.38300
C  -7.50300 22.90000 25.08500
C  -9.10100 20.50700 27.59100
C  -9.24300 21.02800 24.32500
O  -9.30300 21.42700 23.19600
C  -10.19400 19.89500 24.65600
N  -5.59200 25.20900 24.37300
C  -6.19900 24.43200 23.44800
C  -6.00900 24.88700 21.99600
C  -5.28800 26.26200 22.25800
C  -4.81000 26.24400 23.65700
C  -5.12700 23.90300 21.10600
C  -6.19600 27.44400 21.98700
C  -6.17800 27.93500 20.49000
N  -3.93400 26.26600 26.57300
C  -3.33000 27.08600 25.59200
C  -2.24600 27.77800 26.21900
C  -2.43000 27.52400 27.58400
C  -3.46200 26.62300 27.76200
C  -1.25500 28.63700 25.52600
C  -1.91400 27.83300 28.81700
O  -0.95200 28.51100 29.17100
C  -2.84200 27.19500 29.90400
C  -2.06700 26.37100 30.87600
O  -1.82300 25.16600 30.75100
O  -1.67100 27.17000 31.92800
C  -0.79300 26.43100 32.89300
H  -7.58700 22.20400 29.52700
H  -7.43900 22.78100 22.93800
H  -3.46800 27.71200 23.41500
H  -4.26700 24.80500 31.60600
H  -7.03700 23.99000 31.22700
H  -5.08400 22.68300 32.54700
H  -4.44600 22.44200 30.97200
H  -6.02200 21.66100 31.43200
H  -6.83500 26.32500 31.50400
H  -5.52300 27.15300 30.73300
H  -6.00000 27.71400 33.21600
H  -4.37500 27.47800 32.77300
H  -10.13600 20.41900 27.26000
H  -9.00800 20.70900 28.65800
H  -8.60900 19.54900 27.42100
H  -10.53500 19.51900 23.69200
H  -11.07900 20.35800 25.09400
H  -9.81500 19.02300 25.18900
H  -6.99600 24.96000 21.53800
H  -4.37600 26.40600 21.67700
H  -5.58700 23.53600 20.18800
H  -4.94900 22.94000 21.58300
H  -4.15700 24.33000 20.85100
H  -5.79100 28.31100 22.50900
H  -7.22900 27.34400 22.32100
H  -5.58100 28.84000 20.38100
H  -7.23500 27.97800 20.22700
H  -5.81300 27.17200 19.80200
H  -1.79000 29.12200 24.71000
H  -0.44700 27.98800 25.18700
H  -0.67400 29.22900 26.23400
H  -3.40700 27.90300 30.51000
H  0.16200 26.16100 32.44400
H  -1.23900 25.45700 33.09700
H  -0.67700 27.02800 33.79800

