158

Mg -1.87900 17.35600 26.63800
C  -2.30400 15.01600 29.47000
C  -2.23400 19.94000 28.93900
C  -1.84400 19.53800 24.21100
C  -2.51400 14.64800 24.52300
N  -2.29000 17.43900 28.93600
C  -2.26200 16.32700 29.84800
C  -2.48500 16.87100 31.23000
C  -2.53800 18.43800 31.01700
C  -2.33400 18.63200 29.55600
C  -3.77200 19.16200 31.51000
C  -1.42400 16.37300 32.26600
C  -0.85600 17.33800 33.30400
H  -0.22200 16.83400 34.62400
N  -2.04200 19.46500 26.58800
C  -2.10500 20.37600 27.61500
C  -1.89400 21.71800 27.13700
C  -1.70900 21.63100 25.73900
C  -1.81900 20.19300 25.48700
C  -1.86600 22.87800 27.97900
C  -1.29400 22.69400 24.75300
O  -1.06600 22.37600 23.58700
C  -0.94800 24.15000 25.23500
N  -2.29500 17.11200 24.70200
C  -2.12200 18.22300 23.83400
C  -2.30400 17.75800 22.34500
C  -2.49800 16.22300 22.52100
C  -2.44600 15.94200 24.01400
C  -3.28400 18.55900 21.50400
C  -1.45100 15.41400 21.60200
C  -0.02200 15.32500 22.24900
N  -2.22200 15.26400 26.87900
C  -2.39800 14.29600 25.88600
C  -2.52700 12.96300 26.49500
C  -2.42800 13.25200 27.89400
C  -2.24100 14.64100 28.07900
C  -2.86900 11.61600 25.81500
C  -2.54600 12.63000 29.24300
O  -2.61000 11.45800 29.53800
C  -2.40500 13.78100 30.35000
C  -1.11100 13.59900 31.14600
O  0.03300 13.79500 30.65900
O  -1.42300 13.14700 32.33800
C  -0.37900 13.10700 33.32500
H  -2.22100 20.77500 29.64300
H  -1.88400 20.23500 23.37100
H  -2.65200 13.91600 23.72400
H  -3.45200 16.57400 31.63700
H  -1.68300 18.95500 31.45200
H  -3.50800 19.95000 32.21600
H  -4.37100 18.46000 32.09000
H  -4.40800 19.49400 30.69000
H  -0.56300 16.09900 31.65700
H  -1.95700 15.56300 32.76400
H  -1.67000 17.97800 33.64300
H  -0.12900 17.94900 32.76900
H  -2.10300 22.65300 29.01900
H  -2.58400 23.64300 27.68200
H  -0.88100 23.33400 27.88300
H  -0.25700 24.21500 26.07500
H  -1.99000 24.46500 25.29200
H  -0.44100 24.69100 24.43600
H  -1.32200 17.93200 21.90600
H  -3.53400 16.11400 22.20200
H  -3.89200 17.85700 20.93300
H  -2.63500 19.06500 20.78900
H  -3.87700 19.29500 22.04600
H  -1.34800 15.77800 20.58000
H  -1.83200 14.42200 21.35900
H  0.68600 15.78900 21.56100
H  0.28800 14.29200 22.40400
H  -0.00800 15.79800 23.23000
H  -3.43900 11.77700 24.90100
H  -3.38900 10.96000 26.51300
H  -1.94400 11.11800 25.52400
H  -3.24800 13.71700 31.03800
H  -0.42400 14.06700 33.83800
H  0.62800 12.90600 32.96000
H  -0.58500 12.27600 34.00000
Mg 24.02400 -5.04800 45.77500
C  25.98500 -2.50100 44.34600
C  21.46200 -4.04900 43.73100
C  22.55200 -8.03300 46.12600
C  26.95700 -6.31000 47.14500
N  23.74900 -3.39800 44.24200
C  24.67700 -2.41800 43.91100
C  24.06500 -1.45200 42.96000
C  22.51800 -1.74200 43.17500
C  22.56800 -3.13800 43.78100
C  21.78000 -0.79900 44.14700
C  24.59900 -1.62900 41.49200
C  24.80100 -0.27700 40.68600
H  24.75400 -0.21500 39.14800
N  22.18400 -5.86200 45.17900
C  21.32400 -5.30100 44.28600
C  20.19000 -6.14500 44.07700
C  20.39600 -7.27000 44.93200
C  21.81600 -7.11400 45.42200
C  18.98600 -5.88100 43.10500
C  19.33400 -8.34300 45.22800
O  18.20300 -8.31300 44.73900
C  19.64200 -9.50500 46.17300
N  24.67000 -6.88100 46.51200
C  23.82600 -7.94500 46.66800
C  24.51700 -9.16100 47.34700
C  25.92500 -8.64600 47.71500
C  25.87500 -7.15900 47.09100
C  23.78200 -9.67400 48.66900
C  26.98100 -9.57600 47.03000
C  28.27700 -9.83900 47.73000
N  26.03100 -4.47200 45.86800
C  27.11000 -5.05800 46.51800
C  28.24500 -4.25700 46.44900
C  27.86200 -3.30000 45.48100
C  26.51100 -3.47100 45.24600
C  29.66900 -4.54400 47.01600
C  28.35800 -2.08200 44.83800
O  29.42500 -1.59700 44.92300
C  27.18100 -1.55800 43.99600
C  26.93900 -0.05500 44.08500
O  26.56900 0.49900 45.07000
O  27.28700 0.57000 42.92400
C  27.12300 1.99300 43.01700
H  20.61400 -3.69600 43.14000
H  22.15000 -9.04100 46.24400
H  27.83500 -6.69200 47.67100
H  24.31400 -0.47800 43.38200
H  22.00400 -1.85600 42.22100
H  22.32000 0.08700 44.48000
H  21.31100 -1.39600 44.92900
H  20.98500 -0.29400 43.59900
H  23.82300 -2.20000 40.98200
H  25.53700 -2.17400 41.59700
H  25.72400 0.18500 41.03500
H  23.95400 0.32500 41.01300
H  18.86300 -6.63300 42.32600
H  19.24800 -4.96700 42.57200
H  18.05700 -5.70700 43.64900
H  20.06300 -9.31400 47.15900
H  20.13700 -10.21500 45.51000
H  18.70800 -9.97500 46.48200
H  24.52700 -9.91800 46.56200
H  26.27800 -8.52000 48.73900
H  23.28900 -10.64300 48.59500
H  23.02100 -8.93000 48.90600
H  24.45200 -9.71600 49.52800
H  27.20600 -9.21700 46.02600
H  26.52500 -10.56300 46.95700
H  28.53400 -9.15800 48.54100
H  29.09400 -9.63200 47.03900
H  28.29700 -10.84700 48.14500
H  29.95800 -5.57500 46.81400
H  29.65600 -4.47200 48.10400
H  30.36300 -3.84500 46.55000
H  27.50400 -1.87200 43.00400
H  27.68000 2.33900 42.14600
H  27.66600 2.33800 43.89700
H  26.11200 2.39900 43.02500

