158

Mg 0.19200 7.98600 26.65800
C  0.74000 10.17900 29.32400
C  0.28600 5.31700 28.96800
C  -0.20200 5.83000 24.10800
C  0.45200 10.61400 24.41300
N  0.53000 7.81300 28.89600
C  0.62800 8.85200 29.78000
C  0.78800 8.35700 31.21500
C  0.67300 6.79300 30.99000
C  0.48900 6.61800 29.51900
C  1.79800 5.86100 31.62000
C  -0.34400 8.90400 32.09500
C  0.01400 9.26200 33.54700
H  -0.69900 8.45300 34.61800
N  0.16900 5.83300 26.52000
C  0.14700 4.93300 27.58500
C  -0.01600 3.56300 27.09000
C  -0.25300 3.67900 25.70900
C  -0.13500 5.13900 25.33900
C  -0.15400 2.36900 27.89900
C  -0.68900 2.58800 24.66800
O  -1.24700 2.90000 23.59800
C  -0.58800 1.09200 25.04400
N  0.13000 8.17700 24.60900
C  -0.00300 7.18700 23.76700
C  -0.12700 7.71000 22.27000
C  -0.17700 9.22500 22.43800
C  0.04400 9.39100 23.93700
C  0.96300 7.22600 21.27800
C  -1.59300 9.87300 22.02400
C  -1.56400 11.17100 21.14300
N  0.52400 9.96800 26.80200
C  0.73200 10.89800 25.79900
C  1.18900 12.19100 26.41600
C  1.11100 11.89800 27.75200
C  0.71900 10.56500 27.98400
C  1.60600 13.44300 25.77000
C  1.29800 12.57600 29.01900
O  1.63100 13.74800 29.30800
C  1.11500 11.43600 30.14000
C  2.37100 11.25300 30.96400
O  3.50700 10.96400 30.54300
O  2.12800 11.56100 32.23000
C  3.27000 11.44200 33.21600
H  0.31800 4.51400 29.70800
H  -0.40200 5.13700 23.28700
H  0.58800 11.45500 23.72900
H  1.78000 8.66400 31.54900
H  -0.30100 6.47000 31.36000
H  1.28300 5.09700 32.20300
H  2.50500 6.32900 32.30400
H  2.31300 5.44600 30.75400
H  -1.21200 8.24500 32.11500
H  -0.69700 9.85000 31.68400
H  -0.19300 10.31800 33.72100
H  1.07800 9.09400 33.71500
H  -1.20200 2.22000 28.15800
H  0.37700 2.59800 28.82300
H  0.35500 1.47700 27.53300
H  0.28800 0.78700 25.61600
H  -0.66000 0.53900 24.10700
H  -1.51900 0.89400 25.57500
H  -1.10800 7.39000 21.91800
H  0.61400 9.72100 21.87600
H  1.25800 8.00700 20.57700
H  0.49600 6.39600 20.74800
H  1.79800 6.84900 21.86800
H  -2.13800 10.10000 22.94100
H  -2.22200 9.17900 21.46700
H  -0.57400 11.58700 20.95600
H  -2.05500 12.01800 21.62400
H  -2.09200 10.98300 20.20800
H  2.22700 13.11000 24.93900
H  2.19600 14.10900 26.39900
H  0.72600 14.00500 25.45500
H  0.31600 11.81800 30.77500
H  2.94800 11.46600 34.25700
H  3.95600 12.28300 33.11800
H  3.82100 10.51100 33.07800
Mg 47.76600 25.04300 28.44100
C  49.01300 27.21300 30.99200
C  46.96500 22.83500 30.81600
C  47.65400 22.86000 26.09500
C  49.04700 27.51900 26.12800
N  47.88200 25.16200 30.63100
C  48.21400 26.19000 31.47300
C  47.90000 25.88700 32.89800
C  47.44500 24.37700 32.79000
C  47.39400 24.06500 31.33300
C  48.21400 23.45300 33.73800
C  46.99800 27.02400 33.55000
C  46.09500 26.72100 34.74700
H  46.04500 27.74800 35.90900
N  47.32100 23.07800 28.44000
C  46.95900 22.31300 29.53600
C  46.54800 20.97600 29.19900
C  46.86200 20.93400 27.80000
C  47.28600 22.28600 27.37300
C  45.98000 19.87800 30.12200
C  46.77100 19.73000 26.81900
O  47.17100 19.87100 25.65300
C  46.20200 18.33300 27.35100
N  48.24700 25.13200 26.38900
C  48.08700 24.09300 25.62000
C  48.31900 24.47200 24.13500
C  48.49800 25.98500 24.15300
C  48.55500 26.26900 25.63000
C  49.66500 23.78400 23.57500
C  47.33900 26.76600 23.30700
C  47.74200 27.35100 22.00200
N  48.81500 26.98300 28.49000
C  49.19700 27.85800 27.50600
C  49.96300 28.96700 28.05200
C  49.86600 28.85900 29.41700
C  49.23600 27.54300 29.61700
C  50.43400 30.12100 27.22600
C  50.07100 29.47700 30.77400
O  50.68500 30.47800 31.14300
C  49.47400 28.42700 31.78900
C  50.54400 28.17100 32.75100
O  51.42600 27.38500 32.48000
O  50.30600 28.72700 34.00400
C  51.27700 28.33000 35.05400
H  46.63800 22.12500 31.57900
H  47.56500 22.17500 25.24900
H  49.33800 28.30200 25.42600
H  48.86100 26.05700 33.38300
H  46.39300 24.42500 33.07000
H  48.93500 23.98700 34.35600
H  48.76700 22.69200 33.18700
H  47.47600 22.94100 34.35600
H  46.27200 27.16200 32.74800
H  47.66500 27.84900 33.80100
H  46.43500 25.73600 35.06900
H  45.08100 26.50200 34.41000
H  44.98400 19.67800 29.72700
H  45.83200 20.34200 31.09700
H  46.58600 18.97500 30.19300
H  45.26500 18.42700 27.89900
H  46.97600 18.03700 28.05900
H  46.13300 17.62100 26.52900
H  47.52100 24.04700 23.52600
H  49.48100 26.25400 23.76500
H  50.53200 24.44200 23.63200
H  49.64400 23.46500 22.53300
H  49.85900 22.91800 24.20700
H  47.11900 27.62600 23.93900
H  46.44800 26.13900 23.31900
H  47.13100 26.95600 21.19100
H  48.75200 27.05700 21.71600
H  47.69400 28.43900 21.97100
H  50.83600 29.77000 26.27500
H  51.09500 30.77400 27.79500
H  49.62900 30.83300 27.04600
H  48.65000 28.95300 32.27100
H  52.26100 28.79800 35.07100
H  51.37400 27.24900 34.95800
H  50.88700 28.73400 35.98900

