158

Mg 27.91200 56.66200 39.46400
C  25.38300 54.23000 39.04600
C  30.15100 54.25000 38.60300
C  30.27600 58.96700 39.08900
C  25.48600 59.15100 39.81300
N  27.67500 54.50800 38.56300
C  26.63400 53.67900 38.63900
C  27.04100 52.27900 38.13900
C  28.56800 52.30200 38.22400
C  28.82300 53.79000 38.50100
C  29.19900 51.42300 39.40900
C  26.51300 52.02800 36.64000
C  26.65400 53.23300 35.66400
H  27.03900 53.06500 34.20200
N  29.98900 56.62200 39.00300
C  30.70900 55.49400 38.82300
C  32.08800 55.88400 38.82600
C  32.14500 57.29000 38.91900
C  30.78700 57.69300 38.99900
C  33.33700 54.90200 38.79300
C  33.43800 58.11900 39.00300
O  34.56000 57.62300 38.95800
C  33.51300 59.62000 39.21000
N  27.78900 58.78700 39.26100
C  28.97100 59.46500 39.26200
C  28.76700 61.00000 39.28900
C  27.19300 61.03200 39.66400
C  26.78000 59.58100 39.47400
C  29.63400 61.64500 40.40300
C  26.36700 62.14900 38.93300
C  26.00200 63.42800 39.82200
N  25.87000 56.72800 39.47900
C  24.96600 57.75600 39.66800
C  23.67600 57.24200 39.85300
C  23.83900 55.87500 39.67900
C  25.18700 55.56300 39.40500
C  22.38900 57.98900 40.16600
C  23.05300 54.62300 39.70600
O  21.84300 54.38000 39.79300
C  24.03000 53.52000 39.09300
C  23.83300 52.21200 39.85900
O  23.19400 51.24400 39.45800
O  24.46700 52.39500 40.99900
C  24.76300 51.14900 41.79800
H  30.87900 53.44200 38.51800
H  30.97400 59.78500 38.89800
H  24.84200 60.00400 40.03700
H  26.70800 51.43300 38.74000
H  28.90300 52.07800 37.21200
H  30.21200 51.12800 39.13600
H  28.50500 50.58600 39.49200
H  29.23400 52.02400 40.31700
H  25.46300 51.74900 36.72700
H  26.96500 51.08700 36.32300
H  27.35400 53.92900 36.12700
H  25.70300 53.76500 35.69500
H  33.84600 54.88200 37.82900
H  33.01000 53.87100 38.93300
H  33.95700 55.14300 39.65700
H  32.94100 59.95900 40.07400
H  33.09700 60.15700 38.35800
H  34.50700 60.01900 39.41600
H  28.99300 61.31200 38.27000
H  27.20500 61.26500 40.72800
H  29.86800 60.94100 41.20100
H  29.00300 62.45400 40.77400
H  30.54900 62.08300 40.00300
H  25.45600 61.78200 38.45900
H  26.90000 62.53200 38.06300
H  26.45000 63.34900 40.81200
H  24.94400 63.56900 40.04200
H  26.33400 64.29300 39.24700
H  21.61100 57.26000 40.39700
H  22.32000 58.58400 39.25500
H  22.60700 58.71500 40.94800
H  23.65000 53.42100 38.07600
H  25.75200 51.05600 42.24500
H  24.63100 50.22600 41.23300
H  24.06600 51.12900 42.63600
Mg -9.35100 37.45300 41.13700
C  -7.28800 34.87900 40.11700
C  -7.10900 39.70900 39.75900
C  -11.53500 39.93600 41.75100
C  -11.83900 35.09300 41.89900
N  -7.44500 37.29100 39.99500
C  -6.80000 36.12400 39.82600
C  -5.51200 36.37000 39.06600
C  -5.33600 37.90800 39.15400
C  -6.70900 38.37700 39.65200
C  -4.07500 38.48700 39.86700
C  -5.37200 35.70600 37.73700
C  -6.53900 35.97800 36.74100
H  -6.20400 35.93900 35.22300
N  -9.21100 39.56700 40.91800
C  -8.26200 40.26300 40.31700
C  -8.67200 41.60900 40.20100
C  -9.77600 41.82000 41.05200
C  -10.24000 40.40600 41.25100
C  -7.87400 42.63800 39.45300
C  -10.47500 43.09900 41.39300
O  -10.03600 44.12400 40.86200
C  -11.73700 43.19500 42.20900
N  -11.33700 37.50900 41.88800
C  -12.02500 38.69500 42.02000
C  -13.52100 38.40300 42.47200
C  -13.58200 36.84200 42.40600
C  -12.14100 36.41900 42.09300
C  -13.91700 39.08000 43.77400
C  -14.71100 36.13300 41.51200
C  -15.32200 34.80300 42.05100
N  -9.53200 35.39700 41.16500
C  -10.54900 34.51000 41.55300
C  -10.07600 33.19000 41.58200
C  -8.85000 33.29900 40.86400
C  -8.50900 34.65000 40.76400
C  -10.80700 32.02800 42.00800
C  -7.72600 32.50500 40.33200
O  -7.51800 31.31300 40.40100
C  -6.63000 33.56200 39.84700
C  -5.38700 33.31000 40.51600
O  -4.85000 34.02200 41.35100
O  -4.91200 32.19800 39.97300
C  -3.61400 31.83900 40.57700
H  -6.33200 40.41900 39.47000
H  -12.29300 40.66300 42.04700
H  -12.57400 34.30800 42.09000
H  -4.73300 35.94100 39.69700
H  -5.22800 38.45100 38.21500
H  -3.65700 39.27000 39.23500
H  -3.34000 37.73900 40.16500
H  -4.37700 38.92200 40.82000
H  -5.05500 34.67700 37.90800
H  -4.50600 36.24200 37.34700
H  -6.98600 36.93700 37.00400
H  -7.30200 35.23000 36.95800
H  -7.12100 43.03100 40.13600
H  -8.50000 43.39900 38.98600
H  -7.41500 42.14100 38.59900
H  -11.51900 42.64500 43.12500
H  -12.46700 42.72000 41.55400
H  -12.07700 44.21400 42.39300
H  -14.25400 38.81300 41.77600
H  -13.70800 36.54200 43.44600
H  -14.22300 38.41400 44.58100
H  -14.72800 39.79400 43.63000
H  -13.01100 39.53200 44.17800
H  -14.32000 35.97400 40.50700
H  -15.44200 36.87600 41.19500
H  -16.40500 34.75900 42.16700
H  -14.94500 34.76400 43.07300
H  -14.91500 33.91600 41.56500
H  -10.33600 31.11000 41.65400
H  -11.80800 32.16900 41.60100
H  -10.86200 31.99600 43.09600
H  -6.54300 33.35100 38.78100
H  -3.64500 31.71900 41.66000
H  -2.92300 32.68200 40.59100
H  -3.35700 30.97000 39.97100

