158

Mg 17.52600 -1.25100 28.22500
C  16.19000 0.94400 30.70300
C  19.42300 -2.74500 30.55900
C  19.04500 -2.88600 25.65200
C  15.90100 0.79800 25.83500
N  17.74500 -0.87600 30.35400
C  17.02800 -0.08900 31.20500
C  17.34800 -0.28000 32.73100
C  18.46000 -1.43000 32.57800
C  18.52300 -1.74300 31.07600
C  19.88200 -1.10900 33.14300
C  16.12500 -0.74800 33.53000
C  16.00900 -0.42700 34.98500
H  17.07000 0.48200 35.72500
N  18.99500 -2.64800 28.14000
C  19.63200 -3.20600 29.23200
C  20.25900 -4.40700 28.83600
C  20.31000 -4.38600 27.38100
C  19.44600 -3.28700 26.96700
C  20.68000 -5.46500 29.83800
C  20.97000 -5.33700 26.39500
O  20.94500 -5.25600 25.14200
C  21.89800 -6.48500 26.99900
N  17.39700 -1.14100 26.00600
C  18.19300 -1.87200 25.18000
C  18.07100 -1.42300 23.68700
C  17.01300 -0.25200 23.81900
C  16.72700 -0.20600 25.36300
C  19.40000 -1.10000 22.86700
C  15.73100 -0.40700 22.98700
C  14.54600 -1.28200 23.50400
N  16.17100 0.38300 28.19000
C  15.64200 1.12300 27.16300
C  14.91500 2.26600 27.66800
C  15.14600 2.21800 29.08100
C  15.91600 1.11100 29.32500
C  14.09800 3.28900 26.74200
C  14.82900 2.87000 30.33800
O  14.03800 3.81300 30.54100
C  15.57300 2.11700 31.48800
C  16.53200 2.98600 32.20500
O  17.79400 2.97500 32.10300
O  15.83900 3.73500 33.11500
C  16.59800 4.66500 33.92500
H  19.95600 -3.14300 31.42500
H  19.55600 -3.40600 24.83800
H  15.43500 1.45000 25.09200
H  17.78100 0.59600 33.21300
H  18.22700 -2.30300 33.18600
H  19.88900 -0.07200 33.47700
H  20.74200 -1.35700 32.52000
H  20.07700 -1.63500 34.07800
H  16.09900 -1.83600 33.58900
H  15.22700 -0.28600 33.11900
H  15.87500 -1.31500 35.60300
H  15.08400 0.13200 35.13000
H  21.76400 -5.57400 29.78600
H  20.19600 -6.38900 29.52300
H  20.38600 -5.37200 30.88300
H  22.25300 -7.06000 26.14400
H  21.24200 -7.16000 27.54800
H  22.66000 -6.02800 27.63100
H  17.51300 -2.22500 23.20500
H  17.50000 0.66200 23.47800
H  19.26500 -0.13500 22.37900
H  19.55700 -1.82000 22.06300
H  20.15700 -0.99400 23.64500
H  15.97600 -0.89700 22.04500
H  15.47200 0.59100 22.63600
H  13.83900 -0.62700 24.01300
H  14.92600 -1.99700 24.23400
H  14.18700 -1.85900 22.65200
H  14.75300 3.77500 26.01800
H  13.81700 4.00500 27.51400
H  13.24500 2.78600 26.28700
H  14.80100 1.73100 32.15400
H  16.84300 4.20700 34.88300
H  15.85900 5.43000 34.16100
H  17.52200 5.02100 33.46900
Mg -2.14100 34.87800 26.36100
C  -3.76900 32.88200 28.73800
C  -0.52100 36.49900 28.94900
C  -0.95600 36.86800 24.06400
C  -3.75200 32.97400 23.86700
N  -2.18300 34.68700 28.61600
C  -2.89900 33.80900 29.36900
C  -2.74900 34.14600 30.82400
C  -1.70600 35.35500 30.84400
C  -1.51100 35.54000 29.35900
C  -2.26100 36.61800 31.56500
C  -2.22700 32.88000 31.67800
C  -2.98500 32.50000 32.98500
H  -2.23900 32.40900 34.36100
N  -0.94900 36.58500 26.48400
C  -0.29500 37.02400 27.61400
C  0.68700 38.00800 27.21100
C  0.56000 38.09300 25.77700
C  -0.52100 37.21700 25.40700
C  1.40100 38.89400 28.14000
C  1.37700 39.03600 24.81100
O  1.09700 39.18300 23.59600
C  2.56200 39.75400 25.35600
N  -2.43400 35.06300 24.28600
C  -1.83100 35.98800 23.51400
C  -2.07000 35.70400 22.05100
C  -2.52600 34.24200 22.06100
C  -2.91600 34.05600 23.51400
C  -3.08400 36.67600 21.38800
C  -1.53600 33.12800 21.54400
C  -0.06900 33.24600 21.93200
N  -3.58100 33.19000 26.26100
C  -4.17000 32.58100 25.13000
C  -5.00200 31.51900 25.63000
C  -4.95900 31.58800 27.04100
C  -4.06500 32.62800 27.39000
C  -5.79000 30.46800 24.84800
C  -5.43500 31.08600 28.27300
O  -6.19300 30.17100 28.55400
C  -4.71700 31.99000 29.46200
C  -5.76900 32.71500 30.14300
O  -6.34000 33.69800 29.73700
O  -5.96000 32.09200 31.38200
C  -6.92800 32.70400 32.33300
H  0.06000 36.90700 29.77900
H  -0.50700 37.39100 23.21700
H  -4.12600 32.36200 23.04400
H  -3.73400 34.48200 31.14700
H  -0.76600 35.04300 31.29800
H  -3.19700 36.40300 32.08000
H  -2.55600 37.28800 30.75800
H  -1.54300 37.09400 32.23300
H  -1.17400 33.01500 31.92700
H  -2.21700 31.91200 31.17600
H  -3.34200 31.49700 32.75100
H  -3.70600 33.30600 33.12700
H  2.41300 38.51500 28.28300
H  0.88200 38.95300 29.09700
H  1.45000 39.90900 27.74500
H  2.13700 40.64300 25.82200
H  3.09000 39.94300 24.42200
H  3.09000 39.01500 25.95900
H  -1.12100 35.76100 21.51800
H  -3.50900 34.17600 21.59400
H  -4.05900 36.24600 21.16100
H  -2.60900 36.98100 20.45500
H  -3.27900 37.48200 22.09600
H  -1.56600 33.09700 20.45500
H  -1.95500 32.21800 21.97100
H  0.58200 33.26000 21.05800
H  0.23200 32.35900 22.49100
H  0.13800 34.08200 22.60000
H  -5.61100 29.45500 25.20700
H  -5.41800 30.52900 23.82500
H  -6.87000 30.61500 24.85000
H  -4.24900 31.25600 30.11800
H  -6.40700 32.87700 33.27500
H  -7.77200 32.04300 32.52800
H  -7.24100 33.67000 31.93800

