158

Mg 25.14800 1.44600 30.40800
C  27.27900 1.57500 33.42400
C  22.46800 1.55900 32.50600
C  23.27500 1.53500 27.70400
C  28.07000 1.18300 28.57700
N  24.97900 1.68800 32.73000
C  25.93500 1.75400 33.70100
C  25.27100 1.99900 35.03600
C  23.69100 1.92400 34.75100
C  23.69500 1.73100 33.24600
C  22.81900 1.00500 35.52900
C  25.82500 3.35300 35.72900
C  26.37100 3.12800 37.20000
H  25.90500 4.05900 38.30100
N  23.08900 1.57000 30.07100
C  22.12500 1.55900 31.09600
C  20.86900 1.72100 30.47900
C  21.05200 1.74700 29.06400
C  22.52800 1.65200 28.88100
C  19.54200 1.89500 31.16100
C  20.09000 1.81200 27.87800
O  20.48000 1.83300 26.70000
C  18.61100 1.72700 28.22200
N  25.63200 1.25100 28.48900
C  24.63600 1.49700 27.51700
C  25.25200 1.72100 26.10900
C  26.79400 1.43800 26.34700
C  26.88400 1.28400 27.87600
C  24.51600 0.84200 24.94100
C  27.73500 2.53400 25.71500
C  28.90200 1.95900 24.88700
N  27.29200 1.26900 30.84600
C  28.36700 1.15200 29.97300
C  29.53400 1.13000 30.73200
C  29.14900 1.28600 32.09300
C  27.77600 1.36200 32.09600
C  30.91600 1.08700 30.20200
C  29.72600 1.47800 33.46400
O  30.85700 1.61400 33.84700
C  28.47700 1.65300 34.40400
C  28.43000 0.53200 35.37000
O  27.98400 -0.56600 35.12200
O  28.93900 0.93100 36.54800
C  28.90700 0.17100 37.78700
H  21.66900 1.77500 33.21800
H  22.79400 1.47800 26.72500
H  28.93200 1.15000 27.90700
H  25.50700 1.10400 35.61200
H  23.26900 2.86300 35.10900
H  22.19300 0.35700 34.91600
H  22.14100 1.61400 36.12700
H  23.43700 0.38600 36.18100
H  25.04900 4.11800 35.69700
H  26.70500 3.82900 35.29800
H  27.39600 3.48100 37.08700
H  26.27900 2.05500 37.36800
H  19.04000 2.82900 30.90500
H  19.67100 2.08600 32.22600
H  18.83100 1.07200 31.08200
H  18.45700 0.81700 28.80200
H  17.96000 1.79200 27.35000
H  18.35200 2.58600 28.84000
H  25.09200 2.76300 25.83400
H  27.01500 0.46900 25.89900
H  23.88900 0.06300 25.37600
H  25.28600 0.32200 24.37100
H  23.94400 1.44600 24.23700
H  28.21400 3.15500 26.47200
H  27.11200 3.21500 25.13500
H  28.98500 0.87300 24.90200
H  29.85800 2.38200 25.19600
H  28.79800 2.20100 23.83000
H  31.48800 1.55700 31.00200
H  31.09500 1.59000 29.25100
H  31.13200 0.02200 30.12000
H  28.53800 2.62700 34.88900
H  28.05200 0.47300 38.39100
H  29.78500 0.21400 38.43100
H  28.90000 -0.88200 37.50500
Mg -11.29200 36.84800 42.54100
C  -8.95400 34.32900 41.79800
C  -9.14400 38.99900 40.87000
C  -13.73700 39.01400 42.37900
C  -13.50000 34.32000 43.46200
N  -9.41700 36.55400 41.17700
C  -8.66900 35.45500 41.08100
C  -7.31400 35.77900 40.31200
C  -7.23800 37.32900 40.51400
C  -8.64900 37.67400 41.01200
C  -6.08900 37.79100 41.41700
C  -7.23100 35.08200 38.93400
C  -6.08000 34.12800 38.57300
H  -5.01800 34.65100 37.58800
N  -11.43600 38.78700 41.72000
C  -10.45300 39.52400 41.09300
C  -10.98200 40.81600 40.72700
C  -12.36500 40.77700 41.01700
C  -12.55200 39.50400 41.81300
C  -10.19300 41.80500 39.95900
C  -13.37800 41.80100 40.62900
O  -13.02700 42.80100 40.00900
C  -14.83400 41.68000 40.95200
N  -13.36600 36.71900 42.73500
C  -14.12500 37.75000 42.82200
C  -15.53400 37.35200 43.24100
C  -15.48100 35.77400 43.36800
C  -13.98700 35.55900 43.16100
C  -15.86800 38.11500 44.57200
C  -16.42500 34.84300 42.40500
C  -17.60700 34.10100 43.00400
N  -11.27500 34.75400 42.76800
C  -12.21800 33.87100 43.17700
C  -11.55800 32.52100 43.13900
C  -10.23000 32.74600 42.80000
C  -10.13900 34.07700 42.43100
C  -12.23100 31.16900 43.46200
C  -8.96400 32.07100 42.59900
O  -8.70000 30.92600 42.67000
C  -8.06200 33.11200 41.97000
C  -6.82800 33.26700 42.75400
O  -6.69600 33.97000 43.81800
O  -5.79900 32.53900 42.25800
C  -4.69500 32.18300 43.20300
H  -8.38700 39.69600 40.50400
H  -14.63200 39.63200 42.47300
H  -14.11400 33.50600 43.85200
H  -6.59600 35.16400 40.85500
H  -7.13700 37.89000 39.58500
H  -5.29500 37.04700 41.46600
H  -6.45500 37.89400 42.43800
H  -5.61200 38.74200 41.17900
H  -6.98500 35.90400 38.26200
H  -8.20900 34.69500 38.64800
H  -6.46400 33.16200 38.24400
H  -5.60200 33.89200 39.52300
H  -10.65100 41.62500 38.98700
H  -9.13600 41.54200 39.96500
H  -10.38100 42.79900 40.36500
H  -15.35000 42.54900 40.54300
H  -14.99400 41.80000 42.02300
H  -15.18400 40.74200 40.52200
H  -16.01500 37.58900 42.29200
H  -15.50900 35.48800 44.42000
H  -16.13000 39.15400 44.37300
H  -14.97300 38.14800 45.19300
H  -16.65700 37.67900 45.18600
H  -15.78400 34.11000 41.91400
H  -16.75300 35.51400 41.61100
H  -17.42700 33.02600 43.00400
H  -18.48000 34.23900 42.36600
H  -17.82400 34.32300 44.04900
H  -11.53400 30.66400 44.13100
H  -12.45800 30.67200 42.51900
H  -13.13000 31.41200 44.02700
H  -7.87000 32.70600 40.97700
H  -3.85000 32.85100 43.03800
H  -4.38400 31.14800 43.06100
H  -5.03200 32.35600 44.22500

