158

Mg 36.10000 50.30500 25.64400
C  35.96700 48.33200 28.55400
C  34.42300 52.72900 27.59800
C  36.00200 52.07900 22.93800
C  37.19400 47.40900 23.85600
N  35.19600 50.45100 27.83000
C  35.46200 49.59100 28.82500
C  35.00800 50.15800 30.13700
C  34.15300 51.37200 29.74400
C  34.52500 51.47200 28.23700
C  32.59800 51.24800 30.13800
C  36.19900 50.63500 30.99600
C  36.46700 49.75300 32.25800
H  35.16800 49.38300 33.05500
N  35.31800 52.19000 25.28100
C  34.75900 53.05200 26.21500
C  34.65000 54.34500 25.62200
C  35.08400 54.24100 24.21300
C  35.48600 52.80600 24.07000
C  34.20300 55.52800 26.42500
C  35.08100 55.28100 23.09900
O  35.54300 54.97200 21.97900
C  34.60300 56.69500 23.38800
N  36.30600 49.76600 23.61600
C  36.32800 50.74200 22.73200
C  36.91100 50.25600 21.40400
C  37.46200 48.85600 21.73200
C  36.91900 48.58300 23.16400
C  35.99900 50.34400 20.16100
C  38.95000 48.62200 21.58900
C  39.39000 47.92800 20.31700
N  36.53500 48.29400 26.02900
C  36.97000 47.22900 25.24300
C  37.26900 46.07300 26.06200
C  36.81300 46.45500 27.33800
C  36.46100 47.82800 27.31900
C  37.77400 44.67000 25.64200
C  36.63500 46.02200 28.70700
O  36.74200 44.86500 29.07100
C  36.15300 47.21200 29.56800
C  34.96500 46.75700 30.30800
O  33.81000 46.79600 29.88100
O  35.33900 46.24100 31.51300
C  34.36200 45.33400 32.14500
H  34.02700 53.54400 28.20800
H  36.23300 52.65400 22.03800
H  37.73300 46.65500 23.27900
H  34.31000 49.49400 30.64600
H  34.63000 52.28400 30.10200
H  32.25100 50.22200 30.25900
H  32.01600 51.65500 29.31100
H  32.37400 51.91100 30.97400
H  36.15600 51.65600 31.37700
H  37.07300 50.53500 30.35200
H  37.19800 50.23800 32.90600
H  36.98900 48.92900 31.77200
H  33.60500 55.15600 27.25700
H  33.46000 56.09600 25.86500
H  35.04300 56.12100 26.78600
H  35.31300 57.24800 24.00300
H  33.60800 56.69600 23.83400
H  34.47000 57.23100 22.44800
H  37.74000 50.94700 21.25200
H  36.95100 48.10400 21.13100
H  36.48100 51.08300 19.52100
H  35.06900 50.71700 20.59000
H  35.96900 49.40400 19.61200
H  39.27800 47.98400 22.40900
H  39.48800 49.52900 21.86300
H  39.28200 48.69700 19.55200
H  38.84100 46.99500 20.19200
H  40.43000 47.61200 20.40300
H  38.50100 44.35600 26.39100
H  38.25700 44.71200 24.66600
H  37.03700 43.86800 25.65200
H  36.91900 47.38500 30.32400
H  34.92700 44.76100 32.88000
H  33.98100 44.60600 31.42800
H  33.51200 45.85100 32.58900
Mg 26.79000 50.37200 25.94600
C  24.82600 51.55300 28.66500
C  29.06000 49.31000 28.09600
C  28.90300 49.94000 23.26600
C  24.57900 52.02300 23.76900
N  26.91500 50.55400 28.14000
C  26.00100 50.92500 29.06100
C  26.40000 50.49400 30.46800
C  27.89500 49.92300 30.25100
C  27.92000 49.87200 28.73000
C  29.02500 50.83900 30.91800
C  25.37600 49.51900 31.17200
C  24.71600 49.94700 32.44100
H  25.58200 50.53700 33.55800
N  28.72600 49.58000 25.73400
C  29.53000 49.24500 26.76100
C  30.77200 48.77600 26.24500
C  30.75100 48.98100 24.82800
C  29.45400 49.56700 24.60100
C  31.98900 48.22000 27.10700
C  31.82600 48.82200 23.76000
O  31.69600 49.06000 22.56900
C  33.23100 48.19900 24.07600
N  26.82600 50.96400 23.80200
C  27.70100 50.47900 22.89300
C  27.21000 50.76700 21.42000
C  25.78500 51.36300 21.67000
C  25.68200 51.37700 23.21300
C  28.15000 51.53300 20.51100
C  24.56600 50.76600 20.89500
C  23.86400 51.65100 19.86800
N  25.08800 51.61300 26.07800
C  24.25100 52.13800 25.14500
C  23.20400 52.87400 25.76000
C  23.28400 52.62400 27.16500
C  24.49900 51.90500 27.29400
C  22.21200 53.54500 24.96800
C  22.66800 52.83000 28.47600
O  21.73300 53.52400 28.80900
C  23.72100 52.14100 29.51600
C  24.25200 53.09900 30.47400
O  25.29400 53.75200 30.29700
O  23.45900 53.12100 31.61700
C  23.85100 53.98800 32.68900
H  29.67500 48.83200 28.86100
H  29.45300 49.49500 22.43400
H  23.91200 52.53600 23.07300
H  26.43100 51.46200 30.96800
H  28.09900 48.93700 30.66800
H  29.42900 51.43800 30.10100
H  29.82000 50.28900 31.42200
H  28.48900 51.43500 31.65600
H  25.76100 48.52700 31.40600
H  24.55400 49.22100 30.52100
H  24.28700 48.99900 32.76700
H  23.83600 50.58900 32.39600
H  31.81100 48.30800 28.17900
H  32.89700 48.78300 26.89500
H  32.16200 47.14500 27.06200
H  33.89900 47.94600 23.25200
H  33.05700 47.22700 24.53700
H  33.78400 48.82300 24.77900
H  27.09400 49.72200 21.13300
H  25.84300 52.43300 21.47000
H  27.75500 52.46100 20.09600
H  28.43300 50.90900 19.66400
H  29.01500 51.92300 21.04700
H  23.77000 50.55000 21.60800
H  24.80900 49.79200 20.47000
H  23.36700 50.89200 19.26400
H  24.63600 52.18000 19.31000
H  23.07200 52.34400 20.15200
H  22.64000 54.38100 24.41700
H  21.43100 54.05400 25.53200
H  21.67800 52.83800 24.33200
H  23.32600 51.31800 30.11200
H  23.80600 55.02100 32.34600
H  24.84300 53.79500 33.09800
H  23.11600 54.01800 33.49300

