158

Mg 24.80000 -7.50000 48.10100
C  27.34400 -5.47700 46.64100
C  22.61200 -6.05900 45.89300
C  22.80700 -9.84300 48.97500
C  27.46100 -9.08300 49.99200
N  24.93500 -5.82300 46.46700
C  26.10700 -5.21100 46.02800
C  25.87400 -4.21000 44.95200
C  24.24300 -4.36400 44.79200
C  23.85000 -5.47000 45.78400
C  23.43100 -3.09600 45.07700
C  26.72500 -4.44100 43.72600
C  27.26400 -3.14900 43.11400
H  26.73400 -2.69900 41.75100
N  22.90800 -7.90800 47.52400
C  22.18000 -7.20000 46.57700
C  20.90500 -7.77300 46.46700
C  20.85500 -8.89900 47.37600
C  22.24100 -8.92200 48.00700
C  19.81800 -7.20100 45.63900
C  19.70800 -9.87800 47.46800
O  18.77900 -9.76100 46.70100
C  19.78200 -11.13600 48.40700
N  25.11100 -9.29100 49.24800
C  24.03000 -9.96800 49.62100
C  24.33100 -10.87500 50.84400
C  25.81200 -10.66000 51.22400
C  26.18300 -9.68100 50.10100
C  23.30700 -10.80800 52.08000
C  26.61500 -12.04700 51.18000
C  27.18400 -12.55100 49.80100
N  26.99800 -7.31100 48.32100
C  27.85700 -8.03300 49.15500
C  29.23700 -7.44900 49.01600
C  29.01400 -6.46300 48.00200
C  27.64900 -6.41900 47.65800
C  30.57700 -7.86700 49.63200
C  29.70800 -5.46900 47.31500
O  30.86800 -5.15500 47.40100
C  28.70900 -4.67700 46.45000
C  28.41200 -3.30500 46.99700
O  28.00800 -2.98400 48.10700
O  28.62100 -2.39700 45.95000
C  28.18500 -0.95200 46.25200
H  21.90500 -5.54400 45.23900
H  22.04400 -10.60400 49.15300
H  28.27100 -9.35900 50.67000
H  26.05500 -3.32500 45.56100
H  24.22200 -4.80100 43.79400
H  22.72200 -2.84900 44.28700
H  24.07000 -2.23100 45.25200
H  22.67100 -3.26800 45.83900
H  26.22600 -4.95100 42.90200
H  27.50900 -5.17600 43.90800
H  28.35300 -3.09900 43.10200
H  27.10000 -2.36100 43.85000
H  20.01100 -6.19400 45.26800
H  18.87500 -7.38700 46.15200
H  19.90700 -7.86600 44.78000
H  20.63700 -11.72400 48.07400
H  18.88400 -11.75500 48.40100
H  19.96300 -10.80600 49.43000
H  24.31000 -11.92200 50.54300
H  25.97700 -10.15300 52.17500
H  23.34900 -9.82000 52.53900
H  23.38200 -11.67300 52.73900
H  22.39000 -10.81400 51.49100
H  26.01600 -12.83700 51.63300
H  27.50900 -11.98400 51.79900
H  28.26300 -12.70000 49.83000
H  26.95300 -11.85800 48.99200
H  26.83400 -13.54000 49.50400
H  30.63800 -8.95100 49.73100
H  30.80300 -7.32300 50.54900
H  31.26600 -7.52000 48.86100
H  28.99300 -4.63500 45.39900
H  27.23900 -0.77400 45.74200
H  28.98700 -0.29600 45.91200
H  28.00900 -0.71100 47.30000
Mg 41.49900 7.35300 29.59100
C  43.38100 8.99000 31.96900
C  39.45600 6.22300 32.04500
C  39.71700 5.72100 27.28400
C  44.17800 7.66700 27.36100
N  41.55600 7.52500 31.78300
C  42.25700 8.39700 32.53600
C  41.80300 8.39800 33.97700
C  40.71300 7.29500 34.00000
C  40.56200 6.95200 32.56500
C  41.15200 6.04700 34.83400
C  41.41400 9.78200 34.52700
C  40.68800 9.81600 35.91300
H  41.25900 10.75600 36.92900
N  39.79400 6.20000 29.62000
C  39.03100 5.84500 30.72800
C  37.91700 5.14600 30.31900
C  37.86000 5.27500 28.93100
C  39.13000 5.75000 28.59000
C  37.03700 4.33000 31.26500
C  36.82100 4.84500 27.96800
O  36.96300 4.80200 26.75300
C  35.48500 4.31700 28.49300
N  41.95400 6.67600 27.61300
C  41.02500 6.11900 26.84700
C  41.53900 5.93900 25.39200
C  42.97700 6.62100 25.38700
C  43.06700 6.98100 26.89400
C  41.54900 4.52600 24.79000
C  43.17200 7.83200 24.42600
C  42.61500 9.16300 24.77900
N  43.39000 8.21700 29.60400
C  44.36500 8.28700 28.65100
C  45.45800 9.11200 29.09500
C  45.11300 9.44800 30.42500
C  43.88700 8.80700 30.71000
C  46.63200 9.45200 28.26200
C  45.60800 10.10200 31.58100
O  46.67900 10.72400 31.76800
C  44.47100 9.82500 32.66000
C  45.06600 9.11400 33.76200
O  45.03000 7.92200 33.96700
O  45.76800 10.00200 34.57100
C  46.25900 9.39100 35.79500
H  38.72300 5.92000 32.79600
H  39.20400 5.26900 26.43300
H  44.72100 7.99200 26.47100
H  42.73700 8.19600 34.50100
H  39.72000 7.64000 34.28600
H  41.28200 5.24600 34.10600
H  40.33500 5.75000 35.49100
H  42.09300 6.20200 35.36300
H  40.79800 10.30900 33.79900
H  42.32300 10.38200 34.57100
H  40.55700 8.83700 36.37300
H  39.64300 10.11200 35.82900
H  37.51700 4.38100 32.24200
H  37.00200 3.27200 31.00600
H  36.02100 4.71000 31.37300
H  35.59400 3.34600 28.97700
H  34.87700 4.09100 27.61700
H  34.86200 4.88700 29.18200
H  40.84400 6.48200 24.75100
H  43.74900 5.86200 25.25400
H  41.99100 4.54800 23.79400
H  40.63700 3.92800 24.80100
H  42.20400 3.94000 25.43600
H  42.92500 7.50900 23.41500
H  44.24700 8.00900 24.38900
H  41.83800 8.95000 25.51400
H  42.07700 9.61100 23.94400
H  43.35100 9.85700 25.18600
H  47.20200 8.52500 28.20200
H  47.28200 10.14800 28.79300
H  46.33000 9.89300 27.31200
H  44.05100 10.76400 33.01900
H  47.01700 8.66100 35.51200
H  45.53500 9.08700 36.55100
H  46.87400 10.13800 36.29600

