158

Mg 48.52600 16.24000 28.43700
C  46.36300 16.13500 31.31500
C  50.59700 18.27900 30.11400
C  50.26900 16.49600 25.66500
C  45.82900 14.62300 26.69300
N  48.46700 16.96600 30.58200
C  47.54800 16.78900 31.54200
C  48.05400 17.44300 32.83100
C  49.19600 18.43400 32.34700
C  49.47300 17.86100 30.94700
C  48.86500 19.98800 32.34100
C  48.45100 16.41100 33.84400
C  47.66600 16.54600 35.18500
H  47.91900 17.79100 35.99500
N  50.19000 17.22200 27.98700
C  50.92500 17.96300 28.80400
C  52.11600 18.38600 28.10900
C  52.09400 17.84000 26.78600
C  50.82700 17.16300 26.74800
C  53.17000 19.26600 28.85400
C  53.21600 17.91400 25.73500
O  53.03600 17.49100 24.55000
C  54.57400 18.43300 26.18300
N  48.07200 15.76000 26.43700
C  48.98100 15.92900 25.48400
C  48.30200 15.66000 24.09500
C  46.95000 14.99300 24.41600
C  46.96400 15.03800 25.96200
C  48.14100 16.91500 23.25100
C  46.84000 13.56600 23.92900
C  45.61400 13.27800 22.98900
N  46.58000 15.49800 28.85000
C  45.61000 14.78800 28.09000
C  44.41900 14.50100 28.87900
C  44.68200 15.04400 30.13000
C  45.98400 15.54400 30.07600
C  43.26300 13.76600 28.43800
C  44.15200 15.17700 31.49400
O  43.04700 14.78900 31.93200
C  45.27100 15.89400 32.32100
C  44.69700 17.13700 32.88200
O  44.55500 18.16700 32.27900
O  44.19600 16.85600 34.16300
C  43.34200 17.86000 34.86500
H  51.30300 18.90600 30.66300
H  50.83200 16.52200 24.73000
H  45.10300 14.09100 26.07400
H  47.18200 17.99000 33.19000
H  50.13400 18.30900 32.88900
H  47.80400 20.05400 32.58400
H  49.17500 20.35900 31.36400
H  49.31000 20.59900 33.12600
H  49.49900 16.47500 34.14000
H  48.41500 15.37800 33.49700
H  47.84200 15.68700 35.83200
H  46.59100 16.61100 35.02000
H  53.74500 19.95000 28.23100
H  53.83700 18.65000 29.45900
H  52.64000 19.88900 29.57400
H  54.90400 18.02800 27.14000
H  54.52700 19.51900 26.26800
H  55.34200 18.18500 25.45000
H  49.00100 14.95600 23.64400
H  46.03500 15.52700 24.16000
H  47.11400 17.27800 23.20800
H  48.30800 16.66200 22.20400
H  48.82500 17.70400 23.56300
H  46.78600 12.95900 24.83200
H  47.72300 13.19700 23.40600
H  44.95000 14.13300 22.86800
H  45.02700 12.45800 23.40400
H  45.94000 12.91700 22.01400
H  42.49200 13.88500 29.19900
H  43.54400 12.71400 28.38200
H  42.88400 14.21900 27.52200
H  45.68500 15.31000 33.14300
H  43.84300 18.21200 35.76600
H  42.39300 17.37000 35.08300
H  43.15900 18.74300 34.25200
Mg 48.16200 34.84500 26.71700
C  46.52100 33.28500 29.37400
C  48.71000 37.52100 28.84800
C  49.71400 36.20300 24.17200
C  47.54100 31.94700 24.70900
N  47.87700 35.21300 28.93900
C  47.21700 34.44600 29.80400
C  47.38300 35.07800 31.16400
C  47.62200 36.58500 30.88500
C  48.12200 36.42000 29.49100
C  46.44100 37.52500 31.10400
C  48.62800 34.40600 31.86000
C  48.69000 34.47800 33.42000
H  47.65300 35.30200 34.18000
N  48.90600 36.64900 26.47200
C  49.04500 37.62600 27.45800
C  49.80200 38.75700 26.94700
C  50.25100 38.35800 25.59000
C  49.54300 37.07100 25.31300
C  50.25400 40.02200 27.85000
C  51.25100 39.07300 24.60400
O  51.62000 38.53800 23.56500
C  51.76200 40.39300 25.01000
N  48.47100 34.26500 24.57000
C  49.35100 34.93800 23.86900
C  49.81300 34.10900 22.65900
C  49.09800 32.72400 22.86100
C  48.30200 32.97800 24.09600
C  49.32100 34.78300 21.37000
C  50.09600 31.51000 23.09300
C  50.44900 30.70500 21.77000
N  47.12700 33.08500 26.92500
C  47.04200 31.98700 26.00900
C  46.28700 30.90300 26.74600
C  46.05100 31.47000 27.97800
C  46.64100 32.74200 28.08200
C  45.84500 29.64800 26.16200
C  45.34000 31.17600 29.23400
O  44.66100 30.19200 29.52500
C  45.50400 32.43400 30.11300
C  45.63400 32.13200 31.56800
O  46.64800 31.84300 32.16500
O  44.42800 32.35500 32.11900
C  44.38500 32.31800 33.63200
H  48.83200 38.36900 29.52500
H  50.33800 36.63100 23.38500
H  47.34000 31.04500 24.12600
H  46.52400 34.84900 31.79500
H  48.40300 36.93700 31.55900
H  46.60500 38.22600 31.92200
H  45.54100 36.93900 31.29200
H  46.26400 38.17800 30.24900
H  49.48800 34.94400 31.46200
H  48.71400 33.37100 31.52800
H  49.62500 34.94200 33.73600
H  48.67200 33.51400 33.92800
H  49.86100 40.98700 27.52800
H  51.34200 39.99900 27.91700
H  49.92800 39.92100 28.88500
H  52.36800 40.82400 24.21300
H  52.46000 40.39300 25.84700
H  50.91500 41.07500 25.08500
H  50.90200 34.09100 22.61900
H  48.42200 32.61000 22.01400
H  48.67900 35.66300 21.41500
H  48.92300 34.06200 20.65600
H  50.24800 35.04400 20.86100
H  49.74400 30.76500 23.80600
H  51.05000 31.87400 23.47400
H  49.83700 31.01300 20.92200
H  50.22900 29.65700 21.97200
H  51.51100 30.78300 21.53600
H  45.39400 29.85300 25.19100
H  45.13600 29.26800 26.89700
H  46.70300 28.99200 26.01700
H  44.51400 32.82800 29.88100
H  43.71600 33.10600 33.97900
H  45.35500 32.48600 34.10000
H  44.06700 31.32800 33.96000

