158

Mg 24.93000 -5.71700 46.64300
C  26.93900 -3.52400 44.76100
C  22.33500 -4.87000 44.57300
C  23.52600 -8.55300 47.59200
C  27.94800 -6.69900 48.40200
N  24.68200 -4.28200 44.88300
C  25.58700 -3.47500 44.27000
C  24.98800 -2.49500 43.21200
C  23.46300 -2.80100 43.53300
C  23.47800 -4.04700 44.36400
C  22.71400 -1.60900 44.13100
C  25.52000 -2.62200 41.75800
C  25.93600 -1.33400 41.06200
H  25.40300 -1.01200 39.65100
N  23.11300 -6.57700 46.26500
C  22.22500 -6.03300 45.39400
C  21.07300 -6.92500 45.31500
C  21.37700 -8.07600 46.17300
C  22.69400 -7.76800 46.72700
C  19.76000 -6.70000 44.47500
C  20.46500 -9.28500 46.28800
O  19.40400 -9.30700 45.63400
C  20.77500 -10.41500 47.27600
N  25.61700 -7.32800 48.00200
C  24.81100 -8.35400 48.21300
C  25.48900 -9.35800 49.16500
C  26.81200 -8.55700 49.58800
C  26.85400 -7.52100 48.56900
C  24.62400 -9.95600 50.25200
C  28.12100 -9.43500 49.60300
C  29.09400 -8.99800 50.70700
N  26.88400 -5.06000 46.80100
C  28.00000 -5.58000 47.58100
C  29.21600 -4.83300 47.23300
C  28.81400 -4.06000 46.09400
C  27.46200 -4.21100 45.89100
C  30.62100 -4.96900 47.77900
C  29.38300 -3.21600 45.02600
O  30.51100 -2.84700 44.81600
C  28.10600 -2.72700 44.22300
C  28.05800 -1.27600 44.63700
O  27.74100 -0.86500 45.71100
O  28.42000 -0.43600 43.53200
C  28.41400 1.05900 43.78900
H  21.46900 -4.61400 43.95900
H  23.04200 -9.49100 47.87000
H  28.84500 -6.76600 49.02200
H  25.24800 -1.48100 43.51700
H  22.98600 -2.89200 42.55700
H  23.42600 -0.78300 44.15600
H  22.52600 -1.87000 45.17300
H  21.78300 -1.35000 43.62700
H  24.79200 -3.22000 41.21000
H  26.47600 -3.13700 41.84700
H  27.02500 -1.28400 41.07900
H  25.74200 -0.50800 41.74700
H  19.96800 -7.11400 43.48800
H  19.62000 -5.62000 44.50600
H  18.82500 -7.07400 44.89300
H  20.01400 -11.19300 47.22400
H  20.82100 -9.93000 48.25100
H  21.75900 -10.84300 47.08700
H  25.91700 -10.10100 48.49100
H  26.66300 -8.14000 50.58400
H  25.13500 -9.96800 51.21500
H  24.51400 -10.99300 49.93700
H  23.60000 -9.59700 50.14100
H  28.68600 -9.38600 48.67300
H  27.85400 -10.48700 49.70500
H  28.65300 -8.19600 51.29900
H  30.02300 -8.53100 50.37900
H  29.34000 -9.85200 51.33800
H  30.97900 -5.97400 47.55600
H  30.64500 -4.87600 48.86500
H  31.17500 -4.18700 47.26000
H  28.24200 -2.89100 43.15400
H  29.32100 1.19900 44.37600
H  27.69600 1.47500 44.49600
H  28.32500 1.60900 42.85200
Mg 49.70300 45.71800 42.85100
C  46.39800 46.34100 41.89100
C  49.54700 42.75800 41.12100
C  53.19200 45.66800 42.67700
C  49.81400 48.97400 44.04200
N  48.15200 44.68500 41.67400
C  46.83500 45.03500 41.48500
C  46.07200 43.93900 40.69900
C  47.02600 42.71200 40.64900
C  48.36600 43.44900 41.11000
C  46.51500 41.55400 41.57900
C  45.66100 44.52800 39.24500
C  44.30400 44.03500 38.77000
H  44.19600 43.07700 37.59900
N  51.13900 44.33300 42.16600
C  50.85000 43.20100 41.54300
C  52.08600 42.45000 41.37800
C  53.15600 43.18900 42.03800
C  52.49400 44.45700 42.37700
C  52.19200 41.14200 40.76900
C  54.56600 42.76600 42.18800
O  54.93000 41.71800 41.67800
C  55.55200 43.55000 42.89800
N  51.25400 47.10600 43.24000
C  52.61200 46.79500 43.20900
C  53.50300 48.06100 43.53300
C  52.38900 49.05200 44.20000
C  51.05400 48.34600 43.87100
C  54.76800 47.82400 44.42400
C  52.42500 50.55200 43.70200
C  52.10000 51.56200 44.83300
N  48.33700 47.33400 43.07200
C  48.53900 48.55000 43.66300
C  47.35900 49.33700 43.57500
C  46.42600 48.46300 42.91400
C  47.14000 47.22600 42.58800
C  47.20600 50.79800 44.04500
C  45.03700 48.38800 42.44900
O  44.06700 49.10800 42.56100
C  45.01600 47.02100 41.69500
C  43.97700 46.25600 42.42900
O  44.13000 45.90400 43.60900
O  42.87600 46.05000 41.67500
C  41.83200 45.28700 42.31400
H  49.62500 41.74800 40.71400
H  54.26100 45.53900 42.49900
H  49.88200 50.02100 44.34300
H  45.27200 43.65300 41.38300
H  47.02500 42.22900 39.67200
H  47.36900 40.92200 41.82300
H  45.79100 40.96300 41.01800
H  46.02200 41.92400 42.47800
H  46.38900 44.23100 38.48900
H  45.68200 45.61800 39.25600
H  43.66800 44.90000 38.58600
H  43.83200 43.49000 39.58800
H  52.48200 41.20600 39.72000
H  51.24300 40.61300 40.69200
H  52.83500 40.47700 41.34600
H  55.16300 43.78900 43.88800
H  55.88000 44.45200 42.38200
H  56.39500 42.88200 43.07300
H  53.82000 48.39000 42.54400
H  52.49800 48.93100 45.27800
H  54.76200 48.42500 45.33300
H  55.63300 48.15500 43.84900
H  54.93100 46.79000 44.73100
H  51.74300 50.78200 42.88300
H  53.42500 50.65400 43.28100
H  51.24000 52.13300 44.48300
H  53.02200 52.14000 44.76300
H  51.85700 51.11900 45.79900
H  47.93200 51.02200 44.82600
H  46.19000 50.99900 44.38500
H  47.42900 51.46600 43.21300
H  44.87300 47.17300 40.62500
H  41.14900 44.73300 41.67100
H  41.24700 46.08100 42.77800
H  42.25500 44.59300 43.04100

