158

Mg 0.79200 7.25400 26.90600
C  1.45400 9.14200 29.68600
C  1.19100 4.38300 28.69500
C  0.99100 5.57600 24.01300
C  1.23700 10.33500 25.06800
N  1.34500 6.87700 28.90400
C  1.29300 7.75900 29.93100
C  1.21700 7.07500 31.25400
C  1.46200 5.58800 30.93700
C  1.34500 5.60000 29.41400
C  2.80200 4.89800 31.43500
C  -0.09200 7.38400 32.03800
C  0.05300 7.70800 33.50400
H  1.26600 7.10300 34.24400
N  0.88400 5.21000 26.41800
C  1.01800 4.13500 27.30000
C  0.96800 2.87300 26.54700
C  1.00700 3.23000 25.10400
C  0.96200 4.71100 25.12600
C  0.91000 1.57900 27.35400
C  1.04900 2.36600 23.98600
O  0.91700 2.78500 22.81400
C  1.18100 0.88300 24.15100
N  0.98800 7.88500 24.79800
C  0.98100 6.97200 23.79300
C  0.89300 7.60800 22.38300
C  0.93800 9.14100 22.78800
C  0.99900 9.12200 24.33600
C  1.97300 7.22900 21.38300
C  -0.30000 10.01800 22.33500
C  -0.04900 11.12000 21.32200
N  1.09700 9.30700 27.24100
C  1.31900 10.39500 26.39200
C  1.55600 11.62000 27.22400
C  1.66500 11.15300 28.50700
C  1.40300 9.74200 28.44000
C  1.59900 13.00500 26.75200
C  1.93100 11.49900 29.90600
O  2.28300 12.59300 30.36200
C  1.62400 10.27700 30.74500
C  2.66900 10.19300 31.73000
O  3.71400 9.68100 31.63000
O  2.29200 11.06300 32.69000
C  3.33700 11.35100 33.75300
H  1.33400 3.53700 29.37000
H  1.11600 5.09100 23.04200
H  1.45200 11.21600 24.46000
H  2.10100 7.42300 31.78800
H  0.69000 4.92400 31.32600
H  3.38300 5.58100 32.05500
H  3.45800 4.66400 30.59600
H  2.54000 4.02000 32.02500
H  -0.82300 6.58500 31.91700
H  -0.63700 8.15600 31.49600
H  -0.79700 7.31800 34.06200
H  0.06500 8.78600 33.66600
H  1.10700 1.76400 28.41000
H  1.84000 1.06900 27.10600
H  0.00100 0.99500 27.20900
H  0.32300 0.48700 24.69300
H  2.16900 0.63000 24.53500
H  1.14100 0.47600 23.14000
H  -0.08000 7.33200 21.97700
H  1.87100 9.59600 22.45600
H  2.80000 6.98500 22.05000
H  2.05800 8.14200 20.79400
H  1.58100 6.39300 20.80400
H  -0.85300 10.28200 23.23600
H  -1.01800 9.31700 21.91000
H  -0.51400 10.84900 20.37400
H  1.03000 11.14400 21.16600
H  -0.49800 12.06100 21.63900
H  1.70100 12.97600 25.66700
H  2.41500 13.55100 27.22700
H  0.63800 13.47100 26.97200
H  0.68500 10.56600 31.21700
H  2.90500 11.80700 34.64400
H  3.96100 12.10200 33.27000
H  3.80500 10.41500 34.06000
Mg -5.50700 25.64000 26.00500
C  -3.89400 27.14600 28.75900
C  -7.16800 23.69700 28.18500
C  -6.96700 24.13500 23.31400
C  -3.80800 27.76100 23.86000
N  -5.52800 25.48300 28.27400
C  -4.86600 26.15600 29.18100
C  -5.27000 25.81500 30.60700
C  -6.15800 24.56300 30.36900
C  -6.31500 24.59000 28.86000
C  -5.48400 23.21900 30.77600
C  -5.98300 27.04300 31.17400
C  -5.64800 27.43100 32.59400
H  -4.95900 26.31900 33.51400
N  -6.74400 24.07800 25.79600
C  -7.40000 23.41300 26.83900
C  -8.29300 22.46300 26.30800
C  -8.28000 22.50900 24.91600
C  -7.24300 23.55600 24.59600
C  -9.13900 21.58500 27.28800
C  -9.10000 21.79100 23.89900
O  -9.00200 22.04200 22.70000
C  -10.08500 20.78400 24.29500
N  -5.38800 25.94200 23.79900
C  -6.09200 25.16700 22.94700
C  -5.90800 25.67900 21.48800
C  -4.87800 26.79900 21.69000
C  -4.64700 26.84800 23.16600
C  -5.30500 24.67700 20.52800
C  -5.20200 28.18800 21.17000
C  -4.12900 28.86000 20.23300
N  -4.11000 27.09200 26.17900
C  -3.48600 27.90900 25.22700
C  -2.60500 28.87600 25.88500
C  -2.65600 28.49300 27.21700
C  -3.57500 27.44900 27.39200
C  -1.72400 29.91000 25.28700
C  -2.18000 28.85400 28.53300
O  -1.35100 29.62500 28.90000
C  -3.00500 28.01500 29.51300
C  -2.01800 27.15100 30.21100
O  -1.20100 26.48200 29.67100
O  -2.09300 27.28000 31.52300
C  -1.06800 26.58100 32.32700
H  -7.71200 23.10200 28.92200
H  -7.53300 23.75900 22.45900
H  -3.30500 28.50400 23.23700
H  -4.29700 25.63500 31.06200
H  -7.13000 24.68300 30.84600
H  -4.66400 23.42200 31.46600
H  -5.11600 22.63800 29.93000
H  -6.12400 22.56600 31.37000
H  -7.06500 26.94200 31.08000
H  -5.71800 27.95300 30.63600
H  -6.57600 27.75300 33.06500
H  -4.90900 28.23100 32.64500
H  -9.84300 22.16900 27.88000
H  -8.45200 21.07500 27.96400
H  -9.65800 20.79300 26.74700
H  -10.40600 20.43300 23.31500
H  -10.94200 21.03500 24.92100
H  -9.61700 19.86500 24.64600
H  -6.82500 26.21600 21.24500
H  -3.90800 26.58700 21.24100
H  -4.86800 23.72700 20.83500
H  -4.69700 25.16700 19.76900
H  -6.12400 24.34600 19.88900
H  -5.32600 28.95300 21.93700
H  -6.03800 28.04200 20.48500
H  -4.64900 29.05900 19.29500
H  -3.37800 28.13600 19.91500
H  -3.61100 29.72900 20.63800
H  -1.73400 29.71000 24.21500
H  -0.70400 30.03600 25.65100
H  -2.21000 30.87300 25.44700
H  -3.54400 28.72600 30.13800
H  -0.76500 25.55800 32.10100
H  -1.52500 26.47600 33.31100
H  -0.18200 27.19100 32.50100

