158

Mg -0.79000 7.65900 25.87800
C  0.14300 9.32000 28.92600
C  -0.89900 4.76900 27.87100
C  -1.39000 5.87800 22.98800
C  0.18100 10.44100 24.09700
N  -0.46300 7.12800 28.15900
C  -0.13100 7.99000 29.14000
C  -0.05800 7.27600 30.48200
C  -0.33400 5.77400 30.17600
C  -0.59000 5.87600 28.63600
C  0.78800 4.77900 30.61900
C  -1.09800 7.92800 31.59800
C  -0.64800 8.10000 33.00400
H  0.76200 7.59400 33.46900
N  -1.17300 5.64100 25.48000
C  -1.22100 4.63100 26.48000
C  -1.49200 3.41500 25.81100
C  -1.71400 3.70300 24.45700
C  -1.42000 5.16300 24.20000
C  -1.69100 2.10100 26.62200
C  -2.19100 2.78000 23.29900
O  -2.56900 3.17600 22.19700
C  -2.35300 1.27900 23.58200
N  -0.56300 7.99200 23.89400
C  -0.98600 7.19600 22.86500
C  -0.98500 7.87200 21.49200
C  -0.45000 9.30400 21.86900
C  -0.15000 9.26400 23.37100
C  -0.02300 7.25900 20.38600
C  -1.53200 10.36500 21.50400
C  -2.91900 10.16400 22.19800
N  0.05500 9.57600 26.35300
C  0.35200 10.59500 25.46000
C  0.69500 11.78200 26.27200
C  0.74400 11.30100 27.54100
C  0.27400 9.95300 27.61700
C  1.11200 13.15000 25.73300
C  1.01800 11.69700 28.85700
O  1.39600 12.76500 29.31500
C  0.71500 10.45400 29.76500
C  1.97200 10.10900 30.49700
O  2.84600 9.36300 30.12900
O  2.06500 10.81300 31.67700
C  3.36000 10.63100 32.41300
H  -0.82000 3.80900 28.38500
H  -1.52100 5.47800 21.98000
H  0.22800 11.28000 23.40000
H  0.96600 7.41600 30.82900
H  -1.29800 5.35000 30.45500
H  1.52000 5.20800 31.30400
H  1.28400 4.44800 29.70700
H  0.23700 3.99800 31.14400
H  -1.99900 7.31600 31.55500
H  -1.34600 8.93500 31.26200
H  -1.29000 7.48900 33.64000
H  -0.82000 9.10300 33.39400
H  -0.86100 1.40000 26.70600
H  -2.55500 1.55700 26.23900
H  -1.95000 2.43200 27.62800
H  -2.63000 0.82600 22.63000
H  -3.17600 1.11500 24.27700
H  -1.41300 0.85700 23.93800
H  -2.00800 7.79900 21.12400
H  0.49200 9.48200 21.35000
H  0.16000 8.03800 19.64500
H  -0.53600 6.49800 19.79800
H  0.95000 6.97000 20.78400
H  -1.61200 10.20900 20.42800
H  -1.23000 11.41200 21.53200
H  -3.41100 11.12000 22.01400
H  -2.66600 10.12600 23.25700
H  -3.32000 9.23200 21.80000
H  0.31100 13.42500 25.04600
H  2.06300 13.13200 25.20000
H  1.13000 13.88800 26.53500
H  0.04100 10.77800 30.55800
H  4.22700 10.14300 31.96900
H  3.19500 10.13600 33.37100
H  3.58900 11.67200 32.64300
Mg -11.91400 16.14200 42.66600
C  -8.88000 14.79200 42.16400
C  -10.88300 19.15900 41.19600
C  -15.08500 17.31000 42.69600
C  -13.04300 13.10200 43.84800
N  -10.10000 16.91800 41.72800
C  -8.94400 16.16100 41.70600
C  -7.79800 17.05500 41.15400
C  -8.40600 18.46300 40.97600
C  -9.89800 18.23400 41.45700
C  -7.63500 19.62500 41.68900
C  -7.13000 16.52900 39.87900
C  -5.60200 16.38600 39.99500
H  -5.07100 15.24300 39.09300
N  -12.86100 17.96700 42.14200
C  -12.27600 19.08900 41.53500
C  -13.29900 20.02300 41.09100
C  -14.53500 19.47200 41.52400
C  -14.18300 18.23000 42.17700
C  -13.02900 21.29400 40.31400
C  -15.91700 20.13900 41.18600
O  -15.92000 21.20500 40.63000
C  -17.21800 19.56900 41.62100
N  -13.77300 15.34000 43.33200
C  -14.98900 15.95800 43.16200
C  -16.21700 14.99600 43.59500
C  -15.46600 13.82100 44.15400
C  -14.00500 14.06100 43.71700
C  -17.35100 15.62600 44.46600
C  -16.00800 12.49400 43.57200
C  -15.99000 11.24100 44.51300
N  -11.14600 14.29900 42.95300
C  -11.68000 13.16200 43.46900
C  -10.69200 12.13300 43.56500
C  -9.51900 12.75900 43.14000
C  -9.92000 14.01400 42.71900
C  -10.92900 10.77500 44.13900
C  -8.11000 12.55600 42.91700
O  -7.35200 11.54100 43.08900
C  -7.61800 13.86800 42.40700
C  -6.79500 14.43300 43.44400
O  -7.19800 15.21500 44.29600
O  -5.47400 14.11000 43.23400
C  -4.55000 14.63300 44.27900
H  -10.65800 20.19800 40.94600
H  -16.12900 17.63100 42.66000
H  -13.54100 12.23400 44.28700
H  -7.04800 17.02600 41.94400
H  -8.37300 18.76500 39.92900
H  -7.04400 19.12600 42.45600
H  -8.39400 20.18300 42.23700
H  -7.05700 20.28000 41.03700
H  -7.19100 17.25400 39.06700
H  -7.49400 15.55600 39.54800
H  -5.34100 16.14900 41.02600
H  -5.13600 17.34200 39.75500
H  -13.24100 22.19100 40.89600
H  -13.71800 21.22000 39.47200
H  -12.00200 21.42500 39.97300
H  -17.35900 18.63400 41.07900
H  -17.95500 20.35400 41.45500
H  -17.13500 19.36000 42.68800
H  -16.71700 14.86800 42.63500
H  -15.48000 13.74700 45.24100
H  -18.18100 16.01700 43.87800
H  -17.08400 16.45200 45.12500
H  -17.79000 14.89300 45.14200
H  -15.56100 12.37800 42.58500
H  -17.07100 12.51000 43.33100
H  -15.71500 10.36600 43.92300
H  -16.86500 10.99300 45.11300
H  -15.16400 11.44500 45.19400
H  -10.12400 10.58200 44.84800
H  -10.93200 10.16600 43.23500
H  -11.89500 10.64200 44.62400
H  -6.99800 13.72500 41.52100
H  -4.36700 15.70700 44.31600
H  -3.59100 14.11600 44.23500
H  -4.98500 14.32000 45.22900

