158

Mg -2.07800 16.93300 27.41200
C  -2.31700 14.95000 30.37000
C  -2.34800 19.74400 29.31200
C  -1.78000 18.72100 24.60500
C  -1.41200 14.06200 25.65500
N  -2.41300 17.30700 29.61300
C  -2.30700 16.36100 30.56100
C  -2.47400 17.05000 31.94100
C  -2.45900 18.54700 31.62800
C  -2.31900 18.55100 30.11500
C  -3.62100 19.40000 32.25000
C  -1.45500 16.61600 33.00400
C  -1.08600 17.53800 34.16300
H  -0.67700 16.98800 35.49000
N  -2.23000 18.87900 26.95400
C  -2.30400 19.88600 27.88300
C  -2.24300 21.20400 27.23800
C  -2.10900 20.87100 25.83400
C  -2.05500 19.44800 25.72000
C  -2.22700 22.48500 27.97200
C  -2.05400 21.82300 24.58500
O  -2.14800 21.51200 23.34600
C  -1.76100 23.33400 24.89200
N  -1.66100 16.48800 25.41600
C  -1.62800 17.40900 24.40500
C  -1.35300 16.73300 23.06800
C  -0.95500 15.27300 23.49800
C  -1.38500 15.22900 24.93100
C  -2.65000 16.76900 22.13700
C  0.55200 14.85400 23.23100
C  1.62500 15.86600 23.62300
N  -1.99800 14.90800 27.88000
C  -1.75700 13.84500 27.01400
C  -1.82000 12.60400 27.74500
C  -2.02300 12.97300 29.08500
C  -2.09900 14.39500 29.08700
C  -1.96000 11.23700 27.17600
C  -2.35500 12.48400 30.40400
O  -2.46800 11.28400 30.72100
C  -2.28600 13.75400 31.30900
C  -0.92600 13.59700 31.98200
O  0.17300 13.74000 31.53500
O  -1.28800 13.20000 33.22600
C  -0.29200 13.50900 34.22800
H  -2.30700 20.62500 29.95700
H  -1.68600 19.30000 23.68400
H  -1.21900 13.10600 25.16500
H  -3.44600 16.74200 32.32500
H  -1.51600 18.96700 31.97700
H  -4.38000 18.67100 32.53300
H  -4.15400 19.95500 31.47800
H  -3.37500 20.08300 33.06300
H  -0.48900 16.30500 32.60800
H  -1.98200 15.81700 33.52600
H  -2.01800 18.08800 34.29700
H  -0.25100 18.18900 33.90400
H  -2.08400 22.46800 29.05200
H  -3.14300 23.04400 27.78200
H  -1.42500 23.12800 27.60800
H  -2.02500 23.97900 24.05400
H  -0.67300 23.30100 24.94800
H  -2.21400 23.76900 25.78200
H  -0.46400 17.14800 22.59200
H  -1.53400 14.50700 22.98200
H  -3.35400 17.36400 22.71900
H  -3.04500 15.77800 21.91100
H  -2.50100 17.32800 21.21400
H  0.69400 14.50900 22.20700
H  0.56900 13.92500 23.80100
H  2.13800 16.12000 22.69600
H  2.27500 15.41300 24.37200
H  1.21200 16.79000 24.02700
H  -3.03000 11.02900 27.16300
H  -1.48900 10.55600 27.88400
H  -1.47400 11.17000 26.20300
H  -3.05800 13.80400 32.07700
H  0.29500 14.36900 33.90700
H  0.41300 12.72300 34.49900
H  -0.85300 13.79700 35.11700
Mg -5.23400 24.52600 25.68200
C  -4.09200 25.77700 28.70700
C  -7.35700 22.51300 27.40800
C  -6.50200 23.42300 22.68700
C  -3.21900 26.78200 23.95800
N  -5.57800 24.15800 27.83400
C  -5.16900 24.88200 28.82900
C  -5.85200 24.66300 30.16400
C  -6.71200 23.43400 29.76100
C  -6.58100 23.31400 28.26300
C  -6.55800 22.13100 30.50100
C  -6.58800 25.92000 30.77700
C  -6.37700 26.09400 32.37100
H  -5.71600 25.06300 33.24700
N  -6.68300 23.06300 25.15000
C  -7.44800 22.42600 26.01900
C  -8.30400 21.59700 25.33800
C  -8.12500 21.81900 23.91300
C  -7.10700 22.87600 23.84700
C  -9.36400 20.73100 26.00100
C  -8.78700 21.18000 22.73500
O  -8.69900 21.59500 21.58800
C  -9.74200 19.97700 22.94300
N  -4.96200 25.12600 23.61300
C  -5.42200 24.38700 22.57000
C  -5.02100 25.06900 21.19500
C  -4.05800 26.18000 21.65000
C  -4.14200 26.06600 23.19400
C  -4.27400 24.04000 20.28200
C  -4.46700 27.49700 21.00000
C  -3.31700 28.41200 20.63100
N  -3.89400 25.98000 26.19200
C  -3.13500 26.77400 25.38900
C  -2.31900 27.63500 26.24200
C  -2.64300 27.24300 27.55100
C  -3.59800 26.18900 27.46300
C  -1.40300 28.65600 25.76200
C  -2.46900 27.58100 29.00100
O  -1.82600 28.47600 29.46600
C  -3.40100 26.53400 29.81800
C  -2.53600 25.74900 30.77100
O  -2.00500 24.66400 30.50800
O  -2.36700 26.39700 31.98900
C  -1.42600 25.84300 32.95900
H  -8.00200 21.84200 27.97900
H  -6.90800 23.12100 21.71900
H  -2.51400 27.45600 23.46700
H  -5.02900 24.36700 30.81500
H  -7.75500 23.71600 29.90700
H  -7.16700 21.29200 30.16400
H  -6.64500 22.30600 31.57300
H  -5.53200 21.77300 30.42300
H  -7.65400 25.74300 30.62900
H  -6.21200 26.74600 30.17300
H  -7.38000 26.32000 32.73400
H  -5.70700 26.92300 32.60200
H  -9.13900 19.68500 25.79000
H  -10.35000 20.89600 25.56600
H  -9.49600 20.78600 27.08200
H  -9.25500 19.32000 23.66300
H  -9.96100 19.63400 21.93200
H  -10.62400 20.43600 23.39000
H  -5.99000 25.30100 20.75300
H  -3.05600 25.99800 21.26100
H  -3.48300 24.53000 19.71400
H  -4.99600 23.63300 19.57300
H  -3.89500 23.24500 20.92400
H  -5.08600 28.05400 21.70300
H  -4.96200 27.32100 20.04500
H  -3.10300 28.26500 19.57200
H  -2.37400 28.05100 21.04300
H  -3.44600 29.44700 20.94700
H  -0.65400 28.37800 25.02000
H  -0.89500 29.11900 26.60800
H  -1.98200 29.39100 25.20300
H  -4.11700 27.18600 30.31900
H  -1.91600 24.99200 33.43200
H  -1.05000 26.48100 33.75800
H  -0.63600 25.35500 32.38800

