158

Mg -10.45400 39.20000 40.21700
C  -8.66200 36.31700 39.07800
C  -7.58100 41.15400 39.60800
C  -12.44300 41.93800 40.22800
C  -13.32400 37.16700 40.19900
N  -8.37900 38.77800 39.53000
C  -7.97400 37.60300 38.99000
C  -6.69400 37.75200 38.24700
C  -6.16200 39.09300 38.86600
C  -7.41800 39.74000 39.39100
C  -5.21500 38.89300 40.10500
C  -6.76300 37.84000 36.72100
C  -6.17200 36.70800 35.89100
H  -7.00300 36.16100 34.69800
N  -10.06000 41.26900 39.97600
C  -8.81500 41.90200 39.71800
C  -8.99200 43.32300 39.61100
C  -10.34900 43.58800 39.85400
C  -11.02700 42.24500 40.05400
C  -7.82200 44.26800 39.24100
C  -10.98900 44.93000 39.83000
O  -10.29500 45.88200 39.53900
C  -12.48600 45.13500 39.94900
N  -12.57000 39.52200 40.17500
C  -13.11800 40.73300 40.34100
C  -14.64200 40.71600 40.38200
C  -14.89300 39.11400 40.18000
C  -13.54700 38.56800 40.17300
C  -15.09900 41.16300 41.74600
C  -15.70100 38.89100 38.91500
C  -16.58600 37.57900 38.82800
N  -10.88500 37.12000 39.99600
C  -12.06800 36.47700 40.12500
C  -11.78300 35.08000 40.14500
C  -10.47400 34.95500 39.66100
C  -9.97200 36.24700 39.62300
C  -12.75300 34.08300 40.57300
C  -9.37600 34.02300 39.26300
O  -9.34000 32.79200 39.40400
C  -8.21500 34.92000 38.73400
C  -6.89000 34.53000 39.41500
O  -6.61200 34.67800 40.59100
O  -6.02700 33.96300 38.50700
C  -4.72700 33.51100 38.98700
H  -6.67600 41.73000 39.40400
H  -13.18500 42.72700 40.36400
H  -14.21200 36.53300 40.24900
H  -6.12500 36.87500 38.55400
H  -5.65800 39.66000 38.08400
H  -4.22500 39.19800 39.76500
H  -5.24800 37.85700 40.44300
H  -5.41400 39.53300 40.96500
H  -6.44700 38.81000 36.33500
H  -7.81200 37.83100 36.42300
H  -6.01700 35.88700 36.59100
H  -5.14500 36.89000 35.57400
H  -8.14800 45.09000 38.60400
H  -7.09000 43.65900 38.71000
H  -7.20300 44.66900 40.04300
H  -12.82100 46.17100 39.89600
H  -12.92400 44.69300 40.84400
H  -13.02500 44.69800 39.10900
H  -14.95400 41.34600 39.54900
H  -15.34200 38.67600 41.07100
H  -15.58000 42.14100 41.72100
H  -14.28400 41.29000 42.45800
H  -15.81300 40.41500 42.09100
H  -14.99300 38.95700 38.08900
H  -16.35800 39.75700 38.83700
H  -16.07400 36.72900 38.37600
H  -17.57500 37.82700 38.44200
H  -16.78800 37.32400 39.86800
H  -12.92000 34.23100 41.64000
H  -12.28600 33.10500 40.45400
H  -13.67400 34.21700 40.00600
H  -8.15300 34.80800 37.65100
H  -4.44300 32.75700 38.25300
H  -4.95800 33.10300 39.97100
H  -3.97100 34.28100 39.13900
Mg -1.80700 34.83000 27.16000
C  -3.82100 33.12300 29.27300
C  -0.77200 36.97900 29.47600
C  -0.03100 36.57000 24.77800
C  -2.84100 32.64600 24.45200
N  -2.37200 35.00600 29.07200
C  -3.01200 34.08800 29.86100
C  -2.78400 34.38300 31.36200
C  -2.02500 35.75400 31.37300
C  -1.69400 35.97600 29.87300
C  -3.13000 36.83200 31.94600
C  -1.96900 33.25700 31.95900
C  -2.11900 32.98700 33.47800
H  -2.51400 34.12000 34.46000
N  -0.44600 36.43300 27.15100
C  -0.24400 37.20800 28.24100
C  0.62300 38.31000 27.86800
C  0.97800 38.19400 26.49200
C  0.22300 36.98600 26.07400
C  0.90100 39.45700 28.79200
C  1.76900 39.03300 25.52600
O  2.11200 38.62200 24.38400
C  2.46500 40.31200 26.07300
N  -1.38300 34.60900 24.92500
C  -0.62500 35.47700 24.23600
C  -0.48500 35.02900 22.74200
C  -1.44100 33.87700 22.67200
C  -1.90300 33.67600 24.08000
C  -0.73000 36.11700 21.63000
C  -0.84200 32.58000 22.08400
C  0.32400 32.04000 22.93100
N  -3.13500 33.25900 26.83300
C  -3.45600 32.48800 25.70200
C  -4.35100 31.44000 26.11000
C  -4.56500 31.67400 27.50000
C  -3.82000 32.79600 27.91800
C  -5.02200 30.32900 25.23300
C  -5.30700 31.19900 28.65500
O  -6.15100 30.32300 28.80100
C  -4.62700 32.05700 29.85800
C  -5.70400 32.60500 30.64900
O  -6.51500 33.44900 30.29600
O  -5.55700 32.32700 31.97100
C  -6.69000 32.74000 32.85100
H  -0.39000 37.63200 30.26400
H  0.49200 37.11500 23.99000
H  -3.08300 31.88600 23.70600
H  -3.80400 34.48200 31.73300
H  -1.10100 35.79000 31.94900
H  -2.79000 37.20100 32.91400
H  -4.12500 36.41100 32.08600
H  -3.05800 37.74400 31.35300
H  -0.93900 33.17200 31.61300
H  -2.37900 32.34900 31.51700
H  -1.09900 32.69600 33.73100
H  -2.86900 32.23800 33.73200
H  1.70900 40.13300 28.51600
H  1.06900 39.16900 29.83000
H  -0.02800 40.02700 28.77100
H  1.65500 40.93200 26.45600
H  2.99700 40.80100 25.25600
H  3.17900 39.95100 26.81300
H  0.54500 34.68600 22.64600
H  -2.32200 34.18400 22.10700
H  -1.38200 35.78700 20.82100
H  0.20600 36.03600 21.07700
H  -0.95200 37.15800 21.86400
H  -0.40400 32.72200 21.09500
H  -1.56100 31.80100 21.83100
H  0.46800 32.52000 23.89900
H  1.22000 32.15600 22.32200
H  0.31000 30.99600 23.24300
H  -5.19500 30.60600 24.19300
H  -5.99400 30.13400 25.68600
H  -4.43500 29.41100 25.27900
H  -3.98200 31.46700 30.50800
H  -6.32900 33.63500 33.35700
H  -6.85400 31.87100 33.48900
H  -7.65200 32.99100 32.40400

