158

Mg 1.35900 7.12400 25.84000
C  2.23100 9.05100 28.61200
C  1.77400 4.29400 27.85900
C  0.69000 5.30000 23.20200
C  2.18300 9.88000 23.80600
N  1.97300 6.74200 28.02400
C  2.04100 7.73600 29.00900
C  2.09500 7.07100 30.38200
C  2.19700 5.54500 30.10200
C  2.01600 5.53700 28.54300
C  3.46200 4.79000 30.56800
C  0.84300 7.42200 31.33600
C  1.24400 7.77400 32.77700
H  2.48100 7.13000 33.43600
N  1.13500 5.09900 25.59200
C  1.41800 4.13300 26.50600
C  1.23400 2.81400 25.90200
C  0.82200 3.01200 24.51300
C  0.88200 4.51500 24.36800
C  1.34400 1.55700 26.74200
C  0.60300 2.01000 23.46500
O  0.46100 2.31600 22.30100
C  0.39300 0.60800 23.81600
N  1.48500 7.51800 23.78300
C  1.01700 6.63000 22.89200
C  0.98300 7.18800 21.43100
C  1.79200 8.50800 21.60200
C  1.84200 8.70200 23.14700
C  1.41500 6.30600 20.26700
C  1.32000 9.78000 20.82500
C  -0.05000 10.41000 21.18800
N  1.94200 9.06000 26.13400
C  2.23600 10.07000 25.20400
C  2.59800 11.28700 25.88800
C  2.58500 10.93400 27.21400
C  2.22300 9.57100 27.28300
C  2.79800 12.67300 25.25500
C  2.76600 11.41000 28.62500
O  3.00600 12.52100 29.09600
C  2.42900 10.25500 29.54400
C  3.55700 10.12000 30.53100
O  4.61800 9.56400 30.26200
O  3.31400 10.68500 31.73500
C  4.38500 10.75700 32.68600
H  1.79400 3.35900 28.42100
H  0.39200 4.65500 22.37300
H  2.47100 10.74500 23.20700
H  2.96500 7.49300 30.88700
H  1.37500 4.94400 30.49100
H  4.25200 4.66300 29.82700
H  3.17000 3.80800 30.94100
H  3.94000 5.34900 31.37300
H  0.29100 6.49600 31.50200
H  0.18800 8.16100 30.87600
H  0.38300 7.74300 33.44500
H  1.55300 8.81400 32.67100
H  0.40500 1.02700 26.90000
H  1.97900 1.69700 27.61700
H  1.88700 0.91300 26.05000
H  -0.29400 0.49800 24.65500
H  1.35800 0.19600 24.11300
H  -0.03400 0.13800 22.93000
H  -0.07700 7.34700 21.23400
H  2.83600 8.30500 21.36000
H  1.83400 5.46400 20.81800
H  2.09800 6.81400 19.58500
H  0.48300 6.06500 19.75500
H  1.47600 9.64600 19.75500
H  1.92900 10.68300 20.86400
H  -0.42400 10.68400 20.20100
H  0.04400 11.23200 21.89700
H  -0.70700 9.66800 21.64100
H  2.34200 12.72000 24.26600
H  3.87000 12.85500 25.16800
H  2.38700 13.37900 25.97600
H  1.48500 10.50300 30.02900
H  3.95100 10.96300 33.66500
H  5.10900 11.49900 32.35200
H  4.98200 9.84800 32.74300
Mg 25.92800 0.64200 29.00900
C  27.87700 0.14400 31.96400
C  23.16200 0.87700 30.94200
C  24.17900 0.59400 26.11800
C  28.86300 0.04700 27.19300
N  25.64300 0.51400 31.27400
C  26.55300 0.40900 32.21900
C  25.75200 0.69300 33.52900
C  24.28200 0.89800 33.11500
C  24.35900 0.79000 31.66600
C  23.33800 -0.31600 33.60900
C  26.35800 1.95400 34.29300
C  26.96200 1.75400 35.63900
H  26.34400 2.54600 36.88200
N  23.93600 0.67400 28.58800
C  22.94200 0.87800 29.53900
C  21.62500 0.88800 28.86000
C  21.88400 0.68700 27.42400
C  23.37000 0.57300 27.34600
C  20.35000 1.18300 29.62700
C  20.90900 0.65700 26.27000
O  21.34800 0.66200 25.10500
C  19.43400 0.74700 26.52400
N  26.46900 0.39100 26.87200
C  25.55800 0.56600 25.84800
C  26.18100 0.35800 24.49000
C  27.77800 0.39700 24.86700
C  27.72400 0.21000 26.41800
C  25.76100 -0.91000 23.68500
C  28.47300 1.80000 24.65800
C  28.31400 2.32300 23.21700
N  27.96200 0.27900 29.40800
C  28.98100 0.05100 28.56100
C  30.15000 -0.20600 29.32500
C  29.78000 -0.12600 30.68900
C  28.41300 0.08900 30.64800
C  31.49500 -0.53300 28.77700
C  30.29400 -0.12400 32.06800
O  31.42300 -0.22300 32.45000
C  28.98100 0.02000 33.02800
C  28.80900 -1.16000 33.95300
O  28.25300 -2.20300 33.67900
O  29.33800 -0.92100 35.19600
C  29.38500 -2.06400 36.16600
H  22.20700 0.88000 31.47200
H  23.65000 0.72000 25.17100
H  29.81000 -0.17100 26.69400
H  25.80900 -0.26900 34.03800
H  23.81500 1.80000 33.51000
H  23.65500 -0.80500 34.53000
H  23.30000 -1.11800 32.87300
H  22.36500 0.12700 33.82200
H  25.59300 2.73100 34.31400
H  27.06800 2.46200 33.64100
H  27.91800 2.24900 35.47300
H  27.04800 0.69500 35.88200
H  20.67700 1.78000 30.47800
H  19.92500 0.22900 29.93900
H  19.58200 1.70500 29.05600
H  18.98900 0.63300 25.53500
H  19.25500 1.77100 26.85200
H  18.99000 0.04800 27.23200
H  25.99600 1.17700 23.79500
H  28.30500 -0.50300 24.54900
H  24.97100 -0.63200 22.98700
H  25.26300 -1.65800 24.30100
H  26.52300 -1.36700 23.05400
H  29.51900 1.87300 24.95700
H  28.01200 2.46500 25.38700
H  29.34700 2.40500 22.87700
H  27.87200 3.31800 23.27200
H  27.75900 1.58800 22.63400
H  31.27200 -0.98900 27.81300
H  32.09100 -1.13400 29.46400
H  32.07000 0.37300 28.58300
H  28.95500 0.86000 33.72200
H  30.39100 -2.01500 36.58300
H  29.32000 -3.07000 35.75100
H  28.59700 -1.98600 36.91500

