158

Mg 25.75900 -6.81200 47.90300
C  27.72100 -4.20300 46.81900
C  23.63100 -6.11700 45.20100
C  24.04200 -9.53200 48.62800
C  28.39100 -7.77000 49.94200
N  25.77400 -5.40900 46.05300
C  26.67400 -4.38600 45.91800
C  26.34500 -3.49700 44.72800
C  25.00600 -4.12700 44.24700
C  24.72400 -5.26300 45.19100
C  23.80100 -3.23100 44.16400
C  27.39100 -3.50900 43.61700
C  27.80200 -2.04200 43.25000
H  27.96700 -1.74400 41.76500
N  24.01000 -7.65400 47.09900
C  23.25900 -7.18600 46.05700
C  22.09600 -8.06500 46.00400
C  22.14300 -9.08400 46.96800
C  23.36300 -8.75800 47.63500
C  21.02300 -7.81000 44.95500
C  21.00600 -10.15300 47.22000
O  19.92700 -10.18900 46.60000
C  21.20000 -11.00100 48.43200
N  26.22600 -8.48300 48.93500
C  25.28700 -9.41000 49.29700
C  25.81300 -10.37700 50.39800
C  27.18000 -9.80400 50.79800
C  27.29300 -8.61500 49.80700
C  24.76500 -10.42600 51.53300
C  28.35200 -10.86100 50.71700
C  29.39500 -10.65700 51.78100
N  27.63400 -6.14200 48.44800
C  28.58000 -6.64400 49.23000
C  29.66400 -5.76500 49.26600
C  29.29000 -4.73200 48.45100
C  28.09000 -5.05500 47.89200
C  30.98600 -6.01800 49.99100
C  29.76700 -3.49700 47.94500
O  30.75600 -2.89400 48.30300
C  28.70900 -3.13100 46.86100
C  28.11900 -1.86400 47.25100
O  27.40300 -1.63500 48.22400
O  28.28300 -0.98700 46.23500
C  27.52900 0.32900 46.38200
H  22.96400 -5.84000 44.38200
H  23.61600 -10.53100 48.73600
H  29.23100 -8.08300 50.56500
H  26.25800 -2.46500 45.06900
H  25.19200 -4.58100 43.27400
H  23.50100 -2.82800 43.19700
H  24.01300 -2.39900 44.83500
H  22.92700 -3.66000 44.65400
H  26.89400 -4.07400 42.82700
H  28.19500 -4.18200 43.91400
H  28.66000 -1.74400 43.85200
H  27.01500 -1.34900 43.54400
H  20.04500 -8.06700 45.36000
H  21.20500 -8.48800 44.12100
H  21.06600 -6.83500 44.47000
H  21.90900 -11.82700 48.38700
H  20.22400 -11.46800 48.56100
H  21.38600 -10.38500 49.31100
H  25.98100 -11.40500 50.07500
H  27.03400 -9.41200 51.80400
H  25.18700 -10.83500 52.45000
H  24.05300 -11.15000 51.13600
H  24.24900 -9.47500 51.66800
H  28.92800 -10.83600 49.79200
H  28.05800 -11.90800 50.64900
H  29.19700 -11.35700 52.59300
H  29.42100 -9.71500 52.32800
H  30.42100 -10.80200 51.44100
H  31.48100 -5.04800 49.94200
H  31.43000 -6.83700 49.42600
H  30.67100 -6.18700 51.02100
H  29.31400 -3.03800 45.95900
H  26.46800 0.17200 46.18800
H  28.02700 0.96300 45.64800
H  27.62500 0.92800 47.28800
Mg 35.45500 2.85200 28.09600
C  33.80300 3.52400 30.98800
C  38.36000 2.61000 29.73300
C  37.00500 2.15600 25.09700
C  32.39800 2.91300 26.39800
N  35.99300 3.11500 30.17900
C  35.14500 3.24200 31.25000
C  35.87100 3.16300 32.59700
C  37.27700 2.77100 32.14100
C  37.27700 2.97500 30.62000
C  38.58100 3.30100 32.89300
C  35.15900 2.11400 33.55100
C  35.02400 2.40000 35.13900
H  35.41300 3.85500 35.59800
N  37.43700 2.50900 27.47900
C  38.45400 2.40000 28.32800
C  39.68200 2.02300 27.68100
C  39.31900 1.87400 26.27900
C  37.83700 2.13200 26.24600
C  41.04500 1.85000 28.36500
C  40.14700 1.62800 25.06000
O  39.73900 1.37400 23.90800
C  41.69100 1.49800 25.26300
N  34.75700 2.37800 26.14900
C  35.58800 2.24500 25.04000
C  34.79900 2.13400 23.76400
C  33.32000 2.03300 24.27700
C  33.49800 2.46200 25.70800
C  34.95300 3.44400 22.90900
C  32.59600 0.65100 24.09400
C  31.50100 0.55300 23.03200
N  33.45900 3.09400 28.52800
C  32.32700 3.18600 27.76700
C  31.24800 3.68300 28.50400
C  31.73900 3.80000 29.82700
C  33.10800 3.42700 29.73500
C  29.84700 3.99100 27.88600
C  31.34500 4.18700 31.14500
O  30.32300 4.58000 31.65300
C  32.71300 3.97400 31.97500
C  33.11300 5.19400 32.72900
O  34.05000 5.98800 32.52000
O  32.18300 5.36600 33.74500
C  32.33100 6.64900 34.45000
H  39.23200 2.45100 30.37000
H  37.60500 2.06600 24.19000
H  31.47400 2.87000 25.81800
H  35.97000 4.10100 33.14200
H  37.41000 1.69200 32.21400
H  39.14800 2.46000 33.29200
H  38.12800 3.86700 33.70700
H  39.21300 3.79500 32.15400
H  35.64700 1.13900 33.54300
H  34.17700 1.80200 33.19500
H  35.60000 1.64400 35.67200
H  33.95600 2.28600 35.32700
H  40.89000 1.97000 29.43700
H  41.84900 2.51400 28.04700
H  41.47500 0.85800 28.22200
H  42.24100 1.41800 24.32600
H  41.91500 0.58800 25.82000
H  41.93500 2.34800 25.90100
H  35.07700 1.19300 23.28900
H  32.71700 2.77200 23.74900
H  35.00000 4.35000 23.51300
H  34.05800 3.55200 22.29500
H  35.94200 3.38200 22.45600
H  32.08100 0.49800 25.04300
H  33.24400 -0.22300 24.03500
H  31.64100 -0.29400 22.36000
H  31.40600 1.43800 22.40300
H  30.58000 0.46600 23.60800
H  29.03300 3.45700 28.37600
H  29.83400 3.71800 26.83100
H  29.53900 5.03500 27.94500
H  32.60700 3.20000 32.73500
H  33.07700 7.36500 34.10700
H  32.57400 6.47500 35.49900
H  31.33400 7.08000 34.35600

