158

Mg 35.18900 3.52600 30.16200
C  32.79100 4.19300 32.45900
C  37.58400 3.72800 32.60300
C  37.51200 2.52400 27.82900
C  32.78200 3.58100 27.53100
N  35.15200 3.82700 32.22800
C  34.04400 3.98100 33.01500
C  34.25900 4.19100 34.51300
C  35.82400 4.40700 34.42800
C  36.24800 3.93800 33.03700
C  36.24500 5.93400 34.71000
C  33.78400 2.99300 35.39700
C  33.38400 3.43000 36.81200
H  34.25200 4.41000 37.66900
N  37.28600 3.21600 30.17800
C  38.05900 3.36100 31.31200
C  39.36600 2.87100 31.02100
C  39.37700 2.58500 29.62400
C  37.99000 2.77900 29.10500
C  40.47500 2.78200 32.02300
C  40.49700 2.14900 28.72300
O  40.43900 1.94000 27.48100
C  41.87500 1.86800 29.33800
N  35.14400 3.27800 27.91100
C  36.23400 2.74600 27.26100
C  35.85500 2.46000 25.81400
C  34.28900 2.75000 25.75900
C  34.05100 3.29400 27.11300
C  36.71500 3.35000 24.75500
C  33.37300 1.63800 25.21100
C  32.08800 2.06300 24.44800
N  33.21900 3.87400 29.97100
C  32.33300 3.85700 28.91200
C  31.07600 4.16300 29.38900
C  31.24200 4.32000 30.74100
C  32.53200 4.10100 31.07500
C  29.76500 4.23500 28.60000
C  30.43400 4.66200 31.86100
O  29.25200 5.04600 31.97500
C  31.43900 4.43000 33.10300
C  31.37000 5.67900 33.93800
O  31.58900 6.82800 33.51800
O  30.92200 5.31800 35.21200
C  30.58900 6.55400 36.00900
H  38.31800 3.90800 33.39000
H  38.23400 1.92100 27.27500
H  31.91200 3.52300 26.87500
H  33.73500 5.10400 34.79700
H  36.43200 3.90400 35.17900
H  35.34500 6.40100 35.11000
H  36.67700 6.45400 33.85500
H  36.91400 5.98600 35.56900
H  34.52200 2.21200 35.58200
H  32.89600 2.56800 34.92800
H  33.29100 2.50400 37.38000
H  32.36200 3.78600 36.67700
H  40.64700 1.82700 32.52000
H  40.23600 3.54800 32.76000
H  41.43400 3.13300 31.64200
H  41.91700 1.20800 30.20400
H  42.37000 2.80000 29.60700
H  42.54700 1.50400 28.56100
H  36.07300 1.40800 25.63500
H  34.19000 3.58800 25.06900
H  37.15500 2.59700 24.10200
H  37.44700 3.92800 25.31900
H  36.04900 3.97500 24.15900
H  32.90600 1.18000 26.08300
H  33.90900 0.87400 24.64800
H  31.26900 2.25500 25.14000
H  31.81000 1.28800 23.73400
H  32.35000 2.94600 23.86400
H  29.01700 4.47600 29.35600
H  29.40000 3.34500 28.08800
H  29.86500 5.07500 27.91200
H  31.11000 3.60500 33.73600
H  29.82900 7.20600 35.57800
H  31.53900 7.04900 36.20800
H  30.10600 6.14300 36.89600
Mg 35.70100 48.25900 24.98700
C  36.10800 46.41800 27.99400
C  34.11900 50.81500 26.76900
C  35.22800 49.76100 22.15900
C  36.79700 45.43000 23.20000
N  35.12600 48.51900 27.16600
C  35.50800 47.67600 28.20000
C  35.23800 48.41000 29.53000
C  34.39000 49.65000 29.06900
C  34.42900 49.65700 27.56600
C  32.96600 49.55800 29.60200
C  36.55700 48.87700 30.18700
C  36.61600 48.58500 31.68400
H  35.26500 48.67500 32.42400
N  34.82800 50.11600 24.48700
C  34.32400 51.05900 25.36600
C  33.87900 52.29200 24.55500
C  34.34200 52.04400 23.18600
C  34.84600 50.60600 23.18900
C  33.30400 53.53600 25.12800
C  34.28800 52.92300 21.88300
O  34.77100 52.63000 20.82200
C  33.36100 54.10000 21.91200
N  35.69300 47.59300 22.97700
C  35.53400 48.43300 22.01600
C  35.84800 47.82100 20.65900
C  36.72500 46.65600 21.07000
C  36.41000 46.52600 22.52600
C  34.58300 47.42900 19.79800
C  38.26000 46.81100 20.67100
C  39.16600 47.49700 21.70900
N  36.36800 46.31400 25.42300
C  36.84900 45.31200 24.62400
C  37.22700 44.15000 25.40700
C  37.01800 44.57800 26.75800
C  36.43000 45.88400 26.69000
C  37.64800 42.77400 24.85000
C  37.01700 44.16600 28.17200
O  37.40200 43.15300 28.68200
C  36.41900 45.34000 29.01900
C  35.19400 44.90400 29.70100
O  34.11400 44.80300 29.18900
O  35.43600 44.84300 31.01400
C  34.23300 44.56400 31.78000
H  33.67700 51.65000 27.31600
H  35.19700 50.24800 21.18200
H  37.13000 44.59900 22.57500
H  34.68400 47.69200 30.13400
H  34.79400 50.62700 29.33400
H  32.84300 50.39300 30.29200
H  32.78500 48.59200 30.07300
H  32.18300 49.56900 28.84300
H  36.62200 49.94700 29.98700
H  37.43100 48.37700 29.77000
H  37.31000 49.29600 32.13100
H  36.98600 47.56700 31.81000
H  33.83700 54.40400 24.73800
H  33.46800 53.68100 26.19600
H  32.25100 53.55800 24.84500
H  33.69800 54.79800 22.67800
H  32.33500 53.79300 22.11600
H  33.33500 54.73400 21.02600
H  36.40100 48.62000 20.16600
H  36.46800 45.77300 20.48400
H  33.67100 47.52900 20.38700
H  34.59700 46.49300 19.23900
H  34.46000 48.19300 19.03000
H  38.39700 47.38400 19.75400
H  38.49800 45.78700 20.38100
H  38.71100 47.47600 22.69900
H  39.26000 48.55100 21.44900
H  40.11200 46.95600 21.69200
H  37.31500 42.79400 23.81200
H  36.98000 42.08500 25.36800
H  38.67900 42.48200 25.05100
H  37.15300 45.65000 29.76300
H  34.12100 43.49000 31.62900
H  33.43900 45.21800 31.41800
H  34.41000 44.75800 32.83800

