158

Mg 16.48000 -2.02700 27.11100
C  15.78200 -0.12600 29.85200
C  18.31800 -4.17700 29.26600
C  17.84600 -3.60600 24.43700
C  14.95700 0.31700 25.08300
N  17.14300 -2.03500 29.31800
C  16.65600 -1.17200 30.25700
C  17.13700 -1.50200 31.69800
C  18.12800 -2.71000 31.47800
C  17.79100 -3.02500 29.90100
C  19.61700 -2.26000 31.64200
C  15.91800 -1.95800 32.61000
C  16.25300 -2.43100 34.00700
H  17.63100 -2.09700 34.73600
N  17.78000 -3.72000 26.91800
C  18.35100 -4.47900 27.90000
C  19.10400 -5.55600 27.28200
C  19.09800 -5.32700 25.84900
C  18.24900 -4.21000 25.64300
C  19.80700 -6.62500 28.08400
C  19.81700 -6.19500 24.74900
O  19.62700 -6.01000 23.53100
C  20.84700 -7.17900 25.13500
N  16.38000 -1.70900 24.99600
C  16.96100 -2.50900 24.08300
C  16.82000 -1.97500 22.59700
C  15.80800 -0.75200 22.83500
C  15.65600 -0.71600 24.41400
C  18.15600 -1.65400 21.84300
C  14.37500 -1.01200 22.26300
C  13.81600 0.25400 21.64000
N  15.37200 -0.36100 27.31300
C  14.86200 0.53300 26.42400
C  14.18000 1.60500 27.13700
C  14.57800 1.33600 28.51700
C  15.31800 0.14800 28.57000
C  13.32400 2.65700 26.46200
C  14.41600 1.87600 29.86900
O  13.89200 2.95200 30.14600
C  15.15600 0.91900 30.81600
C  16.17000 1.74900 31.62400
O  17.16900 2.28300 31.14600
O  15.79400 1.84300 32.91800
C  16.63600 2.69400 33.82900
H  18.77000 -4.84400 30.00200
H  18.28300 -4.00800 23.52000
H  14.58000 1.05400 24.37100
H  17.60400 -0.61800 32.13300
H  18.12600 -3.64800 32.03200
H  19.59900 -1.24800 32.04600
H  20.16200 -2.33600 30.70100
H  20.19100 -2.90400 32.30800
H  15.34800 -2.68300 32.02900
H  15.25000 -1.10700 32.73900
H  15.99900 -3.48800 34.07900
H  15.54900 -1.97800 34.70500
H  20.88900 -6.68300 27.96800
H  19.49800 -7.56700 27.63300
H  19.59200 -6.61800 29.15300
H  21.64000 -6.63300 25.64600
H  21.12900 -7.68200 24.20900
H  20.59600 -8.03500 25.76100
H  16.36000 -2.84200 22.12200
H  16.24700 0.15600 22.42100
H  19.02200 -1.59700 22.50200
H  18.15400 -0.71100 21.29700
H  18.28200 -2.47500 21.13700
H  13.75000 -1.39600 23.07000
H  14.51400 -1.82300 21.54900
H  12.79200 0.44800 21.95800
H  13.74100 0.23400 20.55300
H  14.39100 1.11600 21.97900
H  13.76000 2.97000 25.51300
H  13.45500 3.61400 26.96600
H  12.25400 2.44700 26.48200
H  14.45900 0.45000 31.51000
H  16.65300 3.70300 33.41700
H  17.67400 2.36300 33.78700
H  16.32000 2.73700 34.87100
Mg 25.58800 0.12600 29.07400
C  27.34700 -0.22400 32.07000
C  22.68900 0.25500 30.97600
C  23.91000 0.61100 26.26500
C  28.46800 -0.51400 27.24200
N  25.05700 0.09500 31.35000
C  25.96000 -0.16900 32.33600
C  25.12200 -0.09800 33.68900
C  23.62500 -0.05000 33.27500
C  23.79100 0.04000 31.82300
C  22.68900 -1.24800 33.58200
C  25.43100 1.23300 34.45800
C  25.88800 1.02000 35.95000
H  25.68600 2.22100 36.87500
N  23.58600 0.37400 28.66800
C  22.56200 0.36300 29.54700
C  21.29000 0.54800 28.80900
C  21.64800 0.67400 27.45300
C  23.10200 0.56900 27.39800
C  19.94100 0.58000 29.43900
C  20.72900 0.84100 26.25400
O  21.14400 0.88200 25.13800
C  19.29100 0.88900 26.45400
N  26.03500 -0.26500 27.03000
C  25.26000 0.31400 26.08400
C  25.93000 0.43400 24.74300
C  27.31400 -0.20700 24.97500
C  27.25600 -0.36000 26.49700
C  25.18400 -0.05900 23.53100
C  28.58500 0.56100 24.45500
C  29.50400 -0.40300 23.57300
N  27.48500 -0.18200 29.49700
C  28.57500 -0.54600 28.67900
C  29.74800 -0.74800 29.50000
C  29.44100 -0.52700 30.87000
C  27.99500 -0.25100 30.77600
C  31.18400 -1.22000 29.00900
C  29.84700 -0.53800 32.25100
O  30.93300 -0.85100 32.77800
C  28.50100 -0.29000 33.09900
C  28.33500 -1.39900 34.13500
O  27.92400 -2.56400 33.85400
O  28.85500 -1.07000 35.38700
C  28.81400 -1.95300 36.53800
H  21.80000 0.34200 31.60400
H  23.43100 0.93400 25.33800
H  29.37300 -0.81500 26.70900
H  25.44600 -0.95400 34.28000
H  23.02900 0.83300 33.50300
H  22.77500 -1.79700 34.52000
H  22.75400 -2.03200 32.82700
H  21.68300 -0.84200 33.47300
H  24.56600 1.89700 34.46800
H  26.23700 1.74400 33.93200
H  26.93200 0.71400 35.89200
H  25.29000 0.25600 36.44800
H  19.95300 0.51300 30.52700
H  19.44700 -0.23500 28.91000
H  19.44300 1.48800 29.09700
H  18.98100 1.68600 27.13100
H  19.14900 -0.11000 26.86500
H  18.82900 0.96500 25.47000
H  25.99500 1.51300 24.59800
H  27.31200 -1.27100 24.73700
H  25.11100 0.77100 22.82900
H  24.23600 -0.52700 23.79800
H  25.69200 -0.89300 23.04700
H  29.17700 0.83800 25.32800
H  28.43300 1.46300 23.86300
H  28.92500 -1.05200 22.91500
H  30.18200 -1.03000 24.15200
H  30.14800 0.16900 22.90400
H  31.39700 -0.98400 27.96700
H  31.25100 -2.27500 29.27400
H  31.86900 -0.63100 29.61900
H  28.69600 0.53600 33.78300
H  28.60700 -3.01600 36.41600
H  28.07500 -1.60200 37.25800
H  29.67200 -1.89400 37.20800

