158

Mg 0.10000 42.71800 24.64700
C  1.47500 42.83600 27.98600
C  -2.68900 41.33700 25.98900
C  -0.79300 41.87400 21.69700
C  3.46400 43.38000 23.50400
N  -0.48600 42.27400 26.82600
C  0.09900 42.53800 28.03200
C  -0.83000 42.30600 29.18400
C  -2.17600 41.74000 28.47500
C  -1.76600 41.72600 26.99600
C  -2.67100 40.32400 28.93900
C  -0.99600 43.43800 30.21100
C  -0.53000 43.37400 31.70900
H  -1.71900 43.50200 32.75600
N  -1.64600 42.11700 23.95200
C  -2.71300 41.59300 24.65100
C  -3.82000 41.29200 23.73300
C  -3.27000 41.39200 22.38000
C  -1.86500 41.81700 22.57800
C  -5.24300 40.90200 24.10400
C  -3.82400 41.01800 21.01500
O  -3.22300 41.33200 19.96400
C  -5.17600 40.32600 21.01100
N  1.14400 42.72100 22.79600
C  0.53600 42.37500 21.65800
C  1.44800 42.37800 20.45400
C  2.75200 43.00100 21.06500
C  2.48500 43.01000 22.57400
C  1.67800 40.95400 19.79000
C  3.09200 44.41100 20.45900
C  2.50900 45.66000 21.07400
N  2.05800 43.09200 25.45400
C  3.33200 43.33900 24.91100
C  4.29700 43.50800 25.90900
C  3.56700 43.44700 27.10200
C  2.22500 43.11000 26.81900
C  5.72200 43.83700 25.76900
C  3.69200 43.69900 28.51600
O  4.60500 44.08500 29.19400
C  2.31400 43.18800 29.11400
C  2.68300 42.02400 29.95600
O  2.54600 40.81300 29.75900
O  3.04600 42.54600 31.16100
C  3.58900 41.60100 32.11000
H  -3.53300 40.78400 26.40400
H  -1.04600 41.72700 20.64500
H  4.39800 43.64900 23.00600
H  -0.45700 41.42600 29.70800
H  -2.95500 42.50200 28.48500
H  -2.06700 39.92700 29.75400
H  -2.60000 39.69800 28.04900
H  -3.74500 40.33800 29.12800
H  -2.04400 43.73000 30.14900
H  -0.50900 44.34700 29.85900
H  0.25400 44.12600 31.79200
H  -0.08000 42.38800 31.82900
H  -5.35800 39.83200 24.28100
H  -5.99100 41.24000 23.38800
H  -5.54400 41.32100 25.06400
H  -5.14700 39.66400 20.14500
H  -5.92900 41.09700 20.85100
H  -5.34500 39.70700 21.89200
H  1.18200 43.11000 19.69200
H  3.63500 42.41500 20.80900
H  2.72700 40.68400 19.90300
H  1.38600 40.96500 18.74000
H  1.02600 40.25100 20.30800
H  2.77300 44.42100 19.41700
H  4.18100 44.41700 20.50600
H  3.32500 46.20400 21.55000
H  1.87100 45.30100 21.88100
H  1.82200 46.15700 20.38900
H  5.99800 44.07000 24.74100
H  6.35300 43.08400 26.24200
H  5.93900 44.70600 26.38900
H  1.81000 43.90700 29.76100
H  3.40800 42.18200 33.01500
H  4.65800 41.45800 31.95300
H  3.10900 40.63000 32.23400
Mg -12.53700 17.35900 42.31100
C  -9.56800 15.63300 41.52200
C  -11.24700 19.89400 40.34300
C  -15.54200 18.81100 42.46500
C  -13.78200 14.45200 43.68000
N  -10.61800 17.64900 41.02900
C  -9.53800 16.89900 40.96900
C  -8.36600 17.62500 40.29100
C  -9.02800 18.91300 39.74900
C  -10.32200 18.91400 40.54700
C  -8.03300 20.11300 39.96600
C  -7.45800 16.87800 39.24700
C  -5.89800 16.96000 39.42000
H  -4.98800 17.34700 38.24400
N  -13.25200 19.18300 41.55400
C  -12.60100 20.01900 40.72800
C  -13.45500 21.10500 40.37900
C  -14.74100 20.79800 40.96600
C  -14.52700 19.58300 41.73800
C  -13.10300 22.31700 39.67600
C  -16.08400 21.58500 40.82400
O  -16.27200 22.55300 40.09600
C  -17.29000 21.24500 41.61600
N  -14.47600 16.72400 42.92700
C  -15.52100 17.49600 43.04800
C  -16.71100 16.76100 43.68600
C  -16.07900 15.38500 44.07800
C  -14.68200 15.51500 43.49700
C  -17.32600 17.46900 44.85000
C  -16.85000 14.17700 43.59400
C  -16.78000 13.86700 42.06700
N  -11.80400 15.41100 42.60500
C  -12.42100 14.33400 43.18500
C  -11.62700 13.16600 43.26200
C  -10.39100 13.62600 42.68500
C  -10.61200 15.01400 42.27800
C  -12.01900 11.87700 43.82300
C  -9.05600 13.28700 42.31000
O  -8.40100 12.23400 42.56500
C  -8.48100 14.53000 41.55700
C  -7.30000 14.95100 42.26900
O  -7.36500 15.87600 43.10700
O  -6.18300 14.12800 42.00000
C  -5.04500 14.44100 42.91800
H  -10.95900 20.77500 39.76600
H  -16.56800 19.13300 42.65200
H  -14.17100 13.54300 44.14400
H  -7.70300 17.91900 41.10500
H  -9.28400 18.92000 38.68900
H  -7.05400 19.63500 39.99100
H  -8.30200 20.67200 40.86300
H  -8.02100 20.86300 39.17400
H  -7.63400 17.36600 38.28900
H  -7.77800 15.83600 39.21800
H  -5.52100 15.97800 39.70400
H  -5.71300 17.74000 40.15900
H  -12.32500 22.18200 38.92500
H  -12.69900 23.04200 40.38300
H  -13.91700 22.80300 39.13900
H  -16.95200 21.30200 42.65100
H  -17.75500 20.32500 41.26200
H  -17.98600 22.04100 41.35300
H  -17.44700 16.60800 42.89600
H  -15.98500 15.26600 45.15700
H  -16.90800 18.47400 44.90200
H  -17.24100 16.93800 45.79700
H  -18.37800 17.58500 44.58800
H  -17.87700 14.48300 43.79200
H  -16.69100 13.35300 44.29000
H  -17.75000 14.08100 41.62000
H  -16.42500 12.85000 41.89900
H  -16.00600 14.34000 41.46200
H  -12.14700 11.98900 44.89900
H  -11.15700 11.24700 43.60400
H  -12.91300 11.39900 43.42300
H  -8.07000 14.23100 40.59200
H  -4.38100 13.57800 42.86100
H  -5.30700 14.61300 43.96200
H  -4.37300 15.27500 42.71400

