158

Mg 49.52300 45.48700 42.22500
C  46.27900 46.23900 41.07800
C  49.24600 42.49800 40.68400
C  52.86900 45.28500 42.47700
C  49.69600 48.66300 43.53400
N  47.89600 44.50100 41.03500
C  46.66000 44.98300 40.66100
C  45.86200 43.92900 39.84300
C  46.69100 42.69400 40.16700
C  48.03900 43.24800 40.60800
C  46.14100 41.65900 41.22900
C  45.70500 44.38900 38.27400
C  44.35400 44.10400 37.62500
H  44.34400 43.14600 36.42400
N  50.83900 44.06400 41.69000
C  50.54700 42.87700 41.10800
C  51.74400 42.08200 41.08700
C  52.84000 42.87500 41.54900
C  52.20200 44.17200 41.96600
C  51.71600 40.64000 40.61600
C  54.28500 42.36400 41.70400
O  54.63200 41.16300 41.48900
C  55.44200 43.24900 42.12100
N  51.09600 46.85600 42.90100
C  52.38000 46.54400 42.87100
C  53.24900 47.65700 43.35000
C  52.23700 48.68700 43.84400
C  50.92200 48.06600 43.35500
C  54.32800 47.21600 44.36400
C  52.61000 50.12200 43.38000
C  52.84600 51.27400 44.38900
N  48.22600 47.05300 42.51600
C  48.41700 48.27000 43.09400
C  47.17700 49.01200 43.13100
C  46.31300 48.24400 42.31000
C  46.99200 47.05000 41.98500
C  46.88300 50.42400 43.70500
C  44.98600 48.18200 41.75200
O  44.04200 48.90700 41.80800
C  44.94900 46.90100 40.81900
C  43.75200 46.02900 41.21000
O  42.99100 45.47300 40.41100
O  43.79700 45.71100 42.56100
C  42.89300 44.65700 43.04200
H  49.22400 41.47700 40.29500
H  53.95500 45.18800 42.54200
H  49.67300 49.72400 43.79100
H  44.87300 43.71000 40.24500
H  46.72100 42.12200 39.23900
H  45.99500 40.63900 40.87400
H  45.14000 41.96000 41.53700
H  46.74800 41.53000 42.12500
H  46.52900 43.89000 37.76300
H  45.91000 45.45000 38.12700
H  43.94700 45.06400 37.30800
H  43.67700 43.58700 38.30600
H  51.72100 40.73900 39.53000
H  50.86700 40.13600 41.07600
H  52.58600 40.09600 40.98400
H  55.28700 43.59400 43.14400
H  55.47100 44.10400 41.44600
H  56.36800 42.67700 42.18400
H  53.61300 48.04400 42.39800
H  52.20100 48.69400 44.93400
H  54.31000 46.13500 44.50100
H  54.10200 47.57100 45.36900
H  55.25100 47.69500 44.03800
H  51.77700 50.49500 42.78300
H  53.56300 50.07000 42.85500
H  52.07800 52.04700 44.37300
H  53.80200 51.79900 44.37300
H  52.89900 50.81600 45.37700
H  47.78600 50.68700 44.25500
H  45.99000 50.28700 44.31500
H  46.66700 51.16800 42.93700
H  44.76700 47.13000 39.76900
H  42.08900 45.25700 43.46700
H  43.45500 44.07900 43.77600
H  42.46500 43.94700 42.33400
Mg 16.71200 51.86700 26.38400
C  18.45700 50.39100 29.14500
C  14.18100 52.74800 28.57400
C  15.08700 53.07000 23.78200
C  19.16600 50.48500 24.30300
N  16.33700 51.44400 28.61300
C  17.28100 51.01500 29.49200
C  16.91400 51.37400 30.90500
C  15.41100 51.78100 30.73700
C  15.24200 52.03800 29.21900
C  14.42300 50.67700 31.22300
C  17.87300 52.43400 31.50800
C  18.18300 52.25800 33.05800
H  17.08000 51.69600 33.88800
N  14.83200 52.73400 26.15700
C  13.96600 53.06700 27.15500
C  12.87600 53.84100 26.61000
C  13.10100 53.95400 25.26600
C  14.35200 53.22300 24.92700
C  11.76800 54.33600 27.47600
C  12.25700 54.61400 24.15800
O  12.71000 54.79900 23.04100
C  10.85500 55.21200 24.57100
N  16.99000 51.67400 24.27500
C  16.22800 52.35200 23.40600
C  16.85700 52.35700 21.93500
C  18.19600 51.58900 22.16700
C  18.09900 51.18600 23.61700
C  16.13400 51.50800 20.84800
C  19.47900 52.28300 21.81600
C  20.61800 51.46200 21.19700
N  18.43000 50.70000 26.56500
C  19.38600 50.21600 25.65600
C  20.41000 49.42400 26.25100
C  20.09000 49.56000 27.66300
C  18.88100 50.26800 27.75900
C  21.54300 48.73500 25.51600
C  20.53300 49.20600 28.98100
O  21.50800 48.54900 29.32200
C  19.60000 49.86100 30.01900
C  19.21000 48.81500 30.98700
O  18.51400 47.84400 30.80400
O  19.69300 49.20200 32.22000
C  19.32600 48.43700 33.38900
H  13.39900 53.20500 29.18400
H  14.62300 53.46100 22.87400
H  20.05800 50.15300 23.76700
H  17.08600 50.48900 31.51800
H  15.29500 52.75300 31.21600
H  13.47200 51.07700 31.57300
H  14.89500 50.08600 32.00800
H  14.24200 50.02800 30.36600
H  17.35300 53.39100 31.47400
H  18.73400 52.51900 30.84500
H  18.33700 53.25700 33.46700
H  19.16800 51.79400 33.10200
H  10.91200 53.70400 27.23900
H  11.53900 55.34000 27.11800
H  12.00300 54.31500 28.54000
H  10.20300 55.34400 23.70800
H  10.94300 56.11900 25.17000
H  10.26100 54.48200 25.12000
H  16.97700 53.39900 21.63600
H  18.27600 50.62800 21.65900
H  15.63200 50.59800 21.17700
H  16.80700 51.28400 20.02100
H  15.36400 52.08100 20.33200
H  19.81300 52.70100 22.76500
H  19.35100 53.14400 21.15900
H  20.32500 50.50200 20.77100
H  21.30200 51.29100 22.02800
H  21.13400 52.10600 20.48600
H  21.41300 47.66400 25.35900
H  22.41000 49.04100 26.10100
H  21.65700 49.09700 24.49400
H  20.07600 50.68000 30.55700
H  18.23700 48.42700 33.33800
H  19.63400 48.87900 34.33600
H  19.57200 47.38000 33.28400

