158

Mg 25.76200 51.22900 26.56900
C  23.74300 52.05700 29.27900
C  28.19100 50.17200 28.85700
C  28.13500 51.20600 24.09000
C  23.47200 52.53500 24.42900
N  25.93600 51.02900 28.87600
C  24.93200 51.42400 29.73400
C  25.31800 51.02800 31.15600
C  26.84800 50.59600 31.02200
C  27.02000 50.58100 29.49100
C  27.92000 51.41200 31.80900
C  24.42400 49.94200 31.73400
C  24.68500 49.58700 33.25800
H  23.83900 50.06200 34.39000
N  27.82500 50.69900 26.43700
C  28.60900 50.26800 27.52000
C  29.95600 49.94400 27.04000
C  30.02700 50.30500 25.67500
C  28.63800 50.74400 25.33100
C  31.06400 49.38200 27.98100
C  31.21600 50.21600 24.74100
O  31.22300 50.48700 23.50400
C  32.52400 49.70400 25.24600
N  25.85400 51.94700 24.65700
C  26.89800 51.80700 23.81000
C  26.53400 52.14300 22.38500
C  24.91500 52.33200 22.41000
C  24.78000 52.29500 23.92900
C  27.38400 53.36100 21.83900
C  24.20400 51.20300 21.64900
C  24.46200 49.75200 22.04300
N  23.83400 52.05600 26.78900
C  23.04900 52.56200 25.77900
C  21.75500 53.04300 26.35700
C  21.96600 52.85900 27.76400
C  23.26100 52.27800 27.89700
C  20.65200 53.61000 25.46800
C  21.44700 53.07700 29.10300
O  20.37000 53.58800 29.50000
C  22.53900 52.60400 30.07000
C  22.86000 53.86600 30.86000
O  23.32000 54.94100 30.45800
O  22.58300 53.54600 32.12800
C  22.91900 54.56100 33.10300
H  28.95600 49.84100 29.56300
H  28.88000 51.03700 23.31000
H  22.61300 52.72100 23.78100
H  25.29100 51.89600 31.81400
H  26.87000 49.51600 31.16500
H  28.75700 51.62500 31.14300
H  28.43200 50.72800 32.48500
H  27.59300 52.32300 32.31200
H  24.58500 49.02600 31.16500
H  23.39000 50.27700 31.64700
H  25.72900 49.87700 33.37300
H  24.68900 48.50300 33.37300
H  31.05100 48.29400 28.03600
H  30.78200 49.55200 29.02000
H  32.07500 49.78500 27.91900
H  32.54000 48.70400 25.68100
H  33.01000 50.49000 25.82300
H  33.19000 49.70300 24.38300
H  26.82700 51.27400 21.79600
H  24.52800 53.26900 22.01100
H  28.13800 53.68700 22.55500
H  26.69300 54.18100 21.64100
H  27.85600 53.00900 20.92100
H  24.55800 51.37400 20.63200
H  23.12200 51.32900 21.67600
H  25.34600 49.69200 22.67800
H  24.71000 49.16400 21.15900
H  23.66500 49.24100 22.58400
H  19.80400 53.98200 26.04300
H  20.42200 52.82700 24.74500
H  21.16000 54.41800 24.94200
H  22.12000 51.85200 30.73800
H  23.40900 54.13400 33.97800
H  21.96600 54.98300 33.42100
H  23.50300 55.34100 32.61500
Mg 0.17100 42.34900 25.76300
C  2.58100 42.40000 28.32300
C  -2.02800 41.25300 28.13300
C  -2.10200 42.29800 23.48400
C  2.71500 43.15800 23.44800
N  0.31700 41.77600 27.97900
C  1.35200 41.99500 28.88100
C  0.87300 42.06300 30.31200
C  -0.51400 41.42200 30.24300
C  -0.77400 41.49000 28.70100
C  -0.71000 39.96200 30.68500
C  0.92900 43.50800 30.96100
C  1.88400 43.57700 32.19600
H  1.82600 42.48500 33.27600
N  -1.78000 41.83500 25.80100
C  -2.48700 41.35400 26.81400
C  -3.82300 41.00300 26.42100
C  -3.91500 41.52400 25.10300
C  -2.58000 41.99300 24.74600
C  -4.76900 40.43500 27.39800
C  -5.18400 41.58400 24.23200
O  -5.07400 42.04500 23.06500
C  -6.57400 41.13200 24.67400
N  0.26400 42.82700 23.73700
C  -0.84100 42.68400 22.97300
C  -0.50300 43.04700 21.50500
C  1.03500 43.44700 21.58600
C  1.42400 43.13400 22.97700
C  -0.91300 41.98200 20.52800
C  1.37000 44.92300 21.18600
C  1.01900 46.12900 22.14000
N  2.15600 42.59400 25.75900
C  3.06600 42.89900 24.78500
C  4.37700 43.04900 25.38800
C  4.22700 42.78200 26.74000
C  2.87200 42.57500 26.94400
C  5.59700 43.40000 24.56700
C  4.96300 42.66600 27.96300
O  6.19100 42.81800 28.20200
C  3.93900 42.51800 29.08000
C  4.33500 41.30000 29.87300
O  4.28400 40.13100 29.46600
O  4.83600 41.69300 31.10800
C  5.33200 40.61300 31.96600
H  -2.77800 40.89800 28.84200
H  -2.83300 42.10600 22.69500
H  3.46400 43.42200 22.69900
H  1.55100 41.36800 30.80800
H  -1.34000 41.98100 30.68400
H  0.12300 39.75100 31.35500
H  -0.94200 39.20700 29.93200
H  -1.57500 39.91400 31.34700
H  -0.06700 43.94100 31.05800
H  1.34200 44.17600 30.20600
H  1.72500 44.55700 32.64800
H  2.85400 43.59200 31.70000
H  -4.41700 39.61100 28.01800
H  -5.70500 40.08300 26.96500
H  -4.92900 41.26000 28.09200
H  -6.65200 40.07100 24.91100
H  -7.33100 41.49200 23.97700
H  -6.72400 41.59900 25.64700
H  -1.17000 43.90100 21.39300
H  1.63100 42.89100 20.86100
H  -1.35700 41.07800 20.94500
H  0.01200 41.64300 20.06300
H  -1.66400 42.36800 19.83900
H  0.94200 45.04600 20.19100
H  2.45200 45.02500 21.09400
H  1.71100 46.39900 22.93800
H  0.02400 46.02000 22.57200
H  0.84000 46.99000 21.49700
H  6.55300 43.34100 25.08700
H  5.45700 44.43900 24.26900
H  5.56600 42.85400 23.62400
H  3.88800 43.42200 29.68600
H  6.20100 40.15600 31.49400
H  4.63800 39.79300 32.15500
H  5.51700 41.13400 32.90600

