158

Mg 1.77900 -0.98300 44.87800
C  5.09300 -0.17100 44.22500
C  0.83800 1.85400 43.27400
C  -1.42900 -2.23100 44.67600
C  2.90600 -4.13700 45.88400
N  2.89200 0.57800 43.66300
C  4.21400 0.75700 43.73000
C  4.56600 2.10500 43.13500
C  3.20900 2.90100 43.10600
C  2.24100 1.74600 43.43200
C  3.16500 4.07800 44.14100
C  5.35200 2.04200 41.79100
C  4.99100 0.81300 40.84600
H  4.77000 1.17000 39.39200
N  -0.09400 -0.22500 44.23800
C  -0.24100 0.95500 43.57100
C  -1.61700 1.15500 43.19000
C  -2.27900 -0.00800 43.58800
C  -1.24700 -0.93000 44.15000
C  -2.05200 2.39400 42.39400
C  -3.78900 -0.36500 43.40400
O  -4.61200 0.55200 43.11300
C  -4.42800 -1.72300 43.56500
N  0.82100 -2.91400 45.10900
C  -0.51200 -3.16100 45.06900
C  -0.81700 -4.57800 45.55000
C  0.57100 -5.02600 46.10200
C  1.51600 -3.97000 45.67400
C  -2.06600 -4.76300 46.44900
C  0.92700 -6.44500 45.56000
C  1.91400 -7.35000 46.30200
N  3.62500 -1.92700 45.29000
C  3.92800 -3.21900 45.63400
C  5.35300 -3.41900 45.75400
C  5.89000 -2.21500 45.30700
C  4.78100 -1.36400 44.91000
C  6.07300 -4.57600 46.25000
C  7.12500 -1.55800 44.99300
O  8.26800 -1.86500 45.18300
C  6.65300 -0.18000 44.29800
C  7.11900 0.94000 45.14300
O  6.91400 1.16700 46.32100
O  7.80900 1.77500 44.21600
C  8.09800 3.12000 44.64300
H  0.57800 2.79400 42.78400
H  -2.44300 -2.61600 44.80200
H  3.34600 -5.08500 46.20000
H  5.21700 2.58500 43.86600
H  3.01900 3.27000 42.09800
H  3.43500 4.98200 43.59500
H  3.80400 3.81100 44.98200
H  2.11600 4.13900 44.43100
H  6.42600 2.09500 41.96900
H  5.05900 2.96000 41.28000
H  4.16100 0.21600 41.22300
H  5.80600 0.09100 40.90300
H  -3.07400 2.23400 42.05100
H  -1.48800 2.58700 41.48100
H  -2.02400 3.29000 43.01400
H  -5.45600 -1.71800 43.20300
H  -4.43600 -1.84500 44.64800
H  -3.83000 -2.54000 43.16100
H  -0.97300 -5.14400 44.63200
H  0.43500 -4.99300 47.18300
H  -2.83500 -5.24700 45.84700
H  -2.48200 -3.82400 46.81200
H  -1.89100 -5.29200 47.38600
H  1.40200 -6.19700 44.61100
H  0.02400 -6.93400 45.19700
H  1.34600 -8.27000 46.44500
H  2.28000 -6.86000 47.20400
H  2.71100 -7.53700 45.58200
H  5.79400 -5.03300 47.19900
H  7.15000 -4.42700 46.31800
H  5.86100 -5.43100 45.60900
H  7.00400 -0.04100 43.27600
H  7.15500 3.51500 45.02100
H  8.59100 3.69800 43.86100
H  8.77800 3.09500 45.49400
Mg 5.66200 54.83300 39.74500
C  3.44600 52.19400 40.28500
C  7.99800 52.51400 38.58400
C  7.74000 57.40900 38.87700
C  3.09700 57.07000 40.33100
N  5.60900 52.67300 39.27700
C  4.63600 51.79400 39.62600
C  4.93700 50.33500 39.10300
C  6.50200 50.48400 38.82300
C  6.74900 52.03100 38.91500
C  7.41200 49.61500 39.75900
C  4.15800 50.04600 37.75200
C  4.14200 48.59800 37.24500
H  4.79200 48.45000 35.83400
N  7.62800 54.96800 38.99500
C  8.40000 53.90500 38.61200
C  9.72400 54.40100 38.42600
C  9.75900 55.82300 38.41400
C  8.32300 56.13500 38.79200
C  10.84400 53.41500 38.18300
C  10.93900 56.74600 38.13500
O  12.02400 56.18700 37.98500
C  10.77900 58.22400 38.01900
N  5.44900 56.88300 39.51300
C  6.42200 57.77400 39.16100
C  5.86300 59.21800 39.07600
C  4.39100 59.07200 39.54700
C  4.30100 57.55600 39.78600
C  6.71900 60.36400 39.67500
C  3.43200 59.78600 38.59700
C  2.92600 61.18000 39.05400
N  3.62300 54.72600 40.24400
C  2.73600 55.76200 40.56900
C  1.43200 55.14200 40.93900
C  1.72300 53.78400 40.98600
C  2.98800 53.55700 40.47500
C  0.12100 55.86900 41.17000
C  1.16400 52.50000 41.27800
O  0.03800 52.15600 41.67300
C  2.23000 51.45300 40.83200
C  1.59100 50.53800 40.02900
O  1.00300 50.81300 39.01300
O  1.71700 49.27300 40.49300
C  1.21200 48.23100 39.65400
H  8.71400 51.72200 38.35600
H  8.36700 58.29500 38.75400
H  2.39400 57.85200 40.62600
H  4.65400 49.68000 39.92700
H  6.78500 50.13600 37.83000
H  7.62100 50.26600 40.60800
H  8.27400 49.33300 39.15400
H  6.92600 48.69900 40.09500
H  4.32800 50.86000 37.04700
H  3.13700 50.18900 38.10700
H  3.13200 48.21400 37.10200
H  4.58900 47.87800 37.93100
H  10.45800 52.48600 37.76200
H  11.35500 53.14700 39.10800
H  11.47300 53.87100 37.41900
H  10.19400 58.41100 37.11800
H  11.80000 58.54200 37.81100
H  10.50500 58.76200 38.92600
H  5.80900 59.39900 38.00300
H  4.27700 59.52700 40.53100
H  7.51900 59.86600 40.22300
H  6.13700 60.93900 40.39400
H  7.09400 61.00800 38.87900
H  2.55800 59.18700 38.34200
H  3.94300 59.95100 37.64900
H  2.66900 61.80100 38.19600
H  3.75600 61.66700 39.56500
H  2.04300 61.08200 39.68500
H  0.18300 56.95000 41.28900
H  -0.31700 55.43000 42.06600
H  -0.60700 55.61700 40.40000
H  2.57900 50.86500 41.68200
H  1.21200 48.34100 38.57000
H  0.14000 48.17000 39.84000
H  1.68300 47.30200 39.97600

