158

Mg 47.47300 16.23800 29.23700
C  44.93200 15.94400 31.69000
C  49.16900 18.27700 31.31700
C  49.56700 17.07100 26.54300
C  45.15600 15.02100 26.89500
N  47.05300 16.95300 31.27900
C  45.98300 16.71400 32.13100
C  46.32200 17.24800 33.57700
C  47.52100 18.25800 33.30100
C  47.91000 17.85800 31.84400
C  47.14500 19.81100 33.50200
C  46.49000 16.12900 34.59200
C  45.41800 16.04100 35.76200
H  45.11900 17.20600 36.64300
N  49.23900 17.26200 29.11000
C  49.80300 18.01000 30.06400
C  51.07900 18.51000 29.59600
C  51.21800 18.16600 28.23300
C  50.02100 17.42800 27.89600
C  52.14900 19.15400 30.53100
C  52.32100 18.50700 27.27100
O  52.25400 18.09100 26.09000
C  53.41600 19.53500 27.71800
N  47.33200 16.17400 27.03800
C  48.30000 16.57200 26.19000
C  47.90300 16.26300 24.70800
C  46.61500 15.38600 24.83300
C  46.33200 15.54200 26.38100
C  47.70100 17.55600 23.85500
C  46.70800 13.97600 24.11000
C  46.95000 12.68700 24.99600
N  45.56100 15.38100 29.29100
C  44.74400 14.97800 28.25700
C  43.50900 14.44100 28.78300
C  43.53400 14.83200 30.17000
C  44.77100 15.42100 30.38100
C  42.43800 13.72500 27.98900
C  42.78500 14.88000 31.36400
O  41.62300 14.56800 31.53400
C  43.68700 15.58000 32.44500
C  42.89900 16.74500 32.87000
O  42.45600 17.64900 32.11500
O  42.53200 16.63600 34.16300
C  41.64400 17.71100 34.73000
H  49.65900 18.84800 32.10700
H  50.15000 17.32800 25.65600
H  44.50100 14.58800 26.13700
H  45.41000 17.81700 33.75900
H  48.37400 17.95700 33.90800
H  46.10100 20.01000 33.74500
H  47.34400 20.29200 32.54400
H  47.79700 20.28000 34.23900
H  47.41800 16.24600 35.15300
H  46.52000 15.20000 34.02200
H  45.93500 15.32600 36.40200
H  44.53800 15.48800 35.43300
H  52.24900 20.20600 30.26300
H  53.14800 18.71900 30.49800
H  51.77600 19.12000 31.55400
H  53.03400 20.49900 28.05400
H  53.95900 19.79000 26.80800
H  54.08800 19.04100 28.42000
H  48.77100 15.85100 24.19200
H  45.83800 15.92500 24.29100
H  48.25100 17.66200 22.92000
H  48.04700 18.36700 24.49700
H  46.67700 17.74500 23.53200
H  47.48700 13.99900 23.34800
H  45.76100 13.83000 23.59100
H  47.69100 12.12800 24.42500
H  46.04500 12.10800 25.18000
H  47.30500 12.96300 25.98900
H  42.65900 12.65700 27.97200
H  42.46600 14.13300 26.97900
H  41.42900 13.86600 28.37700
H  43.83500 14.81400 33.20700
H  41.05800 18.22500 33.96800
H  42.35200 18.45200 35.10000
H  40.96300 17.26200 35.45200
Mg 16.46400 51.76900 26.58100
C  18.27300 50.30900 29.15300
C  14.18400 52.83200 28.82700
C  14.53100 52.75300 23.90200
C  18.80100 50.38400 24.22600
N  16.18200 51.42400 28.68600
C  17.07600 50.90800 29.56500
C  16.76100 51.26500 31.09800
C  15.30500 51.72600 30.95400
C  15.24000 52.07500 29.44400
C  14.09800 50.70300 31.39600
C  17.77300 52.37900 31.52600
C  18.34600 52.24300 32.87700
H  17.46200 51.50600 33.92000
N  14.67100 52.80200 26.38800
C  13.91500 53.17300 27.46500
C  12.81300 53.93900 26.96800
C  12.79600 53.85300 25.52400
C  14.02000 53.08600 25.19500
C  11.83700 54.58500 27.94200
C  11.76400 54.47800 24.53300
O  11.88500 54.25900 23.36100
C  10.63300 55.34800 24.95000
N  16.67300 51.63200 24.40700
C  15.73000 52.08800 23.52700
C  16.22200 51.82300 22.06900
C  17.63800 51.33100 22.24900
C  17.72300 51.06800 23.79200
C  15.26500 50.86700 21.33500
C  18.76600 52.23500 21.79000
C  19.87400 51.65700 20.84200
N  18.18000 50.51700 26.62200
C  19.10500 50.15800 25.61900
C  20.14400 49.38200 26.25800
C  19.81500 49.38900 27.64800
C  18.62900 50.10200 27.77400
C  21.34600 48.85600 25.60600
C  20.27200 48.91300 28.95400
O  21.13300 48.18000 29.38400
C  19.36600 49.66100 30.01700
C  18.82100 48.56700 30.87000
O  17.82900 47.80800 30.61600
O  19.54200 48.59900 32.03800
C  19.25800 47.61400 33.08600
H  13.54800 53.14300 29.65900
H  13.93000 53.04600 23.03900
H  19.49700 49.96900 23.49400
H  17.02300 50.40400 31.71200
H  15.12700 52.70500 31.39900
H  14.50400 49.79200 31.83700
H  13.51600 50.51400 30.49500
H  13.47000 51.17600 32.15100
H  17.30600 53.36300 31.48100
H  18.59000 52.37400 30.80400
H  18.57800 53.24700 33.23400
H  19.30900 51.73400 32.84100
H  10.86600 54.14700 27.71200
H  11.73400 55.66100 27.80500
H  11.99600 54.43600 29.01000
H  10.21600 54.79800 25.79300
H  9.93600 55.50100 24.12600
H  11.15700 56.23800 25.29900
H  16.31400 52.80700 21.61000
H  17.72800 50.35100 21.78000
H  15.48100 50.94900 20.27000
H  14.27900 51.22300 21.63300
H  15.26300 49.80500 21.58100
H  19.26100 52.60700 22.68600
H  18.48800 53.21000 21.39000
H  19.94600 52.31200 19.97400
H  19.71700 50.64000 20.48200
H  20.88400 51.71700 21.24700
H  22.12700 48.75200 26.35900
H  21.68100 49.49000 24.78500
H  21.28000 47.86600 25.15400
H  20.02300 50.36000 30.53500
H  19.79000 46.68600 32.88200
H  18.19800 47.36500 33.14800
H  19.45200 47.96200 34.10100

