158

Mg -1.85900 17.11000 25.96100
C  -1.86500 14.97200 28.63200
C  -3.17900 19.52400 28.00000
C  -1.76800 19.30700 23.35900
C  -1.34000 14.48900 23.77400
N  -2.36800 17.24900 28.16900
C  -2.17700 16.24000 29.05300
C  -2.63700 16.65500 30.44500
C  -3.36000 18.04200 30.16000
C  -2.97900 18.34100 28.66400
C  -4.84600 18.15900 30.53700
C  -1.46000 16.82700 31.54900
C  -1.44600 15.85200 32.73600
H  -1.97300 16.20000 34.16200
N  -2.23400 19.10400 25.71700
C  -2.86600 19.94000 26.67300
C  -2.98200 21.29100 26.14400
C  -2.36600 21.32000 24.85500
C  -2.08700 19.85400 24.61500
C  -3.69900 22.40300 26.94600
C  -2.09100 22.44500 23.90200
O  -1.62500 22.27400 22.77900
C  -2.32900 23.83300 24.30300
N  -1.72000 16.92900 23.77700
C  -1.59100 17.95500 22.94600
C  -1.25600 17.46800 21.57300
C  -1.01700 15.97600 21.73200
C  -1.39400 15.76000 23.17600
C  -2.20700 17.93900 20.47500
C  0.35400 15.37300 21.36600
C  0.48800 14.21700 20.52900
N  -1.71600 15.14400 26.08600
C  -1.47500 14.22900 25.14600
C  -1.36000 12.93600 25.78900
C  -1.52700 13.19600 27.14900
C  -1.70100 14.57600 27.32000
C  -1.08900 11.55900 25.11100
C  -1.51800 12.54800 28.41400
O  -1.52800 11.34900 28.73400
C  -1.54700 13.76800 29.45900
C  -0.20900 13.82800 30.03900
O  0.72700 14.34500 29.44200
O  -0.14700 13.31900 31.34100
C  1.10600 13.34500 32.03500
H  -3.62100 20.39500 28.48800
H  -1.47800 19.86800 22.46800
H  -0.84400 13.74600 23.14600
H  -3.44000 15.98600 30.75300
H  -2.90400 18.86400 30.71200
H  -5.35600 18.13800 29.57400
H  -4.90600 19.15400 30.97700
H  -5.20200 17.48100 31.31200
H  -1.51200 17.79600 32.04400
H  -0.54000 16.73400 30.97200
H  -0.38200 15.72200 32.93400
H  -1.91000 14.90000 32.47800
H  -2.98600 22.70600 27.71400
H  -4.57400 22.08500 27.51300
H  -3.75200 23.30600 26.33800
H  -3.38300 24.07500 24.17100
H  -1.78500 24.62900 23.79200
H  -1.97300 23.79200 25.33200
H  -0.35700 17.95300 21.19300
H  -1.64900 15.47300 21.00000
H  -1.85800 18.86000 20.00700
H  -3.17400 18.13000 20.94000
H  -2.31500 17.21900 19.66400
H  0.79600 15.09800 22.32300
H  1.05000 16.17400 21.11800
H  0.84900 14.62200 19.58400
H  -0.43700 13.67900 20.31600
H  1.19200 13.56400 21.04500
H  -0.25300 11.16400 25.68900
H  -0.76600 11.51400 24.07000
H  -1.92100 10.88200 25.30100
H  -2.29700 13.59600 30.23100
H  1.32600 14.30500 32.50100
H  1.87600 13.22200 31.27400
H  1.18100 12.65200 32.87400
Mg 1.53800 -0.78400 42.69000
C  4.98500 -0.63700 42.05700
C  1.06800 2.11700 41.06200
C  -1.74300 -1.46500 42.74100
C  2.13000 -4.15300 43.72300
N  2.94400 0.64600 41.70500
C  4.27300 0.43300 41.51700
C  4.77300 1.64100 40.70500
C  3.58500 2.63100 40.67300
C  2.41400 1.80700 41.17500
C  3.69800 3.93400 41.51200
C  5.44000 1.22400 39.33100
C  6.58700 2.18400 38.90300
H  6.54100 2.86100 37.60600
N  -0.12800 0.25100 42.12600
C  -0.12000 1.48600 41.50100
C  -1.48500 1.86500 41.25400
C  -2.30400 0.89400 41.87200
C  -1.42300 -0.19100 42.25700
C  -1.87600 3.21000 40.70100
C  -3.75300 1.05900 42.03100
O  -4.31800 2.10500 41.70600
C  -4.58700 0.10200 42.75400
N  0.34700 -2.59500 43.06400
C  -0.95300 -2.52900 43.10000
C  -1.54700 -3.85200 43.64400
C  -0.25900 -4.74000 44.00100
C  0.79800 -3.84400 43.45500
C  -2.71500 -4.03000 44.70400
C  -0.18500 -6.12300 43.28400
C  0.17300 -7.29400 44.22100
N  3.18600 -2.00900 43.20900
C  3.27600 -3.32100 43.55700
C  4.61400 -3.66200 43.88200
C  5.43000 -2.67200 43.24600
C  4.45800 -1.66300 42.84200
C  5.19600 -4.88100 44.53600
C  6.75000 -2.24700 42.88900
O  7.85800 -2.68400 43.09700
C  6.47900 -0.95200 42.02500
C  7.30000 0.20800 42.54800
O  7.45600 0.52600 43.73600
O  7.90500 0.79700 41.50100
C  8.65200 2.01300 41.77700
H  1.03500 3.07500 40.53900
H  -2.77400 -1.81900 42.79800
H  2.41600 -5.06100 44.25700
H  5.48600 2.16700 41.34000
H  3.47200 2.83100 39.60800
H  4.55000 3.94000 42.19200
H  2.83200 3.88700 42.17200
H  3.60200 4.84100 40.91400
H  4.70000 1.09000 38.54200
H  5.90400 0.26000 39.53900
H  7.53100 1.64000 38.89700
H  6.70000 2.94000 39.68000
H  -2.80200 3.30600 40.13400
H  -1.07600 3.63600 40.09700
H  -1.90900 3.78000 41.63000
H  -5.62200 0.43300 42.66600
H  -4.34800 -0.03600 43.80800
H  -4.32600 -0.77300 42.15900
H  -1.86900 -4.29500 42.70200
H  -0.24800 -4.84400 45.08500
H  -3.52100 -4.48400 44.12700
H  -3.10600 -3.05900 45.00800
H  -2.50300 -4.78000 45.46600
H  0.50500 -6.15100 42.44100
H  -1.16000 -6.40200 42.88400
H  0.29100 -6.99800 45.26400
H  1.05800 -7.81200 43.85400
H  -0.63700 -8.01900 44.14000
H  6.21500 -4.66800 44.86000
H  5.11400 -5.67000 43.78900
H  4.54200 -5.05500 45.39100
H  6.84000 -1.29400 41.05500
H  8.27300 2.65900 42.56900
H  8.77100 2.50700 40.81300
H  9.67400 1.72700 42.02200

