158

Mg 7.09600 53.30300 42.00500
C  6.53500 49.84500 41.90200
C  10.08300 52.84700 40.62800
C  6.97700 56.60900 41.36900
C  3.52800 53.55700 42.88000
N  8.24700 51.54100 41.35600
C  7.74300 50.24300 41.35100
C  8.86100 49.27400 40.88700
C  10.14100 50.19000 40.82000
C  9.51300 51.59600 40.97500
C  11.03800 49.82200 42.00700
C  8.64500 48.64000 39.38400
C  7.75300 49.48500 38.41600
H  8.21100 49.62800 36.91700
N  8.36500 54.55400 41.27200
C  9.58500 54.16600 40.77900
C  10.27100 55.34900 40.39500
C  9.46500 56.46100 40.63200
C  8.15300 55.93100 41.05600
C  11.78500 55.33200 39.97700
C  9.90900 57.91100 40.40800
O  10.99600 58.06800 39.86900
C  9.03900 59.04000 40.79600
N  5.53900 54.76900 42.21800
C  5.83800 56.05700 41.93600
C  4.64700 56.86200 42.32300
C  3.44000 55.92200 42.40100
C  4.23600 54.66600 42.60000
C  4.81200 57.80900 43.51600
C  2.52100 55.92500 41.14200
C  0.94900 56.03800 41.32400
N  5.27800 51.95000 42.43200
C  4.04500 52.22900 42.90500
C  3.33200 50.98600 43.04200
C  4.32100 50.05800 42.71400
C  5.46200 50.64400 42.36500
C  1.97100 50.92100 43.51200
C  4.59300 48.66600 42.78600
O  3.83700 47.72500 43.09100
C  6.02400 48.42400 42.22200
C  5.79300 47.58100 41.07200
O  5.10400 47.88300 40.10900
O  6.39900 46.34400 41.29800
C  6.11400 45.39500 40.22100
H  11.05000 52.65900 40.15700
H  6.90900 57.67700 41.15400
H  2.49900 53.72300 43.20600
H  9.00000 48.46600 41.60500
H  10.76200 50.01500 39.94200
H  10.40800 49.72200 42.89000
H  11.68200 50.67000 42.23900
H  11.61600 48.93500 41.74400
H  8.20600 47.64200 39.38100
H  9.62600 48.49200 38.93300
H  7.87800 50.50100 38.79200
H  6.70100 49.21700 38.52100
H  11.91800 55.75600 38.98200
H  12.16100 54.31900 39.83200
H  12.47600 55.78400 40.69000
H  8.39700 59.36700 39.97800
H  9.66500 59.83400 41.20400
H  8.46100 58.74700 41.67200
H  4.41000 57.49800 41.47100
H  2.91700 56.17400 43.32300
H  3.90200 57.76700 44.11400
H  4.82600 58.79000 43.04100
H  5.72800 57.59900 44.06900
H  2.69600 54.95900 40.66800
H  2.93000 56.60900 40.39800
H  0.56900 56.94100 40.84500
H  0.73400 56.04600 42.39300
H  0.52200 55.12100 40.92100
H  1.46200 51.88500 43.49400
H  1.99300 50.49300 44.51400
H  1.60300 50.24100 42.74400
H  6.66900 47.88200 42.91400
H  6.35300 45.84500 39.25800
H  5.09700 45.00400 40.20000
H  6.80200 44.55000 40.26800
Mg 0.61000 43.50200 26.56600
C  2.98500 43.29400 29.13500
C  -1.72100 42.62100 28.81400
C  -1.52200 42.93400 23.99800
C  3.25300 43.91200 24.26900
N  0.64900 43.08200 28.83800
C  1.66400 43.07600 29.68100
C  1.20700 42.88800 31.16300
C  -0.34600 42.59600 30.97900
C  -0.45300 42.68300 29.43000
C  -0.87200 41.28100 31.52100
C  1.66200 44.07900 32.05300
C  1.94100 43.71500 33.51800
H  1.41800 42.39300 34.07300
N  -1.36100 43.12900 26.43300
C  -2.16000 42.69000 27.47800
C  -3.54000 42.51300 27.02300
C  -3.42700 42.58100 25.60500
C  -2.05000 42.86300 25.30900
C  -4.69200 42.03100 27.96700
C  -4.51600 42.31400 24.61800
O  -4.31600 42.35500 23.40300
C  -5.83700 41.98500 25.04400
N  0.77000 43.62700 24.43800
C  -0.25000 43.25000 23.57700
C  0.19000 43.52100 22.13600
C  1.65700 44.07200 22.25100
C  1.93600 43.82100 23.71000
C  0.18800 42.28100 21.24400
C  1.82600 45.54000 21.79900
C  1.55100 45.69400 20.26600
N  2.60600 43.60200 26.63800
C  3.58900 43.76900 25.64000
C  4.88800 43.64600 26.22200
C  4.66700 43.39500 27.56000
C  3.30200 43.50900 27.76300
C  6.16500 43.65400 25.42000
C  5.36200 43.04000 28.79100
O  6.54900 42.68300 28.99500
C  4.32700 43.24000 29.94400
C  4.50900 42.15100 30.96200
O  4.14200 41.03100 30.82400
O  5.15000 42.69100 32.04600
C  5.47400 41.65900 33.08900
H  -2.52600 42.38100 29.51200
H  -2.05900 42.88600 23.04900
H  4.13600 44.14000 23.66900
H  1.61700 41.93600 31.50000
H  -0.99600 43.40800 31.30500
H  -1.88300 41.43500 31.90100
H  -0.20200 41.05900 32.35200
H  -0.88100 40.46600 30.79700
H  0.91700 44.87100 31.97700
H  2.65400 44.36600 31.70500
H  1.76600 44.54100 34.20700
H  3.02100 43.63000 33.64300
H  -4.35500 42.32000 28.96300
H  -4.80600 40.94700 27.93700
H  -5.71100 42.40400 27.85900
H  -5.81500 41.04500 25.59700
H  -6.45000 41.88900 24.14800
H  -6.11900 42.79900 25.71100
H  -0.26600 44.37900 21.64300
H  2.36400 43.41000 21.75000
H  0.17700 41.39100 21.87200
H  0.93500 42.25100 20.45100
H  -0.82300 42.32000 20.83800
H  2.78500 45.94700 22.11800
H  1.01700 46.01700 22.35400
H  0.54200 45.98200 19.97100
H  1.75100 44.77000 19.72300
H  2.22200 46.46600 19.88800
H  6.11800 43.07500 24.49800
H  6.87900 43.12900 26.05500
H  6.46900 44.68800 25.25900
H  4.46100 44.25600 30.31700
H  6.27900 41.99700 33.74100
H  5.73100 40.73400 32.57300
H  4.65800 41.43900 33.77800

