158

Mg 46.49100 34.85200 27.53700
C  44.65700 33.01300 30.03500
C  46.74700 37.30300 29.91000
C  47.51000 36.69200 25.18000
C  45.46100 32.26300 25.29500
N  45.71400 35.19600 29.67500
C  45.15100 34.23300 30.51300
C  45.25900 34.63600 32.04000
C  45.47300 36.13900 31.84900
C  46.15800 36.21100 30.45000
C  44.20400 37.02700 31.92100
C  46.50000 33.89300 32.64000
C  46.72600 34.02900 34.19300
H  45.79900 34.99700 34.92100
N  47.13400 36.68400 27.57300
C  47.23200 37.56700 28.61200
C  47.70300 38.86600 28.15900
C  48.00400 38.74400 26.75600
C  47.45300 37.37300 26.40900
C  47.98700 40.10200 29.04900
C  48.62600 39.71400 25.80800
O  48.83200 39.41100 24.58900
C  49.00600 41.12500 26.28600
N  46.52900 34.44600 25.54500
C  47.04900 35.44900 24.75300
C  46.97000 35.04800 23.26300
C  46.21100 33.67300 23.24800
C  45.96900 33.45100 24.76000
C  46.30800 36.14800 22.33000
C  46.76300 32.50000 22.41300
C  45.88000 32.11000 21.21000
N  45.42000 32.98500 27.64800
C  45.23900 32.04200 26.66300
C  44.64200 30.93900 27.21900
C  44.39000 31.23100 28.54200
C  44.85000 32.51200 28.70900
C  44.30300 29.67800 26.45200
C  43.80500 30.65500 29.74300
O  43.30400 29.52500 29.93300
C  43.78700 31.83600 30.69300
C  44.00000 31.42000 32.12100
O  45.04600 30.87100 32.45900
O  43.01300 31.86300 32.94000
C  43.24100 31.71200 34.34300
H  46.93200 38.13700 30.59000
H  47.84700 37.23900 24.29700
H  45.25700 31.47000 24.57300
H  44.35200 34.37700 32.58600
H  46.18300 36.40300 32.63300
H  43.31200 36.46800 31.63900
H  44.33000 37.86800 31.23900
H  44.06600 37.60900 32.83200
H  47.42600 34.23700 32.17900
H  46.42400 32.82000 32.46300
H  47.74100 34.34100 34.43800
H  46.70800 33.00800 34.57600
H  47.53800 40.00300 30.03700
H  47.63600 41.03200 28.60200
H  49.01500 40.18600 29.39900
H  49.70800 41.02800 27.11400
H  48.09300 41.61600 26.62300
H  49.45800 41.67700 25.46200
H  47.96300 34.93900 22.82700
H  45.23300 33.86300 22.80600
H  46.08100 36.93600 23.04800
H  45.40000 35.86600 21.79700
H  47.07200 36.54500 21.66200
H  46.94100 31.61900 23.02900
H  47.73100 32.78000 21.99700
H  46.41800 32.61400 20.40800
H  44.85500 32.43100 21.39700
H  45.85800 31.03100 21.05100
H  45.26900 29.17300 26.44100
H  43.90800 29.84900 25.45000
H  43.60000 29.03000 26.97600
H  42.73900 32.10000 30.83300
H  43.97300 30.97400 34.66900
H  42.30300 31.39700 34.80000
H  43.42500 32.69400 34.77900
Mg -9.65300 40.78300 41.46500
C  -8.62100 37.40400 40.96700
C  -6.80500 41.74900 39.83500
C  -10.73800 43.98300 41.62800
C  -12.55600 39.58600 42.74400
N  -7.95400 39.66700 40.49900
C  -7.76800 38.27300 40.40800
C  -6.42300 37.97700 39.72000
C  -5.70800 39.37800 39.72400
C  -6.88300 40.35400 40.01800
C  -4.54200 39.54300 40.65800
C  -6.74200 37.48800 38.26700
C  -5.92300 36.18500 37.84900
H  -4.95900 36.42000 36.75700
N  -8.96800 42.63200 40.67100
C  -7.64000 42.85100 40.21600
C  -7.34800 44.25000 40.10600
C  -8.58400 44.91700 40.57900
C  -9.51400 43.82500 40.96100
C  -5.98100 44.78800 39.70500
C  -8.68300 46.40200 40.57100
O  -7.77900 47.18200 40.24700
C  -9.94100 47.06200 41.12100
N  -11.50300 41.57600 41.92900
C  -11.67500 43.00200 42.03500
C  -13.09000 43.33000 42.53300
C  -13.71700 41.91900 42.65300
C  -12.52100 40.95300 42.48800
C  -13.12100 44.22900 43.75500
C  -14.95800 41.57500 41.70700
C  -16.19600 41.05400 42.37600
N  -10.41400 38.88200 41.91000
C  -11.62400 38.53400 42.45500
C  -11.68300 37.18900 42.76300
C  -10.49800 36.68300 42.20000
C  -9.80300 37.74200 41.65900
C  -12.82500 36.51500 43.43600
C  -9.69500 35.45400 42.06400
O  -9.82300 34.23900 42.45300
C  -8.50700 35.89800 41.09500
C  -7.20600 35.53400 41.76600
O  -6.92600 35.70300 42.92200
O  -6.45600 34.80400 40.83800
C  -5.26300 34.24100 41.47400
H  -5.83600 42.02500 39.41300
H  -11.03500 45.00600 41.87100
H  -13.56000 39.32000 43.08100
H  -5.73900 37.39400 40.33700
H  -5.37500 39.63400 38.71900
H  -3.68900 39.12300 40.12400
H  -4.72400 38.77200 41.40700
H  -4.39300 40.56000 41.02000
H  -6.59000 38.25300 37.50600
H  -7.75000 37.07500 38.25200
H  -6.63400 35.40300 37.58300
H  -5.33700 35.78600 38.67600
H  -5.54500 45.30200 40.56200
H  -6.14100 45.50000 38.89500
H  -5.38200 43.92900 39.40300
H  -9.99100 46.95500 42.20500
H  -10.90400 46.69900 40.76400
H  -9.83500 48.13600 40.96900
H  -13.50700 43.78000 41.63200
H  -14.01100 41.77700 43.69300
H  -13.60900 45.16400 43.47900
H  -12.12800 44.35500 44.18500
H  -13.74100 43.73100 44.50000
H  -14.73000 40.97600 40.82500
H  -15.31100 42.56400 41.41500
H  -15.85200 40.46400 43.22600
H  -16.81400 40.53500 41.64400
H  -16.85600 41.79100 42.83200
H  -12.47300 35.61200 43.93400
H  -13.54000 36.36400 42.62700
H  -13.28500 37.15500 44.18900
H  -8.61000 35.43700 40.11300
H  -4.70100 33.71800 40.70000
H  -5.41500 33.61000 42.35000
H  -4.62100 35.03000 41.86500

