158

Mg 25.69100 0.74600 29.37700
C  27.78300 0.30500 32.10400
C  23.08800 1.19700 31.51800
C  23.69800 0.90400 26.70900
C  28.35600 0.23900 27.29700
N  25.40700 0.59400 31.57600
C  26.41000 0.52400 32.52000
C  25.93000 0.83200 34.00300
C  24.42200 0.98700 33.67600
C  24.26200 0.90800 32.14600
C  23.42700 0.08100 34.47900
C  26.69400 2.07100 34.63700
C  27.60700 1.80400 35.80000
H  27.46300 2.69500 37.05300
N  23.65200 1.00300 29.12900
C  22.76600 1.20500 30.15400
C  21.50400 1.51200 29.55900
C  21.63900 1.28700 28.19600
C  23.04000 1.12700 27.93600
C  20.27300 1.80100 30.48600
C  20.61700 1.39700 27.17800
O  20.85100 1.19800 25.99700
C  19.16100 1.57400 27.59800
N  25.97800 0.78900 27.32700
C  25.03600 0.72900 26.41900
C  25.57800 0.80900 24.97800
C  27.11100 0.72400 25.19100
C  27.15600 0.60000 26.74000
C  25.04300 -0.30400 24.04100
C  27.97500 1.90000 24.72400
C  29.40200 1.51700 24.17700
N  27.63500 0.27700 29.60100
C  28.61200 0.08600 28.64100
C  29.84700 -0.29000 29.29200
C  29.51500 -0.18300 30.62900
C  28.18900 0.15900 30.76700
C  31.15100 -0.72300 28.64700
C  30.06600 -0.26200 31.93100
O  31.22900 -0.56800 32.23500
C  28.95100 0.06900 32.96800
C  28.90400 -1.11600 33.83700
O  28.77800 -2.28700 33.46200
O  28.98800 -0.73500 35.15900
C  28.86000 -1.80200 36.19700
H  22.27500 1.61900 32.11300
H  23.26400 1.15300 25.73800
H  29.16700 0.16200 26.57000
H  26.18700 -0.11000 34.48800
H  24.15900 2.01100 33.93900
H  23.32200 -0.81600 33.87000
H  22.49000 0.63800 34.49000
H  23.74700 -0.22400 35.47500
H  25.98200 2.72500 35.14200
H  27.32500 2.57000 33.90100
H  28.63400 1.92700 35.45700
H  27.55800 0.75800 36.10500
H  19.71000 0.86700 30.48900
H  19.64200 2.64300 30.20400
H  20.49600 2.14400 31.49600
H  18.52400 1.42600 26.72700
H  19.12000 2.63900 27.82500
H  18.91700 0.84500 28.37200
H  25.32700 1.77500 24.54000
H  27.55300 -0.16000 24.73200
H  24.18100 0.14000 23.54300
H  24.61100 -1.18100 24.52300
H  25.86700 -0.56900 23.37900
H  28.04200 2.68900 25.47300
H  27.41100 2.29700 23.87900
H  30.11800 2.11700 24.73900
H  29.53900 1.74500 23.12000
H  29.58800 0.44400 24.21900
H  31.22500 -0.22300 27.68200
H  31.23500 -1.81000 28.64200
H  31.99900 -0.32200 29.20100
H  29.20700 0.90700 33.61500
H  29.11000 -2.79800 35.83000
H  27.90600 -1.77400 36.72300
H  29.53600 -1.61600 37.03200
Mg 48.17600 34.31400 26.58100
C  46.31300 32.90100 29.09700
C  48.77400 37.13800 28.56200
C  49.32900 35.94700 23.92900
C  47.31000 31.63400 24.50800
N  47.62600 34.87400 28.52500
C  47.00700 34.07600 29.44900
C  47.22700 34.63600 30.91100
C  47.56900 36.14600 30.65000
C  47.98300 36.05400 29.14200
C  46.43800 37.20100 30.84800
C  48.32400 33.81400 31.57700
C  48.21500 33.82200 33.11300
H  47.04200 34.38400 33.95800
N  48.94600 36.26800 26.34000
C  49.15600 37.22000 27.20200
C  49.95200 38.26900 26.65900
C  50.12800 37.98100 25.29700
C  49.44200 36.67700 25.13000
C  50.31700 39.41200 27.48300
C  50.81200 38.78000 24.22600
O  50.93300 38.41700 23.06100
C  51.50200 40.05200 24.60100
N  48.15700 33.98900 24.44900
C  48.81200 34.71900 23.53300
C  48.97500 34.04500 22.17900
C  48.67400 32.52900 22.53400
C  48.01400 32.69500 23.91200
C  48.17300 34.59000 20.93700
C  49.89500 31.57900 22.50600
C  50.14400 30.78000 21.20400
N  47.08700 32.63100 26.73600
C  46.73400 31.67500 25.74500
C  45.89900 30.69300 26.38900
C  45.66200 31.18200 27.68000
C  46.39600 32.36700 27.76300
C  45.22100 29.55500 25.80000
C  44.95500 30.87400 28.87900
O  44.15000 29.95000 29.18400
C  45.26600 32.07000 29.87000
C  45.84000 31.36000 31.05100
O  46.87300 30.68700 31.04400
O  44.96600 31.41600 32.12400
C  45.31300 30.73400 33.37800
H  49.01200 37.82100 29.37900
H  49.77900 36.47600 23.08700
H  47.18000 30.77300 23.84900
H  46.26400 34.60900 31.42200
H  48.36100 36.41100 31.35000
H  45.65600 36.98200 31.57600
H  45.86000 37.26200 29.92600
H  46.92500 38.15200 31.06300
H  49.33200 34.22200 31.50600
H  48.45900 32.78100 31.25500
H  49.04900 34.30700 33.62000
H  48.12800 32.79800 33.47600
H  49.85000 40.22200 26.92300
H  51.37100 39.60800 27.29100
H  50.06800 39.42700 28.54400
H  51.96300 40.60800 23.78500
H  52.27500 39.92000 25.35800
H  50.71300 40.73500 24.91500
H  50.01200 34.15800 21.86300
H  47.87400 32.16300 21.89000
H  47.12300 34.75800 21.17700
H  48.20200 33.86900 20.12100
H  48.72600 35.48200 20.64400
H  49.73200 30.91000 23.35100
H  50.72800 32.25800 22.68700
H  50.30300 31.41900 20.33600
H  49.30100 30.11100 21.03100
H  51.08300 30.28800 21.45700
H  45.90500 28.73800 26.02900
H  45.09100 29.63100 24.72100
H  44.23800 29.43200 26.25700
H  44.33100 32.61400 30.01000
H  46.30500 30.99400 33.74700
H  45.23400 29.65000 33.29500
H  44.50400 30.93500 34.08000

