158

Mg 36.30000 49.33300 25.20400
C  36.56500 47.60600 28.28200
C  34.92900 51.79700 26.72500
C  35.92000 50.66000 22.22000
C  37.43800 46.36600 23.60100
N  35.63000 49.56800 27.29300
C  35.87000 48.85800 28.37700
C  35.60300 49.63500 29.68600
C  34.79600 50.82600 29.05700
C  35.14500 50.78200 27.63900
C  33.24900 50.83100 29.23300
C  36.86600 50.04300 30.54000
C  36.83900 49.84700 32.09900
H  35.54800 49.97400 32.90000
N  35.55200 51.07700 24.53900
C  34.96900 51.98400 25.36800
C  34.48700 53.14000 24.60200
C  35.00900 52.89100 23.27000
C  35.53000 51.45900 23.26000
C  33.81000 54.40800 25.16100
C  34.97700 53.76100 22.07500
O  35.40300 53.35400 20.98800
C  34.52600 55.25300 22.20700
N  36.61000 48.59200 23.12300
C  36.31900 49.33600 22.09000
C  36.55000 48.60100 20.80400
C  37.21800 47.23500 21.21600
C  36.98300 47.36700 22.71600
C  35.36900 48.46400 19.79500
C  38.68500 47.07300 20.93500
C  39.05200 47.23900 19.43500
N  36.84000 47.38500 25.78500
C  37.33100 46.32800 25.02500
C  37.63700 45.15500 25.89300
C  37.35700 45.65000 27.18900
C  36.79400 46.96200 27.05700
C  38.25800 43.81300 25.49100
C  37.35300 45.30300 28.50800
O  37.58300 44.25100 29.06800
C  36.85400 46.52400 29.32300
C  35.67000 46.04900 30.01500
O  34.64100 45.90700 29.42100
O  35.71800 46.17700 31.34600
C  34.48400 46.11300 32.14800
H  34.52400 52.65000 27.27300
H  35.70700 51.14500 21.26500
H  37.81800 45.40800 23.24100
H  34.95000 48.97600 30.25800
H  35.12500 51.74300 29.54700
H  32.98200 50.06100 29.95600
H  32.63700 50.99700 28.34600
H  32.98700 51.73000 29.79200
H  37.22600 51.05800 30.37000
H  37.66400 49.39400 30.17800
H  37.60400 50.52700 32.47500
H  37.20500 48.82500 32.19200
H  33.59900 54.32500 26.22700
H  32.77600 54.57300 24.85600
H  34.47700 55.26400 25.06600
H  34.56200 55.88800 21.32200
H  35.25200 55.69600 22.88900
H  33.52800 55.29500 22.64200
H  37.33500 49.14700 20.28200
H  36.70400 46.37700 20.78300
H  34.58800 49.11200 20.19500
H  35.05400 47.43400 19.96000
H  35.47200 48.77000 18.75400
H  39.13500 46.15300 21.30700
H  39.01900 47.89500 21.56700
H  38.16200 46.95700 18.87200
H  39.88400 46.56900 19.22200
H  39.51300 48.18000 19.13500
H  38.65600 43.84500 24.47700
H  37.52200 43.02400 25.64900
H  39.08400 43.68800 26.19100
H  37.60200 46.78300 30.07200
H  34.20800 45.07200 32.31300
H  33.65800 46.74100 31.81500
H  34.79800 46.48500 33.12400
Mg -12.58000 16.24900 41.17700
C  -9.69300 14.30400 40.91000
C  -10.84600 18.93600 39.93300
C  -15.46500 17.83800 40.66700
C  -14.29700 13.33300 41.88400
N  -10.45300 16.53100 40.50400
C  -9.45700 15.58100 40.40700
C  -8.18400 16.26700 40.00500
C  -8.62700 17.84000 39.89100
C  -10.07500 17.76600 40.19800
C  -7.89200 18.96600 40.64600
C  -7.50100 15.68900 38.72500
C  -5.91600 15.83700 38.69000
H  -5.29300 16.55200 37.51800
N  -13.08400 18.15800 40.48700
C  -12.26400 19.16200 40.09200
C  -13.06400 20.35900 39.74000
C  -14.40100 20.08200 40.04900
C  -14.36400 18.62700 40.42800
C  -12.38600 21.67700 39.29200
C  -15.57800 21.15700 40.07100
O  -15.32500 22.29600 39.83000
C  -17.02500 20.78700 40.39000
N  -14.60000 15.68300 41.21900
C  -15.64000 16.55000 41.03500
C  -17.00300 15.88100 41.20700
C  -16.69500 14.45500 41.62400
C  -15.13000 14.46900 41.53200
C  -18.03000 16.69300 42.15800
C  -17.33000 13.37000 40.76100
C  -18.24300 12.50500 41.61600
N  -12.11800 14.22200 41.57900
C  -12.90700 13.17900 41.88300
C  -12.14500 12.02700 42.24200
C  -10.82800 12.40600 41.92100
C  -10.88600 13.75500 41.33400
C  -12.59900 10.80300 42.95700
C  -9.36600 11.95800 41.88800
O  -8.77500 10.89600 42.03300
C  -8.68500 13.20700 41.09300
C  -7.54000 13.67100 41.94800
O  -7.62400 14.14700 43.04300
O  -6.38500 13.36500 41.29300
C  -5.19500 14.01200 41.89300
H  -10.27700 19.78800 39.55300
H  -16.36200 18.29600 40.24400
H  -14.88700 12.48000 42.22500
H  -7.50300 16.12700 40.84500
H  -8.60100 18.11700 38.83700
H  -6.93600 18.58700 41.00800
H  -8.47400 19.26000 41.51900
H  -7.64700 19.83000 40.02800
H  -7.88800 16.26800 37.88600
H  -7.86500 14.66600 38.63200
H  -5.39900 14.90300 38.90700
H  -5.63700 16.43400 39.55800
H  -11.97900 22.28300 40.10200
H  -13.05600 22.25700 38.65800
H  -11.47400 21.63000 38.69700
H  -17.64900 20.48100 39.55000
H  -17.47900 21.69300 40.79200
H  -17.10800 20.08900 41.22200
H  -17.44800 15.92900 40.21300
H  -17.01200 14.32200 42.65800
H  -17.51500 17.57200 42.54600
H  -18.31100 16.09200 43.02300
H  -18.94700 17.03400 41.67600
H  -16.51100 12.71600 40.46100
H  -17.92700 13.67000 39.90000
H  -18.65700 13.02400 42.48100
H  -17.72600 11.61200 41.96600
H  -19.03400 12.20300 40.93000
H  -13.59000 10.87600 43.40600
H  -11.87900 10.40800 43.67500
H  -12.60800 10.00300 42.21600
H  -8.39900 12.77600 40.13400
H  -5.30100 15.09400 41.80800
H  -4.24200 13.78200 41.41700
H  -5.15200 13.84300 42.96900

