158

Mg 9.13100 3.84700 27.70500
C  10.33200 2.15500 30.45700
C  7.28900 5.86900 29.85000
C  7.94100 5.47200 24.97600
C  10.64300 1.36300 25.65500
N  8.69600 3.88300 29.92500
C  9.52200 3.22300 30.85000
C  9.24900 3.72800 32.23300
C  8.14700 4.84000 32.01800
C  7.96800 4.87300 30.53100
C  6.83500 4.70000 32.74900
C  10.63800 4.08700 32.88700
C  10.63100 5.11400 34.01200
H  11.32300 4.74200 35.29800
N  7.85100 5.45400 27.47500
C  7.24600 6.17500 28.43700
C  6.45500 7.24100 27.85700
C  6.67600 7.15800 26.46300
C  7.48500 5.98800 26.25900
C  5.43300 8.04200 28.69100
C  6.08400 8.04200 25.41300
O  6.05300 7.80900 24.21700
C  5.24900 9.15500 25.83400
N  9.18000 3.44100 25.61900
C  8.64700 4.31200 24.72200
C  8.84400 3.77100 23.32300
C  9.68600 2.53900 23.55900
C  9.96100 2.43900 24.96700
C  7.54400 3.65600 22.47800
C  10.97200 2.35600 22.66000
C  11.14100 1.01900 22.01900
N  10.29500 2.05400 27.92900
C  10.80900 1.17200 27.04900
C  11.61700 0.19400 27.68800
C  11.54100 0.54700 29.08200
C  10.67100 1.65800 29.14900
C  12.34300 -0.97100 27.09200
C  11.96200 0.24700 30.44500
O  12.75500 -0.55600 30.89500
C  11.22900 1.31900 31.35300
C  10.50500 0.62400 32.49300
O  9.32500 0.25500 32.46200
O  11.35700 0.56300 33.54400
C  10.88700 0.23600 34.91600
H  6.83100 6.65700 30.45100
H  7.45000 5.97600 24.14100
H  11.04700 0.57700 25.01300
H  8.81000 2.91100 32.80500
H  8.58600 5.77800 32.35800
H  6.46700 5.72100 32.85300
H  7.00400 4.21400 33.71000
H  6.01300 4.11000 32.34500
H  11.18400 4.56800 32.07600
H  11.24400 3.32000 33.37000
H  9.60500 5.41100 34.22800
H  11.18700 5.96200 33.61400
H  4.46400 7.72700 28.30300
H  5.58500 9.10200 28.49100
H  5.51100 7.83800 29.75900
H  4.38000 8.87500 26.42900
H  4.88700 9.52500 24.87400
H  5.78200 9.97800 26.31100
H  9.52200 4.51800 22.91100
H  9.14400 1.61700 23.34700
H  6.73900 3.75100 23.20800
H  7.32000 2.70400 21.99900
H  7.38800 4.44200 21.73900
H  11.85800 2.41900 23.29200
H  11.07300 3.19300 21.96900
H  11.45100 1.17800 20.98600
H  10.23200 0.41900 21.97500
H  11.87500 0.39000 22.52200
H  12.80800 -1.57100 27.87400
H  13.10600 -0.50300 26.46900
H  11.79100 -1.57300 26.37100
H  12.06400 1.89000 31.76000
H  9.90300 0.68700 35.04800
H  11.52700 0.54100 35.74400
H  10.63600 -0.82200 34.98900
Mg 47.20700 25.22900 28.24800
C  47.98400 27.44900 30.89200
C  46.37600 22.89100 30.68300
C  46.54100 23.09600 25.86300
C  48.32900 27.62900 26.04600
N  47.35600 25.16500 30.52800
C  47.47600 26.24900 31.38300
C  47.18700 25.88700 32.84000
C  46.79000 24.35900 32.78200
C  46.75400 24.14400 31.21800
C  47.62800 23.28200 33.54200
C  46.15000 26.77900 33.58600
C  45.50400 26.27700 34.86200
H  45.32000 27.11100 36.09400
N  46.59100 23.24900 28.25900
C  46.22500 22.49700 29.32900
C  45.77500 21.19000 28.86300
C  45.71800 21.20500 27.45900
C  46.29100 22.49900 27.12500
C  45.38600 20.06500 29.76500
C  45.47200 20.05600 26.51800
O  45.63200 20.16000 25.28100
C  44.91500 18.76400 27.05100
N  47.57900 25.20400 26.32500
C  47.12100 24.28000 25.49800
C  47.31100 24.66500 24.00800
C  47.52000 26.21200 24.05000
C  47.80400 26.40500 25.57900
C  48.27700 23.84400 23.06000
C  46.32900 27.02600 23.49000
C  46.10400 27.24200 21.97800
N  48.02200 27.14500 28.36600
C  48.40000 28.03300 27.39300
C  48.84500 29.26600 28.00800
C  48.72700 29.08800 29.36200
C  48.24600 27.76900 29.51100
C  49.32600 30.45000 27.21700
C  48.92600 29.76200 30.61700
O  49.37100 30.83900 30.81800
C  48.43000 28.69900 31.71500
C  49.47700 28.43400 32.76000
O  50.42600 27.71700 32.61300
O  49.25500 29.14600 33.92500
C  50.15100 28.90900 35.06300
H  46.22200 22.09700 31.41700
H  46.19400 22.42300 25.07600
H  48.41700 28.34300 25.22500
H  48.14100 25.89900 33.36800
H  45.72500 24.33000 33.01300
H  47.21200 22.30300 33.30300
H  47.51600 23.49400 34.60500
H  48.66300 23.28100 33.20200
H  45.35000 27.15300 32.94700
H  46.63600 27.74000 33.75500
H  45.99200 25.36200 35.19600
H  44.47400 25.97000 34.68100
H  44.35600 19.80800 29.51800
H  45.29200 20.39200 30.80000
H  46.06000 19.21100 29.70200
H  45.74400 18.25600 27.54400
H  44.69800 18.14400 26.18200
H  44.09600 18.90700 27.75700
H  46.29000 24.54000 23.64900
H  48.34300 26.55700 23.42500
H  48.74000 23.01100 23.58900
H  49.04200 24.34300 22.46500
H  47.62300 23.38400 22.31800
H  46.65000 28.02800 23.77600
H  45.50200 26.65700 24.09600
H  45.20300 26.66100 21.78100
H  46.97100 26.88900 21.41800
H  45.98400 28.27300 21.64400
H  49.10400 30.46100 26.15000
H  50.39900 30.50600 27.39700
H  48.78700 31.28300 27.66800
H  47.55900 29.14500 32.19500
H  50.03900 27.95900 35.58600
H  49.89300 29.64800 35.82100
H  51.19600 28.81800 34.76600

