158

Mg 0.22900 7.77900 27.37900
C  1.08400 9.81700 30.13100
C  0.25800 5.12200 29.50700
C  -0.06000 5.80200 24.69800
C  0.79000 10.57600 25.32100
N  0.71400 7.58500 29.58700
C  0.94200 8.47300 30.49600
C  0.73100 7.99300 31.94000
C  0.71000 6.48200 31.77900
C  0.49100 6.37100 30.20300
C  1.99700 5.66200 32.20600
C  -0.66500 8.43700 32.45600
C  -0.81200 8.37600 33.96300
H  0.41500 8.01100 34.86500
N  -0.00100 5.69500 27.22100
C  -0.02300 4.80500 28.17300
C  -0.33600 3.53100 27.62500
C  -0.44000 3.69200 26.23600
C  -0.18800 5.12000 25.99100
C  -0.42200 2.36900 28.53100
C  -0.71700 2.66300 25.16400
O  -0.74300 2.97200 24.02800
C  -0.98400 1.22900 25.53000
N  0.24700 8.18800 25.43100
C  0.10000 7.21200 24.44900
C  0.13100 7.72900 22.98200
C  0.15400 9.31100 23.20400
C  0.47900 9.37700 24.71000
C  1.35200 7.18600 22.28400
C  -1.22800 10.08000 23.03100
C  -1.31600 10.91500 21.70200
N  0.80600 9.78800 27.62500
C  0.89400 10.83600 26.71500
C  1.26500 12.06600 27.38700
C  1.31300 11.66900 28.71100
C  1.00900 10.31100 28.85200
C  1.38900 13.47800 26.79100
C  1.65400 12.21300 30.00200
O  2.13500 13.31600 30.30400
C  1.16000 11.05800 31.00600
C  2.09500 10.95600 32.21600
O  3.07600 10.23700 32.26700
O  1.77100 11.92400 33.18000
C  2.86800 12.25200 34.13100
H  0.26500 4.27100 30.19100
H  -0.37800 5.27800 23.79400
H  0.97400 11.45400 24.69800
H  1.58100 8.24100 32.57500
H  -0.12100 5.94000 32.22900
H  1.82200 4.62600 31.91500
H  2.30900 5.86300 33.23100
H  2.82300 5.93500 31.54900
H  -1.42400 7.76500 32.05400
H  -0.67700 9.47000 32.10700
H  -1.66600 7.75800 34.24200
H  -1.12500 9.35200 34.33400
H  -0.75600 2.65600 29.52800
H  0.50400 1.82800 28.72100
H  -1.11200 1.56400 28.27700
H  -1.87400 1.18400 26.15700
H  -0.21800 0.89000 26.22800
H  -1.04400 0.61200 24.63400
H  -0.73600 7.38500 22.41800
H  0.92400 9.78900 22.59700
H  1.05900 6.42600 21.55900
H  2.08700 6.77800 22.97700
H  1.84400 8.02000 21.78200
H  -1.44700 10.76200 23.85300
H  -2.06100 9.37700 23.06600
H  -0.63500 10.38300 21.03700
H  -0.93100 11.92000 21.87200
H  -2.32100 10.98000 21.28600
H  1.78300 13.33900 25.78400
H  2.18300 13.92700 27.38800
H  0.43800 14.00200 26.88600
H  0.13300 11.34100 31.23700
H  3.75900 12.46600 33.54100
H  3.01400 11.30200 34.64600
H  2.72400 13.15600 34.72200
Mg 55.54400 25.10100 45.39100
C  53.20500 27.14900 43.74800
C  54.30800 22.38300 43.63200
C  58.42700 23.43000 45.85600
C  57.09000 27.97900 46.56900
N  54.09800 24.91100 43.71500
C  53.25500 25.83700 43.20100
C  52.29700 25.24400 42.11900
C  52.43900 23.75300 42.52200
C  53.72900 23.65800 43.31900
C  51.22200 23.19900 43.36100
C  52.81100 25.54300 40.60700
C  51.72600 26.02600 39.58300
H  51.54000 25.32500 38.23200
N  56.22600 23.21600 44.96300
C  55.52400 22.19500 44.32200
C  56.21100 20.89100 44.44200
C  57.37200 21.16800 45.23400
C  57.37400 22.63700 45.43800
C  55.80600 19.53600 43.80200
C  58.37400 20.17300 45.69800
O  58.20500 18.94800 45.43000
C  59.47200 20.53300 46.59600
N  57.46100 25.64000 46.16400
C  58.52800 24.76800 46.15400
C  59.76400 25.42400 46.74700
C  59.28100 26.92400 46.98100
C  57.84700 26.86900 46.61000
C  60.34300 24.72400 47.98900
C  60.09900 27.78600 45.93800
C  61.51900 28.11900 46.27000
N  55.11700 27.19100 45.41300
C  55.77200 28.20600 46.01400
C  54.91900 29.35000 45.93000
C  53.91500 28.98400 45.01900
C  54.10500 27.66500 44.61400
C  55.21000 30.75700 46.62600
C  52.77400 29.49600 44.28100
O  52.22200 30.58000 44.28600
C  52.17300 28.25600 43.55200
C  51.87000 28.61700 42.18500
O  52.65000 28.94900 41.30400
O  50.49700 28.53200 42.02700
C  49.90300 28.83900 40.71300
H  53.76500 21.53200 43.21500
H  59.39400 22.97100 46.07600
H  57.62000 28.81400 47.03200
H  51.25000 25.52200 42.23200
H  52.48300 23.12100 41.63500
H  51.38100 22.17200 43.68800
H  50.34300 23.31600 42.72700
H  50.97600 23.74100 44.27400
H  53.30700 24.62100 40.30400
H  53.58200 26.30900 40.69300
H  51.87800 27.00600 39.13100
H  50.70800 26.13300 39.95800
H  55.75500 18.84700 44.64500
H  56.53300 19.16100 43.08100
H  54.81300 19.65800 43.37100
H  59.91900 19.68800 47.12000
H  59.02600 21.17800 47.35300
H  60.26900 20.92000 45.96000
H  60.53600 25.35100 45.98200
H  59.55600 27.21400 47.99500
H  59.73500 23.88700 48.33300
H  60.48100 25.51700 48.72400
H  61.31000 24.32000 47.69100
H  59.59000 28.74500 45.84100
H  60.01500 27.25800 44.98800
H  61.70500 29.18000 46.43200
H  62.23400 27.78300 45.51800
H  61.84000 27.54400 47.13900
H  55.90400 30.48900 47.42300
H  54.27700 31.12500 47.05400
H  55.59200 31.40900 45.84000
H  51.22700 28.21400 44.09200
H  49.78300 29.92100 40.65700
H  48.94000 28.33000 40.74500
H  50.56100 28.44600 39.93800

