158

Mg 53.10200 25.42200 44.48300
C  50.57700 27.78200 43.85800
C  50.80500 22.92000 43.46500
C  55.66300 23.33500 43.67400
C  55.31800 27.88500 44.99800
N  50.94500 25.39300 43.46500
C  50.10400 26.48800 43.54700
C  48.72400 26.06000 43.09000
C  48.70400 24.52900 43.49700
C  50.24700 24.20900 43.49700
C  47.90500 24.29900 44.89300
C  48.29900 26.30200 41.58800
C  49.38300 26.71700 40.53900
H  49.58400 25.89500 39.28400
N  53.20100 23.39400 43.81800
C  52.12300 22.58500 43.51700
C  52.65300 21.28400 43.23600
C  54.06400 21.27100 43.39300
C  54.35000 22.67900 43.63700
C  51.76100 20.10800 42.71600
C  55.08300 20.08600 43.31600
O  54.57800 18.96900 43.23600
C  56.57400 20.20800 43.33500
N  55.21200 25.57200 44.22600
C  56.02100 24.54500 44.15000
C  57.55500 24.97700 44.28300
C  57.44100 26.47500 44.64900
C  55.89500 26.72400 44.55500
C  58.33600 24.13400 45.34600
C  58.19600 27.38100 43.55300
C  58.93200 28.53400 44.17500
N  53.02900 27.44600 44.51800
C  53.98800 28.31900 44.99300
C  53.29900 29.50800 45.45300
C  52.01600 29.41600 44.94100
C  51.88900 28.13900 44.38300
C  53.93100 30.72200 46.01800
C  50.69500 30.11400 44.74200
O  50.47800 31.28100 45.06000
C  49.78700 29.05700 43.97700
C  49.48700 29.53700 42.62300
O  50.30000 29.73400 41.73400
O  48.16700 29.83200 42.55200
C  47.61900 30.51300 41.39100
H  49.99200 22.19400 43.40900
H  56.55000 22.70500 43.58000
H  56.04500 28.65200 45.27200
H  48.09200 26.65000 43.75500
H  48.25600 23.85600 42.76600
H  48.56900 23.91100 45.66700
H  47.18800 23.51300 44.65500
H  47.36300 25.20300 45.16900
H  47.52300 27.06300 41.67200
H  47.86400 25.37800 41.20600
H  50.34000 26.65600 41.05600
H  49.12900 27.74500 40.28300
H  52.16900 19.36200 42.03500
H  50.95200 20.58400 42.16100
H  51.21800 19.52200 43.45700
H  56.98400 19.23600 43.06000
H  57.04000 20.47400 44.28400
H  56.88800 20.93200 42.58300
H  57.98100 24.75100 43.30600
H  57.83400 26.72900 45.63400
H  57.60000 23.67800 46.00800
H  59.01400 24.76900 45.91700
H  58.81000 23.29100 44.84400
H  57.41300 27.79500 42.91700
H  58.88400 26.80300 42.93600
H  59.30700 28.29700 45.17100
H  58.13500 29.25300 44.36400
H  59.76700 28.93600 43.60100
H  53.18900 31.33400 46.52900
H  54.40900 31.27500 45.20900
H  54.57100 30.38200 46.83200
H  48.87100 28.99600 44.56400
H  48.02200 30.07500 40.47900
H  47.88800 31.56900 41.41300
H  46.54300 30.34900 41.45000
Mg -11.95600 16.15200 42.30900
C  -9.03700 14.61500 41.42500
C  -10.94500 18.95800 40.56000
C  -15.30500 17.48000 42.29500
C  -13.26400 13.21100 43.44300
N  -10.19800 16.67000 41.00900
C  -9.10000 15.92100 40.86100
C  -7.97400 16.66600 40.25700
C  -8.57400 18.11700 40.12500
C  -10.01100 17.92000 40.54500
C  -7.86900 19.09900 41.07300
C  -7.43200 16.05900 38.90000
C  -6.03900 15.60900 38.84900
H  -5.21600 16.14100 37.72200
N  -12.97200 18.03800 41.63600
C  -12.25800 19.05200 41.08500
C  -13.18300 20.21800 40.94900
C  -14.42000 19.82800 41.51300
C  -14.29200 18.40500 41.82200
C  -12.79200 21.59200 40.30200
C  -15.60800 20.75200 41.78700
O  -15.53000 21.93300 41.49100
C  -16.85700 20.24400 42.48100
N  -13.95000 15.45500 42.88100
C  -15.12300 16.20100 42.80400
C  -16.26400 15.40700 43.25800
C  -15.64900 14.06100 43.72700
C  -14.19200 14.21900 43.31700
C  -17.14700 15.99700 44.37600
C  -16.22700 12.70900 43.04000
C  -16.56200 11.65300 44.04200
N  -11.30900 14.29400 42.46300
C  -11.88500 13.22700 43.06700
C  -10.88000 12.13300 43.11200
C  -9.69800 12.65500 42.54800
C  -10.03700 13.93900 42.12300
C  -11.25300 10.77900 43.66200
C  -8.32600 12.34100 42.33600
O  -7.65200 11.37900 42.63100
C  -7.79200 13.68300 41.52000
C  -6.71900 14.27500 42.41700
O  -6.89100 15.26100 43.16900
O  -5.52000 13.71900 42.21300
C  -4.38800 14.12100 43.04200
H  -10.46300 19.86800 40.19700
H  -16.36900 17.71600 42.21900
H  -13.54700 12.24600 43.86700
H  -7.10400 16.72800 40.91200
H  -8.46800 18.52000 39.11700
H  -8.63300 19.47700 41.75200
H  -7.32800 19.90400 40.57600
H  -7.16100 18.58000 41.71800
H  -7.53000 16.85700 38.16400
H  -8.12200 15.31500 38.50100
H  -6.19800 14.53100 38.88200
H  -5.57300 16.00600 39.75100
H  -13.43900 21.77700 39.44500
H  -11.72800 21.66700 40.07300
H  -12.99000 22.32500 41.08400
H  -16.57300 19.51200 43.23700
H  -17.57100 19.85100 41.75700
H  -17.31000 21.06500 43.03600
H  -16.88500 15.23000 42.37900
H  -15.74500 14.14600 44.81000
H  -16.77200 16.94200 44.76900
H  -17.25900 15.26300 45.17400
H  -18.10600 16.24400 43.92100
H  -15.44400 12.37600 42.35900
H  -17.18500 12.95000 42.58000
H  -17.63500 11.46900 43.98100
H  -16.30500 11.97800 45.05000
H  -15.99200 10.77800 43.73100
H  -10.30700 10.40200 44.05200
H  -11.70900 10.19800 42.86000
H  -11.90200 10.75000 44.53700
H  -7.29900 13.43700 40.57900
H  -3.92000 13.20600 43.40500
H  -4.53700 14.76700 43.90700
H  -3.75400 14.66400 42.34200

