158

Mg 9.26600 4.12500 26.89000
C  10.75900 2.55000 29.74600
C  7.10800 5.73800 29.12400
C  7.73500 5.40300 24.26400
C  10.86600 1.67500 24.92700
N  9.04200 4.22900 29.25100
C  9.70800 3.47500 30.11100
C  9.38900 3.90300 31.57400
C  8.19900 4.90700 31.42100
C  8.07900 4.95800 29.84800
C  6.91800 4.54500 32.20800
C  10.60400 4.54900 32.38900
C  10.61200 4.17800 33.88000
H  11.05600 5.07900 35.10000
N  7.75300 5.42700 26.71800
C  7.07700 6.13100 27.77500
C  6.10500 7.02700 27.15900
C  6.29600 6.91800 25.75400
C  7.29900 5.89300 25.51200
C  5.24300 7.85100 28.07100
C  5.63500 7.74300 24.57500
O  5.98800 7.65300 23.39100
C  4.47600 8.73200 24.85400
N  9.37000 3.62500 24.90400
C  8.62100 4.32700 24.00600
C  8.81300 3.83500 22.56800
C  9.59000 2.42800 22.87000
C  10.09000 2.59900 24.29100
C  7.55900 3.75100 21.65900
C  10.69300 2.21200 21.82100
C  10.95700 0.83000 21.32600
N  10.56300 2.51900 27.18900
C  11.19100 1.65000 26.30400
C  12.09300 0.77700 27.01900
C  12.01100 1.08500 28.41400
C  11.05800 2.15600 28.42400
C  12.90600 -0.28000 26.41400
C  12.52600 0.81300 29.70700
O  13.43900 0.10100 30.18100
C  11.69300 1.74800 30.70000
C  10.93500 0.88800 31.68200
O  9.98600 0.12900 31.32600
O  11.38200 1.02700 32.95900
C  10.61000 0.27400 33.96300
H  6.42100 6.21800 29.82400
H  7.25900 5.76600 23.35100
H  11.10900 0.87500 24.22400
H  9.09400 3.02700 32.15100
H  8.36400 5.94000 31.72700
H  6.52900 5.51100 32.53000
H  7.06900 3.81600 33.00500
H  6.16900 4.08100 31.56600
H  10.65400 5.62600 32.22700
H  11.44600 3.99700 31.97100
H  11.27300 3.31100 33.90700
H  9.63700 3.86200 34.25000
H  4.49400 8.39600 27.49500
H  5.86700 8.65100 28.46900
H  4.87600 7.24500 28.89900
H  4.76200 9.65100 25.36600
H  3.60800 8.19900 25.24200
H  4.17200 9.17000 23.90300
H  9.60200 4.43600 22.11600
H  8.98200 1.52500 22.93100
H  6.77000 3.99300 22.37100
H  7.35300 2.73600 21.31800
H  7.69600 4.51600 20.89500
H  11.64000 2.47200 22.29500
H  10.59200 2.83000 20.92900
H  10.08900 0.18000 21.42300
H  11.80900 0.32200 21.77900
H  11.25000 0.96100 20.28400
H  12.39900 -1.23400 26.26800
H  13.77100 -0.50800 27.03600
H  13.15600 0.08900 25.41900
H  12.50100 2.25600 31.22700
H  11.33900 -0.35700 34.47200
H  9.86800 -0.42900 33.58500
H  10.14000 0.92600 34.69900
Mg 47.92300 34.15400 26.89700
C  46.03700 32.50100 29.36200
C  48.21600 36.87200 29.02600
C  49.31800 35.77300 24.47400
C  47.25100 31.47500 24.76200
N  47.28100 34.64800 28.97100
C  46.52700 33.78000 29.80200
C  46.64700 34.30300 31.19200
C  46.76300 35.89300 30.96600
C  47.45600 35.84900 29.57900
C  45.40200 36.67200 31.03100
C  47.88500 33.70400 31.90400
C  47.75100 33.71800 33.47000
H  48.39700 34.88500 34.23900
N  48.71800 36.11600 26.77000
C  48.79800 37.07200 27.71000
C  49.51600 38.19900 27.25100
C  49.87100 37.90500 25.87000
C  49.20400 36.55100 25.64000
C  49.69700 39.35700 28.24700
C  50.65800 38.71000 24.81800
O  50.84200 38.24900 23.69700
C  51.23800 40.04400 25.12200
N  47.86700 33.82200 24.84700
C  48.70000 34.58100 24.13100
C  49.02300 33.98600 22.72900
C  48.50700 32.50300 22.80800
C  47.89400 32.56300 24.24800
C  48.35600 34.77000 21.51100
C  49.50700 31.39700 22.58300
C  50.24800 30.79500 23.89400
N  46.93700 32.22800 27.02900
C  46.69800 31.27600 26.07000
C  46.08100 30.11200 26.73100
C  45.71200 30.63900 27.94600
C  46.27400 31.91900 28.08700
C  45.92700 28.67800 26.14500
C  44.90800 30.33500 29.07400
O  44.18300 29.37900 29.35100
C  44.95800 31.66900 30.01600
C  45.23900 31.22200 31.40700
O  46.07100 30.39800 31.75500
O  44.29300 31.80400 32.32900
C  44.58900 31.49000 33.75300
H  48.11700 37.76400 29.64700
H  49.91400 36.19400 23.66100
H  47.30600 30.61000 24.09700
H  45.78600 33.94300 31.75400
H  47.37800 36.30700 31.76500
H  45.10300 37.18700 30.11800
H  45.59800 37.52500 31.68000
H  44.64100 36.00300 31.43300
H  48.78500 34.21000 31.55600
H  47.98200 32.63600 31.70800
H  48.00600 32.70800 33.79200
H  46.70100 33.89200 33.70300
H  50.44600 40.07400 27.91000
H  49.96800 38.93400 29.21400
H  48.68800 39.76800 28.22800
H  51.89000 40.21400 24.26500
H  51.85200 39.97000 26.01900
H  50.61300 40.92200 25.28300
H  50.08800 33.96600 22.49900
H  47.70500 32.35400 22.08400
H  47.97800 34.01100 20.82600
H  49.13400 35.22500 20.89900
H  47.55200 35.40800 21.87900
H  50.33500 31.73300 21.96000
H  49.09100 30.54800 22.04100
H  51.32600 30.90700 23.78100
H  49.96900 29.74300 23.94600
H  50.17700 31.53000 24.69600
H  44.86600 28.45300 26.03800
H  46.33000 27.99500 26.89300
H  46.45500 28.64400 25.19200
H  43.94000 32.03400 29.88300
H  44.46600 32.40100 34.33900
H  45.58900 31.12800 33.99400
H  43.86100 30.77800 34.14200

