158

Mg -1.52100 18.14500 27.44000
C  -2.07700 16.07900 30.17000
C  -2.11600 20.84000 29.46000
C  -0.86400 20.02900 24.80200
C  -1.58400 15.31400 25.33400
N  -2.03000 18.38000 29.70300
C  -2.13000 17.41200 30.64000
C  -2.43400 18.07200 31.99200
C  -2.56100 19.56600 31.56200
C  -2.31200 19.62200 30.10700
C  -3.91800 20.30600 31.98800
C  -1.28400 17.88600 33.05600
C  -1.88300 17.43800 34.39500
H  -0.92700 17.37800 35.54300
N  -1.37000 20.14100 27.23400
C  -1.69500 21.04600 28.11900
C  -1.61700 22.33900 27.48000
C  -1.07500 22.18600 26.19200
C  -1.03000 20.69200 26.05900
C  -2.20300 23.56200 28.17100
C  -0.68400 23.23200 25.21700
O  -0.20700 23.02500 24.09900
C  -0.88400 24.64100 25.68400
N  -1.42000 17.73500 25.34700
C  -1.03200 18.70000 24.49100
C  -1.02900 18.15100 23.09900
C  -0.81600 16.65200 23.31500
C  -1.28400 16.55200 24.70400
C  -2.28700 18.42300 22.18400
C  0.67300 16.09300 23.14500
C  1.81700 16.89400 23.64900
N  -1.79700 16.12000 27.64000
C  -1.80300 15.08600 26.72100
C  -1.75800 13.83000 27.41200
C  -1.93100 14.15700 28.73500
C  -1.95700 15.54500 28.88100
C  -1.61600 12.49900 26.86900
C  -1.88500 13.56400 30.03500
O  -1.64400 12.41600 30.45500
C  -2.14700 14.79600 31.01200
C  -1.02100 14.67200 31.95700
O  0.18800 14.81800 31.71000
O  -1.42200 14.08000 33.18700
C  -0.36700 13.76000 34.18300
H  -2.16400 21.66200 30.17800
H  -0.57100 20.64200 23.94700
H  -1.53200 14.41300 24.71900
H  -3.38400 17.76400 32.42800
H  -1.79600 20.14100 32.08300
H  -4.76800 19.63000 31.90700
H  -4.06800 21.17100 31.34100
H  -3.94000 20.63200 33.02800
H  -0.73900 18.82700 33.13900
H  -0.59800 17.10300 32.73100
H  -2.24600 16.41800 34.27000
H  -2.68700 18.12100 34.66800
H  -1.41200 24.22700 28.51700
H  -2.78800 23.31600 29.05700
H  -2.83700 23.97000 27.38300
H  -1.90800 24.98900 25.54900
H  -0.19000 25.12600 24.99800
H  -0.50100 24.59900 26.70300
H  -0.11500 18.42300 22.57100
H  -1.47300 16.10800 22.63700
H  -1.97900 18.89500 21.25100
H  -2.82800 19.18300 22.74800
H  -3.01500 17.65400 21.92500
H  0.79200 15.86600 22.08600
H  0.80700 15.14300 23.66200
H  2.44200 17.21800 22.81700
H  2.34000 16.35000 24.43500
H  1.46000 17.73000 24.25100
H  -1.34100 12.57500 25.81700
H  -2.54300 11.93300 26.77000
H  -0.80700 11.98800 27.39000
H  -3.06800 14.67800 31.58400
H  -0.75900 13.71400 35.19900
H  0.41000 14.50900 34.33500
H  0.13900 12.87600 33.79400
Mg 45.67000 3.85100 47.33900
C  43.67100 6.56500 46.89400
C  42.70500 1.78800 47.35500
C  47.55900 0.98800 46.98600
C  48.48100 5.72600 46.88400
N  43.48800 4.13100 47.01900
C  42.90600 5.36600 46.86400
C  41.44300 5.23700 46.63500
C  41.11300 3.80300 47.21400
C  42.49000 3.19400 47.26200
C  40.42400 3.72100 48.55800
C  40.96600 5.52800 45.13100
C  40.00100 6.64000 44.84700
H  40.26200 7.45500 43.54300
N  45.19700 1.69800 47.10900
C  43.91500 1.08400 47.19300
C  44.13100 -0.31900 46.96800
C  45.50100 -0.57400 46.79900
C  46.16800 0.75800 46.93600
C  42.96200 -1.29200 46.89800
C  46.06800 -1.84600 46.52900
O  45.33800 -2.81700 46.53000
C  47.53100 -2.04100 46.16800
N  47.62900 3.37000 47.12100
C  48.19700 2.22700 47.04500
C  49.75900 2.35300 47.04800
C  49.99700 3.79800 46.81800
C  48.59000 4.36300 46.93900
C  50.52200 1.76800 48.26500
C  50.65700 3.99300 45.40400
C  49.71400 3.84200 44.14800
N  46.08800 5.78600 47.06400
C  47.26700 6.45900 46.91600
C  47.02100 7.87200 47.07600
C  45.62800 7.96100 47.07600
C  45.06700 6.69700 47.04000
C  48.01800 9.00000 47.10500
C  44.54500 8.90800 47.02800
O  44.57900 10.10300 47.04900
C  43.18700 8.05400 46.86300
C  42.23900 8.32600 47.90300
O  42.04700 7.62100 48.90800
O  41.48500 9.37800 47.45800
C  40.29500 9.68400 48.31200
H  41.83500 1.12800 47.33900
H  48.30700 0.19200 46.96300
H  49.41700 6.28000 46.78500
H  41.00400 5.99600 47.28200
H  40.55500 3.23200 46.47200
H  39.95200 4.65400 48.86800
H  41.02900 3.20100 49.30100
H  39.53600 3.09400 48.49000
H  40.52800 4.64000 44.67700
H  41.81300 5.65500 44.45700
H  40.05200 7.33500 45.68600
H  38.98100 6.25800 44.88300
H  43.10200 -1.86200 45.97900
H  41.96700 -0.84600 46.90600
H  42.94500 -1.89900 47.80300
H  48.21900 -1.88600 47.00000
H  47.79000 -1.23300 45.48400
H  47.73100 -3.03200 45.76000
H  50.15900 1.78200 46.21000
H  50.61800 4.20300 47.61700
H  51.22800 2.43200 48.76500
H  51.02700 0.86700 47.91700
H  49.75600 1.41300 48.95400
H  51.41300 3.26600 45.10600
H  51.10100 4.98900 45.40800
H  49.77100 4.66900 43.44000
H  48.69300 3.57700 44.42000
H  50.06000 2.94700 43.63000
H  48.82800 8.66700 46.45700
H  48.40900 9.14700 48.11200
H  47.50600 9.88000 46.71500
H  42.62500 8.14400 45.93400
H  40.20200 10.77000 48.30800
H  40.21600 9.37500 49.35500
H  39.44300 9.42500 47.68400

