158

Mg 6.59600 53.99400 40.29400
C  6.16600 50.49400 40.01900
C  9.74800 53.56900 39.09800
C  6.64800 57.24800 39.86400
C  3.09300 54.13600 40.85700
N  7.70800 52.23300 39.45200
C  7.33600 50.92800 39.44200
C  8.56300 50.06600 39.27000
C  9.77000 51.04800 39.23200
C  9.06200 52.36300 39.29700
C  10.76600 50.80600 40.36000
C  8.55500 49.32300 37.92600
C  8.45200 50.13900 36.66900
H  7.48300 49.74100 35.51000
N  8.06200 55.27700 39.71200
C  9.32800 54.88400 39.25500
C  10.09800 56.06400 39.05300
C  9.20900 57.15600 39.27500
C  7.92300 56.59200 39.60900
C  11.54800 56.11300 38.58200
C  9.64300 58.60400 39.32200
O  10.75500 58.89900 38.92400
C  8.74300 59.71900 39.80200
N  5.03500 55.42800 40.29500
C  5.40200 56.76400 40.20800
C  4.18600 57.67500 40.38200
C  3.00400 56.61000 40.51800
C  3.73800 55.28000 40.53100
C  4.42600 58.60900 41.70600
C  1.85000 56.62200 39.39900
C  0.57900 57.41700 39.64600
N  4.89400 52.65100 40.43100
C  3.58800 52.83200 40.96100
C  3.05200 51.53100 41.31800
C  3.99700 50.60400 40.91500
C  5.07700 51.32100 40.42300
C  1.75100 51.29200 42.01400
C  4.29100 49.23300 40.82700
O  3.49900 48.30700 41.10900
C  5.66000 49.02700 40.26100
C  5.44900 48.11400 39.08900
O  4.77000 48.33700 38.06500
O  6.25700 47.05700 39.13500
C  6.06700 46.05500 38.05800
H  10.78000 53.43500 38.76900
H  6.50700 58.33000 39.83000
H  2.03800 54.29700 41.08700
H  8.72200 49.38900 40.10900
H  10.39800 51.10600 38.34300
H  10.74600 49.76900 40.69300
H  10.54500 51.58000 41.09600
H  11.79400 50.97600 40.04000
H  7.65700 48.71200 37.83600
H  9.40200 48.64800 37.80300
H  9.47700 50.31500 36.34500
H  8.08800 51.11600 36.98700
H  11.91300 55.22100 38.07300
H  12.23700 56.46100 39.35100
H  11.64000 56.85600 37.78900
H  7.81600 59.83500 39.24200
H  9.28500 60.62400 39.52800
H  8.54100 59.56500 40.86200
H  4.07700 58.27100 39.47500
H  2.55500 56.68900 41.50800
H  4.37300 59.63700 41.34700
H  5.33500 58.40300 42.27100
H  3.61300 58.42200 42.40800
H  1.52500 55.60500 39.17800
H  2.26100 56.92700 38.43700
H  0.32800 58.18600 38.91600
H  0.57900 58.04700 40.53600
H  -0.17900 56.64600 39.51400
H  1.09700 50.76400 41.32000
H  1.33000 52.20400 42.43600
H  1.96100 50.72700 42.92200
H  6.19500 48.45500 41.02000
H  6.73000 46.20700 37.20600
H  5.08600 46.07400 37.58400
H  6.29400 45.05600 38.43200
Mg -10.05200 39.22700 40.89700
C  -8.81300 35.96800 40.20900
C  -7.25000 40.44100 39.59900
C  -11.61100 42.10900 40.70700
C  -13.02800 37.59000 42.02000
N  -8.21200 38.28200 40.10900
C  -7.94900 36.96300 39.83000
C  -6.63800 36.83200 38.94700
C  -5.96400 38.15400 39.54100
C  -7.19800 39.05400 39.76000
C  -5.10600 38.02900 40.68400
C  -7.01000 36.92700 37.42200
C  -6.73400 35.61500 36.69000
H  -6.02000 36.01900 35.36200
N  -9.56600 41.05000 40.10700
C  -8.32700 41.37500 39.70200
C  -8.23600 42.78500 39.38300
C  -9.48100 43.36500 39.78400
C  -10.32500 42.13100 40.19500
C  -7.00400 43.42400 38.74100
C  -9.84500 44.71600 39.63500
O  -9.04700 45.57100 39.44800
C  -11.22500 45.19800 39.80500
N  -12.02700 39.71300 41.30100
C  -12.40400 41.07600 41.17500
C  -13.98500 41.24200 41.36200
C  -14.35700 39.76100 41.91000
C  -13.09300 38.94100 41.64300
C  -14.27700 42.34200 42.39800
C  -15.56000 39.11700 41.26900
C  -16.39800 38.25700 42.29400
N  -10.74500 37.15700 41.33700
C  -11.97400 36.71200 41.76600
C  -11.97300 35.31900 41.76700
C  -10.77900 34.93000 41.12600
C  -10.09600 36.05400 40.90900
C  -12.99700 34.46900 42.37600
C  -9.97500 33.80500 40.71100
O  -10.23000 32.63100 40.61800
C  -8.66800 34.46900 39.95700
C  -7.44500 33.80900 40.46300
O  -6.58800 33.19800 39.84700
O  -7.28700 34.13700 41.79900
C  -6.19100 33.49300 42.60300
H  -6.27900 40.77600 39.22700
H  -12.11300 43.07700 40.65700
H  -13.89100 37.07400 42.44700
H  -6.18200 35.87900 39.21700
H  -5.48500 38.54700 38.64300
H  -5.01500 37.04300 41.14000
H  -5.36300 38.82000 41.38800
H  -4.12200 38.17000 40.23600
H  -6.40400 37.71400 36.97200
H  -8.08500 37.08500 37.32800
H  -7.63900 35.01000 36.64300
H  -5.94300 35.05200 37.18500
H  -6.68600 42.90600 37.83600
H  -6.17900 43.64400 39.41900
H  -7.29500 44.43000 38.44000
H  -11.78300 44.57700 39.10300
H  -11.25900 46.23000 39.45500
H  -11.59300 45.17600 40.83000
H  -14.30200 41.43800 40.33800
H  -14.54500 39.81300 42.98300
H  -14.76500 41.84800 43.23800
H  -14.88500 43.19100 42.08700
H  -13.30100 42.68100 42.74700
H  -15.14500 38.51200 40.46400
H  -16.32300 39.81900 40.93300
H  -16.54900 37.26400 41.86800
H  -17.33600 38.80300 42.39700
H  -15.91800 38.18400 43.26900
H  -12.82300 33.46000 42.00200
H  -14.00900 34.83900 42.21400
H  -12.88000 34.56600 43.45600
H  -8.84600 34.33000 38.89100
H  -6.72400 33.11000 43.47300
H  -5.38500 34.12900 42.97100
H  -5.73400 32.62600 42.12600

