158

Mg 1.78000 -1.92900 44.12700
C  5.05300 -0.77500 43.74800
C  0.70600 0.91700 42.53000
C  -1.23400 -3.42500 43.80500
C  3.15400 -5.04200 45.28600
N  2.85800 -0.16000 43.20000
C  4.15500 0.10300 43.17000
C  4.44500 1.40400 42.46100
C  3.00000 2.12300 42.48700
C  2.10000 0.89100 42.78400
C  2.90300 3.24800 43.57500
C  5.03700 1.26800 40.99400
C  6.23500 2.18500 40.64500
H  7.01400 1.94900 39.35600
N  0.01300 -1.26500 43.40700
C  -0.21500 -0.08300 42.72700
C  -1.65300 0.01300 42.46100
C  -2.27400 -1.22700 42.97400
C  -1.11500 -2.06100 43.43300
C  -2.29200 1.27900 41.87000
C  -3.82000 -1.47000 42.93600
O  -4.55800 -0.68700 42.36700
C  -4.48900 -2.72400 43.51400
N  0.99500 -3.95100 44.44300
C  -0.33400 -4.23700 44.37100
C  -0.46500 -5.71300 44.81100
C  0.93000 -6.21500 45.16000
C  1.76900 -4.99900 45.02800
C  -1.54700 -5.98400 45.83000
C  1.29000 -7.43800 44.26300
C  1.41900 -8.83500 44.99500
N  3.69400 -2.77500 44.52400
C  4.06900 -4.00200 45.04400
C  5.51800 -3.96500 45.20200
C  5.93400 -2.73500 44.69400
C  4.77800 -2.04600 44.32900
C  6.31900 -5.06000 45.72200
C  7.09500 -1.91000 44.39900
O  8.25200 -2.09300 44.72700
C  6.54400 -0.57800 43.73900
C  6.88600 0.60500 44.60300
O  6.17900 0.97900 45.50200
O  8.14100 1.01800 44.36800
C  8.50300 2.34300 44.95900
H  0.28800 1.78400 42.01400
H  -2.24800 -3.81600 43.69900
H  3.59300 -5.96700 45.66500
H  5.12800 2.04400 43.02100
H  2.77600 2.47600 41.48100
H  3.88700 3.53400 43.94400
H  2.29600 2.87300 44.39900
H  2.42100 4.14800 43.19200
H  4.21700 1.34800 40.28100
H  5.44100 0.26800 40.84000
H  6.93400 2.24900 41.48000
H  5.76100 3.16700 40.65500
H  -3.34600 1.21300 41.60200
H  -1.65200 1.65700 41.07300
H  -2.24600 1.98300 42.70000
H  -4.44900 -3.41000 42.66700
H  -5.48700 -2.30100 43.63300
H  -3.89600 -3.01900 44.37900
H  -0.83800 -6.30900 43.97700
H  0.91400 -6.55300 46.19600
H  -2.02300 -6.87500 45.42200
H  -2.21400 -5.12300 45.88000
H  -1.31400 -6.13800 46.88300
H  2.23000 -7.26600 43.73900
H  0.69200 -7.53200 43.35600
H  2.46600 -9.09800 45.15000
H  0.97300 -9.56000 44.31400
H  1.01200 -8.73400 46.00100
H  5.92900 -5.61700 46.57400
H  7.24200 -4.65800 46.14000
H  6.69000 -5.69900 44.92100
H  6.98100 -0.45900 42.74800
H  7.78800 3.15500 44.82400
H  9.37500 2.86300 44.56200
H  8.79400 2.27000 46.00700
Mg 40.46700 9.97200 30.31900
C  42.49400 11.27700 32.83000
C  38.47800 8.58400 32.81500
C  38.93200 8.36600 27.88500
C  42.86600 11.11000 27.93500
N  40.45600 9.95900 32.59300
C  41.33300 10.66500 33.38000
C  40.93000 10.57700 34.89600
C  39.69700 9.57200 34.83600
C  39.53100 9.34200 33.35400
C  39.77200 8.20400 35.64000
C  40.56300 11.96700 35.62200
C  41.33200 12.10700 37.00100
H  40.58300 12.73700 38.15900
N  38.87400 8.73400 30.32500
C  38.10600 8.28300 31.45600
C  37.04500 7.39100 30.98200
C  37.25100 7.27900 29.50100
C  38.40700 8.12400 29.21000
C  36.03900 6.84300 31.94200
C  36.59400 6.45300 28.52200
O  36.81400 6.43100 27.33500
C  35.51800 5.61500 29.04100
N  40.93800 9.68200 28.24100
C  40.13400 8.95200 27.45000
C  40.39100 9.20100 25.97900
C  41.65600 10.12100 26.03800
C  41.89600 10.22800 27.50100
C  40.36500 8.06000 24.88900
C  41.44400 11.55900 25.51600
C  42.63100 12.14500 24.80600
N  42.27900 11.06700 30.30600
C  43.11100 11.36500 29.28000
C  44.21100 12.10200 29.86700
C  43.95900 12.15000 31.24700
C  42.80000 11.44900 31.47500
C  45.33500 12.73900 29.21100
C  44.44800 12.73000 32.52000
O  45.36400 13.52800 32.71100
C  43.47700 12.12200 33.60100
C  44.29200 11.26600 34.42200
O  44.93400 10.32100 34.00700
O  44.14200 11.57500 35.74900
C  44.82300 10.60300 36.61900
H  37.71600 8.17800 33.48300
H  38.41800 7.92200 27.03000
H  43.63600 11.50000 27.26600
H  41.72900 10.06100 35.43000
H  38.81300 10.15400 35.09900
H  38.77900 8.11200 36.08100
H  40.55500 8.37900 36.37900
H  40.01100 7.31200 35.06200
H  39.49200 12.12600 35.73900
H  40.84300 12.69300 34.85800
H  42.16500 12.76200 36.74800
H  41.81700 11.15700 37.23000
H  35.16500 7.48700 32.03000
H  36.45200 6.65500 32.93300
H  35.74900 5.81300 31.73400
H  36.00600 4.80300 29.58100
H  34.89500 5.25900 28.22100
H  34.92300 6.31600 29.62600
H  39.55300 9.85300 25.73300
H  42.50800 9.62500 25.57200
H  40.20000 7.11000 25.39800
H  41.27700 7.98300 24.29700
H  39.56500 8.18200 24.16000
H  41.16800 12.23600 26.32400
H  40.70100 11.53700 24.71900
H  42.82200 13.13500 25.22100
H  42.39900 12.26900 23.74800
H  43.56900 11.59300 24.85600
H  45.11100 12.81400 28.14700
H  46.27100 12.17900 29.23100
H  45.46500 13.73900 29.62500
H  43.01900 12.87200 34.24600
H  45.91100 10.62500 36.55900
H  44.47400 9.57200 36.54700
H  44.59400 10.94500 37.62800

