158

Mg 16.56700 -1.40900 28.18900
C  15.46300 0.46300 30.93800
C  18.64500 -3.08500 30.27600
C  17.56400 -3.06600 25.62000
C  14.65000 0.72800 26.21600
N  17.05600 -1.24400 30.38800
C  16.38900 -0.48400 31.33300
C  16.83500 -0.82200 32.79500
C  18.17700 -1.66400 32.52900
C  18.05600 -2.00100 30.96900
C  19.54600 -0.84800 32.89900
C  15.72700 -1.67200 33.42700
C  15.39900 -1.34300 34.87900
H  16.43900 -0.63200 35.72800
N  17.81500 -3.00400 27.99500
C  18.53000 -3.63800 28.98700
C  19.18400 -4.87300 28.41100
C  18.88700 -4.78300 27.03700
C  18.02500 -3.61100 26.83800
C  20.13900 -5.73800 29.24700
C  19.50700 -5.56700 25.91800
O  19.12100 -5.45500 24.76000
C  20.48300 -6.55500 26.19000
N  16.12100 -1.17700 26.14800
C  16.75900 -1.99900 25.24600
C  16.36000 -1.59600 23.81600
C  15.39400 -0.35500 24.13000
C  15.31700 -0.29000 25.57700
C  17.63800 -1.32900 22.92500
C  13.99500 -0.47300 23.49000
C  12.85300 -1.24100 24.10700
N  15.33100 0.26200 28.46100
C  14.56700 1.04200 27.59000
C  13.83700 2.08400 28.25400
C  14.10400 1.84500 29.57200
C  15.07200 0.81700 29.60700
C  12.83100 3.00900 27.70900
C  13.61700 2.16200 30.94500
O  12.75100 2.95800 31.30000
C  14.67300 1.39000 31.93200
C  15.32300 2.56200 32.63000
O  16.03700 3.33800 32.03400
O  15.11800 2.63600 33.98700
C  15.65200 3.69400 34.86000
H  19.20100 -3.73700 30.95200
H  17.76600 -3.73900 24.78400
H  14.08700 1.44500 25.61500
H  16.99600 0.07400 33.39400
H  18.22700 -2.56600 33.13800
H  19.33300 0.16700 33.23400
H  20.10200 -0.91500 31.96400
H  20.03400 -1.49400 33.63000
H  15.93400 -2.74100 33.45100
H  14.82500 -1.50600 32.83800
H  15.18800 -2.29300 35.37000
H  14.51200 -0.71500 34.96100
H  19.94500 -5.55600 30.30400
H  21.20900 -5.53600 29.22300
H  19.93600 -6.76000 28.92500
H  20.21100 -7.55700 26.52100
H  21.24700 -6.03300 26.76600
H  20.96500 -6.76400 25.23500
H  15.67700 -2.39300 23.52200
H  15.89700 0.55100 23.79400
H  18.28500 -0.58400 23.38800
H  17.15100 -0.80900 22.10000
H  18.16500 -2.20500 22.54500
H  14.12800 -0.85300 22.47800
H  13.70000 0.56900 23.36700
H  12.50200 -1.89800 23.31100
H  12.05700 -0.52900 24.32600
H  13.14700 -1.93100 24.89800
H  13.27500 4.00500 27.72700
H  11.96000 3.15900 28.34700
H  12.51300 2.74400 26.70000
H  14.20500 0.83800 32.74700
H  16.09500 3.03700 35.60900
H  14.90200 4.16300 35.49700
H  16.24600 4.50600 34.44200
Mg 41.99300 41.47600 26.35700
C  40.90900 43.76900 28.73900
C  43.37500 39.55500 28.78400
C  43.08300 39.33200 23.93900
C  40.94800 43.62500 23.87200
N  42.19100 41.77800 28.54700
C  41.53000 42.67900 29.36900
C  41.85000 42.41000 30.82200
C  42.87300 41.17300 30.76500
C  42.81400 40.75000 29.27600
C  44.32000 41.44000 31.36600
C  40.46000 42.16400 31.75300
C  40.44400 43.02000 33.07700
H  39.83800 42.37800 34.33500
N  42.97600 39.64400 26.44500
C  43.44300 39.00700 27.53400
C  44.08800 37.77100 27.14200
C  43.97000 37.64600 25.74900
C  43.27400 38.89000 25.29000
C  44.52900 36.70500 28.19700
C  44.43200 36.49500 24.82700
O  44.15200 36.48300 23.69100
C  45.38200 35.40800 25.28100
N  42.04100 41.47600 24.22100
C  42.54600 40.51700 23.41400
C  42.35800 40.75400 21.96900
C  41.47600 42.07300 22.00000
C  41.47900 42.42700 23.47600
C  43.58900 40.80700 21.21000
C  39.95100 41.90600 21.45600
C  39.24200 40.57600 21.87300
N  41.21700 43.38100 26.26100
C  40.82900 44.13800 25.13000
C  40.37400 45.42900 25.57800
C  40.40700 45.33000 26.96400
C  40.93100 44.10100 27.35300
C  39.81000 46.48900 24.68600
C  40.12600 45.99900 28.19800
O  39.71300 47.09900 28.38000
C  40.44300 45.05600 29.39300
C  41.47700 45.71500 30.18500
O  42.60700 45.94100 29.74700
O  40.94500 46.11900 31.39000
C  41.95400 46.60900 32.26800
H  43.81100 38.96900 29.59600
H  43.42700 38.64700 23.16100
H  40.64500 44.22100 23.01000
H  42.36800 43.28800 31.20800
H  42.52000 40.45700 31.50600
H  45.02100 40.97400 30.67400
H  44.33400 40.95800 32.34300
H  44.50600 42.51400 31.37200
H  40.36700 41.11300 32.02600
H  39.54800 42.40400 31.20700
H  39.88100 43.93000 32.87400
H  41.48000 43.32300 33.22700
H  44.03400 35.76300 27.96000
H  44.28100 37.07700 29.19100
H  45.61200 36.59100 28.14500
H  46.36000 35.84200 25.49000
H  45.47100 34.61000 24.54400
H  44.86700 34.78600 26.01300
H  41.78500 39.87200 21.68100
H  42.03400 42.81000 21.42400
H  43.48300 41.69900 20.59300
H  43.69600 39.89700 20.61800
H  44.43300 40.88600 21.89500
H  40.02200 42.06100 20.37900
H  39.29500 42.64900 21.90900
H  39.44400 39.76700 21.17100
H  38.16200 40.71500 21.92900
H  39.49400 40.24200 22.88000
H  39.21500 46.08500 23.86700
H  40.64200 47.11000 24.35300
H  39.13100 47.12100 25.25800
H  39.48500 44.95900 29.90300
H  42.57700 47.34000 31.75300
H  42.38500 45.75800 32.79600
H  41.38500 47.26800 32.92400

