158

Mg 1.56500 -1.78000 43.43600
C  4.75100 -0.55900 42.91700
C  0.28500 1.04700 41.69100
C  -1.51900 -3.27200 43.36000
C  2.97700 -4.83300 44.48700
N  2.44900 0.08400 42.55800
C  3.78100 0.32100 42.41200
C  4.02600 1.65800 41.64100
C  2.57700 2.26300 41.51000
C  1.68000 1.01000 41.85400
C  2.25700 3.46900 42.49300
C  4.80800 1.52800 40.36200
C  5.89300 2.61000 40.11000
H  5.67100 3.51000 38.88200
N  -0.30000 -1.21500 42.65900
C  -0.61000 -0.01300 41.99300
C  -2.00400 -0.02700 41.62600
C  -2.54800 -1.22300 42.10800
C  -1.45000 -1.99800 42.71000
C  -2.78400 0.99700 40.84900
C  -4.05200 -1.50000 41.92400
O  -4.88600 -0.79600 41.37400
C  -4.66100 -2.81300 42.41300
N  0.87800 -3.79400 43.81500
C  -0.47400 -4.05600 43.88500
C  -0.80800 -5.34600 44.62600
C  0.63500 -5.94000 44.86400
C  1.55400 -4.82700 44.31500
C  -1.61200 -5.20900 45.94700
C  0.83300 -7.40000 44.27100
C  0.61100 -8.52100 45.34000
N  3.46600 -2.56300 43.79700
C  3.93200 -3.76700 44.27200
C  5.33500 -3.71700 44.45900
C  5.72900 -2.49400 43.94000
C  4.52900 -1.85000 43.54600
C  6.24500 -4.79600 44.99400
C  6.84900 -1.65000 43.56600
O  8.01800 -1.85000 43.65900
C  6.25100 -0.39600 42.89100
C  6.63300 0.78800 43.70700
O  6.20800 1.01100 44.84100
O  7.61000 1.52600 43.05300
C  8.22800 2.62800 43.70600
H  -0.10800 1.94600 41.21200
H  -2.56800 -3.50500 43.55200
H  3.43600 -5.69600 44.97300
H  4.64700 2.28600 42.28000
H  2.34200 2.67600 40.52900
H  3.20700 3.63500 43.00200
H  1.51100 3.17800 43.23200
H  1.95000 4.33600 41.90600
H  4.06500 1.80400 39.61400
H  5.08500 0.47700 40.27600
H  6.77200 2.00300 39.89200
H  5.99600 3.26300 40.97700
H  -3.17800 0.36900 40.05000
H  -2.18500 1.81900 40.45800
H  -3.63300 1.36900 41.42300
H  -4.12300 -3.66300 41.99300
H  -5.55100 -2.94900 41.79800
H  -4.75600 -2.85700 43.49800
H  -1.38500 -5.90800 43.89100
H  0.79600 -5.95000 45.94200
H  -0.88300 -4.89000 46.69200
H  -2.00600 -6.14400 46.34400
H  -2.38500 -4.44700 45.84100
H  1.78600 -7.70900 43.84300
H  0.02100 -7.56100 43.56200
H  -0.30600 -8.29200 45.88300
H  1.50300 -8.50200 45.96600
H  0.64400 -9.50100 44.86300
H  5.96700 -5.81200 44.71300
H  6.24300 -4.53800 46.05300
H  7.29500 -4.63300 44.74800
H  6.70500 -0.33300 41.90200
H  8.60400 2.00900 44.52000
H  7.45900 3.29900 44.08800
H  8.98900 3.21900 43.19800
Mg 41.55100 9.45800 29.69400
C  43.27300 10.87700 32.39100
C  39.09300 8.53200 31.85900
C  40.07400 8.10100 27.08000
C  44.33900 10.16000 27.65300
N  41.32700 9.61800 31.91900
C  42.08200 10.26400 32.81700
C  41.42600 10.34300 34.14800
C  40.32600 9.25000 34.08200
C  40.21100 9.09400 32.51700
C  40.59300 7.91300 34.87700
C  40.83800 11.73200 34.59000
C  40.21100 11.83900 36.05000
H  40.85800 12.68100 37.20800
N  39.77700 8.46600 29.50100
C  38.81500 8.29400 30.44300
C  37.54000 7.82900 29.87200
C  37.92900 7.51600 28.54100
C  39.25300 8.07900 28.32900
C  36.28200 7.53400 30.68900
C  37.05200 6.95100 27.42600
O  37.40900 6.88800 26.23300
C  35.60900 6.60900 27.71700
N  42.24700 8.92100 27.57700
C  41.39500 8.38800 26.75500
C  41.92500 8.61100 25.28300
C  43.27600 9.30100 25.50500
C  43.25000 9.51300 27.05600
C  42.05500 7.30200 24.42800
C  43.48700 10.67800 24.78600
C  42.65000 11.96700 25.18000
N  43.42500 10.31600 29.93800
C  44.41200 10.56100 28.99600
C  45.55200 11.23500 29.65700
C  45.10100 11.46500 30.95500
C  43.76500 10.86300 31.10300
C  46.80000 11.76000 28.88900
C  45.42300 12.10700 32.24100
O  46.40300 12.79400 32.54500
C  44.23200 11.68900 33.22800
C  44.93300 10.93500 34.37400
O  45.58700 9.93300 34.31800
O  44.70800 11.62100 35.53600
C  45.01600 10.98400 36.76500
H  38.24300 8.43300 32.53700
H  39.55200 7.75400 26.18500
H  45.18600 10.46400 27.03500
H  42.06600 10.01100 34.96500
H  39.36000 9.59000 34.45500
H  40.33100 7.00400 34.33600
H  40.01600 8.02700 35.79400
H  41.62800 7.91800 35.22000
H  40.14200 11.98100 33.78900
H  41.72300 12.36700 34.55000
H  40.16300 10.86100 36.52900
H  39.20900 12.24400 35.90500
H  36.42600 7.81500 31.73300
H  36.19600 6.44800 30.68100
H  35.45800 8.05300 30.20000
H  34.91700 7.39600 28.01800
H  35.64900 5.81500 28.46200
H  35.15200 6.13000 26.85100
H  41.30700 9.42600 24.90800
H  44.18300 8.75000 25.25600
H  42.94900 6.80900 24.81000
H  42.19500 7.61300 23.39300
H  41.20900 6.70300 24.76400
H  43.27200 10.50500 23.73200
H  44.54100 10.91300 24.93200
H  43.45700 12.67500 25.37000
H  42.10700 11.82000 26.11300
H  41.97100 12.33100 24.41000
H  46.86200 11.22900 27.94000
H  47.71700 11.50900 29.42300
H  46.67200 12.83900 28.80400
H  43.89600 12.66700 33.57200
H  45.59100 10.06400 36.65900
H  44.09800 10.69500 37.27600
H  45.53200 11.73700 37.36100

