158

Mg 8.08800 2.53800 27.04500
C  9.33400 1.03400 29.94900
C  6.41800 4.80300 28.95200
C  7.05900 4.12800 24.22500
C  9.76600 0.13300 25.10200
N  7.79500 2.76400 29.24500
C  8.57100 2.23900 30.19100
C  8.32500 2.85700 31.56300
C  7.21600 3.93700 31.23900
C  7.14900 3.83300 29.70900
C  5.94100 3.87400 32.06700
C  9.71500 3.23200 32.24900
C  10.14300 2.53500 33.62000
H  10.84800 3.41200 34.69100
N  6.87200 4.19500 26.65400
C  6.19800 4.92700 27.53400
C  5.39200 5.95500 26.89100
C  5.62400 5.81600 25.49900
C  6.52600 4.65600 25.38200
C  4.46200 6.93700 27.61700
C  4.99800 6.65900 24.32900
O  5.18500 6.45000 23.13700
C  4.18200 7.96200 24.64400
N  8.22900 2.10300 24.93500
C  7.75700 2.95400 23.97600
C  8.18600 2.40000 22.58400
C  9.04800 1.15300 22.85100
C  9.05100 1.11000 24.36700
C  7.18500 2.26900 21.41300
C  10.49400 1.21000 22.19800
C  11.00700 -0.10500 21.55500
N  9.10500 0.82600 27.39400
C  9.80600 -0.05900 26.53900
C  10.60500 -0.98500 27.29300
C  10.43200 -0.60000 28.64600
C  9.52400 0.49000 28.66300
C  11.36600 -2.21800 26.77000
C  10.77800 -0.92400 30.03800
O  11.42500 -1.87700 30.51800
C  10.04400 0.09200 30.89200
C  9.18100 -0.61100 31.86800
O  8.11500 -1.06400 31.65800
O  9.91000 -0.79100 33.08000
C  9.23600 -1.43700 34.21300
H  5.93200 5.52700 29.61000
H  6.78400 4.75200 23.37300
H  10.33900 -0.61800 24.55400
H  7.76100 2.14100 32.16100
H  7.65900 4.91700 31.42000
H  6.11200 3.25100 32.94500
H  5.23900 3.30200 31.46200
H  5.60300 4.89500 32.24600
H  9.78200 4.31800 32.30600
H  10.52400 2.94400 31.57700
H  10.89100 1.74700 33.53100
H  9.25700 2.05400 34.03600
H  4.71400 7.92800 27.24000
H  4.63400 7.01800 28.69000
H  3.38500 6.86500 27.46100
H  3.82800 8.48300 23.75500
H  4.95700 8.53900 25.14900
H  3.35100 7.83000 25.33800
H  8.88500 3.13500 22.18500
H  8.51100 0.29300 22.45000
H  6.19700 1.98700 21.77700
H  7.56000 1.44100 20.81000
H  7.17700 3.14600 20.76600
H  11.27100 1.62400 22.84200
H  10.35400 1.80700 21.29700
H  10.38400 -0.96000 21.81900
H  12.03000 -0.29600 21.88000
H  10.99200 0.06800 20.47900
H  11.55200 -3.00700 27.49800
H  12.37100 -1.92800 26.46300
H  10.76700 -2.63700 25.96100
H  10.86200 0.54900 31.44800
H  8.74600 -0.69100 34.83900
H  9.96000 -1.90400 34.88100
H  8.53200 -2.17600 33.83000
Mg -5.19800 25.14200 26.66300
C  -3.99300 26.43700 29.63100
C  -6.91400 22.77500 28.55300
C  -6.05800 23.72500 23.73300
C  -2.92000 27.25000 24.85700
N  -5.34000 24.65000 28.82900
C  -4.82800 25.35300 29.82500
C  -5.27100 24.84300 31.23300
C  -6.01300 23.46400 30.85000
C  -6.13700 23.64000 29.29900
C  -5.19800 22.18600 31.26500
C  -6.16500 26.02400 31.87400
C  -5.98500 26.19100 33.41500
H  -5.39400 24.98000 34.19500
N  -6.19200 23.51300 26.21600
C  -6.99900 22.74200 27.12900
C  -7.81500 21.80900 26.38600
C  -7.63100 22.13400 25.02300
C  -6.58400 23.17800 24.93500
C  -8.66300 20.75300 27.08200
C  -8.33500 21.44600 23.92400
O  -8.08200 21.77600 22.77200
C  -9.38900 20.33000 24.12800
N  -4.57400 25.45200 24.53900
C  -5.07000 24.71700 23.56900
C  -4.43000 25.07700 22.20600
C  -3.45900 26.21100 22.59400
C  -3.59900 26.32400 24.12300
C  -3.77900 23.89800 21.47600
C  -3.62500 27.51800 21.78200
C  -2.43000 28.00300 20.92400
N  -3.93100 26.63000 27.10000
C  -3.06000 27.40000 26.26200
C  -2.23600 28.22900 27.02900
C  -2.54700 28.02300 28.33500
C  -3.52400 26.91100 28.39800
C  -1.31600 29.26900 26.45600
C  -2.35100 28.41800 29.75300
O  -1.71300 29.36300 30.31900
C  -3.25800 27.33200 30.56400
C  -2.38800 26.50600 31.53300
O  -1.80700 25.47500 31.20600
O  -2.20600 27.03100 32.82200
C  -1.17400 26.27100 33.56300
H  -7.49900 22.05400 29.12800
H  -6.23900 23.20100 22.79100
H  -2.15500 27.77500 24.28000
H  -4.37300 24.63700 31.81500
H  -6.95500 23.48800 31.39900
H  -4.27500 22.53300 31.72900
H  -4.87900 21.60800 30.39700
H  -5.74800 21.56600 31.97400
H  -7.19700 25.73200 31.68100
H  -6.00300 26.95800 31.33700
H  -7.02400 26.33800 33.71200
H  -5.45700 27.12700 33.59800
H  -9.74000 20.86000 26.95500
H  -8.27400 20.56600 28.08300
H  -8.43500 19.83200 26.54600
H  -9.76500 19.99900 23.16000
H  -10.14700 20.75000 24.78800
H  -9.00400 19.44000 24.62600
H  -5.32500 25.30700 21.62800
H  -2.46100 25.79800 22.44400
H  -3.00500 24.24000 20.78900
H  -4.58300 23.39900 20.93600
H  -3.25700 23.23900 22.17000
H  -3.94700 28.35200 22.40500
H  -4.56800 27.40700 21.24700
H  -2.05900 28.91900 21.38500
H  -2.84100 28.12200 19.92100
H  -1.72100 27.17900 21.00600
H  -1.95500 30.11400 26.20200
H  -0.77100 28.94700 25.56900
H  -0.58100 29.54600 27.21200
H  -4.02000 27.89600 31.10200
H  -0.72100 26.96800 34.26800
H  -0.32700 26.02200 32.92400
H  -1.52900 25.37800 34.07800

