158

Mg 47.26200 24.66500 27.62600
C  47.77500 26.90900 30.36000
C  46.25200 22.32900 29.81000
C  46.79300 22.82200 25.04300
C  48.28100 27.41000 25.48400
N  46.89600 24.60300 29.86000
C  47.24100 25.61300 30.73800
C  46.92100 25.24900 32.14000
C  46.53600 23.67800 32.00300
C  46.54300 23.48900 30.51300
C  47.39100 22.68300 32.90900
C  45.79200 26.25800 32.69000
C  45.99000 26.84000 34.11700
H  44.91200 26.78200 35.15700
N  46.60900 22.70700 27.40700
C  46.20700 21.92900 28.37700
C  45.63900 20.72900 27.79600
C  45.81200 20.79600 26.41500
C  46.48300 22.12000 26.22100
C  45.14000 19.57400 28.65300
C  45.37700 19.83600 25.30700
O  45.73100 20.10600 24.15100
C  44.66600 18.48000 25.58900
N  47.73500 25.03300 25.54000
C  47.37500 24.07200 24.72000
C  47.46800 24.52200 23.20900
C  47.75300 26.05900 23.30500
C  48.03100 26.17000 24.82400
C  48.44600 23.64700 22.28600
C  46.57600 26.93400 22.88600
C  45.38800 27.10300 23.78700
N  47.89700 26.68500 27.83800
C  48.33800 27.63700 26.89500
C  48.62000 28.94100 27.57400
C  48.49300 28.59300 28.96800
C  48.03200 27.28700 29.03500
C  49.16500 30.20500 27.01300
C  48.58100 29.17100 30.29100
O  48.91100 30.31200 30.61000
C  48.13900 28.04100 31.23600
C  49.26900 27.72100 32.12300
O  50.18200 27.01000 31.77300
O  49.08000 28.11500 33.45600
C  49.97600 27.42500 34.43100
H  45.83100 21.64500 30.54900
H  46.47500 22.29800 24.14000
H  48.61200 28.26500 24.89100
H  47.85200 25.40600 32.68500
H  45.52900 23.68600 32.42100
H  48.42000 23.00500 33.06600
H  47.44400 21.75100 32.34800
H  46.81900 22.57200 33.83000
H  44.86000 25.70400 32.80100
H  45.76500 27.15800 32.07600
H  46.33600 27.87000 34.20500
H  46.86900 26.40900 34.59500
H  45.64400 18.68200 28.27900
H  44.05700 19.53700 28.54000
H  45.35600 19.51100 29.72000
H  45.32600 17.79800 26.12600
H  44.29700 17.99800 24.68400
H  43.76100 18.64700 26.17300
H  46.48000 24.33200 22.78900
H  48.67300 26.25100 22.75300
H  47.82900 23.26500 21.47300
H  48.86100 22.76700 22.77700
H  49.18800 24.23200 21.74300
H  46.22900 26.42800 21.98500
H  46.90000 27.91100 22.52900
H  45.16500 28.12200 24.10000
H  45.59500 26.45100 24.63600
H  44.53200 26.71500 23.23500
H  49.56400 30.94700 27.70500
H  48.30100 30.69800 26.56800
H  49.80200 29.94900 26.16600
H  47.40900 28.59000 31.83200
H  49.94100 26.36100 34.19700
H  49.60600 27.54200 35.45000
H  51.02000 27.70100 34.27900
Mg 6.19900 56.65300 42.52800
C  4.90800 53.52300 41.73800
C  9.23400 55.69700 41.15300
C  7.09700 59.94300 42.19500
C  2.99600 57.57500 43.56400
N  6.92100 54.91300 41.36700
C  6.25100 53.70000 41.25100
C  7.15200 52.63200 40.68800
C  8.56200 53.28600 40.87900
C  8.24900 54.76500 41.15300
C  9.43200 52.67000 42.04900
C  6.88400 52.11200 39.15000
C  7.11400 50.61700 38.94700
H  6.46500 50.12600 37.77500
N  7.97600 57.67700 41.87600
C  9.08700 57.11900 41.47400
C  10.10700 58.12600 41.30200
C  9.55700 59.33000 41.69500
C  8.17400 59.00400 41.97900
C  11.52500 57.76200 40.96900
C  10.35500 60.62500 41.91300
O  11.48600 60.77000 41.56000
C  9.76300 61.72600 42.74000
N  5.22800 58.47500 42.80000
C  5.78500 59.74100 42.45400
C  4.71400 60.84800 42.57400
C  3.39400 60.05500 42.95000
C  3.85500 58.58400 43.12400
C  4.94200 62.11400 43.41900
C  2.10500 60.19000 41.98900
C  0.74800 60.62100 42.63000
N  4.34700 55.76900 42.81500
C  3.15200 56.23100 43.30500
C  2.20300 55.15600 43.46200
C  2.87500 54.02200 42.91500
C  4.12300 54.49800 42.40500
C  0.80800 55.23900 43.93900
C  2.74700 52.63100 42.61700
O  1.82600 51.81700 42.81300
C  4.11700 52.25100 41.89700
C  3.75100 51.64200 40.65100
O  3.65800 52.19600 39.60800
O  3.50100 50.28100 40.85600
C  3.11100 49.38800 39.73500
H  10.27600 55.42000 40.98200
H  7.37100 60.99500 42.08900
H  2.02700 57.91200 43.93600
H  7.06000 51.73600 41.30200
H  9.08500 53.24800 39.92300
H  8.89600 51.87600 42.57000
H  9.61200 53.50500 42.72600
H  10.34300 52.28800 41.58700
H  7.53200 52.64500 38.45400
H  5.90400 52.52600 38.91400
H  6.78000 50.08700 39.83900
H  8.20300 50.62800 38.90400
H  11.87400 58.57100 40.32800
H  11.64200 56.78600 40.49800
H  12.13600 57.72100 41.87100
H  9.08800 61.29400 43.47800
H  9.20900 62.43000 42.12000
H  10.53100 62.34200 43.20800
H  4.73300 61.24600 41.56000
H  3.14500 60.31500 43.97900
H  5.99800 62.28400 43.62800
H  4.44900 62.02900 44.38800
H  4.64900 63.02700 42.90100
H  2.05300 59.17100 41.60400
H  2.34400 60.96600 41.26200
H  -0.03000 59.85900 42.58600
H  0.33900 61.52300 42.17500
H  1.05600 60.86200 43.64800
H  0.16000 55.57000 43.12700
H  0.80100 56.02000 44.69900
H  0.46800 54.26700 44.29500
H  4.60800 51.49400 42.50900
H  3.02500 49.92000 38.78800
H  2.10800 49.02200 39.95200
H  3.89600 48.63400 39.66800

