158

Mg 26.69500 50.86400 25.92200
C  24.65000 51.94200 28.66200
C  28.92100 49.60200 28.19600
C  28.74700 50.14300 23.43300
C  24.65100 52.67200 23.77600
N  26.67800 50.75200 28.20300
C  25.80500 51.24600 29.11500
C  26.22700 50.91500 30.51300
C  27.66100 50.27800 30.28300
C  27.83200 50.27800 28.78400
C  28.76600 51.10400 31.03100
C  25.23100 50.05300 31.25100
C  24.53900 50.83700 32.48400
H  24.55100 50.12200 33.85200
N  28.54800 49.93700 25.82200
C  29.22300 49.40300 26.85500
C  30.36100 48.64000 26.37200
C  30.39700 48.89300 24.99800
C  29.21900 49.69000 24.65400
C  31.22900 47.77700 27.24700
C  31.32500 48.31200 24.01300
O  31.21100 48.56400 22.85900
C  32.41400 47.35100 24.42400
N  26.70800 51.33400 23.88800
C  27.63200 50.91000 23.05200
C  27.25000 51.20400 21.62100
C  25.78500 51.84700 21.74500
C  25.71500 51.94300 23.20600
C  28.24600 52.14200 20.81400
C  24.58800 51.07800 21.12600
C  23.99300 51.60600 19.84500
N  24.88900 51.95000 26.08400
C  24.25400 52.69900 25.16300
C  23.14100 53.46100 25.79000
C  23.23500 53.13200 27.19200
C  24.24600 52.10500 27.25600
C  22.16700 54.41200 25.05300
C  22.65500 53.43900 28.48800
O  21.70900 54.10800 28.79600
C  23.56900 52.65600 29.48900
C  24.06600 53.70800 30.47300
O  25.07800 54.29800 30.29800
O  23.30300 53.79300 31.60400
C  23.85400 54.62900 32.75000
H  29.54700 49.09600 28.93300
H  29.44500 49.95700 22.61500
H  24.00400 53.23300 23.09900
H  26.32700 51.84700 31.07000
H  27.72200 49.31300 30.78500
H  28.36600 52.07400 31.32600
H  29.61300 51.34500 30.38900
H  29.18300 50.53000 31.85900
H  25.59000 49.05700 31.51000
H  24.42400 49.87500 30.54100
H  23.50000 50.98400 32.19000
H  24.97600 51.81800 32.66900
H  31.32800 46.76500 26.85500
H  30.92000 47.57400 28.27300
H  32.24000 48.18600 27.23400
H  32.92000 47.76900 25.29500
H  33.11300 47.06700 23.63800
H  32.07800 46.36800 24.75200
H  27.13300 50.26200 21.08500
H  25.87300 52.84400 21.31300
H  29.17200 52.16200 21.38800
H  27.89100 53.17100 20.76900
H  28.40300 51.67400 19.84200
H  23.78700 51.03000 21.86400
H  24.77700 50.01500 20.98300
H  22.96700 51.90100 20.06300
H  24.08500 50.94500 18.98300
H  24.46600 52.47900 19.39500
H  22.67500 54.76900 24.15700
H  21.82600 55.14000 25.78900
H  21.31300 53.86800 24.65000
H  23.01000 52.00100 30.15800
H  22.97100 54.68300 33.38700
H  24.07600 55.64500 32.42500
H  24.62500 54.06500 33.27600
Mg -11.25300 39.27400 42.16200
C  -9.21800 36.39100 41.40800
C  -8.90200 41.07200 40.44200
C  -13.45900 41.79000 41.83500
C  -13.86900 37.00300 42.80500
N  -9.33200 38.74000 41.06300
C  -8.71700 37.55200 40.87700
C  -7.40600 37.65300 40.05400
C  -7.15700 39.23200 40.04600
C  -8.53700 39.76800 40.57100
C  -5.90400 39.72300 40.90700
C  -7.45300 36.97600 38.67700
C  -6.36100 35.92900 38.32600
H  -5.65000 36.08200 36.98100
N  -11.09200 41.28200 41.52500
C  -10.04000 41.76700 40.84300
C  -10.30100 43.16100 40.56900
C  -11.63000 43.42800 41.01600
C  -12.12200 42.14100 41.49200
C  -9.31200 44.07100 39.91800
C  -12.36000 44.78800 40.93300
O  -11.76800 45.71100 40.44900
C  -13.68400 45.08700 41.51400
N  -13.35600 39.29600 42.10800
C  -14.03400 40.50300 42.10300
C  -15.55100 40.37400 42.40900
C  -15.66800 38.78700 42.56600
C  -14.19800 38.32400 42.46500
C  -16.12300 41.22400 43.53700
C  -16.73100 38.20100 41.56000
C  -17.70300 37.20600 42.24700
N  -11.47500 37.13400 42.29600
C  -12.64000 36.39400 42.58800
C  -12.29800 35.06200 42.74800
C  -10.92200 34.99600 42.29700
C  -10.53500 36.26800 41.96500
C  -13.09900 34.03800 43.28800
C  -9.69800 34.18500 42.17200
O  -9.49400 32.99300 42.35300
C  -8.56000 35.04000 41.47900
C  -7.31200 35.02500 42.30300
O  -6.49800 34.12900 42.25300
O  -7.21100 36.07800 43.14700
C  -6.13200 36.05300 44.18600
H  -8.18000 41.62700 39.83900
H  -14.25600 42.53500 41.86000
H  -14.72000 36.32600 42.90500
H  -6.62000 37.13900 40.60700
H  -7.02700 39.50000 38.99700
H  -5.91800 39.43700 41.95900
H  -5.86200 40.81200 40.88300
H  -4.97800 39.34200 40.47500
H  -7.18300 37.75900 37.96800
H  -8.48400 36.68500 38.47300
H  -6.69700 34.90600 38.50000
H  -5.61900 36.09800 39.10600
H  -8.62700 43.42400 39.37000
H  -8.85800 44.73400 40.65500
H  -9.79700 44.68200 39.15800
H  -13.60800 44.92500 42.58900
H  -14.39900 44.44300 41.00100
H  -13.89900 46.15300 41.43800
H  -16.09500 40.77900 41.55600
H  -15.85800 38.72100 43.63700
H  -15.34500 41.51000 44.24400
H  -16.85700 40.62500 44.07600
H  -16.61900 42.08300 43.08500
H  -16.29300 37.59800 40.76500
H  -17.33100 38.98800 41.10400
H  -18.67100 37.26900 41.74900
H  -17.80500 37.37500 43.31900
H  -17.33500 36.18100 42.20400
H  -12.48000 33.19100 43.58200
H  -13.86800 33.80300 42.55200
H  -13.56900 34.43000 44.19000
H  -8.34800 34.60500 40.50200
H  -6.49800 35.70100 45.15000
H  -5.85000 37.09700 44.32200
H  -5.20600 35.56700 43.87700

