158

Mg 1.52400 -1.94300 44.16900
C  4.92100 -1.05900 43.70500
C  0.75300 1.06500 42.60500
C  -1.61000 -3.04700 43.94400
C  2.65600 -5.19700 44.98000
N  2.69000 -0.17900 43.27700
C  4.10500 -0.03200 43.23900
C  4.54600 1.26700 42.58900
C  3.15900 2.06100 42.51300
C  2.08000 0.95400 42.84500
C  2.93600 3.33100 43.36200
C  5.18800 0.96500 41.26500
C  6.64100 1.55700 41.11500
H  6.64800 2.54400 39.90800
N  -0.19800 -1.15700 43.34800
C  -0.31700 0.10300 42.73600
C  -1.61400 0.27500 42.17200
C  -2.41600 -0.90000 42.51700
C  -1.44300 -1.78100 43.31600
C  -1.94900 1.35700 41.23500
C  -3.80700 -1.15900 42.10500
O  -4.35500 -0.22800 41.48400
C  -4.49900 -2.46500 42.45300
N  0.71300 -3.84100 44.39200
C  -0.68000 -3.99500 44.42400
C  -1.14700 -5.48400 44.66500
C  0.27000 -6.11700 44.88500
C  1.27000 -4.96400 44.84400
C  -2.06400 -5.72500 45.93200
C  0.46200 -7.26600 43.80200
C  0.01100 -8.69200 44.23800
N  3.43700 -2.96100 44.52400
C  3.75500 -4.25800 44.83200
C  5.17800 -4.39700 44.89400
C  5.62800 -3.14500 44.62900
C  4.55200 -2.32700 44.26300
C  5.80600 -5.70600 45.20700
C  6.81900 -2.44000 44.48000
O  7.98400 -2.79600 44.70300
C  6.40600 -1.01700 43.96300
C  6.78000 0.09600 44.88600
O  6.10600 0.43800 45.78400
O  7.91000 0.76200 44.47900
C  8.37600 2.02100 45.17800
H  0.62200 2.06100 42.17700
H  -2.68100 -3.25100 43.88300
H  3.01200 -6.17500 45.31000
H  5.22200 1.81200 43.24800
H  2.85400 2.37800 41.51500
H  3.97600 3.62700 43.50500
H  2.47900 3.15800 44.33600
H  2.45000 4.18300 42.88700
H  4.57900 1.34000 40.44200
H  5.21300 -0.09200 40.99900
H  7.35100 0.74100 40.98000
H  6.89900 2.04800 42.05400
H  -2.30200 0.95400 40.28600
H  -1.13300 2.00700 40.91800
H  -2.67700 1.98700 41.74600
H  -5.45200 -2.54600 41.93100
H  -4.63900 -2.54900 43.53000
H  -3.92900 -3.28600 42.01700
H  -1.57400 -5.73700 43.69500
H  0.42400 -6.63800 45.83000
H  -3.09100 -5.53500 45.62200
H  -1.64800 -5.04500 46.67500
H  -2.08100 -6.71100 46.39500
H  1.51300 -7.28900 43.51500
H  -0.00900 -6.90000 42.89000
H  -0.71100 -9.07900 43.51900
H  -0.46100 -8.67500 45.22000
H  0.86100 -9.37000 44.31400
H  5.58200 -6.36300 44.36700
H  5.47500 -6.08200 46.17500
H  6.85300 -5.48200 45.41100
H  6.92700 -0.85600 43.01900
H  8.18900 2.94800 44.63700
H  9.45500 2.06300 45.32600
H  7.88400 2.07900 46.14900
Mg 16.80800 53.84200 26.46700
C  18.93600 52.06300 28.71900
C  14.75300 54.48400 29.15200
C  14.75800 55.33300 24.36700
C  18.96900 52.95900 23.89800
N  16.85400 53.33700 28.68200
C  17.83900 52.66000 29.33100
C  17.47900 52.57800 30.79600
C  15.97600 53.03600 30.86600
C  15.79000 53.63900 29.47000
C  14.93900 51.90400 31.22600
C  18.53700 53.49600 31.53800
C  18.83200 53.16500 32.98800
H  17.78000 52.36900 33.78100
N  15.05300 54.92400 26.67900
C  14.38300 55.10700 27.89700
C  13.27400 56.03600 27.67800
C  13.27300 56.35500 26.32700
C  14.42300 55.52200 25.66700
C  12.30800 56.40900 28.70300
C  12.26800 57.12900 25.55000
O  12.27300 57.16700 24.32600
C  11.22500 57.93000 26.24100
N  16.83600 54.05000 24.43800
C  15.82700 54.65400 23.72500
C  16.21700 54.79900 22.25200
C  17.74300 54.58400 22.30000
C  17.88500 53.79700 23.60300
C  15.29300 53.89000 21.39200
C  18.57400 55.91100 22.28800
C  19.91700 55.93000 21.49400
N  18.54700 52.66800 26.26400
C  19.31100 52.42000 25.16400
C  20.49200 51.66200 25.51700
C  20.29900 51.41300 26.88400
C  19.13500 52.11200 27.30400
C  21.66200 51.37000 24.76800
C  20.89900 50.74700 28.04600
O  21.89400 50.06400 28.19800
C  20.00400 51.17000 29.26900
C  19.36700 49.94700 29.92400
O  18.43800 49.23100 29.52100
O  19.98500 49.68800 31.13500
C  19.29800 48.81800 32.02900
H  14.14200 54.77000 30.01100
H  14.03900 55.72200 23.64300
H  19.63000 52.66600 23.08000
H  17.48000 51.55000 31.15800
H  15.91000 53.86700 31.57000
H  14.50200 52.23400 32.16900
H  15.46300 50.98200 31.47900
H  14.24200 51.81100 30.39400
H  18.17200 54.52200 31.48800
H  19.50100 53.66400 31.05800
H  19.06300 54.10200 33.49400
H  19.64700 52.44700 32.89600
H  11.34700 55.89600 28.73900
H  12.16100 57.48500 28.79700
H  12.76700 56.20500 29.67100
H  10.94100 58.74900 25.57900
H  11.63200 58.44900 27.10800
H  10.26300 57.42500 26.33200
H  16.12700 55.86000 22.02000
H  18.16500 53.89900 21.56400
H  14.66700 53.34300 22.09800
H  15.92100 53.20100 20.82800
H  14.69500 54.45100 20.67400
H  18.92600 56.18200 23.28400
H  18.02100 56.77200 21.91400
H  19.95700 56.67800 20.70200
H  20.04800 54.96100 21.01100
H  20.72400 55.97800 22.22500
H  22.54200 51.38800 25.41100
H  21.83900 52.09800 23.97600
H  21.59900 50.39100 24.29100
H  20.63200 51.69000 29.99300
H  19.69500 48.87600 33.04300
H  19.29700 47.81200 31.60800
H  18.23300 49.04100 32.09800

