158

Mg 24.81200 -8.98000 46.28700
C  27.10800 -6.77300 44.74400
C  22.25800 -7.78200 44.33900
C  22.95600 -11.65700 47.19500
C  27.68900 -10.75000 47.46100
N  24.72100 -7.54800 44.62500
C  25.74400 -6.64300 44.34300
C  25.21900 -5.66600 43.28800
C  23.70800 -6.00400 43.23600
C  23.52700 -7.15500 44.13400
C  22.89800 -4.79000 43.86300
C  25.99800 -5.91000 42.01900
C  26.33700 -4.62700 41.18700
H  25.69800 -4.58400 39.71600
N  22.82600 -9.56900 45.83300
C  21.92000 -8.94800 45.04900
C  20.68100 -9.61600 45.11900
C  20.91100 -10.84100 45.83700
C  22.28900 -10.70400 46.41300
C  19.45900 -9.10300 44.39000
C  19.95500 -12.04100 46.02700
O  18.84100 -11.99800 45.48700
C  20.24800 -13.26300 46.82700
N  25.25100 -10.88400 47.13400
C  24.31400 -11.80100 47.58900
C  24.92000 -13.08300 48.23700
C  26.42400 -12.79800 48.09700
C  26.50000 -11.40600 47.46300
C  24.49100 -13.36300 49.71900
C  27.25000 -13.81600 47.28600
C  28.72900 -13.99900 47.85000
N  26.88500 -8.75800 46.34800
C  27.89900 -9.52800 46.88300
C  29.20200 -8.84100 46.69000
C  28.87300 -7.71500 46.00300
C  27.50600 -7.76000 45.70100
C  30.49200 -9.44600 47.19600
C  29.50700 -6.49800 45.49700
O  30.65200 -6.07700 45.52700
C  28.30300 -5.79200 44.62200
C  27.99300 -4.54100 45.38200
O  28.43900 -3.41600 45.07000
O  27.19700 -4.76100 46.54200
C  26.81300 -3.56500 47.33700
H  21.49600 -7.27000 43.74800
H  22.44800 -12.41700 47.79200
H  28.59800 -11.27000 47.76800
H  25.38700 -4.69500 43.75500
H  23.25000 -6.33000 42.30200
H  22.04800 -4.51000 43.24100
H  23.50400 -3.88400 43.91000
H  22.44600 -5.06900 44.81400
H  25.38400 -6.48900 41.32900
H  26.95000 -6.42200 42.16000
H  27.38700 -4.33600 41.17800
H  25.91100 -3.78000 41.72500
H  19.39200 -9.57300 43.40900
H  19.44500 -8.02500 44.22700
H  18.59900 -9.34100 45.01500
H  20.42900 -12.87500 47.83000
H  21.10200 -13.74600 46.35200
H  19.41100 -13.96000 46.80600
H  24.55200 -13.89300 47.60600
H  26.86800 -12.59400 49.07100
H  24.09100 -14.37500 49.78900
H  23.69000 -12.66600 49.96400
H  25.19800 -13.19600 50.53100
H  27.26900 -13.51800 46.23800
H  26.70200 -14.75400 47.37500
H  29.44200 -13.39800 47.28600
H  28.97800 -15.05200 47.71100
H  28.92500 -13.64400 48.86200
H  30.63300 -10.36800 46.63300
H  30.53900 -9.59200 48.27500
H  31.22200 -8.68600 46.91400
H  28.57600 -5.54300 43.59700
H  27.69300 -3.05800 47.73200
H  26.26000 -3.94700 48.19600
H  26.21500 -2.91900 46.69500
Mg 51.91300 24.52000 45.28800
C  49.13200 26.49300 44.59700
C  50.22700 21.77000 44.09800
C  54.94200 22.76000 45.36000
C  53.73300 27.34900 46.35500
N  49.95000 24.16500 44.26400
C  48.95200 25.13100 44.11400
C  47.77000 24.51500 43.32900
C  47.94800 22.99300 43.63100
C  49.45200 22.93200 44.02600
C  47.03000 22.66800 44.74900
C  47.73600 24.93000 41.77900
C  49.14000 25.30200 41.20900
H  49.13200 25.48500 39.66600
N  52.53900 22.53900 44.81100
C  51.62000 21.57000 44.42900
C  52.39900 20.31500 44.37600
C  53.74100 20.59300 44.49100
C  53.81400 22.03100 44.94000
C  51.78400 19.03600 43.93500
C  54.90800 19.64600 44.27100
O  54.62400 18.59600 43.70900
C  56.38300 19.90700 44.54500
N  54.09000 25.01600 45.61700
C  55.05400 24.11600 45.65100
C  56.47200 24.69200 45.97000
C  56.09700 26.20000 46.32800
C  54.53900 26.22800 46.02600
C  57.23000 23.84600 47.13700
C  56.88500 27.20200 45.38900
C  57.65300 28.21600 46.12800
N  51.50300 26.53000 45.53500
C  52.32900 27.56500 45.97700
C  51.44800 28.74000 46.19300
C  50.21200 28.33700 45.63600
C  50.30800 27.01100 45.26700
C  51.88800 30.08200 46.77700
C  48.86900 28.76400 45.32600
O  48.40200 29.91000 45.44600
C  48.11600 27.66800 44.58800
C  47.68000 28.10500 43.29400
O  48.38200 28.31200 42.31200
O  46.32400 28.26100 43.38100
C  45.70000 28.86700 42.22500
H  49.63500 20.86200 43.96200
H  55.85000 22.16900 45.49100
H  54.27100 28.14000 46.88100
H  46.88800 24.94900 43.80000
H  47.73200 22.36500 42.76700
H  47.29600 21.66100 45.07000
H  46.02900 22.71900 44.32000
H  46.92300 23.37300 45.57300
H  46.99100 25.72400 41.71800
H  47.39400 24.10600 41.15300
H  49.76200 24.42200 41.37600
H  49.57600 26.19000 41.66600
H  51.41300 19.01800 42.91100
H  50.92800 18.76800 44.55400
H  52.50600 18.26100 44.19100
H  57.09700 19.20300 44.11700
H  56.55100 20.07100 45.60900
H  56.62200 20.82600 44.01000
H  57.04800 24.57000 45.05200
H  56.34900 26.50300 47.34400
H  56.45300 23.28400 47.65500
H  57.76400 24.56400 47.76000
H  57.91800 23.16800 46.63200
H  56.16200 27.84900 44.89300
H  57.52000 26.70400 44.65600
H  57.26200 29.21400 45.92800
H  58.71600 28.12100 45.91000
H  57.50100 28.14300 47.20500
H  51.06100 30.79100 46.73200
H  52.79500 30.34100 46.23000
H  52.16600 30.07700 47.83100
H  47.25000 27.50000 45.22800
H  44.62400 29.01800 42.31000
H  45.95000 28.36600 41.28900
H  46.06900 29.88200 42.08100

