158

Mg 1.14500 -1.64500 43.11000
C  4.61100 -0.86600 42.67600
C  0.26700 1.02700 41.33700
C  -1.86300 -2.87000 43.14400
C  2.36800 -4.89300 44.48800
N  2.32000 -0.24700 41.94600
C  3.69500 -0.00100 42.03500
C  4.02700 1.28300 41.31900
C  2.64400 1.96900 41.17800
C  1.66000 0.84100 41.49400
C  2.50300 3.27200 42.02400
C  4.77500 1.01100 39.95900
C  6.10200 1.86900 39.81000
H  6.01500 2.76200 38.59000
N  -0.62300 -0.92700 42.32800
C  -0.80500 0.20000 41.63300
C  -2.13700 0.47500 41.45900
C  -2.82700 -0.67800 41.98200
C  -1.80700 -1.62000 42.50900
C  -2.56700 1.77800 40.83400
C  -4.30800 -0.81800 41.96700
O  -5.02600 -0.05900 41.39700
C  -4.94600 -2.02000 42.60100
N  0.36200 -3.72300 43.47900
C  -0.97200 -3.91200 43.56300
C  -1.35500 -5.33300 44.03800
C  -0.00500 -5.88200 44.62800
C  0.99500 -4.79200 44.12200
C  -2.41300 -5.29100 45.18700
C  0.32900 -7.29400 44.11700
C  0.36200 -8.35000 45.26700
N  3.08100 -2.75000 43.53900
C  3.36400 -4.00300 44.07000
C  4.84600 -4.14200 44.22900
C  5.40500 -2.97500 43.64000
C  4.29400 -2.14300 43.24800
C  5.65500 -5.27300 44.78500
C  6.68600 -2.23600 43.24300
O  7.84000 -2.54900 43.41000
C  6.16300 -0.91500 42.53100
C  6.67800 0.32600 43.24200
O  6.43500 0.59900 44.38500
O  7.57200 1.13900 42.53300
C  7.82500 2.41100 43.26200
H  0.07200 1.92700 40.75100
H  -2.87300 -3.27600 43.23600
H  2.78000 -5.80000 44.93800
H  4.70200 1.91600 41.89600
H  2.53800 2.23900 40.12800
H  2.20200 4.13100 41.42300
H  3.49000 3.51400 42.42000
H  1.76700 3.17500 42.82200
H  4.17200 1.37300 39.12600
H  4.95600 -0.06100 39.89100
H  6.95500 1.19100 39.83600
H  6.26800 2.55400 40.64100
H  -3.59600 2.13400 40.87200
H  -2.37200 1.86400 39.76500
H  -2.03700 2.60600 41.30500
H  -4.54400 -2.95300 42.20500
H  -6.01200 -2.04800 42.37600
H  -4.87500 -1.96000 43.68700
H  -1.72700 -5.91600 43.19500
H  0.00300 -5.83500 45.71700
H  -2.58900 -4.27300 45.53300
H  -2.03300 -5.80500 46.07100
H  -3.31100 -5.81300 44.85700
H  1.31100 -7.21500 43.65200
H  -0.48900 -7.64600 43.48900
H  1.08600 -9.14700 45.10400
H  -0.58800 -8.86800 45.40000
H  0.61400 -7.81900 46.18500
H  6.69100 -4.93300 44.78500
H  5.64000 -6.11100 44.08800
H  5.26600 -5.49300 45.77900
H  6.55700 -0.84900 41.51700
H  8.53900 2.20900 44.06100
H  6.98800 2.90900 43.75200
H  8.22300 3.13000 42.54700
Mg 27.04400 49.74900 26.46000
C  25.12600 50.92000 29.00100
C  29.35200 48.59100 28.55000
C  28.96800 49.06800 23.66300
C  24.68900 51.21500 24.22800
N  27.18600 49.70600 28.49600
C  26.26200 50.16000 29.38000
C  26.61900 49.82600 30.84000
C  28.15800 49.32700 30.70600
C  28.23900 49.12600 29.18200
C  29.20200 50.23000 31.31100
C  25.69800 48.71600 31.33700
C  25.85400 48.10700 32.67900
H  26.25800 49.19300 33.75300
N  28.87200 48.97300 26.16300
C  29.70400 48.57700 27.15800
C  30.93000 48.07000 26.66100
C  30.85900 48.18200 25.24700
C  29.55900 48.83000 24.91300
C  32.21300 47.64700 27.50100
C  31.82100 47.67300 24.14400
O  31.68100 47.73500 22.95800
C  33.16300 47.12700 24.47100
N  26.79000 49.91800 24.25900
C  27.70100 49.53100 23.33000
C  27.08900 49.58600 21.87200
C  25.68900 50.21100 22.12700
C  25.68600 50.42200 23.61700
C  28.02200 50.48200 20.91000
C  24.46100 49.34900 21.57400
C  23.28700 50.01400 20.83800
N  25.20900 50.82200 26.55300
C  24.40300 51.40600 25.61200
C  23.21600 52.06400 26.26500
C  23.45300 51.88000 27.61700
C  24.65000 51.15300 27.68800
C  22.00600 52.64900 25.57800
C  23.00400 52.14700 28.98200
O  21.97000 52.70300 29.40000
C  24.10800 51.53700 29.99800
C  24.74600 52.64100 30.77400
O  25.52100 53.50900 30.36600
O  24.30000 52.69900 32.10400
C  24.64700 53.93600 32.85700
H  30.07000 48.12200 29.22500
H  29.57900 48.80400 22.79700
H  24.10700 51.77400 23.49300
H  26.64500 50.80500 31.31700
H  28.15900 48.31400 31.10800
H  29.71700 50.87200 30.59600
H  30.00100 49.70800 31.83700
H  28.69800 50.88400 32.02100
H  25.87300 47.83900 30.71300
H  24.71600 49.17800 31.44200
H  26.59800 47.31400 32.59600
H  24.89300 47.66600 32.94000
H  32.11300 48.12400 28.47600
H  33.11300 48.15300 27.15300
H  32.33600 46.58100 27.69200
H  33.00300 46.30600 25.16900
H  33.71400 48.00300 24.81500
H  33.51700 46.72300 23.52300
H  27.02600 48.58000 21.45800
H  25.55700 51.21600 21.72400
H  28.97300 50.70100 21.39600
H  27.56000 51.44300 20.68100
H  28.26200 49.99100 19.96700
H  24.14200 48.61500 22.31400
H  24.79900 48.62700 20.83200
H  22.35600 50.04600 21.40400
H  23.08500 49.63100 19.83700
H  23.61500 51.03100 20.62400
H  21.89700 52.39600 24.52300
H  22.15900 53.72800 25.55300
H  21.11100 52.45500 26.17000
H  23.61300 50.85900 30.69400
H  24.95900 54.79400 32.26000
H  25.47900 53.58700 33.46800
H  23.96000 54.37500 33.58000

