158

Mg 35.69700 0.92700 29.80100
C  33.29700 1.65800 32.31400
C  38.13500 1.52000 32.19000
C  37.92000 0.42500 27.45500
C  33.07300 1.13100 27.38300
N  35.57600 1.31700 32.04100
C  34.58500 1.45400 32.82500
C  34.99200 1.83600 34.22000
C  36.51400 2.19700 34.00000
C  36.80700 1.65900 32.61900
C  36.97200 3.64700 34.07900
C  34.67400 0.78500 35.26100
C  34.16100 1.40200 36.55100
H  35.03400 2.39000 37.28400
N  37.77300 0.79300 29.85200
C  38.62500 1.07900 30.85600
C  39.97900 1.02900 30.45200
C  39.89700 0.56900 29.09100
C  38.52100 0.61400 28.75800
C  41.11600 1.36800 31.43700
C  41.03400 0.36000 28.05900
O  40.83000 0.02800 26.89500
C  42.38700 0.32200 28.48600
N  35.51700 0.80400 27.80600
C  36.60400 0.49000 27.03900
C  36.19300 0.34700 25.57300
C  34.67700 0.50000 25.62600
C  34.37700 0.78700 27.04900
C  36.97500 1.21000 24.56300
C  33.87100 -0.65400 25.04100
C  33.76100 -1.96600 25.88900
N  33.61600 1.42700 29.78800
C  32.77400 1.45600 28.74800
C  31.49100 1.94200 29.24700
C  31.63200 1.98700 30.66300
C  32.94200 1.63300 30.92900
C  30.30800 2.37600 28.45800
C  30.98600 2.31000 31.86500
O  29.92600 2.85400 32.04100
C  32.05700 2.11800 33.01500
C  32.31300 3.38400 33.73000
O  33.09400 4.26100 33.33500
O  31.64200 3.42300 34.98900
C  31.85900 4.63700 35.83500
H  38.90600 1.86300 32.88200
H  38.51600 0.08700 26.60400
H  32.34700 1.28600 26.58300
H  34.56200 2.79400 34.51200
H  37.14300 1.65800 34.70800
H  36.15900 4.29300 34.41100
H  37.27900 4.05100 33.11400
H  37.77300 3.77000 34.80800
H  35.52000 0.14900 35.52200
H  33.85000 0.14800 34.94000
H  33.99700 0.60400 37.27500
H  33.23000 1.91600 36.31100
H  41.17000 2.45300 31.53200
H  42.10900 1.05100 31.11800
H  40.87900 0.91700 32.40000
H  42.94300 -0.15400 27.67800
H  42.40000 -0.34500 29.34800
H  42.71500 1.32500 28.75800
H  36.37500 -0.68800 25.28400
H  34.40800 1.41700 25.10200
H  36.37900 2.10200 24.36800
H  37.30600 0.71800 23.64800
H  37.92600 1.50000 25.00800
H  34.11100 -0.87500 24.00100
H  32.82200 -0.35800 25.05300
H  34.57200 -1.91400 26.61600
H  33.92700 -2.83700 25.25500
H  32.79600 -2.06200 26.38600
H  30.55500 3.18700 27.77300
H  29.44100 2.62900 29.06800
H  30.05400 1.49600 27.86800
H  31.58400 1.41900 33.70400
H  32.21000 5.47900 35.23900
H  32.64200 4.33700 36.53100
H  30.94000 4.90200 36.35800
Mg -6.23500 24.72100 26.06800
C  -4.49100 26.21800 28.72500
C  -7.41000 22.34700 28.42400
C  -7.68700 23.13800 23.51900
C  -4.54100 26.80600 23.87300
N  -5.92500 24.31800 28.28100
C  -5.32800 25.20500 29.18700
C  -5.69600 24.87700 30.66600
C  -6.19300 23.40800 30.45800
C  -6.56800 23.34700 28.96900
C  -5.23400 22.27400 30.80700
C  -6.80200 25.86700 31.22900
C  -6.34200 26.56600 32.53200
H  -5.61400 25.78300 33.65000
N  -7.35200 22.90600 25.94100
C  -7.69000 22.12100 26.99400
C  -8.42900 20.97900 26.39000
C  -8.56900 21.15900 24.97600
C  -7.91600 22.45600 24.74400
C  -8.95600 19.80900 27.29700
C  -9.29700 20.35600 23.84600
O  -9.36600 20.74000 22.69400
C  -10.21600 19.21600 24.29500
N  -6.17400 24.97900 24.00200
C  -6.99700 24.30800 23.15700
C  -6.92000 24.78600 21.69200
C  -5.81200 25.87600 21.87100
C  -5.53600 25.92500 23.34400
C  -6.69700 23.84000 20.49600
C  -6.09700 27.28900 21.27400
C  -4.97200 27.72900 20.25600
N  -4.73700 26.16500 26.15700
C  -4.10300 26.98300 25.20200
C  -3.17800 27.84000 25.81200
C  -3.21000 27.55500 27.17100
C  -4.17400 26.53200 27.34900
C  -2.34800 28.83900 25.03400
C  -2.74500 27.94000 28.41800
O  -1.81600 28.73600 28.79400
C  -3.58900 27.14700 29.50200
C  -2.52100 26.52300 30.37800
O  -1.74000 25.65000 30.07800
O  -2.60000 27.02800 31.66100
C  -1.68000 26.40000 32.68300
H  -7.64000 21.59600 29.18200
H  -8.12400 22.66400 22.63700
H  -4.16900 27.48000 23.09800
H  -4.83800 24.81800 31.33500
H  -7.05300 23.32200 31.12300
H  -5.87800 21.70800 31.48200
H  -4.43100 22.69700 31.41000
H  -4.96500 21.75800 29.88600
H  -7.75300 25.38100 31.44700
H  -6.87700 26.66200 30.48700
H  -7.22300 27.04900 32.95500
H  -5.74500 27.43700 32.26200
H  -8.82600 18.84300 26.81100
H  -10.01700 20.05900 27.29700
H  -8.57600 19.67600 28.31100
H  -9.47300 18.46800 24.57100
H  -10.70100 18.78600 23.41900
H  -10.98100 19.51200 25.01300
H  -7.87400 25.26800 21.47700
H  -4.95100 25.54800 21.28800
H  -6.31100 22.92200 20.93700
H  -5.98300 24.21000 19.76000
H  -7.64300 23.59400 20.01300
H  -6.16300 28.07800 22.02400
H  -7.03600 27.20700 20.72800
H  -4.83600 28.80400 20.37100
H  -5.48600 27.61400 19.30200
H  -4.03200 27.17700 20.29400
H  -2.29500 29.75000 25.63000
H  -2.78100 29.06300 24.05900
H  -1.36100 28.44700 24.79000
H  -4.20500 27.84800 30.06600
H  -1.87100 25.32800 32.72300
H  -1.84400 26.95200 33.60900
H  -0.65500 26.48700 32.32200

