158

Mg 0.15700 7.97400 26.95600
C  0.79300 9.93700 29.86300
C  0.28000 5.19600 28.86300
C  -0.28600 6.24700 24.13300
C  0.41600 10.95800 25.08300
N  0.50000 7.60100 29.11900
C  0.63800 8.55500 30.15000
C  0.60000 7.89400 31.55300
C  0.52300 6.36700 31.13700
C  0.37100 6.37900 29.62700
C  1.73000 5.51800 31.62200
C  -0.62500 8.34400 32.48200
C  -0.16800 8.90700 33.84500
H  0.77100 8.08700 34.67200
N  0.04300 5.99000 26.55100
C  0.12800 4.98900 27.44700
C  -0.05700 3.77100 26.76800
C  -0.37400 4.03700 25.40700
C  -0.26100 5.46800 25.30000
C  0.24800 2.37800 27.42200
C  -0.76600 3.09000 24.31700
O  -0.91900 3.53100 23.17300
C  -0.93200 1.69100 24.64400
N  0.01500 8.56200 24.92300
C  -0.13100 7.67300 23.93700
C  -0.01300 8.43000 22.50900
C  -0.14500 9.90300 22.89700
C  0.01100 9.80200 24.39400
C  1.24900 8.05800 21.69000
C  -1.53500 10.53500 22.51900
C  -1.75100 10.75800 20.95900
N  0.65000 10.00200 27.34100
C  0.75800 11.10000 26.46100
C  0.99700 12.36900 27.22100
C  1.04200 11.88500 28.57200
C  0.84900 10.48900 28.59800
C  1.15200 13.76300 26.83000
C  1.25200 12.35300 29.95200
O  1.59800 13.41700 30.31900
C  1.03500 11.17200 30.84300
C  2.24600 11.05800 31.64800
O  3.23100 10.35600 31.31000
O  2.19700 11.77700 32.76000
C  3.27600 11.51700 33.75400
H  0.46900 4.27400 29.41900
H  -0.53300 5.70200 23.21900
H  0.52800 11.91000 24.56100
H  1.51800 8.25000 32.01900
H  -0.34900 5.84200 31.52600
H  2.25000 5.03400 30.79500
H  1.44300 4.78800 32.37900
H  2.43900 6.15400 32.15300
H  -1.25100 7.48600 32.72600
H  -1.22000 9.04400 31.89600
H  -0.98700 9.13700 34.52700
H  0.32800 9.87300 33.74600
H  0.93700 1.81500 26.79100
H  -0.64600 1.78700 27.61800
H  0.86600 2.42900 28.31800
H  0.08000 1.28700 24.64900
H  -1.35600 1.25700 23.73900
H  -1.54100 1.57100 25.54000
H  -0.84800 8.08000 21.90300
H  0.67200 10.48800 22.47300
H  0.85200 7.39900 20.91800
H  1.95400 7.55000 22.34800
H  1.69400 8.90800 21.17300
H  -1.68500 11.49000 23.02400
H  -2.21900 9.89100 23.07100
H  -1.16800 10.16500 20.25400
H  -1.56900 11.80600 20.71900
H  -2.79900 10.59400 20.71100
H  0.22800 14.17200 27.23600
H  1.55300 13.74700 25.81600
H  1.80500 14.38200 27.44500
H  0.23400 11.36200 31.55700
H  3.65200 12.48200 34.09500
H  4.05600 10.90700 33.29800
H  2.80600 10.91000 34.52700
Mg 7.12400 53.31500 40.40700
C  6.46900 49.80100 40.15600
C  10.48200 52.65100 39.93000
C  7.57500 56.60200 40.21200
C  3.62800 53.73200 40.65900
N  8.36700 51.40500 40.13500
C  7.84400 50.11800 40.05200
C  8.94800 49.20100 39.65200
C  10.21300 49.98300 40.12500
C  9.68700 51.48900 40.02300
C  10.62900 49.65700 41.58200
C  8.96700 48.82300 38.11700
C  8.38500 49.80800 37.08500
H  7.55700 49.22200 35.91500
N  8.79500 54.46900 40.05900
C  10.09800 54.00000 39.86900
C  10.96100 55.15900 39.48400
C  10.19600 56.33400 39.65200
C  8.78800 55.81100 40.05300
C  12.37100 55.11300 39.10300
C  10.70800 57.76700 39.50800
O  11.90400 58.04500 39.28100
C  9.75500 58.96500 39.68300
N  5.78800 54.91500 40.45000
C  6.23600 56.20900 40.48100
C  5.05800 57.21200 40.62800
C  3.81500 56.24600 40.53600
C  4.45500 54.87600 40.56000
C  5.13300 58.13000 41.86000
C  3.00500 56.44300 39.19800
C  1.51400 56.23800 39.33600
N  5.36000 52.11400 40.49500
C  4.06500 52.37900 40.68900
C  3.27800 51.15200 40.82200
C  4.25900 50.08700 40.62100
C  5.43300 50.71000 40.47700
C  1.78000 51.04700 41.07900
C  4.41400 48.68500 40.56200
O  3.54400 47.85800 40.75000
C  5.85700 48.38200 40.16500
C  5.73300 47.69200 38.89200
O  5.25900 48.12600 37.86100
O  6.05800 46.37300 39.08500
C  5.95700 45.57300 37.82900
H  11.52500 52.40800 39.71900
H  7.70300 57.68300 40.29600
H  2.56700 53.85500 40.88200
H  8.81100 48.23500 40.13800
H  11.01300 49.71400 39.43600
H  10.17800 48.78200 42.05000
H  10.32100 50.45100 42.26200
H  11.71600 49.60100 41.62100
H  8.39000 47.91100 37.96200
H  9.99000 48.58200 37.82800
H  9.14100 50.34000 36.50800
H  7.77300 50.60400 37.51000
H  12.98300 55.68000 39.80500
H  12.58000 55.36000 38.06200
H  12.69500 54.07600 39.18600
H  10.38800 59.82100 39.44900
H  9.42400 59.09300 40.71400
H  8.93700 58.98000 38.96200
H  5.05600 57.85100 39.74500
H  3.24000 56.49500 41.42800
H  5.25300 59.20100 41.69600
H  6.01600 57.75400 42.37600
H  4.29100 57.87200 42.50200
H  3.46100 55.92200 38.35600
H  3.18100 57.48900 38.94800
H  1.10900 55.67600 38.49400
H  0.90300 57.10300 39.59500
H  1.45400 55.59000 40.20900
H  1.27500 51.97600 40.81600
H  1.61000 50.80500 42.12800
H  1.41900 50.25800 40.41900
H  6.28300 47.69400 40.89600
H  6.71000 46.01700 37.17900
H  4.94800 45.57700 37.41600
H  6.34800 44.57000 38.00000

