158

Mg 26.05400 -0.50000 28.93500
C  28.04000 -1.12500 31.87800
C  23.27800 -0.24300 31.07200
C  24.32000 -0.47400 26.25400
C  29.03000 -1.09900 27.05200
N  25.67600 -0.81500 31.22200
C  26.68900 -0.78600 32.16800
C  26.06100 -0.58300 33.57000
C  24.57200 -0.31600 33.31300
C  24.49300 -0.38700 31.77900
C  23.52700 -1.18900 33.98300
C  26.77300 0.62300 34.37200
C  27.37800 0.20700 35.74700
H  27.19400 1.08800 36.94700
N  24.05900 -0.41100 28.71200
C  23.09000 -0.31700 29.66800
C  21.81800 -0.25200 28.96400
C  22.07100 -0.29800 27.54600
C  23.56300 -0.36100 27.45400
C  20.52900 -0.08700 29.71300
C  21.01400 -0.27300 26.38600
O  21.27500 -0.23800 25.19200
C  19.67000 -0.61800 26.79400
N  26.58600 -0.88400 26.99100
C  25.66300 -0.72400 25.97400
C  26.20300 -0.93200 24.53600
C  27.69200 -1.04900 24.79400
C  27.78900 -1.03300 26.35200
C  25.65600 -2.04900 23.59000
C  28.57800 0.05400 24.07400
C  29.79500 -0.48700 23.34200
N  28.17000 -1.00500 29.28400
C  29.24200 -1.17000 28.45900
C  30.43500 -1.42600 29.23200
C  30.01100 -1.47300 30.56200
C  28.60700 -1.23100 30.53500
C  31.77400 -1.61700 28.65300
C  30.44600 -1.64500 31.91900
O  31.57800 -1.99600 32.31000
C  29.21900 -1.37500 32.79100
C  28.95900 -2.52800 33.73500
O  28.19600 -3.46200 33.54000
O  29.74700 -2.31400 34.89900
C  29.42900 -3.27400 35.97000
H  22.40900 0.04800 31.66600
H  23.72500 -0.52300 25.33900
H  29.89800 -1.02300 26.39300
H  26.17700 -1.53600 34.08800
H  24.23900 0.65200 33.68700
H  23.76800 -2.19200 33.62900
H  22.49600 -0.84200 33.91300
H  23.84600 -1.19700 35.02600
H  25.95500 1.34000 34.43900
H  27.48200 1.01600 33.64400
H  28.46100 0.24300 35.62400
H  27.15700 -0.82000 36.03700
H  20.67900 0.17700 30.76000
H  20.14600 -1.10800 29.71800
H  19.92100 0.68500 29.24200
H  19.16500 -1.04800 25.92900
H  19.13900 0.24400 27.19900
H  19.71600 -1.31300 27.63200
H  25.91600 -0.01900 24.01500
H  28.05100 -2.05300 24.56600
H  25.05300 -1.56800 22.82100
H  25.00700 -2.75100 24.11300
H  26.45900 -2.53600 23.03600
H  28.94900 0.74000 24.83600
H  27.93600 0.59200 23.37600
H  29.75300 -1.57600 23.36100
H  30.63800 -0.14400 23.94100
H  29.90200 -0.00500 22.37000
H  32.54000 -1.38500 29.39300
H  31.86700 -0.88900 27.84700
H  31.94100 -2.60100 28.21500
H  29.43100 -0.42900 33.28900
H  28.41600 -3.12700 36.34400
H  30.17500 -3.09300 36.74400
H  29.49400 -4.32200 35.67600
Mg 36.46600 50.09500 25.80000
C  36.28800 48.30700 28.90700
C  35.10800 52.79500 27.52500
C  36.11300 51.72000 22.89700
C  36.99600 47.12300 24.06900
N  35.64000 50.45800 27.93800
C  35.89300 49.63400 29.04700
C  35.68600 50.45300 30.37800
C  35.27100 51.83000 29.86500
C  35.39400 51.67700 28.34300
C  33.94900 52.38800 30.47200
C  36.99400 50.46000 31.29000
C  36.81800 50.33400 32.85400
H  35.38200 50.50300 33.34300
N  35.86700 52.03400 25.22200
C  35.31100 52.95000 26.11100
C  35.01400 54.20300 25.36100
C  35.37100 53.96800 24.00200
C  35.77400 52.53300 23.95100
C  34.24400 55.32200 25.95100
C  35.20600 54.88000 22.70200
O  35.34800 54.45500 21.56300
C  34.94900 56.31800 22.87900
N  36.60400 49.57200 23.79100
C  36.50100 50.42100 22.81400
C  36.60300 49.77800 21.39800
C  36.92800 48.27200 21.74900
C  36.89200 48.29200 23.30200
C  35.28000 49.84500 20.58000
C  38.20400 47.66400 21.09500
C  39.56700 47.72600 21.70100
N  36.78300 48.11300 26.31000
C  36.99100 46.97800 25.54100
C  37.12800 45.80800 26.36600
C  36.85800 46.30900 27.69500
C  36.60600 47.72200 27.64400
C  37.35900 44.34100 25.88500
C  36.85700 45.96200 29.17900
O  36.97100 44.81300 29.63300
C  36.26800 47.17900 29.95000
C  34.74500 46.77100 30.21400
O  33.77200 47.00800 29.45700
O  34.61300 46.04700 31.40300
C  33.17900 45.71400 31.73100
H  34.82300 53.68000 28.09700
H  35.97400 52.10600 21.88500
H  37.11600 46.22900 23.45400
H  34.96800 49.86800 30.95300
H  36.07300 52.55000 30.02800
H  33.12300 52.34300 29.76300
H  34.14100 53.45400 30.59200
H  33.60700 51.85200 31.35800
H  37.56300 51.38900 31.26300
H  37.60700 49.60200 31.01400
H  37.51000 51.05100 33.29600
H  37.22200 49.37300 33.17200
H  34.05200 55.36500 27.02300
H  33.32400 55.43900 25.38000
H  34.94600 56.15400 25.88600
H  35.38500 56.66700 23.81500
H  33.86100 56.38100 22.89100
H  35.36600 56.92100 22.07300
H  37.44600 50.23800 20.88200
H  36.12500 47.63800 21.37400
H  34.39900 49.96600 21.21000
H  35.13000 48.95000 19.97500
H  35.25700 50.73400 19.95100
H  38.36500 47.91200 20.04600
H  37.92900 46.60900 21.08100
H  39.71200 48.58900 22.35100
H  40.34200 47.80500 20.93900
H  39.78800 46.84800 22.30700
H  38.02400 44.27700 25.02400
H  36.64300 43.51900 25.86800
H  38.09700 44.11900 26.65600
H  36.72900 47.40600 30.91200
H  33.29900 44.93200 32.48100
H  32.51800 45.35400 30.94300
H  32.74700 46.54500 32.28900

