158

Mg 7.36100 3.21400 28.17600
C  8.80800 1.77600 31.12500
C  5.38500 5.07000 30.11800
C  6.02600 4.36300 25.33200
C  9.02000 0.75500 26.38000
N  7.08100 3.38500 30.40900
C  7.84000 2.76700 31.38500
C  7.55600 3.40100 32.76800
C  6.41300 4.43000 32.38700
C  6.25000 4.35900 30.91200
C  5.17100 4.28200 33.28500
C  8.84200 4.00200 33.27700
C  8.76200 5.08600 34.40900
H  9.36600 4.81200 35.76200
N  5.90700 4.61600 27.78200
C  5.17000 5.17200 28.72600
C  4.20700 6.03700 28.05100
C  4.47100 5.88900 26.61600
C  5.51400 4.94300 26.51400
C  3.25400 6.89500 28.78700
C  3.82400 6.56000 25.47100
O  4.11100 6.41300 24.31000
C  2.81500 7.70700 25.75700
N  7.35800 2.61400 26.22100
C  6.84800 3.32700 25.15700
C  7.22600 2.84000 23.80800
C  8.07800 1.62100 24.14600
C  8.10200 1.58100 25.71000
C  6.09000 2.67800 22.70500
C  9.56400 1.54900 23.55400
C  10.61200 2.32900 24.30800
N  8.72100 1.62200 28.59500
C  9.33100 0.77000 27.72400
C  10.24900 -0.10200 28.40000
C  10.09100 0.22400 29.79800
C  9.08700 1.32100 29.84500
C  11.12900 -1.14200 27.93700
C  10.48500 -0.07300 31.16300
O  11.35000 -0.79600 31.59100
C  9.72500 0.99400 32.05500
C  9.02900 0.28100 33.15300
O  7.95900 -0.32500 33.01300
O  9.79000 0.23900 34.31400
C  9.29300 -0.49200 35.53700
H  4.74500 5.66600 30.77200
H  5.73100 4.85400 24.40200
H  9.52500 -0.06100 25.85800
H  7.23800 2.66000 33.50100
H  6.71800 5.45300 32.61000
H  4.69500 5.22800 33.54100
H  5.46200 3.80700 34.22200
H  4.44600 3.59000 32.85600
H  9.36700 4.52400 32.47800
H  9.57100 3.30200 33.68600
H  7.69400 5.16800 34.60900
H  9.09400 6.05300 34.03200
H  3.10600 6.59300 29.82400
H  2.26800 6.77800 28.33800
H  3.47700 7.95900 28.70800
H  1.85200 7.20200 25.82700
H  2.91200 8.36700 24.89400
H  3.10100 8.30800 26.62100
H  7.88100 3.65400 23.49700
H  7.57800 0.76700 23.68900
H  5.14100 2.68100 23.24100
H  6.10200 1.70700 22.21000
H  6.17900 3.47800 21.97100
H  9.61600 1.81200 22.49800
H  9.93300 0.52700 23.63800
H  10.21400 3.08600 24.98300
H  11.23300 2.77200 23.52900
H  11.20700 1.68800 24.95900
H  11.70100 -0.81600 27.06900
H  10.53200 -2.04200 27.78900
H  11.83100 -1.33900 28.74800
H  10.40100 1.66600 32.58500
H  10.06900 -1.12500 35.96700
H  8.46200 -1.18700 35.41900
H  9.12400 0.33500 36.22700
Mg 40.22800 9.94900 29.39700
C  41.94200 10.76700 32.15300
C  37.45900 9.09800 31.32000
C  38.64300 8.82200 26.55200
C  42.91900 11.00000 27.33000
N  39.78400 9.95400 31.47000
C  40.63000 10.39800 32.40000
C  40.05400 10.20800 33.86100
C  38.55200 9.70400 33.46700
C  38.60100 9.54200 31.97300
C  38.08000 8.34100 34.19800
C  40.00500 11.36800 34.71800
C  40.82500 11.23000 36.07400
H  41.30400 12.41900 36.85400
N  38.24800 9.11900 28.99400
C  37.30700 8.92500 29.92600
C  36.11600 8.32500 29.23700
C  36.53500 8.13400 27.87500
C  37.89100 8.70000 27.77600
C  34.92300 7.86000 30.03800
C  35.70800 7.54700 26.74100
O  36.18500 7.27600 25.68000
C  34.25900 7.13800 27.01200
N  40.81800 9.72800 27.35900
C  39.91700 9.29200 26.38300
C  40.47300 9.42300 24.96500
C  41.79300 10.33200 25.19800
C  41.79600 10.35100 26.76600
C  40.74600 8.12700 24.15100
C  41.79500 11.71100 24.45900
C  41.30800 12.92100 25.22000
N  42.15300 10.67100 29.71700
C  43.12900 11.05200 28.80100
C  44.28400 11.49100 29.59800
C  43.90500 11.30300 30.96700
C  42.60500 10.78300 30.94200
C  45.58600 12.03300 29.03400
C  44.32200 11.59200 32.33500
O  45.37400 12.11700 32.79200
C  43.05500 11.14400 33.16600
C  43.46900 10.23400 34.24400
O  43.72900 9.06700 34.13400
O  43.79700 11.05000 35.35000
C  44.40900 10.30100 36.43400
H  36.63800 8.89300 32.01000
H  38.17900 8.50300 25.61600
H  43.67400 11.33600 26.61700
H  40.56700 9.35300 34.30200
H  37.77500 10.41700 33.74300
H  39.00000 8.02200 34.68900
H  37.73400 7.61100 33.46600
H  37.21400 8.52300 34.83300
H  38.97300 11.67900 34.88000
H  40.48900 12.21000 34.22300
H  41.60100 10.46600 36.03100
H  40.10500 10.82200 36.78400
H  34.98100 8.47800 30.93500
H  35.06800 6.83000 30.36400
H  33.95200 8.00000 29.56300
H  33.70700 8.07000 27.13300
H  34.03900 6.46900 27.84400
H  33.84700 6.62700 26.14200
H  39.80600 10.14700 24.49700
H  42.74500 9.90700 24.88100
H  40.02200 7.99700 23.34600
H  40.72100 7.31200 24.87400
H  41.74300 8.18700 23.71600
H  41.11600 11.61100 23.61300
H  42.80600 11.92100 24.11100
H  40.88900 12.74700 26.21100
H  40.49500 13.56100 24.87600
H  42.15900 13.60000 25.26100
H  45.36300 12.73300 28.22900
H  46.24900 11.23500 28.69800
H  46.16100 12.53300 29.81300
H  42.66500 11.97700 33.75100
H  45.44100 10.04800 36.19000
H  43.87800 9.36700 36.61500
H  44.31500 10.95800 37.29900

