158

Mg 23.73300 -5.28400 45.86200
C  25.77100 -2.98000 44.36000
C  21.08900 -4.10900 43.99400
C  21.93500 -8.12000 46.61800
C  26.47700 -6.72100 47.54200
N  23.54300 -3.68300 44.25400
C  24.44100 -2.78400 43.92600
C  23.83200 -1.70900 42.92200
C  22.31100 -1.95900 43.27600
C  22.26400 -3.31900 43.88700
C  21.53200 -1.04000 44.30300
C  24.40400 -2.25300 41.49800
C  25.02300 -1.24400 40.46300
H  24.36000 -1.16800 39.13700
N  21.73900 -5.99600 45.39000
C  20.85600 -5.33500 44.52300
C  19.72700 -6.13500 44.36100
C  19.85500 -7.27500 45.29500
C  21.24200 -7.17200 45.77900
C  18.49000 -5.77100 43.49200
C  18.76600 -8.31200 45.62400
O  17.62300 -8.12300 45.18200
C  19.00500 -9.49100 46.53400
N  24.12600 -7.21900 46.97200
C  23.21000 -8.15100 47.07800
C  23.82400 -9.42500 47.76500
C  25.16800 -8.87400 48.40100
C  25.28300 -7.54400 47.55900
C  22.96200 -10.13000 48.80700
C  26.37300 -9.80700 48.23300
C  27.40400 -9.92400 49.36900
N  25.72800 -4.91800 46.05100
C  26.72300 -5.53800 46.77000
C  27.95500 -4.79100 46.62600
C  27.64600 -3.74000 45.69600
C  26.28500 -3.90900 45.33200
C  29.22400 -5.13700 47.21300
C  28.09600 -2.58100 44.95500
O  29.21500 -2.12300 45.00100
C  27.02500 -2.10100 44.04800
C  26.83400 -0.62100 44.27600
O  26.04400 -0.06900 45.07000
O  27.71800 0.11600 43.47500
C  27.56000 1.52500 43.62800
H  20.26800 -3.72700 43.38300
H  21.31900 -9.01400 46.73900
H  27.31700 -7.07000 48.14600
H  24.24300 -0.72900 43.16400
H  21.74900 -1.99300 42.34300
H  20.73500 -0.61200 43.69500
H  22.20500 -0.28300 44.70500
H  21.12300 -1.53400 45.18400
H  23.61100 -2.87600 41.08400
H  25.24500 -2.94400 41.55700
H  26.03800 -1.61500 40.32000
H  24.90600 -0.29000 40.97800
H  18.18400 -6.57900 42.82800
H  18.66700 -4.99500 42.74700
H  17.70800 -5.30200 44.08800
H  18.15100 -10.16900 46.55100
H  19.37200 -9.08800 47.47800
H  19.79600 -10.02200 46.00300
H  24.24400 -10.14200 47.05900
H  25.15600 -8.54800 49.44100
H  23.01900 -9.66500 49.79100
H  23.12300 -11.20100 48.92500
H  21.89600 -10.13600 48.57600
H  26.92400 -9.36700 47.40200
H  26.04700 -10.84600 48.19100
H  27.29000 -10.80400 50.00200
H  27.21200 -9.11100 50.06900
H  28.41700 -9.80600 48.98400
H  29.94700 -5.44900 46.45900
H  29.18200 -5.95200 47.93500
H  29.65300 -4.31700 47.78900
H  27.38200 -2.22100 43.02500
H  27.74800 1.78400 44.67000
H  26.63300 1.92600 43.21900
H  28.38200 1.98800 43.08100
Mg -5.62300 25.30600 26.22300
C  -4.14200 26.88200 29.04100
C  -7.45400 23.48700 28.32300
C  -6.48600 23.55600 23.52100
C  -3.33700 27.20500 24.27300
N  -5.60500 25.11700 28.49700
C  -5.06200 25.97400 29.39200
C  -5.53600 25.53000 30.82700
C  -6.31700 24.23500 30.55300
C  -6.61300 24.35200 29.01900
C  -5.68200 23.01600 31.05300
C  -6.34400 26.61500 31.50800
C  -5.88200 26.99000 32.92600
H  -5.19100 26.05900 33.90400
N  -6.86200 23.77000 25.90400
C  -7.67100 23.20100 26.97500
C  -8.69500 22.47100 26.27600
C  -8.38200 22.36000 24.86000
C  -7.20600 23.26100 24.69800
C  -9.81000 21.83100 27.00700
C  -8.95500 21.52000 23.66200
O  -8.54400 21.57900 22.52500
C  -10.11500 20.60000 23.91100
N  -4.88600 25.30600 24.29700
C  -5.51900 24.56500 23.33700
C  -4.88000 24.66800 21.95900
C  -4.03100 25.98900 22.14200
C  -4.08000 26.25900 23.63700
C  -4.09700 23.44000 21.54200
C  -4.56800 27.13900 21.30600
C  -3.61900 27.59900 20.09700
N  -4.06800 26.72300 26.45600
C  -3.26900 27.45300 25.62900
C  -2.41500 28.41200 26.32700
C  -2.74200 28.19300 27.67700
C  -3.78000 27.20600 27.70000
C  -1.40600 29.31600 25.70700
C  -2.45400 28.65100 29.07100
O  -1.65400 29.47000 29.56100
C  -3.34400 27.72800 30.06900
C  -2.37100 26.83200 30.72100
O  -1.89600 25.72900 30.33900
O  -1.99000 27.43700 31.93500
C  -1.05400 26.74500 32.78000
H  -8.07700 22.97800 29.06200
H  -6.81500 23.04400 22.61300
H  -2.65700 27.78500 23.64600
H  -4.65500 25.37400 31.45100
H  -7.32100 24.21300 30.97500
H  -6.28300 22.58000 31.85100
H  -4.68500 23.18200 31.45900
H  -5.62900 22.20500 30.32700
H  -7.38000 26.29900 31.63800
H  -6.31200 27.44100 30.79700
H  -6.81500 27.34500 33.36400
H  -5.29500 27.90900 32.92100
H  -10.05600 22.46900 27.85600
H  -9.58000 20.77800 27.17000
H  -10.70900 21.89300 26.39500
H  -10.35400 20.15700 22.94400
H  -10.94900 21.23800 24.20300
H  -9.84000 19.89600 24.69600
H  -5.65500 24.80800 21.20600
H  -2.98000 25.80400 21.92500
H  -3.06400 23.52800 21.20500
H  -4.53600 22.99300 20.65000
H  -4.08600 22.64000 22.28200
H  -4.61800 27.99400 21.98000
H  -5.58900 26.88800 21.01900
H  -3.15600 28.53700 20.40300
H  -4.23600 27.65500 19.20000
H  -2.88000 26.80800 19.97100
H  -1.86000 30.20400 25.26800
H  -0.81700 28.71400 25.01500
H  -0.69700 29.63300 26.47300
H  -3.97000 28.31100 30.74500
H  -0.16500 26.35800 32.28400
H  -1.51300 25.85200 33.20300
H  -0.64400 27.39600 33.55200

