158

Mg 45.98600 25.30900 28.26700
C  46.83100 27.36700 30.91100
C  45.04900 22.89700 30.69100
C  45.13400 23.27300 25.76800
C  47.36800 27.56800 26.02800
N  45.94700 25.09800 30.57100
C  46.29000 26.13900 31.44800
C  46.14300 25.74900 32.94300
C  45.78100 24.15000 32.81500
C  45.56600 24.05400 31.27000
C  46.76600 23.27200 33.56000
C  45.15600 26.67500 33.66500
C  45.54300 27.01100 35.09000
H  44.52900 27.27800 36.17400
N  45.11700 23.45400 28.23400
C  44.83100 22.60200 29.29700
C  44.19000 21.42500 28.79400
C  44.26000 21.45000 27.38800
C  44.89800 22.71900 27.04100
C  43.66400 20.31400 29.66600
C  43.91500 20.31600 26.41800
O  44.13700 20.40000 25.19400
C  43.25200 19.03200 26.93600
N  46.14900 25.44700 26.16000
C  45.71200 24.51600 25.33900
C  46.07700 24.85100 23.89300
C  46.54300 26.33600 24.00800
C  46.71700 26.50800 25.51800
C  47.10500 23.93700 23.10500
C  45.48100 27.46100 23.54800
C  46.00100 28.46700 22.49500
N  47.10100 26.94200 28.36300
C  47.59900 27.81200 27.41700
C  48.26200 28.90300 28.10100
C  47.86000 28.77100 29.40900
C  47.21900 27.56900 29.60200
C  49.02200 30.06200 27.58400
C  48.16200 29.40200 30.67400
O  48.75400 30.46200 30.92600
C  47.25000 28.58500 31.69900
C  48.12100 28.43700 32.92200
O  49.06500 27.68500 32.96100
O  47.82400 29.42500 33.89600
C  48.87200 29.67900 34.93600
H  44.75200 22.23200 31.50500
H  44.82600 22.66700 24.91400
H  47.67800 28.37200 25.35800
H  47.08600 25.86700 33.47800
H  44.81800 24.08100 33.32200
H  46.24800 22.67000 34.30600
H  47.59000 23.86800 33.95400
H  47.18000 22.46900 32.95000
H  44.24700 26.08400 33.77800
H  44.88000 27.49800 33.00600
H  46.17600 27.89400 35.00400
H  46.06600 26.14800 35.50200
H  42.57500 20.31400 29.64400
H  43.93400 20.43500 30.71500
H  44.17200 19.39000 29.38900
H  44.01100 18.46500 27.47600
H  42.86800 18.44800 26.10000
H  42.50000 19.43900 27.61100
H  45.12800 24.91100 23.36200
H  47.48100 26.56400 23.50100
H  47.83000 24.50100 22.51700
H  46.59000 23.35000 22.34400
H  47.60100 23.18800 23.72100
H  45.09300 28.07400 24.36000
H  44.59700 26.96600 23.14700
H  47.07300 28.33100 22.35200
H  45.87600 29.52300 22.73600
H  45.61700 28.33400 21.48400
H  49.82600 30.13800 28.31600
H  48.42800 30.94400 27.82300
H  49.32400 30.00000 26.53900
H  46.33600 29.13800 31.91700
H  49.90500 29.47000 34.65900
H  48.60600 28.96500 35.71600
H  48.77700 30.74200 35.15800
Mg 36.50100 49.77900 25.69400
C  36.84300 47.66700 28.33800
C  35.48400 52.36100 27.60200
C  36.11700 51.70200 22.79300
C  37.39500 47.07600 23.51500
N  36.10000 49.96400 27.76200
C  36.52000 49.05200 28.67400
C  36.37700 49.67800 30.07800
C  35.71200 51.08900 29.80000
C  35.76000 51.15600 28.27900
C  34.42000 51.28000 30.60800
C  37.74700 49.67700 30.83000
C  37.76700 49.71900 32.32600
H  36.53100 49.85900 33.27200
N  35.91200 51.76400 25.28700
C  35.60800 52.70200 26.24100
C  35.53000 53.95600 25.63800
C  35.74800 53.80200 24.25800
C  35.96300 52.33400 24.03600
C  35.30900 55.17900 26.51300
C  35.78900 54.92200 23.16000
O  36.06100 54.73800 21.96100
C  35.38700 56.22900 23.47400
N  36.70800 49.43300 23.48300
C  36.47600 50.36000 22.48400
C  36.58700 49.76800 21.07100
C  37.08900 48.27300 21.30700
C  37.00500 48.23800 22.81600
C  35.31300 49.81000 20.21900
C  38.54100 47.98400 20.78600
C  38.81700 46.60100 20.27900
N  37.08300 47.76800 25.84700
C  37.44700 46.76900 24.93800
C  37.66800 45.55400 25.55700
C  37.45300 45.79900 26.95700
C  37.08800 47.17400 27.04300
C  37.86300 44.26300 24.81400
C  37.33400 45.24500 28.29300
O  37.45600 44.08000 28.69300
C  37.09000 46.48400 29.30300
C  35.83500 46.09200 29.98400
O  34.70000 46.10100 29.51200
O  36.07500 45.94900 31.31500
C  34.91500 45.80100 32.22100
H  35.14700 53.17600 28.24700
H  36.09600 52.29200 21.87500
H  37.76100 46.29300 22.84800
H  35.77400 48.96600 30.64100
H  36.36100 51.88600 30.16300
H  34.39000 50.69800 31.52900
H  33.57100 51.29100 29.92500
H  34.46600 52.30300 30.98300
H  38.35200 50.49300 30.43500
H  38.36300 48.81800 30.56400
H  38.53900 50.44600 32.57900
H  38.25100 48.78300 32.60600
H  36.02900 55.96700 26.29400
H  35.55000 55.06300 27.57000
H  34.32300 55.59100 26.29600
H  35.95700 56.50900 24.36000
H  34.32500 56.12900 23.69600
H  35.56800 56.90500 22.63800
H  37.39400 50.24000 20.51100
H  36.43200 47.52000 20.87000
H  34.98800 48.93200 19.66200
H  35.31100 50.73100 19.63600
H  34.46200 50.01800 20.86700
H  39.13000 47.97600 21.70300
H  38.90400 48.68300 20.03300
H  38.96000 46.66500 19.20000
H  38.03900 45.86800 20.49300
H  39.71300 46.33200 20.83900
H  38.17300 44.35100 23.77300
H  36.96400 43.65200 24.73100
H  38.50700 43.66000 25.45400
H  37.91000 46.69000 29.99100
H  35.21900 45.56600 33.24100
H  34.29200 44.97800 31.87100
H  34.43200 46.77800 32.23400

