158

Mg 34.76000 2.71000 30.19000
C  32.79300 3.54400 32.94600
C  37.44800 2.52200 32.33000
C  36.67300 2.20300 27.49400
C  31.94800 2.81800 28.17000
N  35.10100 3.20300 32.33800
C  34.11900 3.38700 33.33300
C  34.65100 3.34100 34.73900
C  36.16400 2.97400 34.52100
C  36.26000 2.84100 32.97000
C  37.19900 4.01800 35.00300
C  33.88500 2.20000 35.53900
C  33.59200 2.44200 37.00200
H  34.48200 3.48000 37.75100
N  36.79600 2.41600 29.94800
C  37.74500 2.31500 30.91200
C  39.10300 2.05500 30.30900
C  38.86000 2.03000 28.89100
C  37.40700 2.18200 28.70700
C  40.26100 1.97200 31.20600
C  39.84800 1.88800 27.74300
O  39.51000 1.78700 26.58300
C  41.33400 1.85100 28.01700
N  34.41600 2.58900 28.10900
C  35.36000 2.34300 27.19000
C  34.83800 2.34900 25.73000
C  33.33400 2.13100 26.08400
C  33.21400 2.55900 27.53900
C  35.22000 3.66900 24.99300
C  32.91500 0.67900 25.88800
C  32.12800 0.23200 24.62700
N  32.68300 3.04800 30.43300
C  31.67700 3.05500 29.54100
C  30.46200 3.51800 30.20400
C  30.86800 3.70600 31.52900
C  32.23500 3.40800 31.62200
C  29.13900 3.71400 29.60400
C  30.34300 4.16400 32.77400
O  29.20000 4.47800 33.09900
C  31.62800 4.11600 33.78600
C  31.90800 5.39100 34.43600
O  32.78300 6.22700 34.17400
O  31.02500 5.46600 35.50000
C  31.39000 6.53600 36.46700
H  38.22700 2.33800 33.07200
H  37.14300 2.27200 26.51100
H  31.08400 2.93600 27.51200
H  34.55600 4.29200 35.26200
H  36.51600 1.99900 34.85800
H  36.82800 4.90500 35.51600
H  37.82800 4.52000 34.26800
H  37.86900 3.58700 35.74600
H  34.48900 1.29300 35.56800
H  32.88900 2.00000 35.14500
H  33.76400 1.51700 37.55300
H  32.54000 2.70300 37.11500
H  41.01900 1.40900 30.66000
H  39.97500 1.54400 32.16700
H  40.88200 2.82500 31.47900
H  41.66900 0.94400 28.52000
H  41.66200 2.73000 28.57200
H  41.97600 1.97000 27.14400
H  35.22900 1.50600 25.16100
H  32.87400 2.80200 25.35900
H  36.26900 3.91100 25.16400
H  34.54300 4.45700 25.32300
H  35.10500 3.64600 23.90900
H  32.36600 0.23900 26.72000
H  33.80500 0.05900 25.77800
H  31.23700 -0.32000 24.92700
H  32.67300 -0.38700 23.91500
H  31.84200 1.12500 24.07200
H  28.83200 4.75900 29.64400
H  28.38700 3.15500 30.16100
H  29.09300 3.45600 28.54600
H  31.21900 3.37300 34.47100
H  30.92900 6.33000 37.43300
H  31.00500 7.47800 36.07800
H  32.47200 6.57400 36.59700
Mg 28.53800 57.40100 41.76600
C  25.87000 55.39900 40.50700
C  30.69600 55.40500 40.08600
C  30.77500 59.71100 42.19000
C  25.96400 59.68200 42.69200
N  28.33100 55.64600 40.53300
C  27.19800 54.96100 40.15400
C  27.50500 53.85200 39.20900
C  29.00300 53.57000 39.45900
C  29.41300 54.95500 40.14500
C  29.43800 52.52400 40.40400
C  27.10300 54.26100 37.72000
C  26.46300 53.25300 36.81300
H  26.91500 53.22300 35.36600
N  30.56700 57.47100 41.32200
C  31.25000 56.55400 40.57400
C  32.69700 56.94100 40.54400
C  32.73900 58.21900 41.17400
C  31.36900 58.52600 41.64500
C  33.73900 56.03200 39.90500
C  34.03200 58.98600 41.36800
O  35.02900 58.56800 40.86400
C  34.05500 60.19500 42.20400
N  28.36100 59.39100 42.28700
C  29.46000 60.12400 42.50300
C  29.16000 61.52900 42.87000
C  27.61400 61.54300 43.00200
C  27.26700 60.08300 42.72600
C  29.80000 62.02700 44.19700
C  26.86200 62.55900 42.13300
C  25.72700 63.33700 42.74800
N  26.34400 57.45600 41.84100
C  25.50000 58.41400 42.27500
C  24.11500 57.96800 42.15600
C  24.21800 56.73900 41.46200
C  25.58500 56.54300 41.28100
C  22.81400 58.60000 42.72400
C  23.48000 55.69600 40.84900
O  22.28800 55.52300 40.70500
C  24.51600 54.74800 40.13800
C  24.37400 53.42500 40.74200
O  24.75500 53.07800 41.83400
O  23.75000 52.53500 39.85700
C  23.62000 51.08600 40.22800
H  31.41500 54.86100 39.47000
H  31.48400 60.54100 42.23400
H  25.14700 60.34200 42.99300
H  27.02300 52.92100 39.50800
H  29.56300 53.35700 38.54900
H  29.83800 52.88000 41.35300
H  30.14400 51.85100 39.91700
H  28.64700 51.81100 40.63500
H  28.04800 54.44700 37.20900
H  26.54200 55.19500 37.67800
H  25.37700 53.28200 36.90100
H  26.53400 52.29700 37.33100
H  33.74800 56.03500 38.81500
H  33.57000 54.97600 40.11600
H  34.72300 56.17300 40.35100
H  33.76500 60.99700 41.52500
H  35.00000 60.58900 42.57700
H  33.40100 59.93300 43.03500
H  29.47300 62.08200 41.98500
H  27.41400 61.70300 44.06100
H  30.68700 62.57300 43.87800
H  30.10600 61.21000 44.85100
H  29.23800 62.78000 44.74900
H  26.60300 62.15900 41.15200
H  27.65100 63.26600 41.87700
H  26.08000 64.36700 42.78900
H  25.41200 63.06800 43.75600
H  24.87700 63.40100 42.06800
H  22.67800 58.33500 43.77200
H  21.92800 58.24800 42.19500
H  22.76100 59.68300 42.61500
H  24.45000 54.78200 39.05100
H  24.39400 50.59200 40.81600
H  23.57200 50.50700 39.30600
H  22.70900 51.11100 40.82800

