158

Mg 24.83000 -6.90300 47.85600
C  27.41900 -5.01900 46.41200
C  22.79400 -5.85800 45.26700
C  22.74300 -9.56200 48.50600
C  27.34100 -8.50500 49.92200
N  25.13900 -5.61500 46.00000
C  26.25200 -4.88200 45.71300
C  25.95500 -3.86800 44.60100
C  24.37800 -3.97900 44.40600
C  24.04500 -5.15200 45.30900
C  23.53400 -2.71800 44.74800
C  26.73700 -3.95200 43.23900
C  26.96200 -2.67500 42.42200
H  25.93800 -2.27300 41.39000
N  22.95600 -7.51300 47.16000
C  22.32100 -6.97800 45.98200
C  21.03500 -7.55300 45.83900
C  21.04700 -8.69500 46.78200
C  22.26200 -8.67300 47.54100
C  19.88700 -7.14200 44.90600
C  19.87300 -9.69800 46.89500
O  19.00700 -9.67300 46.01000
C  19.70300 -10.71300 47.88400
N  24.97400 -8.59200 49.22300
C  23.92700 -9.52100 49.31000
C  24.39200 -10.76600 50.10500
C  25.73100 -10.37000 50.66600
C  26.11600 -9.15300 49.82700
C  23.34700 -11.21000 51.11500
C  26.82100 -11.51800 50.56900
C  26.32200 -12.97900 50.63000
N  26.92200 -6.70000 48.27500
C  27.75200 -7.34700 49.19500
C  29.09400 -6.81400 49.05100
C  28.98000 -5.77200 48.02900
C  27.70400 -5.89000 47.49300
C  30.19800 -7.16000 49.92100
C  29.70700 -4.77100 47.29900
O  30.84000 -4.41800 47.47000
C  28.75900 -4.23200 46.23900
C  28.72200 -2.78500 46.23700
O  29.46100 -2.06100 45.55600
O  27.91400 -2.23700 47.16900
C  27.84400 -0.79000 47.12800
H  22.03400 -5.45900 44.59300
H  22.11100 -10.44000 48.65500
H  28.19300 -8.90700 50.47500
H  26.11700 -2.88300 45.03700
H  24.16900 -4.35800 43.40600
H  22.86700 -2.88400 45.59300
H  22.85300 -2.34000 43.98500
H  24.17100 -1.87900 45.03100
H  26.18800 -4.56300 42.52300
H  27.67800 -4.39000 43.57200
H  27.99100 -2.75400 42.07000
H  26.84200 -1.78400 43.03800
H  19.13600 -6.51400 45.38500
H  19.40300 -7.97600 44.39900
H  20.24800 -6.49300 44.10800
H  18.68100 -11.04100 48.07600
H  19.92400 -10.36800 48.89400
H  20.38000 -11.56000 47.77300
H  24.52700 -11.56500 49.37600
H  25.75800 -9.93500 51.66500
H  23.67100 -11.21000 52.15600
H  23.05100 -12.22400 50.84700
H  22.39400 -10.68300 51.15000
H  27.72200 -11.39100 51.16800
H  27.10100 -11.48100 49.51600
H  25.54600 -13.14700 51.37700
H  27.18900 -13.56600 50.93500
H  26.03600 -13.24000 49.61100
H  30.31400 -8.23100 50.08700
H  30.01200 -6.73600 50.90700
H  31.07100 -6.75100 49.41200
H  29.23900 -4.51700 45.30200
H  28.87300 -0.43000 47.14900
H  27.16000 -0.42000 47.89100
H  27.45500 -0.37500 46.19800
Mg 47.81000 34.82000 26.75500
C  45.99700 33.66300 29.42400
C  48.74400 37.57300 28.59400
C  48.96700 36.23800 23.87700
C  46.53800 32.12700 24.83600
N  47.55600 35.46800 28.87600
C  46.71000 34.84600 29.75000
C  46.80800 35.51800 31.14500
C  47.37400 36.97500 30.72900
C  47.89300 36.73500 29.25100
C  46.38500 38.05700 30.67400
C  47.77500 34.79000 32.09900
C  47.52700 34.96000 33.63500
H  46.68400 36.12900 34.11400
N  48.82300 36.67000 26.37700
C  49.21600 37.58300 27.28000
C  49.99900 38.58200 26.60600
C  50.11900 38.25600 25.20000
C  49.27100 37.01600 25.11700
C  50.50400 39.84900 27.32900
C  50.87400 38.89200 23.99400
O  50.93900 38.50800 22.82000
C  51.56900 40.20300 24.33500
N  47.71200 34.35800 24.67000
C  48.34200 35.03200 23.66700
C  48.23800 34.38100 22.26000
C  47.56300 33.00400 22.61900
C  47.26500 33.09900 24.18000
C  47.32700 35.14600 21.29200
C  48.36400 31.71700 22.20800
C  49.39600 31.19800 23.24800
N  46.58100 33.09800 27.02700
C  46.27600 32.07900 26.22800
C  45.58600 31.09500 27.05800
C  45.35300 31.76000 28.30100
C  46.02400 32.90800 28.21200
C  45.09700 29.80900 26.59300
C  44.72400 31.66600 29.51800
O  44.03200 30.78300 29.94400
C  44.90700 33.00100 30.29000
C  45.16200 32.65200 31.72700
O  46.05500 31.88100 32.11200
O  44.20600 33.07900 32.56200
C  44.30200 32.78200 34.00200
H  49.04000 38.41000 29.23000
H  49.33000 36.55800 22.89800
H  46.41600 31.25200 24.19400
H  45.80700 35.49900 31.57700
H  48.15600 37.36400 31.38100
H  45.70400 38.14600 31.52000
H  45.85400 38.16600 29.72900
H  46.95200 38.98400 30.58200
H  48.82400 35.02500 31.91900
H  47.70500 33.72200 31.89100
H  48.44300 35.05400 34.22000
H  47.09400 34.09000 34.12800
H  51.59400 39.87700 27.31500
H  50.02600 39.92400 28.30600
H  50.06600 40.64300 26.72400
H  52.49600 40.00300 24.87200
H  50.98400 40.97700 24.83400
H  51.83900 40.77800 23.45000
H  49.19800 34.34400 21.74500
H  46.61100 32.91300 22.09600
H  46.27000 34.99300 21.51100
H  47.45700 34.67800 20.31600
H  47.54900 36.21200 21.34100
H  48.82900 31.92600 21.24400
H  47.69900 30.86300 22.07700
H  49.19800 30.18400 23.59400
H  49.66200 31.81100 24.10900
H  50.36700 31.10700 22.76100
H  45.98600 29.25500 26.29400
H  44.49900 29.89200 25.68600
H  44.59600 29.21100 27.35400
H  43.99000 33.58900 30.26700
H  43.33100 32.61600 34.46700
H  44.67200 33.66100 34.52900
H  44.97800 31.93400 34.12000

