158

Mg 41.10900 8.24400 30.07200
C  42.70600 9.56500 32.88300
C  39.06400 6.60100 32.39200
C  39.92500 6.49100 27.47100
C  43.70000 9.50300 28.10800
N  40.91200 8.11800 32.41400
C  41.56300 8.89600 33.26600
C  40.98700 8.85300 34.74300
C  39.81400 7.82400 34.55500
C  39.88600 7.57400 32.98700
C  39.92900 6.58500 35.49400
C  40.57800 10.26000 35.19600
C  41.29200 10.56100 36.60800
H  40.46500 11.21600 37.66100
N  39.75000 6.87100 29.95900
C  38.94500 6.35300 30.99000
C  37.91500 5.46900 30.41800
C  38.09500 5.52500 28.99400
C  39.27900 6.33900 28.78200
C  36.82300 4.73200 31.21400
C  37.31000 4.87500 27.87600
O  37.61000 4.83500 26.72200
C  36.04100 4.16000 28.22700
N  41.73200 8.16500 27.97200
C  41.03800 7.33300 27.12100
C  41.66400 7.44200 25.75400
C  42.84600 8.43300 25.93200
C  42.81100 8.68100 27.40000
C  42.00500 6.00100 25.22600
C  42.98000 9.67100 25.02300
C  42.04300 10.92600 25.37600
N  42.88300 9.21700 30.34400
C  43.76700 9.76100 29.44900
C  44.77200 10.42600 30.16000
C  44.35000 10.45000 31.42200
C  43.24000 9.66200 31.53400
C  46.03000 11.01600 29.61200
C  44.73500 10.83800 32.72100
O  45.66200 11.50200 33.10400
C  43.70300 10.25700 33.69300
C  44.37200 9.22900 34.58600
O  44.64500 8.05300 34.37000
O  44.75200 9.88900 35.71200
C  45.12600 9.01700 36.79800
H  38.27600 6.19200 33.02800
H  39.49900 5.95000 26.62400
H  44.40000 9.99000 27.42600
H  41.83600 8.48100 35.31500
H  38.92000 8.38700 34.82000
H  40.06200 5.71100 34.85600
H  38.95900 6.42200 35.96300
H  40.66800 6.67700 36.29000
H  39.52300 10.34300 35.45600
H  40.83100 11.02200 34.46000
H  42.03000 11.32800 36.37300
H  41.77300 9.66700 37.00400
H  35.81900 5.13800 31.08800
H  37.07800 4.80300 32.27200
H  36.91400 3.67400 30.96900
H  35.34800 4.71600 28.85900
H  36.37700 3.22500 28.67500
H  35.56900 3.96000 27.26500
H  40.97800 7.94000 25.07000
H  43.79300 7.91200 25.79000
H  41.35800 5.85600 24.36100
H  41.78600 5.22200 25.95600
H  43.05900 5.94700 24.95500
H  42.72300 9.44200 23.98900
H  44.00500 10.04000 24.99300
H  41.41300 10.58700 26.19800
H  41.38200 11.15900 24.54100
H  42.53900 11.85900 25.64100
H  45.94200 11.98900 29.12800
H  46.38200 10.32900 28.84200
H  46.78300 10.95700 30.39800
H  43.27400 11.08800 34.25300
H  45.40200 9.48200 37.74500
H  45.95200 8.38800 36.46600
H  44.25200 8.38800 36.96900
Mg 54.29800 24.31100 44.68800
C  51.58600 26.31500 43.75100
C  52.34000 21.61100 43.61900
C  56.97600 22.39200 44.96900
C  56.03900 27.17700 45.53300
N  52.34100 24.03400 43.57100
C  51.41700 25.00000 43.29300
C  50.18500 24.43000 42.51000
C  50.21400 23.04400 43.24400
C  51.73900 22.86300 43.48600
C  49.28300 22.90100 44.51700
C  50.54900 24.36400 40.97000
C  49.42800 24.34600 39.94600
H  49.74000 24.94100 38.52400
N  54.60600 22.33000 44.26100
C  53.71400 21.38500 43.87300
C  54.36800 20.15900 43.90500
C  55.69100 20.22700 44.43900
C  55.84100 21.67000 44.54900
C  53.80400 18.92800 43.39700
C  56.80300 19.08700 44.64900
O  56.59200 17.97800 44.18200
C  57.95000 19.40900 45.44800
N  56.28100 24.77900 45.02400
C  57.17900 23.81200 45.28000
C  58.50600 24.37100 45.81700
C  58.09300 25.88700 46.13300
C  56.68900 25.97600 45.50500
C  59.05000 23.60000 46.95600
C  59.20600 26.95000 45.75800
C  59.02100 27.71300 44.43900
N  53.88500 26.30100 44.79500
C  54.67400 27.36500 45.21100
C  53.93400 28.61400 45.15000
C  52.71100 28.20800 44.62400
C  52.72200 26.82700 44.39100
C  54.34800 30.01500 45.54500
C  51.40000 28.73200 44.02800
O  50.94700 29.85200 43.88400
C  50.58600 27.45700 43.62700
C  50.05200 27.68700 42.24600
O  50.62700 27.66900 41.23100
O  48.71900 27.89100 42.43000
C  47.98700 28.00600 41.18200
H  51.62500 20.79600 43.48600
H  57.90300 21.92200 45.30200
H  56.64700 28.01300 45.88500
H  49.28700 24.99900 42.75200
H  49.89200 22.38500 42.43700
H  48.50200 22.15400 44.37900
H  48.76800 23.85900 44.59300
H  49.65800 22.71000 45.52200
H  51.08400 23.42800 40.81100
H  51.31200 25.07900 40.66200
H  48.70800 25.06100 40.34500
H  48.96900 23.35700 39.93400
H  54.42400 18.37800 42.68900
H  52.88400 18.99500 42.81500
H  53.50200 18.29100 44.22900
H  57.71700 19.98600 46.34300
H  58.74100 19.88000 44.86400
H  58.47300 18.49100 45.71500
H  59.26300 24.42500 45.03400
H  57.99800 26.01500 47.21200
H  58.38700 22.79000 47.25900
H  59.42300 24.26600 47.73300
H  59.90500 23.04500 46.57000
H  60.21100 26.52700 45.78100
H  59.15500 27.65900 46.58300
H  58.04500 27.46900 44.01900
H  59.83100 27.61600 43.71700
H  58.92900 28.79400 44.54300
H  54.92500 30.43700 44.72300
H  55.04100 29.92900 46.38200
H  53.43000 30.53300 45.82300
H  49.76300 27.27300 44.31800
H  48.59700 28.65500 40.55500
H  47.01000 28.46100 41.34400
H  47.87300 27.06100 40.65100

