158

Mg 46.14700 24.94400 29.24800
C  46.72000 27.37200 31.66700
C  45.49600 22.70600 31.65400
C  45.93700 22.77700 26.77500
C  47.41400 27.43600 26.76200
N  46.10700 25.01800 31.31000
C  46.34000 26.11900 32.14000
C  46.01200 25.90600 33.57200
C  45.69200 24.37300 33.55000
C  45.76800 23.99100 32.04600
C  46.54400 23.50900 34.49800
C  44.99500 26.78100 34.28700
C  45.32200 27.36100 35.66400
H  44.20000 27.21600 36.76900
N  45.78600 22.98900 29.27200
C  45.38400 22.23300 30.32300
C  45.12900 20.89100 29.86100
C  45.25100 20.93700 28.40700
C  45.63700 22.30400 28.07600
C  44.73800 19.79000 30.82300
C  45.07400 19.79200 27.42500
O  45.16500 20.00200 26.18600
C  44.74600 18.33600 27.88500
N  46.70600 25.03300 27.00600
C  46.46100 23.97600 26.23100
C  46.95600 24.30200 24.76900
C  46.93600 25.87100 24.82200
C  47.07700 26.16300 26.27000
C  48.47300 23.78900 24.64100
C  45.57600 26.50000 24.22800
C  44.63000 27.35100 25.10800
N  46.92200 26.98000 29.13800
C  47.25400 27.87800 28.11100
C  47.68300 29.11000 28.74100
C  47.54400 29.00600 30.10700
C  47.02600 27.66100 30.32700
C  48.22500 30.26400 27.99900
C  47.64200 29.65900 31.40100
O  47.98400 30.80300 31.58800
C  47.14600 28.58500 32.47300
C  48.37500 28.30300 33.34300
O  49.21000 27.48500 33.05100
O  48.25600 28.99900 34.49600
C  49.28800 28.68200 35.49700
H  45.19900 22.04700 32.47300
H  45.84200 22.08800 25.93200
H  47.69200 28.08000 25.92500
H  46.86000 26.05600 34.24000
H  44.67200 24.17300 33.88000
H  46.68800 22.59600 33.92100
H  46.01800 23.34000 35.43800
H  47.48600 23.99400 34.75500
H  44.06000 26.24700 34.45700
H  44.76600 27.60700 33.61400
H  45.35600 28.42100 35.41500
H  46.27300 27.01300 36.06800
H  43.69800 19.53000 30.62400
H  44.92000 20.00300 31.87600
H  45.42100 18.98600 30.54900
H  44.70600 17.67500 27.01900
H  43.82300 18.32500 28.46500
H  45.49900 17.96600 28.58100
H  46.21100 23.88100 24.09300
H  47.82000 26.38400 24.44500
H  48.98700 24.33600 23.85200
H  48.38900 22.75700 24.29800
H  49.03400 23.77500 25.57500
H  45.03400 25.76200 23.63600
H  45.93700 27.17600 23.45300
H  43.58200 27.26100 24.82200
H  44.81000 28.42400 25.04400
H  44.64200 27.08200 26.16500
H  47.66300 31.17600 28.20200
H  48.12800 30.15500 26.91900
H  49.27600 30.44300 28.22400
H  46.36000 29.04100 33.07500
H  48.95000 27.82200 36.07500
H  49.32300 29.51200 36.20300
H  50.23800 28.46400 35.01000
Mg 46.50300 35.44100 28.69400
C  44.55300 33.62100 30.96700
C  46.56200 38.15100 30.82000
C  47.63100 37.37000 26.05000
C  45.84500 32.91400 26.30600
N  45.65300 35.77600 30.55700
C  45.12400 34.79800 31.38700
C  45.45200 35.20800 32.81900
C  45.57700 36.74700 32.67900
C  45.98400 36.95400 31.25200
C  44.34500 37.45300 33.18800
C  46.75300 34.49700 33.31600
C  47.11500 34.79500 34.78200
H  46.08300 35.39300 35.72600
N  47.13300 37.41400 28.52500
C  47.13400 38.30100 29.54200
C  47.81200 39.50900 29.01700
C  48.22700 39.28800 27.66900
C  47.65300 37.95200 27.31900
C  47.99500 40.73000 30.01000
C  49.05700 40.16400 26.65300
O  49.39400 39.72200 25.54100
C  49.45500 41.53900 27.06500
N  46.66200 35.26800 26.46600
C  47.16000 36.20000 25.67900
C  47.28600 35.75900 24.23900
C  46.43900 34.44100 24.25400
C  46.31400 34.09100 25.70500
C  46.82700 36.69800 23.09400
C  47.25300 33.19600 23.67600
C  46.35300 32.18600 22.94700
N  45.61000 33.61000 28.63700
C  45.49800 32.65500 27.68400
C  44.74900 31.53800 28.11000
C  44.36500 31.91000 29.42400
C  44.86300 33.17100 29.64600
C  44.65000 30.26900 27.40500
C  43.65800 31.38700 30.57500
O  43.12800 30.30400 30.82000
C  43.65600 32.55200 31.58500
C  44.10600 31.94200 32.93000
O  44.99900 31.16500 33.07400
O  43.29500 32.40900 33.96500
C  43.77100 31.97800 35.29400
H  46.59100 38.96600 31.54700
H  48.19600 37.85600 25.25100
H  45.69700 32.13500 25.55500
H  44.62100 34.86900 33.43700
H  46.41800 37.07500 33.28900
H  44.62600 38.39200 33.66500
H  43.85000 36.75400 33.86200
H  43.62900 37.74800 32.42100
H  47.63700 34.85900 32.79000
H  46.73600 33.42600 33.11200
H  48.05400 35.34200 34.86000
H  47.20400 33.77700 35.16400
H  47.03700 40.94900 30.48200
H  48.47000 41.62100 29.59800
H  48.61800 40.42700 30.85100
H  50.16500 41.57600 27.89100
H  48.62800 42.19900 27.32900
H  49.93900 41.99800 26.20300
H  48.33900 35.52700 24.07700
H  45.42800 34.51000 23.85400
H  47.65100 37.32700 22.75600
H  46.13500 37.45500 23.46600
H  46.47200 36.22500 22.17800
H  47.86100 32.70600 24.43700
H  48.01100 33.59300 23.00100
H  46.53000 31.21400 23.40900
H  46.38600 32.14600 21.85800
H  45.28600 32.36900 23.07900
H  44.68800 29.40000 28.06200
H  45.50000 30.11800 26.73900
H  43.77100 30.33400 26.76400
H  42.66500 32.98100 31.73700
H  43.28700 31.04100 35.56900
H  43.43500 32.61800 36.11100
H  44.84600 31.80100 35.31900

