158

Mg 8.89000 3.76100 26.57100
C  10.22300 2.08600 29.42900
C  6.98300 5.60700 28.63800
C  7.81400 5.37100 23.92700
C  10.45600 1.35000 24.56800
N  8.46100 3.63400 28.81700
C  9.30100 3.04700 29.70800
C  8.96700 3.51600 31.15400
C  7.79200 4.58900 30.88700
C  7.71500 4.61700 29.35300
C  6.46900 4.31700 31.72100
C  10.16400 4.14400 31.91500
C  9.82700 5.04300 33.10600
H  10.73000 4.97800 34.31400
N  7.53200 5.33100 26.36800
C  6.90400 6.05500 27.28900
C  6.13100 7.12800 26.58200
C  6.28600 6.99400 25.17300
C  7.25400 5.91400 25.08700
C  5.22500 8.03200 27.41400
C  5.70600 7.79100 23.95700
O  5.94500 7.45700 22.75900
C  4.66600 8.86600 24.26100
N  9.04300 3.26700 24.56000
C  8.47600 4.15200 23.66200
C  8.86300 3.79000 22.22700
C  9.78200 2.55100 22.41400
C  9.75100 2.35900 23.92100
C  7.67300 3.66000 21.27200
C  11.20900 2.82500 21.87700
C  11.74100 1.67400 20.97800
N  10.14000 2.07000 26.85500
C  10.72300 1.16000 25.90300
C  11.54800 0.22900 26.61100
C  11.40400 0.59000 27.98900
C  10.45600 1.56000 28.09800
C  12.46500 -0.74500 25.99500
C  11.83100 0.25000 29.31300
O  12.61500 -0.66200 29.66200
C  11.12900 1.28700 30.31900
C  10.50500 0.52800 31.45600
O  9.54700 -0.20800 31.38400
O  11.16900 0.90800 32.57000
C  10.52400 0.55300 33.86600
H  6.28600 6.14800 29.28200
H  7.67800 5.99500 23.04100
H  10.94500 0.66500 23.87200
H  8.58700 2.67400 31.73300
H  7.94100 5.65000 31.08700
H  5.54400 4.21500 31.15300
H  6.39400 5.13800 32.43400
H  6.61800 3.36500 32.23000
H  10.85000 4.64300 31.23000
H  10.72200 3.24400 32.17400
H  8.83800 4.80800 33.49900
H  9.77300 6.10300 32.85500
H  5.38400 7.99600 28.49200
H  4.22300 7.75000 27.09100
H  5.51200 9.03900 27.11000
H  4.15700 9.35400 23.42900
H  5.27400 9.63600 24.73700
H  3.90100 8.58600 24.98500
H  9.48400 4.59100 21.82700
H  9.32200 1.74700 21.84000
H  7.67200 4.14800 20.29700
H  6.88300 4.20600 21.78800
H  7.28000 2.64700 21.19400
H  11.85500 2.88400 22.75300
H  11.35100 3.78400 21.37900
H  12.56800 1.16300 21.47100
H  12.23600 2.13400 20.12300
H  11.02800 0.91300 20.66000
H  12.91500 -1.31500 26.80800
H  13.25500 -0.25400 25.42800
H  11.92800 -1.30600 25.23000
H  12.02500 1.83200 30.61500
H  9.95600 -0.37700 33.89900
H  9.89000 1.39100 34.15900
H  11.24300 0.54400 34.68500
Mg -11.19800 16.90400 41.64400
C  -7.77100 16.09000 41.45200
C  -10.39900 20.15800 40.88300
C  -14.38900 17.53700 41.64200
C  -11.79900 13.42600 42.20100
N  -9.24900 18.03500 41.37800
C  -8.02700 17.47900 41.27000
C  -7.00400 18.56300 40.82800
C  -7.89100 19.87200 40.71200
C  -9.27300 19.35600 40.99300
C  -7.45400 21.16100 41.53600
C  -6.39300 18.21200 39.47900
C  -4.83700 18.08100 39.23300
H  -4.25600 18.55000 37.91500
N  -12.26100 18.61500 41.12800
C  -11.78500 19.82600 40.95300
C  -12.89300 20.85300 40.78500
C  -14.04000 20.05200 40.93000
C  -13.64400 18.66000 41.15400
C  -12.71400 22.36400 40.57200
C  -15.42800 20.50400 40.92700
O  -15.65600 21.74500 40.96700
C  -16.60100 19.63200 41.06900
N  -12.84300 15.66300 41.81900
C  -14.08300 16.17800 41.82200
C  -15.16900 15.14800 42.16300
C  -14.29200 13.82000 42.08800
C  -12.84300 14.27300 42.07800
C  -15.81800 15.47500 43.57800
C  -14.66300 13.01300 40.83800
C  -15.15400 11.55800 41.10100
N  -10.05700 15.13900 41.86100
C  -10.44300 13.81800 42.11400
C  -9.26200 13.00000 42.22900
C  -8.21400 13.86400 41.97600
C  -8.73000 15.09500 41.70900
C  -9.19000 11.60800 42.77600
C  -6.76600 13.93200 41.85400
O  -5.88400 13.05800 41.86000
C  -6.44200 15.38900 41.59200
C  -5.67100 15.90300 42.69900
O  -6.00500 15.90400 43.88000
O  -4.40300 16.30300 42.33600
C  -3.61100 16.98900 43.32200
H  -10.17600 21.22400 40.80100
H  -15.47900 17.52700 41.57700
H  -12.17600 12.43600 42.46500
H  -6.20900 18.78200 41.54200
H  -7.90900 20.12800 39.65300
H  -6.40700 20.93600 41.73700
H  -8.06200 21.45500 42.39200
H  -7.30400 22.03300 40.90000
H  -6.70700 18.77700 38.60100
H  -6.73000 17.18500 39.34200
H  -4.59800 17.04100 39.45300
H  -4.27100 18.64800 39.97300
H  -12.40400 22.71600 39.58800
H  -11.93600 22.74700 41.23300
H  -13.64300 22.86000 40.85200
H  -17.48000 20.26200 40.92800
H  -16.69500 19.16000 42.04600
H  -16.57500 18.86600 40.29400
H  -15.98300 15.19300 41.43900
H  -14.40400 13.22700 42.99600
H  -15.17000 16.19600 44.07700
H  -15.74400 14.57000 44.18000
H  -16.85200 15.77100 43.40200
H  -13.92600 12.92300 40.04000
H  -15.50500 13.55600 40.40800
H  -16.18900 11.38000 40.81000
H  -15.12500 11.22700 42.13900
H  -14.52100 10.90600 40.49900
H  -9.62700 11.64000 43.77300
H  -8.18300 11.23100 42.95700
H  -9.78000 10.96000 42.12700
H  -5.82000 15.50900 40.70500
H  -2.98200 16.16800 43.66500
H  -4.20300 17.36500 44.15600
H  -3.01700 17.83900 42.98800

