158

Mg 40.09400 8.27600 29.85600
C  41.91300 9.85200 32.53100
C  38.02800 7.05300 32.20700
C  38.41400 6.72200 27.44800
C  42.57100 9.29100 27.67800
N  40.07400 8.35100 32.05100
C  40.77000 9.17300 32.94600
C  40.22300 9.07900 34.37000
C  39.12400 8.06600 34.20200
C  39.08400 7.79200 32.76000
C  39.32800 6.81700 35.16000
C  39.61300 10.44200 34.82700
C  38.99400 10.63200 36.21400
H  39.73500 11.44600 37.24500
N  38.34100 7.08600 29.82200
C  37.66400 6.69400 30.91400
C  36.57200 5.88900 30.51500
C  36.63300 5.75800 29.07900
C  37.82900 6.51400 28.74300
C  35.54500 5.40900 31.46800
C  35.69200 5.00800 28.11700
O  35.85100 4.80500 26.91700
C  34.49800 4.40400 28.71400
N  40.37300 8.06400 27.83900
C  39.54900 7.42900 27.01800
C  40.00700 7.40400 25.57100
C  41.13600 8.52000 25.60400
C  41.37000 8.64000 27.13300
C  40.47200 6.00300 25.01300
C  40.63100 9.83600 24.86100
C  39.60800 10.79700 25.49100
N  41.94500 9.23500 30.01400
C  42.83800 9.62400 29.02200
C  43.90600 10.35200 29.61400
C  43.55800 10.45400 30.99500
C  42.39500 9.72000 31.21000
C  45.11200 10.80800 28.96000
C  43.95900 11.07700 32.23200
O  44.91200 11.87000 32.48500
C  42.89200 10.76600 33.25900
C  43.35600 10.10100 34.46800
O  44.04400 9.09000 34.39700
O  43.06800 10.90100 35.56800
C  43.66200 10.39900 36.81700
H  37.32800 6.80300 33.00800
H  37.74500 6.31500 26.68700
H  43.26200 9.67700 26.92600
H  40.94600 8.71400 35.10000
H  38.12800 8.46800 34.38600
H  40.39500 6.66600 35.32500
H  39.06100 5.83200 34.77700
H  38.71400 6.85800 36.06000
H  39.07400 10.95300 34.02900
H  40.53300 11.01800 34.92600
H  38.65000 9.70000 36.66300
H  38.08300 11.12800 35.87900
H  34.67000 6.05500 31.41500
H  36.00500 5.41800 32.45700
H  35.34300 4.35400 31.28000
H  34.64300 3.52000 29.33500
H  33.74700 4.05700 28.00500
H  33.99200 5.06600 29.41700
H  39.16800 7.71200 24.94700
H  42.04000 8.17200 25.10500
H  40.77400 5.31500 25.80200
H  41.28700 6.11100 24.29700
H  39.58400 5.60300 24.52300
H  40.30000 9.59100 23.85100
H  41.46100 10.53700 24.94400
H  39.23800 10.15600 26.29200
H  38.70400 11.16000 25.00000
H  39.90100 11.65100 26.10200
H  45.48000 11.73400 29.40200
H  44.92600 11.00100 27.90400
H  45.95400 10.12000 29.02800
H  42.46500 11.75300 33.43500
H  43.68300 11.13800 37.61700
H  44.70000 10.08300 36.70700
H  43.09200 9.53500 37.15700
Mg -9.77500 40.15700 42.16900
C  -8.61700 36.82000 41.02000
C  -6.88300 41.43300 40.85800
C  -11.39600 43.08400 42.21500
C  -12.89000 38.41700 42.78100
N  -7.94900 39.20000 41.01800
C  -7.67600 37.85200 40.76800
C  -6.24700 37.72100 40.08700
C  -5.68900 39.17700 40.23300
C  -6.89300 40.01700 40.68300
C  -4.50400 39.31300 41.19500
C  -6.45100 37.08900 38.67200
C  -5.50000 35.90800 38.34300
H  -4.55600 36.25900 37.09300
N  -9.16100 41.99400 41.80600
C  -7.96600 42.31900 41.31200
C  -7.95400 43.77100 41.22100
C  -9.16000 44.27600 41.73000
C  -9.94600 43.12900 42.00600
C  -6.76600 44.52000 40.65200
C  -9.56300 45.75500 41.94400
O  -8.84100 46.70500 41.52800
C  -10.73600 46.12200 42.62500
N  -11.82300 40.62400 42.32800
C  -12.21500 41.90200 42.33900
C  -13.75700 42.04100 42.44300
C  -14.22800 40.53700 42.63100
C  -12.88700 39.79300 42.57200
C  -14.19900 43.05200 43.59400
C  -15.22600 40.02000 41.59200
C  -16.47200 39.24100 42.27600
N  -10.54700 38.09600 42.07900
C  -11.80700 37.64700 42.44600
C  -11.82300 36.17700 42.35300
C  -10.56100 35.86100 41.77800
C  -9.88000 37.03800 41.54400
C  -12.84400 35.25400 42.85000
C  -9.80700 34.73600 41.26400
O  -9.97900 33.47300 41.28200
C  -8.52900 35.34100 40.76600
C  -7.36800 34.67600 41.60400
O  -7.15800 34.63700 42.79900
O  -6.56200 34.06500 40.66000
C  -5.27300 33.53600 41.25300
H  -5.98800 41.99400 40.58200
H  -12.06100 43.95000 42.18900
H  -13.77800 37.81900 43.00100
H  -5.74100 36.97200 40.69700
H  -5.32400 39.33900 39.21800
H  -4.05200 38.35000 41.43200
H  -4.86600 39.82500 42.08600
H  -3.68200 39.92500 40.82300
H  -6.36700 37.90300 37.95200
H  -7.44600 36.66400 38.54200
H  -6.14300 35.10300 37.98900
H  -4.91900 35.67400 39.23500
H  -7.21100 45.37900 40.15000
H  -6.19500 43.84900 40.01100
H  -6.14000 44.81500 41.49400
H  -10.66200 47.10400 43.09300
H  -11.08900 45.40800 43.36900
H  -11.48400 46.23900 41.84100
H  -14.15400 42.51500 41.54500
H  -14.68600 40.32300 43.59600
H  -13.34200 43.44100 44.14300
H  -14.91000 42.58700 44.27800
H  -14.71200 43.89500 43.13100
H  -14.80600 39.37900 40.81700
H  -15.55700 40.84700 40.96300
H  -16.46700 39.09200 43.35500
H  -16.61400 38.20100 41.98300
H  -17.42600 39.69300 42.00500
H  -13.44400 35.84900 43.53700
H  -12.37200 34.43100 43.38700
H  -13.51400 34.83800 42.09800
H  -8.52600 35.02700 39.72200
H  -4.75300 32.97700 40.47500
H  -5.55300 32.80000 42.00600
H  -4.62000 34.26900 41.72700

