158

Mg 40.56600 9.68900 29.45500
C  42.47700 10.73400 32.21600
C  38.35200 8.29700 31.56100
C  39.08400 8.41400 26.73100
C  42.97200 11.21100 27.33600
N  40.57400 9.40300 31.67700
C  41.28700 10.09500 32.66400
C  40.60100 9.88900 34.04800
C  39.30700 9.11900 33.74200
C  39.36600 9.00400 32.17000
C  39.03300 7.79100 34.52300
C  40.34700 11.23300 34.89200
C  40.94200 11.24800 36.28200
H  40.60200 12.26800 37.27300
N  38.97900 8.55100 29.17900
C  38.14700 8.09000 30.17400
C  37.10000 7.32400 29.56400
C  37.28000 7.37400 28.18000
C  38.52100 8.13100 27.95600
C  36.06400 6.59400 30.44400
C  36.45900 6.82600 27.08300
O  36.55900 7.22100 25.95800
C  35.21100 5.92700 27.36600
N  40.97400 9.80700 27.29300
C  40.18100 9.21100 26.38100
C  40.67700 9.47600 24.94100
C  41.99800 10.30900 25.14900
C  41.90600 10.57300 26.66900
C  40.91000 8.23700 24.04900
C  42.07600 11.48100 24.27300
C  41.16100 12.75900 24.54100
N  42.32100 10.70900 29.63100
C  43.15300 11.28400 28.74300
C  44.21100 12.02600 29.39900
C  44.06500 11.67600 30.75900
C  42.85100 10.96400 30.90600
C  45.25500 12.86700 28.78700
C  44.50800 11.98500 32.06400
O  45.48600 12.66600 32.41100
C  43.53200 11.41400 33.06800
C  44.35300 10.48500 33.92400
O  44.68500 9.34200 33.68000
O  44.55600 11.05300 35.16700
C  45.23800 10.26500 36.13400
H  37.43300 8.30800 32.15000
H  38.70600 7.93400 25.82600
H  43.75300 11.58900 26.67300
H  41.30100 9.33000 34.66900
H  38.50600 9.82400 33.96500
H  37.98100 7.58300 34.32900
H  39.09300 7.87600 35.60800
H  39.67600 6.98600 34.16700
H  39.27500 11.34900 35.05100
H  40.59900 12.15400 34.36700
H  42.02300 11.33000 36.16800
H  40.75600 10.24200 36.65700
H  35.07400 6.85800 30.07300
H  36.18700 6.96300 31.46200
H  36.15100 5.50800 30.39500
H  35.54200 4.95600 27.73100
H  34.79400 5.69200 26.38600
H  34.45600 6.43600 27.96600
H  39.99100 10.16100 24.44200
H  42.91700 9.76100 24.94100
H  40.54800 7.38700 24.62700
H  41.94700 8.12100 23.73400
H  40.28400 8.31400 23.16000
H  41.81700 11.18300 23.25700
H  43.07200 11.92300 24.26200
H  40.35300 12.85400 23.81600
H  41.76300 13.66200 24.63500
H  40.74300 12.63500 25.54000
H  44.89000 13.13300 27.79500
H  46.09600 12.17400 28.76600
H  45.26000 13.73800 29.44300
H  43.06000 12.22100 33.62900
H  44.83100 9.25400 36.13100
H  45.04700 10.64700 37.13700
H  46.31000 10.20900 35.94400
Mg 49.52600 35.64600 27.25300
C  47.56700 34.20400 29.77500
C  50.14300 38.24400 29.32300
C  51.57800 36.84800 24.93300
C  48.45000 33.16700 25.01500
N  48.92100 36.19500 29.37500
C  48.23500 35.33100 30.25600
C  48.41900 35.80800 31.69000
C  48.96900 37.29600 31.48400
C  49.25500 37.29400 29.92400
C  48.04100 38.47000 31.88700
C  49.35900 34.79100 32.51300
C  49.22800 34.89500 34.03600
H  48.19500 35.84400 34.60000
N  50.65300 37.32500 27.14800
C  50.72500 38.37200 28.04100
C  51.70200 39.29800 27.65500
C  52.20600 38.87100 26.37900
C  51.45400 37.67500 26.06700
C  52.01300 40.51100 28.48700
C  53.24700 39.52200 25.50100
O  53.51500 39.09500 24.35200
C  54.00600 40.78700 25.86200
N  49.83200 35.13800 25.21900
C  50.84000 35.73100 24.48100
C  51.09600 34.97400 23.14500
C  50.13600 33.78100 23.26000
C  49.38600 34.08500 24.53000
C  50.90400 35.72800 21.80200
C  50.92300 32.38200 23.26600
C  50.82700 31.44700 22.02200
N  48.28400 34.08100 27.33100
C  47.97000 33.14500 26.32500
C  47.11700 32.10500 26.95200
C  46.94400 32.48000 28.29300
C  47.70100 33.70200 28.47800
C  46.63700 30.84000 26.33100
C  46.31100 32.07300 29.53100
O  45.55700 31.12200 29.76500
C  46.54700 33.25800 30.44300
C  46.77000 32.73000 31.81400
O  47.50900 31.80700 32.16600
O  45.73700 33.21100 32.66200
C  45.74900 32.59300 33.99600
H  50.25000 39.06400 30.03600
H  52.24600 37.24300 24.16400
H  48.18000 32.38100 24.30600
H  47.46400 35.70800 32.20700
H  49.89900 37.36800 32.04800
H  46.99300 38.18000 31.96800
H  48.03200 39.15000 31.03600
H  48.34700 38.84400 32.86400
H  50.36100 35.15800 32.29200
H  49.29200 33.74600 32.20900
H  50.18700 35.02800 34.53700
H  49.00800 33.84800 34.24700
H  52.36600 41.32300 27.85100
H  52.78500 40.27000 29.21700
H  51.14400 40.94400 28.98300
H  54.78800 40.91200 25.11300
H  54.49300 40.76300 26.83700
H  53.33400 41.63100 26.01900
H  52.16200 34.74400 23.17000
H  49.31000 33.81300 22.55000
H  51.16600 36.77500 21.95300
H  49.92500 35.59700 21.34100
H  51.71900 35.23800 21.26900
H  50.48900 31.80500 24.08300
H  51.96900 32.54200 23.52500
H  50.56200 30.45700 22.39300
H  51.79900 31.38700 21.53400
H  50.04700 31.66800 21.29300
H  47.42700 30.13400 26.58700
H  46.54300 31.12000 25.28200
H  45.63600 30.57100 26.66600
H  45.62800 33.84100 30.37800
H  45.53600 31.52400 34.01300
H  45.01700 33.12900 34.60000
H  46.69400 32.64500 34.53600

