158

Mg 6.87100 53.84500 41.66900
C  6.73100 50.35800 41.30400
C  10.39400 53.55000 40.88900
C  7.11400 57.19900 41.57100
C  3.54400 53.98200 42.30700
N  8.36800 52.10400 41.08500
C  8.05400 50.79100 40.97800
C  9.29100 49.96300 40.58000
C  10.52500 50.99300 40.78100
C  9.69600 52.29800 40.86700
C  11.55300 50.79700 41.95700
C  9.32800 49.40400 39.13900
C  9.18600 50.49800 38.04200
H  7.94600 50.33600 37.17000
N  8.45000 55.21500 41.25700
C  9.80900 54.89200 41.03800
C  10.52800 56.16400 40.90700
C  9.62200 57.27100 41.11500
C  8.35100 56.55400 41.34600
C  12.07200 56.11200 40.59100
C  10.05200 58.76200 41.08400
O  11.14700 59.08500 40.69100
C  9.21800 59.79900 41.70100
N  5.35500 55.41600 41.50700
C  5.79100 56.63800 41.63700
C  4.66500 57.58100 41.89900
C  3.48100 56.55600 42.19100
C  4.16700 55.18900 42.05400
C  4.81200 58.65500 43.02700
C  2.32700 56.66700 41.21800
C  0.89300 56.63900 41.68700
N  5.40400 52.47100 41.77400
C  4.16700 52.70700 42.21400
C  3.55100 51.42900 42.41100
C  4.52700 50.44200 41.98400
C  5.65200 51.15500 41.71500
C  2.15700 51.19000 42.80700
C  4.75800 49.02700 41.79400
O  4.06700 48.02300 42.08900
C  6.23200 48.94100 41.36100
C  6.15900 48.15600 40.10900
O  5.94600 48.61400 38.98100
O  6.26600 46.80900 40.35300
C  5.60900 45.93400 39.33600
H  11.44500 53.69500 40.63100
H  7.09800 58.28700 41.47300
H  2.60300 53.97400 42.86000
H  9.36200 49.07900 41.21400
H  11.09700 50.90000 39.85800
H  12.56000 50.67800 41.55700
H  11.25900 49.92100 42.53500
H  11.35000 51.64700 42.60900
H  8.72600 48.50300 39.02400
H  10.31000 49.06100 38.81300
H  10.00000 50.44600 37.32000
H  9.28500 51.50300 38.45100
H  12.26500 55.53100 39.68900
H  12.44500 55.59000 41.47200
H  12.55200 57.08500 40.49000
H  9.80800 60.65500 42.02800
H  8.67400 59.31200 42.51100
H  8.52800 60.06700 40.90100
H  4.35600 58.21100 41.06500
H  3.11600 56.62000 43.21600
H  4.80400 59.61200 42.50600
H  5.81600 58.53100 43.43400
H  3.95400 58.45100 43.66700
H  2.48800 55.91000 40.45100
H  2.42800 57.63300 40.72400
H  0.38600 55.93600 41.02600
H  0.46900 57.63900 41.59400
H  0.75700 56.39500 42.74000
H  1.56700 52.10100 42.70600
H  2.11200 50.98900 43.87800
H  1.76300 50.36700 42.21100
H  6.84200 48.31500 42.01200
H  5.98100 46.15000 38.33500
H  4.53400 46.10200 39.26600
H  5.76900 44.91400 39.68500
Mg -9.71400 39.55000 41.29200
C  -8.88000 36.20500 40.16000
C  -6.84200 40.58900 39.84900
C  -10.98400 42.76200 41.31300
C  -12.92900 38.30400 41.88300
N  -8.05600 38.44900 40.18600
C  -7.92300 37.18200 39.84400
C  -6.61200 36.95600 39.11800
C  -5.86500 38.20700 39.36900
C  -6.97700 39.17100 39.79000
C  -4.70600 37.99300 40.36400
C  -6.92800 36.66700 37.60000
C  -6.22600 35.49200 36.89500
H  -5.37100 35.85600 35.69200
N  -8.94300 41.39800 40.83200
C  -7.67400 41.66500 40.30500
C  -7.44800 43.05400 40.16500
C  -8.64700 43.64900 40.49500
C  -9.61900 42.61000 40.90900
C  -6.09600 43.61900 39.75700
C  -8.90700 45.13500 40.40000
O  -7.99400 45.90900 40.17200
C  -10.21000 45.87300 40.75200
N  -11.72000 40.41900 41.49200
C  -11.92900 41.74500 41.52400
C  -13.41300 42.07400 41.78200
C  -14.05900 40.67000 41.97400
C  -12.87400 39.72600 41.77600
C  -13.65900 43.06900 42.93600
C  -15.30100 40.22100 41.10200
C  -16.53100 39.73200 41.82400
N  -10.65300 37.64900 41.36500
C  -11.95000 37.33900 41.64600
C  -12.11700 35.89300 41.56000
C  -10.92200 35.42000 40.94700
C  -10.11400 36.52800 40.79600
C  -13.22000 35.06100 42.00100
C  -10.22800 34.24200 40.48900
O  -10.50000 33.08600 40.63200
C  -8.89900 34.69800 39.86900
C  -7.72200 33.84500 40.43900
O  -7.36100 33.78500 41.62500
O  -6.97900 33.43200 39.44100
C  -5.63900 32.91900 39.63700
H  -5.86400 40.93300 39.50600
H  -11.39200 43.77400 41.34800
H  -13.90000 37.87900 42.14500
H  -6.25700 36.03400 39.58000
H  -5.48500 38.62600 38.43700
H  -5.13500 37.49400 41.23300
H  -4.26600 38.95600 40.62300
H  -3.98200 37.27500 39.97900
H  -6.70200 37.62600 37.13500
H  -8.00500 36.57200 37.46100
H  -6.99600 34.80500 36.54600
H  -5.48400 35.10900 37.59600
H  -6.19400 44.40600 39.01000
H  -5.48400 42.95600 39.14600
H  -5.45700 43.97600 40.56500
H  -10.33000 45.78700 41.83200
H  -11.10000 45.51400 40.23500
H  -10.19200 46.89600 40.37600
H  -13.83100 42.36100 40.81700
H  -14.39700 40.56300 43.00400
H  -14.21400 43.95500 42.62600
H  -12.71200 43.34000 43.40300
H  -14.20000 42.52400 43.70900
H  -14.87000 39.41400 40.50900
H  -15.52800 40.91100 40.28900
H  -16.62900 38.64700 41.84500
H  -17.34600 40.08900 41.19400
H  -16.78400 40.07800 42.82600
H  -13.61000 35.36500 42.97300
H  -12.86900 34.03000 41.96300
H  -14.01900 35.24700 41.28300
H  -8.84100 34.44000 38.81100
H  -5.11400 32.86700 38.68300
H  -5.65700 31.91900 40.07100
H  -5.12100 33.56800 40.34200

