158

Mg -1.82800 17.75300 26.34700
C  -2.11000 15.43000 29.03100
C  -2.30200 20.29300 28.56400
C  -2.27100 19.85900 23.73400
C  -1.79600 15.02900 24.24200
N  -2.18200 17.83100 28.56000
C  -2.10000 16.79900 29.47600
C  -2.27700 17.29400 30.92000
C  -2.43500 18.85200 30.75100
C  -2.33000 19.03200 29.18500
C  -3.62800 19.57800 31.44200
C  -1.09200 16.77100 31.82500
C  -0.48600 17.62000 32.96800
H  -0.15400 16.90100 34.27800
N  -2.11700 19.69100 26.21600
C  -2.26300 20.65800 27.22900
C  -2.12100 22.02700 26.66100
C  -2.13900 21.85800 25.23600
C  -2.15500 20.41700 25.02700
C  -1.84300 23.21200 27.59000
C  -1.98500 22.92400 24.17000
O  -1.78700 22.69500 22.98300
C  -2.23900 24.34100 24.58100
N  -2.17200 17.47600 24.26100
C  -2.18100 18.48500 23.36100
C  -2.03600 18.00400 21.90200
C  -1.99800 16.47200 22.10900
C  -1.92900 16.28300 23.63700
C  -3.31500 18.46800 21.11300
C  -0.74700 15.77400 21.39200
C  0.64600 16.02700 21.95700
N  -1.98700 15.66700 26.56200
C  -1.91700 14.68200 25.60500
C  -1.98300 13.39600 26.24200
C  -2.10000 13.62600 27.60300
C  -2.01300 15.01200 27.74600
C  -1.96600 12.18500 25.46600
C  -2.21600 12.93900 28.85600
O  -2.25000 11.78600 29.23400
C  -2.25400 14.11700 29.77500
C  -1.15900 13.74300 30.65400
O  -0.01600 13.96700 30.45800
O  -1.62300 13.05700 31.74200
C  -0.64100 12.75500 32.83500
H  -2.27200 20.99800 29.39800
H  -2.35700 20.57000 22.91000
H  -1.71600 14.17800 23.56300
H  -3.19300 16.84900 31.31000
H  -1.47000 19.26600 31.04100
H  -3.20000 20.49900 31.83700
H  -4.20800 19.06100 32.20600
H  -4.32000 19.90400 30.66500
H  -0.27300 16.62000 31.12100
H  -1.43500 15.81200 32.21400
H  -1.21300 18.39600 33.20700
H  0.40200 18.03900 32.49700
H  -1.05300 23.88700 27.26200
H  -1.57600 23.00200 28.62600
H  -2.72300 23.85600 27.60000
H  -3.00700 24.34500 25.35500
H  -2.52700 25.08600 23.84000
H  -1.33700 24.68500 25.08600
H  -1.09700 18.43300 21.55300
H  -2.96600 16.06200 21.82100
H  -3.09500 19.00800 20.19200
H  -4.06000 19.14200 21.53500
H  -3.78500 17.56200 20.72900
H  -0.64900 16.31900 20.45300
H  -0.95300 14.71000 21.27700
H  0.93700 15.05000 22.34400
H  0.61700 16.69600 22.81600
H  1.38700 16.41700 21.26000
H  -1.54600 11.31800 25.97700
H  -1.23900 12.38100 24.67900
H  -2.96000 11.97700 25.07100
H  -3.15500 14.27700 30.36700
H  -0.00300 12.02100 32.34000
H  -1.01800 12.31900 33.76000
H  -0.06700 13.65200 33.06500
Mg -11.25800 14.86600 41.47700
C  -7.87100 14.32800 41.30400
C  -10.92100 17.83700 39.81300
C  -14.65700 15.02800 41.28600
C  -11.55300 11.53700 42.73800
N  -9.56600 15.88300 40.53400
C  -8.26600 15.50600 40.64800
C  -7.36700 16.36800 39.83300
C  -8.28200 17.54900 39.31300
C  -9.62400 17.11900 39.98200
C  -7.81900 19.01200 39.47000
C  -6.66400 15.53500 38.67100
C  -5.17100 15.71200 38.45500
H  -4.66500 16.38100 37.11500
N  -12.61200 16.20100 40.52400
C  -12.28900 17.45400 40.10200
C  -13.46900 18.12500 39.73200
C  -14.57900 17.31700 40.17200
C  -13.98700 16.12100 40.67600
C  -13.51400 19.51800 39.09900
C  -16.01200 17.77200 40.03200
O  -16.18900 18.83200 39.42000
C  -17.20800 17.02500 40.48700
N  -12.87300 13.45500 41.76100
C  -14.17800 13.79100 41.74700
C  -15.06900 12.66600 42.09000
C  -14.06000 11.54500 42.61600
C  -12.70900 12.17700 42.32100
C  -16.21800 13.06400 43.09200
C  -14.22700 10.10900 42.11000
C  -14.93300 9.00300 43.00100
N  -10.04000 13.27400 42.10000
C  -10.24200 12.02500 42.63500
C  -9.01700 11.36900 42.90500
C  -8.03200 12.24000 42.34600
C  -8.71200 13.35900 41.85500
C  -8.85700 10.10400 43.59300
C  -6.60800 12.42100 42.21100
O  -5.66500 11.68800 42.60100
C  -6.46600 13.80000 41.56600
C  -5.70300 14.69200 42.47900
O  -6.25600 15.31800 43.40700
O  -4.35800 14.75600 42.02800
C  -3.61400 15.81600 42.74700
H  -10.78900 18.74500 39.22100
H  -15.72300 15.08800 41.51500
H  -11.60500 10.63300 43.34800
H  -6.68800 16.75400 40.59300
H  -8.48300 17.37500 38.25600
H  -7.05800 18.92200 40.24500
H  -8.65800 19.58900 39.85800
H  -7.31500 19.33600 38.55900
H  -7.18900 15.82100 37.76000
H  -7.03000 14.50900 38.68200
H  -4.76200 14.70800 38.56700
H  -4.61200 16.41900 39.06900
H  -14.01900 20.30300 39.66200
H  -13.94900 19.54000 38.09900
H  -12.51700 19.92000 38.92200
H  -18.16000 17.55100 40.41500
H  -17.01800 16.71700 41.51500
H  -17.15800 16.02100 40.06800
H  -15.39400 12.34100 41.10100
H  -14.05700 11.52600 43.70600
H  -17.20400 12.99600 42.63400
H  -16.06100 14.07400 43.47000
H  -16.27200 12.49200 44.01800
H  -13.28000 9.69200 41.76500
H  -14.80800 9.99900 41.19500
H  -15.47300 8.31200 42.35400
H  -15.66000 9.44400 43.68400
H  -14.15700 8.48200 43.56100
H  -9.60600 10.13900 44.38400
H  -7.84200 9.86200 43.91000
H  -9.13000 9.29900 42.91100
H  -5.94600 13.81600 40.60900
H  -4.17700 16.73600 42.90300
H  -2.62500 15.95000 42.30800
H  -3.58800 15.59100 43.81300

