158

Mg 46.92000 16.96600 28.24200
C  44.94900 16.28900 30.98900
C  48.73400 19.16200 30.13900
C  48.38700 17.94100 25.40100
C  44.48100 15.25500 26.20200
N  46.80800 17.72600 30.39100
C  46.04300 17.11000 31.35600
C  46.44000 17.51400 32.77700
C  47.70300 18.43100 32.49100
C  47.77000 18.47000 30.94900
C  47.59000 19.81900 33.04900
C  46.77200 16.19300 33.61900
C  47.31200 16.29200 35.10600
H  46.74700 17.47600 35.86600
N  48.48600 18.24900 27.82000
C  48.98600 19.19100 28.70900
C  50.04900 19.97300 27.99300
C  50.06600 19.49300 26.59900
C  48.93800 18.53400 26.52500
C  50.76700 21.06000 28.65600
C  51.01100 19.88700 25.45100
O  50.88100 19.43500 24.37800
C  52.24300 20.81400 25.79600
N  46.38400 16.84500 26.04500
C  47.28500 17.15600 25.12200
C  46.91900 16.65500 23.68400
C  45.76200 15.70200 24.01600
C  45.50100 15.92100 25.53100
C  46.40400 17.84900 22.69800
C  46.12900 14.21600 23.60600
C  45.23600 13.38800 22.64400
N  45.10000 15.98500 28.47300
C  44.18700 15.37300 27.58900
C  43.01200 14.83200 28.32300
C  43.28900 15.20900 29.68400
C  44.56600 15.90600 29.70400
C  41.87700 13.95100 27.64000
C  42.77900 15.03200 31.06000
O  41.77800 14.57300 31.51100
C  43.78000 15.77700 31.95400
C  42.99000 16.90300 32.58200
O  42.62900 17.86700 31.94300
O  42.82600 16.73100 33.94100
C  42.05200 17.80400 34.55700
H  49.46100 19.71500 30.73600
H  48.95300 18.16800 24.49500
H  43.82700 14.79800 25.45700
H  45.64600 18.16500 33.14200
H  48.60000 18.08400 33.00300
H  47.22000 20.42000 32.21800
H  48.59000 20.19800 33.26300
H  46.92400 20.06600 33.87600
H  47.50700 15.60100 33.07400
H  45.92000 15.52900 33.76400
H  48.37200 16.53000 35.01400
H  47.06100 15.34900 35.59200
H  50.53500 21.24300 29.70500
H  50.64200 21.99400 28.10700
H  51.80000 20.72100 28.72900
H  52.69400 20.58800 26.76300
H  51.97100 21.86900 25.78800
H  53.00400 20.70300 25.02400
H  47.68500 16.07400 23.17100
H  44.89300 16.05300 23.46000
H  45.34700 17.68000 22.49000
H  47.00100 17.70200 21.79800
H  46.54300 18.81800 23.17700
H  46.29000 13.67500 24.53800
H  47.05400 14.20700 23.02800
H  44.73100 12.58000 23.17300
H  45.64300 12.84800 21.78800
H  44.49000 14.06900 22.23600
H  41.07200 13.67400 28.32100
H  42.34800 12.97700 27.50200
H  41.52900 14.19800 26.63700
H  44.12600 15.09400 32.73000
H  42.40000 17.71600 35.58600
H  40.97400 17.74400 34.40500
H  42.36400 18.80600 34.26300
Mg 36.86500 50.17200 25.27400
C  37.00100 47.89700 27.89000
C  35.67600 52.60800 27.55000
C  35.96800 52.04000 22.77200
C  37.59700 47.57600 23.07700
N  36.31300 50.16500 27.42200
C  36.55600 49.20900 28.26300
C  36.37200 49.72200 29.67300
C  35.65600 51.09800 29.50500
C  35.80300 51.29700 28.08400
C  34.18100 51.24600 30.10600
C  37.75700 49.70400 30.54100
C  37.61500 48.91800 31.84100
H  36.29900 49.03000 32.58800
N  36.03500 52.12500 25.17700
C  35.57900 52.95100 26.18100
C  35.18100 54.18300 25.56900
C  35.24500 54.02500 24.13800
C  35.78800 52.75200 23.99000
C  34.77900 55.37300 26.37600
C  34.79700 55.03600 23.05600
O  34.69600 54.71400 21.88900
C  34.47200 56.49800 23.46500
N  36.71700 49.77500 23.15500
C  36.40500 50.76800 22.41000
C  36.76400 50.48000 20.91700
C  37.47900 49.03100 21.04100
C  37.22500 48.75300 22.52900
C  35.49000 50.55800 20.02900
C  38.94800 48.90900 20.53700
C  39.12900 47.65300 19.61000
N  37.24100 48.10600 25.38100
C  37.54000 47.22100 24.47000
C  37.65100 45.94600 25.06300
C  37.47500 46.18100 26.41600
C  37.18200 47.49600 26.57600
C  38.14900 44.73100 24.36300
C  37.46300 45.55500 27.66400
O  37.65600 44.42100 28.06000
C  37.23100 46.69200 28.76800
C  35.99900 46.45600 29.59000
O  34.85300 46.89200 29.34300
O  36.38700 45.61400 30.62200
C  35.35600 45.04300 31.39500
H  35.39400 53.33000 28.32000
H  36.01900 52.64000 21.86100
H  37.92800 46.83900 22.34300
H  35.67600 49.03700 30.15700
H  36.15100 51.86000 30.10700
H  34.05800 52.29200 30.38500
H  33.97100 50.80800 31.08100
H  33.38700 50.96900 29.41300
H  38.18100 50.67100 30.81000
H  38.53600 49.11800 30.05500
H  38.33000 49.36900 32.52900
H  37.79000 47.85700 31.66100
H  35.21300 56.30000 26.00300
H  34.98800 55.20900 27.43300
H  33.69000 55.38800 26.32400
H  33.68600 56.56800 24.21700
H  34.16600 56.90800 22.50200
H  35.31100 57.09800 23.81600
H  37.54800 51.14600 20.55800
H  36.71900 48.37200 20.62100
H  35.28200 51.62100 19.90800
H  34.72300 50.06500 20.62700
H  35.83100 50.12600 19.08900
H  39.71300 49.00200 21.30700
H  39.15600 49.73000 19.85200
H  40.05300 47.10900 19.80100
H  39.06800 48.01600 18.58400
H  38.36100 46.90100 19.79200
H  37.45000 44.32100 23.63400
H  38.44300 44.00400 25.12000
H  39.03100 44.97400 23.77000
H  38.10300 46.71600 29.42100
H  34.51700 45.71000 31.59400
H  35.67900 44.74800 32.39300
H  34.83700 44.18400 30.97000

