158

Mg 17.16500 -2.72700 27.98900
C  16.22200 -0.49200 30.75600
C  19.13400 -4.32700 30.05400
C  18.13300 -4.27900 25.30600
C  15.42200 -0.37300 25.89400
N  17.61800 -2.40900 30.12900
C  17.13700 -1.53700 31.08700
C  17.67800 -1.81500 32.48000
C  18.74700 -2.91100 32.18200
C  18.52000 -3.27800 30.68500
C  20.10800 -2.38500 32.49000
C  16.48900 -2.21200 33.37500
C  16.49000 -1.88500 34.85600
H  17.67500 -1.31600 35.49100
N  18.34000 -4.09100 27.77300
C  19.03500 -4.77400 28.74900
C  19.78400 -5.89900 28.19800
C  19.53400 -5.82800 26.76500
C  18.63300 -4.70100 26.58400
C  20.92800 -6.48900 29.00500
C  20.05200 -6.76900 25.68600
O  19.85200 -6.64700 24.48900
C  20.77100 -8.04400 26.14600
N  16.89100 -2.35900 25.86000
C  17.32600 -3.23200 24.95600
C  17.20600 -2.69900 23.50500
C  16.18000 -1.58200 23.79200
C  16.10100 -1.43400 25.28500
C  18.67300 -2.24300 23.07700
C  14.82000 -1.73200 23.08400
C  13.64900 -2.25100 23.95700
N  15.97400 -0.92400 28.24100
C  15.37200 -0.07800 27.28700
C  14.71500 1.08600 27.91000
C  14.96900 0.91100 29.29600
C  15.78500 -0.25700 29.41900
C  13.87300 2.15700 27.23400
C  14.77500 1.49500 30.59300
O  14.23100 2.55700 30.85500
C  15.51600 0.57700 31.61800
C  16.29200 1.31500 32.65200
O  17.44700 1.65900 32.51500
O  15.47100 1.46300 33.77200
C  16.06900 2.28100 34.85700
H  19.79100 -4.89500 30.71600
H  18.53400 -4.84800 24.46400
H  15.02300 0.44500 25.29100
H  18.14000 -0.89900 32.84500
H  18.48000 -3.88400 32.59300
H  20.69000 -3.25500 32.79500
H  20.16000 -1.61500 33.26000
H  20.62900 -1.94900 31.63700
H  16.35600 -3.29400 33.38600
H  15.56200 -1.84500 32.93500
H  16.12600 -2.80700 35.31000
H  15.66400 -1.18000 34.94700
H  21.41700 -5.68800 29.55900
H  21.73100 -7.00000 28.47400
H  20.40300 -7.16600 29.67900
H  20.79800 -8.73200 25.30100
H  20.35200 -8.58600 26.99400
H  21.79700 -7.74300 26.36000
H  16.83600 -3.48700 22.84800
H  16.65500 -0.69700 23.36900
H  19.37000 -2.20300 23.91400
H  18.67400 -1.25900 22.61000
H  18.98900 -3.00000 22.35900
H  14.97500 -2.49400 22.32000
H  14.65800 -0.83100 22.49200
H  13.17000 -1.37700 24.39700
H  13.90200 -2.94100 24.76200
H  12.90000 -2.71100 23.31200
H  12.80300 1.97800 27.34200
H  14.15300 2.12000 26.18100
H  14.10000 3.15300 27.61300
H  14.70300 0.00800 32.06900
H  15.58000 2.05900 35.80600
H  15.77900 3.32100 34.71200
H  17.14000 2.14400 35.00800
Mg 35.20400 1.68500 29.38500
C  32.90000 2.94900 31.81100
C  37.62900 1.79300 31.66300
C  37.49100 1.09900 27.01900
C  32.71000 2.17200 26.98800
N  35.27800 2.38000 31.46700
C  34.18100 2.64300 32.29100
C  34.71700 2.69900 33.70700
C  36.27500 2.61900 33.58100
C  36.43600 2.26200 32.13800
C  37.04600 3.87800 33.84600
C  34.02000 1.61200 34.56500
C  33.71100 2.10300 35.97200
H  34.70600 2.96900 36.70100
N  37.16600 1.21400 29.46600
C  38.02600 1.31600 30.45800
C  39.29300 0.73300 30.12200
C  39.18700 0.40000 28.76300
C  37.90500 0.99000 28.35500
C  40.51500 0.52700 31.04000
C  40.23200 -0.27800 27.84200
O  40.09200 -0.33600 26.63400
C  41.46700 -0.90100 28.39300
N  35.10000 1.67600 27.36200
C  36.20100 1.45900 26.55800
C  35.76900 1.47700 25.08800
C  34.22100 1.60800 25.06700
C  33.98700 1.77000 26.59400
C  36.40100 2.55300 24.25000
C  33.45300 0.42700 24.41300
C  32.40000 0.71300 23.29900
N  33.12300 2.40000 29.32500
C  32.26100 2.58000 28.31500
C  30.95800 3.09300 28.77600
C  31.17300 3.19200 30.16200
C  32.51700 2.80200 30.44100
C  29.68400 3.35000 28.02100
C  30.63900 3.71900 31.44600
O  29.51000 4.20400 31.67700
C  31.62000 3.36000 32.53400
C  31.71700 4.48400 33.50900
O  32.40400 5.45700 33.30300
O  30.77800 4.32700 34.53300
C  30.98300 5.23200 35.67500
H  38.39200 1.63800 32.42800
H  38.17500 0.73200 26.25100
H  31.98600 2.27500 26.17700
H  34.41000 3.71300 33.96600
H  36.66000 1.78000 34.16100
H  37.93100 3.89600 33.21000
H  37.50800 4.03500 34.82100
H  36.42500 4.72600 33.55600
H  34.69000 0.75400 34.62000
H  33.12300 1.35100 34.00300
H  33.56700 1.20800 36.57800
H  32.80300 2.70500 35.96900
H  40.44200 1.03500 32.00200
H  41.37200 0.96200 30.52500
H  40.62100 -0.55400 31.13300
H  41.37500 -1.68100 29.14900
H  42.14500 -0.08100 28.63100
H  41.97700 -1.33700 27.53400
H  36.01300 0.48800 24.69900
H  33.80500 2.46900 24.54400
H  36.90800 3.17000 24.99100
H  35.68700 3.22900 23.78100
H  37.06300 2.26300 23.43400
H  32.99200 -0.25400 25.12900
H  34.04300 -0.28700 23.83900
H  31.69000 1.48500 23.59500
H  31.96400 -0.27200 23.13000
H  32.82800 0.86000 22.30800
H  28.94600 2.57200 28.21500
H  29.81400 3.31200 26.93900
H  29.40500 4.32200 28.42600
H  31.22500 2.57400 33.17800
H  30.30800 6.08700 35.64900
H  31.96700 5.70000 35.64000
H  30.80000 4.69300 36.60400

