158

Mg 6.85100 53.21300 42.02900
C  6.25200 49.66000 41.54500
C  10.06000 52.62000 40.71200
C  7.36100 56.48200 41.81500
C  3.47300 53.51800 42.48500
N  7.94700 51.28100 41.02400
C  7.56800 49.96000 41.17500
C  8.78200 49.11200 40.73200
C  9.92500 50.04800 40.62500
C  9.33600 51.42000 40.91000
C  11.13400 49.76500 41.56500
C  8.67900 48.09200 39.60100
C  8.67100 48.65300 38.21200
H  7.35100 48.49800 37.54100
N  8.54400 54.35000 41.47000
C  9.76600 53.96800 40.98000
C  10.65400 55.16000 40.88000
C  9.87500 56.23100 41.34600
C  8.49500 55.71900 41.49900
C  12.11700 55.02300 40.51100
C  10.40300 57.59500 41.60000
O  11.55500 57.83200 41.46100
C  9.62100 58.78100 42.08100
N  5.59000 54.74100 42.04300
C  6.09000 56.01000 42.12600
C  5.04000 56.94400 42.61600
C  3.75200 56.00600 42.63200
C  4.29000 54.65600 42.43000
C  5.21300 57.80300 43.94200
C  2.65400 56.41900 41.63100
C  2.47800 55.58700 40.34600
N  5.17000 51.90200 42.11100
C  3.89800 52.20300 42.39200
C  3.07300 51.08200 42.48600
C  3.99000 50.03800 42.25700
C  5.23000 50.61800 41.98100
C  1.57800 51.01000 42.80800
C  4.15300 48.61900 42.22200
O  3.29900 47.80200 42.60100
C  5.60500 48.22900 41.76100
C  5.23100 47.57500 40.43800
O  4.62200 48.07500 39.48000
O  5.66200 46.26700 40.37900
C  5.14900 45.24400 39.42100
H  11.08100 52.44700 40.36700
H  7.64600 57.51800 42.01100
H  2.45000 53.72100 42.80800
H  8.80800 48.59600 41.69200
H  10.37000 50.01100 39.63100
H  10.65200 49.28200 42.41500
H  11.49800 50.72100 41.94000
H  11.97100 49.29100 41.05300
H  7.76000 47.51100 39.68000
H  9.60100 47.55000 39.81200
H  9.26100 47.98500 37.58400
H  8.78800 49.73500 38.15000
H  12.65800 54.94300 41.45400
H  12.36000 55.94400 39.98200
H  12.42600 54.24700 39.81000
H  8.98000 59.12500 41.26900
H  10.32500 59.58500 42.29200
H  9.10600 58.49700 42.99900
H  5.02000 57.67600 41.80800
H  3.19000 56.17200 43.55100
H  6.23200 58.00700 44.27000
H  4.54300 57.39200 44.69600
H  4.88800 58.83900 43.84000
H  2.78200 57.45700 41.32600
H  1.78300 56.28700 42.27300
H  3.44500 55.17700 40.05700
H  2.12000 56.18300 39.50600
H  1.79200 54.75500 40.50500
H  1.17300 50.81300 41.81600
H  1.24500 51.97200 43.20000
H  1.29400 50.17300 43.44500
H  6.08700 47.45500 42.35800
H  4.95300 45.62500 38.41900
H  4.25500 44.82900 39.88600
H  5.89000 44.44600 39.37700
Mg 16.48100 52.31900 26.32800
C  17.93100 50.66500 29.20200
C  13.95800 53.39100 28.52800
C  15.25100 53.84500 23.76400
C  19.11500 50.91000 24.34900
N  16.06200 52.06500 28.58500
C  16.85100 51.44700 29.59800
C  16.34600 51.71400 31.06300
C  15.06200 52.46800 30.73900
C  14.99900 52.68200 29.17300
C  13.79200 51.67100 31.29200
C  17.44700 52.66700 31.82000
C  17.77600 52.27300 33.25800
H  16.87000 51.16700 33.87900
N  14.80700 53.35100 26.13700
C  13.82300 53.71600 27.10800
C  12.79900 54.59000 26.46100
C  13.24600 54.79800 25.06400
C  14.46900 53.95700 24.95700
C  11.58700 55.21000 27.17000
C  12.54700 55.64000 23.91500
O  13.02500 55.67400 22.82200
C  11.30700 56.44800 24.21800
N  17.03100 52.25300 24.26300
C  16.41100 53.11000 23.37900
C  17.16600 53.17900 22.04400
C  18.46100 52.32000 22.31600
C  18.18700 51.78000 23.70500
C  16.27000 52.50000 20.94700
C  19.79300 53.16800 22.37900
C  20.73200 52.83600 21.21100
N  18.04900 50.93100 26.58200
C  19.07400 50.56800 25.73100
C  20.05600 49.78300 26.39300
C  19.65600 49.82300 27.79100
C  18.41700 50.45800 27.85000
C  21.21900 48.96900 25.74400
C  20.19400 49.49900 29.14900
O  21.20900 48.91800 29.51300
C  19.02600 49.93600 30.11800
C  18.49000 48.65200 30.70100
O  17.64800 47.91800 30.20000
O  19.19000 48.39000 31.82700
C  18.76700 47.18800 32.59900
H  13.23900 53.75800 29.26300
H  14.89100 54.38300 22.88500
H  20.04600 50.66100 23.83500
H  16.20300 50.81100 31.65500
H  15.16900 53.43900 31.22200
H  13.90800 50.59100 31.37300
H  12.92900 51.79300 30.63700
H  13.50400 52.00200 32.29000
H  17.08600 53.68500 31.67200
H  18.30600 52.71400 31.15000
H  17.85200 53.17800 33.86100
H  18.79400 51.89100 33.19000
H  11.89400 56.17600 27.57100
H  11.29100 54.54200 27.97900
H  10.67300 55.32000 26.58600
H  10.95600 56.99200 23.34100
H  11.60000 57.24000 24.90700
H  10.41000 55.85200 24.38500
H  17.34900 54.21500 21.75600
H  18.50300 51.59700 21.50200
H  16.24700 53.22400 20.13200
H  15.26300 52.45900 21.36300
H  16.58600 51.52100 20.58900
H  20.29500 53.14700 23.34600
H  19.50200 54.21500 22.29400
H  20.96800 53.78600 20.73100
H  20.30900 52.07700 20.55200
H  21.56500 52.29400 21.65900
H  20.86200 48.70300 24.74900
H  21.24400 48.08000 26.37400
H  22.13300 49.56300 25.74900
H  19.45600 50.55900 30.90200
H  17.69700 46.98100 32.58400
H  19.01400 47.38900 33.64100
H  19.21100 46.28700 32.17400

