158

Mg 35.50900 48.36200 25.36200
C  35.84000 46.32600 28.18200
C  34.44700 51.05000 27.47700
C  34.53900 49.97900 22.78500
C  36.02000 45.44400 23.51100
N  35.25700 48.64300 27.59100
C  35.37300 47.66700 28.48700
C  35.02100 48.14000 29.93200
C  34.52400 49.60000 29.68200
C  34.80200 49.78100 28.16300
C  33.01800 49.81600 29.92700
C  36.16400 48.12400 30.98200
C  35.78400 47.78300 32.39300
H  35.52100 48.84700 33.44700
N  34.61500 50.31100 25.17800
C  34.28900 51.29100 26.07000
C  33.92500 52.51600 25.41600
C  33.94100 52.26400 24.03900
C  34.39900 50.85200 23.89100
C  33.47400 53.76500 26.15200
C  33.69800 53.21500 22.77700
O  33.94500 52.85500 21.61600
C  33.21200 54.60200 22.97700
N  35.26600 47.73700 23.43500
C  34.98100 48.63100 22.54500
C  34.80600 47.95000 21.10600
C  35.49200 46.62700 21.33400
C  35.63500 46.59000 22.85900
C  33.28900 47.91200 20.76700
C  36.86100 46.48500 20.51800
C  38.16700 47.21300 21.01600
N  36.09000 46.33100 25.70600
C  36.28100 45.25300 24.86100
C  36.63000 44.11100 25.55700
C  36.42300 44.44900 26.85600
C  36.13300 45.85000 26.88700
C  36.82800 42.73500 24.89000
C  36.48800 43.95500 28.26600
O  36.77600 42.86700 28.73700
C  36.13300 45.16100 29.13000
C  34.96700 44.80000 29.95200
O  33.84000 44.70800 29.57400
O  35.36900 44.57900 31.26400
C  34.27400 44.27900 32.13400
H  34.20900 51.85600 28.17400
H  34.34600 50.49500 21.84200
H  36.10200 44.59800 22.82700
H  34.29300 47.38200 30.22100
H  35.11400 50.34400 30.21700
H  32.77100 50.70600 30.50500
H  32.65700 48.89200 30.37900
H  32.55800 49.95300 28.94900
H  36.55500 49.14200 30.97800
H  36.99500 47.48500 30.68400
H  36.56800 47.15200 32.81100
H  34.82400 47.26700 32.41500
H  34.08900 54.61900 25.86900
H  33.59900 53.55400 27.21400
H  32.41300 54.00600 26.21500
H  33.04900 54.96400 21.96200
H  33.98500 55.15200 23.51400
H  32.27600 54.47300 23.52100
H  35.33700 48.57800 20.39000
H  34.92000 45.75700 21.01100
H  32.96900 46.96100 20.34100
H  33.02500 48.67600 20.03600
H  32.71800 48.07000 21.68100
H  36.56400 46.77100 19.50900
H  37.12000 45.42600 20.54000
H  38.86000 46.40900 21.26500
H  37.89900 47.89100 21.82600
H  38.57200 47.82300 20.20800
H  35.97800 42.08100 25.08300
H  37.65400 42.19900 25.35700
H  36.92100 42.89700 23.81600
H  37.00200 45.29500 29.77500
H  33.78900 43.31600 31.97600
H  33.58700 45.12500 32.09400
H  34.83100 44.37400 33.06600
Mg 16.63700 51.45600 26.32100
C  18.50500 49.97700 28.89900
C  14.45900 52.63600 28.78100
C  14.78300 52.71800 23.92600
C  18.97900 50.18000 24.03800
N  16.35700 51.07200 28.50000
C  17.32800 50.60200 29.33100
C  17.06600 50.98300 30.85200
C  15.56400 51.41400 30.77400
C  15.44100 51.71400 29.24200
C  14.50100 50.38500 31.23500
C  18.05900 52.11400 31.33100
C  18.59600 51.96700 32.78300
H  17.75600 51.12700 33.74600
N  14.83200 52.44700 26.33300
C  14.09500 52.92400 27.42500
C  12.91700 53.66900 26.95100
C  13.05000 53.75600 25.59700
C  14.28700 52.94000 25.23800
C  12.01800 54.33700 27.97500
C  12.10800 54.39600 24.60600
O  12.37200 54.39500 23.41200
C  10.84900 54.91300 25.01300
N  16.78200 51.36700 24.26300
C  15.98300 52.15100 23.50300
C  16.39700 52.08000 22.05600
C  17.83400 51.41900 22.11200
C  17.90000 50.95100 23.55900
C  15.39800 51.42400 21.02100
C  19.06200 52.37800 21.78400
C  20.35700 51.68400 21.34400
N  18.34200 50.17800 26.32000
C  19.18100 49.77400 25.35200
C  20.30400 49.04200 25.93500
C  20.01700 49.03600 27.31400
C  18.82800 49.74600 27.51200
C  21.53200 48.51900 25.21600
C  20.47700 48.51600 28.58400
O  21.46800 47.78300 28.82700
C  19.49600 49.24000 29.71400
C  19.03900 48.33100 30.84000
O  18.22300 47.41700 30.75900
O  19.87200 48.52400 31.89700
C  19.99100 47.49600 32.87900
H  13.90200 52.94800 29.66700
H  14.29400 53.35200 23.18400
H  19.76600 49.94800 23.31800
H  17.12700 50.09700 31.48400
H  15.45200 52.31600 31.37500
H  13.85400 50.83100 31.99100
H  14.93500 49.54900 31.78400
H  13.97200 49.93200 30.39700
H  17.52000 53.06100 31.33000
H  18.81200 52.10900 30.54300
H  18.67300 53.01700 33.06200
H  19.63400 51.63200 32.80800
H  12.28800 53.97500 28.96700
H  10.98800 54.03600 27.78500
H  12.09600 55.42200 27.92200
H  11.04300 55.81600 25.59100
H  10.35900 54.34200 25.80200
H  10.18500 54.93400 24.14900
H  16.69400 53.08600 21.75900
H  17.83300 50.47600 21.56500
H  15.04400 50.45700 21.37900
H  16.10800 51.20000 20.22500
H  14.65300 52.05900 20.54100
H  19.28500 52.87400 22.72900
H  18.75800 53.05400 20.98400
H  21.07000 51.84100 22.15300
H  20.71100 52.15200 20.42600
H  20.30600 50.61000 21.16500
H  21.82200 49.15900 24.38300
H  21.28700 47.48900 24.95700
H  22.33800 48.52200 25.95000
H  20.15100 50.01500 30.11300
H  20.46500 46.54600 32.63200
H  19.02900 47.19800 33.29500
H  20.51400 47.96200 33.71400

