158

Mg 30.00500 57.71400 41.34200
C  27.31100 55.94400 40.06700
C  32.15200 55.36100 40.09200
C  32.52000 59.89400 41.94500
C  27.71800 60.30000 42.19900
N  29.68300 55.80200 40.30000
C  28.52500 55.25700 39.89000
C  28.76400 53.87600 39.14700
C  30.22200 53.57800 39.63200
C  30.71800 54.99700 40.04400
C  30.51100 52.33700 40.55700
C  28.66900 53.84800 37.60700
C  29.29000 55.05800 36.84700
H  28.31700 55.97500 36.06200
N  31.99800 57.65600 41.03500
C  32.69600 56.54700 40.54500
C  34.10800 56.90200 40.51900
C  34.26500 58.21400 41.00800
C  32.88400 58.63200 41.37700
C  35.07800 55.91900 39.98800
C  35.51700 59.05300 41.08300
O  36.53700 58.48900 40.84700
C  35.58600 60.49000 41.35100
N  30.11200 59.76500 41.96500
C  31.26500 60.36800 42.25000
C  31.08100 61.84700 42.75200
C  29.53600 61.94800 42.79800
C  29.11400 60.61700 42.23200
C  31.66600 62.09100 44.18000
C  28.94400 63.18800 42.11900
C  29.22600 64.53800 42.88100
N  27.86400 58.05400 41.32400
C  27.09200 59.09300 41.70200
C  25.73200 58.84600 41.41800
C  25.74400 57.57400 40.82500
C  27.09100 57.19600 40.71500
C  24.61700 59.89800 41.58600
C  24.94900 56.54100 40.22100
O  23.71000 56.43300 40.04300
C  25.92500 55.47600 39.71300
C  25.53400 54.19500 40.37100
O  25.52200 54.06000 41.58400
O  25.13700 53.23100 39.48100
C  24.65100 51.92400 40.09000
H  32.75800 54.56200 39.66000
H  33.26600 60.61700 42.27900
H  26.93200 61.02000 42.43900
H  28.09600 53.12000 39.56100
H  30.88000 53.36800 38.78800
H  31.41400 52.46200 41.15500
H  30.90200 51.56500 39.89400
H  29.56200 52.06000 41.01500
H  27.59900 53.76500 37.41400
H  29.21400 52.97200 37.25500
H  29.91100 54.56600 36.09800
H  29.90900 55.65500 37.51700
H  36.14900 56.11000 39.92100
H  34.66900 55.29500 39.19300
H  35.09200 55.16300 40.77400
H  34.75600 60.94700 40.81100
H  36.57800 60.72500 40.96800
H  35.47300 60.72700 42.40900
H  31.49200 62.51900 41.99900
H  29.15800 61.96900 43.82000
H  32.46900 61.36500 44.30700
H  30.97600 62.13200 45.02300
H  32.14200 63.04100 43.93700
H  27.86300 63.08200 42.20700
H  29.35900 63.26100 41.11400
H  29.72300 64.44000 43.84600
H  28.25700 64.98200 43.10600
H  29.76500 65.19900 42.20200
H  23.67800 59.36800 41.74700
H  24.57600 60.59600 40.75000
H  24.68500 60.49600 42.49500
H  25.66600 55.39000 38.65700
H  25.30400 51.36300 40.75800
H  24.51400 51.24400 39.24900
H  23.71000 52.12200 40.60300
Mg -10.53400 17.15700 41.19100
C  -7.12000 16.80800 41.07100
C  -10.04800 20.54500 40.47900
C  -13.80200 17.36800 40.36100
C  -10.80500 13.63400 41.09100
N  -8.84700 18.50400 40.92700
C  -7.48500 18.10200 40.84600
C  -6.56200 19.25300 40.54600
C  -7.52700 20.50100 40.77000
C  -8.87000 19.81200 40.68800
C  -7.48000 21.24000 42.16500
C  -6.03100 19.31000 39.08700
C  -4.50100 19.19900 38.99700
H  -3.85900 18.23000 37.95600
N  -11.78500 18.77500 40.65300
C  -11.43700 20.05300 40.53100
C  -12.59500 20.88200 40.37400
C  -13.67600 20.01600 40.04800
C  -13.13700 18.62900 40.37300
C  -12.51100 22.44900 40.27000
C  -15.15300 20.37600 39.64600
O  -15.53300 21.50700 39.66300
C  -16.14800 19.25800 39.39700
N  -12.01600 15.69100 40.56300
C  -13.32700 16.06400 40.53900
C  -14.20900 14.87500 40.70500
C  -13.20000 13.70200 40.35600
C  -11.92800 14.36200 40.75300
C  -14.83200 14.72900 42.08800
C  -13.21200 13.33400 38.90700
C  -14.19700 12.19000 38.43700
N  -9.22100 15.55800 41.23300
C  -9.48400 14.14800 41.24600
C  -8.23500 13.43500 41.45200
C  -7.26300 14.43100 41.28500
C  -7.93600 15.68100 41.27100
C  -8.19700 12.01100 41.57300
C  -5.84700 14.66600 41.24800
O  -4.92600 13.84300 41.27400
C  -5.66400 16.28800 41.23300
C  -4.97400 16.72100 42.52000
O  -3.94900 17.30200 42.50400
O  -5.71800 16.46300 43.62900
C  -5.25200 17.02500 44.89600
H  -9.86400 21.61500 40.36200
H  -14.89000 17.29400 40.30200
H  -10.97200 12.55600 41.04600
H  -5.77100 19.39200 41.28200
H  -7.42600 21.29400 40.02800
H  -6.73400 20.73000 42.77500
H  -8.45100 21.39700 42.63400
H  -7.07900 22.24200 42.01600
H  -6.28100 20.25500 38.60500
H  -6.47400 18.49000 38.52100
H  -4.03500 18.90700 39.93800
H  -4.20900 20.22500 38.77200
H  -13.51100 22.88400 40.29100
H  -12.06500 22.58800 39.28500
H  -11.87100 22.77700 41.08900
H  -15.68200 18.48500 38.78500
H  -17.01800 19.68100 38.89600
H  -16.39700 18.77000 40.33900
H  -15.01700 14.92500 39.97400
H  -13.31600 12.73300 40.84300
H  -14.56700 13.78500 42.56500
H  -15.92100 14.69300 42.09900
H  -14.37300 15.50800 42.69800
H  -12.20500 12.99200 38.66600
H  -13.46500 14.22300 38.33000
H  -14.92700 12.53600 37.70600
H  -14.86900 11.81000 39.20600
H  -13.60300 11.36400 38.04400
H  -8.38900 11.69900 40.54600
H  -9.04600 11.55100 42.07800
H  -7.26500 11.59900 41.95900
H  -5.06500 16.52100 40.35300
H  -4.21000 16.73000 45.02000
H  -5.86600 16.67400 45.72600
H  -5.29000 18.11200 44.95800

