158

Mg 46.26400 3.76300 47.52900
C  44.25400 6.43300 47.38500
C  43.53100 1.70400 47.21200
C  48.36200 1.20500 47.25000
C  49.10500 5.91700 47.24100
N  44.08600 4.04400 47.37700
C  43.54500 5.26800 47.25300
C  41.99800 5.07900 46.78000
C  41.72500 3.58900 47.05800
C  43.17600 3.05000 47.16500
C  40.82700 3.20200 48.29800
C  41.68000 5.58600 45.31500
C  40.83200 6.84400 45.07500
H  40.76200 7.48200 43.71100
N  45.94000 1.74100 47.17100
C  44.76900 1.12900 47.04100
C  45.05500 -0.31700 46.73200
C  46.46100 -0.51000 46.72300
C  47.00600 0.80600 47.11400
C  44.00700 -1.28500 46.36900
C  47.10100 -1.77800 46.25000
O  46.39800 -2.71900 45.94100
C  48.58900 -1.94600 46.12500
N  48.46500 3.60300 46.90000
C  49.09400 2.44800 47.17900
C  50.64000 2.65500 47.42700
C  50.83700 4.10900 46.96300
C  49.40300 4.60800 46.99800
C  51.09700 2.50000 48.89000
C  51.36700 4.18700 45.50200
C  52.87400 4.44400 45.36100
N  46.68300 5.77300 47.40200
C  47.81500 6.49300 47.35400
C  47.46200 7.89800 47.55400
C  46.02700 7.93000 47.53800
C  45.66100 6.57000 47.41100
C  48.39600 9.04300 47.61400
C  44.81800 8.78400 47.66300
O  44.80000 9.98800 47.87800
C  43.65000 7.84300 47.46600
C  42.73300 7.99400 48.57700
O  42.84700 7.77900 49.78600
O  41.66500 8.54200 48.00000
C  40.51300 8.86100 48.92800
H  42.67800 1.09500 46.90300
H  49.00000 0.32300 47.34000
H  49.93000 6.63200 47.27200
H  41.40100 5.70000 47.44700
H  41.22900 3.13600 46.19800
H  40.23100 3.99200 48.75400
H  41.56200 2.85200 49.02300
H  40.24000 2.33300 47.99800
H  41.16500 4.84700 44.70200
H  42.61300 5.79000 44.79000
H  41.32400 7.59900 45.68800
H  39.81600 6.61900 45.40000
H  43.93800 -1.34200 45.28300
H  43.09600 -0.92300 46.84500
H  44.20700 -2.24400 46.84700
H  49.08800 -1.81400 47.08500
H  48.96100 -1.27200 45.35300
H  48.67400 -2.95900 45.73100
H  51.21700 1.97200 46.80300
H  51.58700 4.61600 47.57100
H  51.37200 3.42900 49.38900
H  51.87200 1.76600 49.10800
H  50.25200 2.11500 49.46000
H  50.72900 4.80600 44.87200
H  51.20500 3.18400 45.10800
H  53.15000 5.37700 45.85300
H  53.26700 4.46400 44.34400
H  53.39500 3.62200 45.85200
H  47.95600 9.75500 46.91600
H  49.45700 8.83300 47.47500
H  48.28600 9.35400 48.65300
H  43.29200 8.17200 46.49000
H  39.72200 8.38200 48.35200
H  40.27400 9.92300 48.86700
H  40.59300 8.64700 49.99400
Mg 55.68400 24.52300 44.67100
C  52.96600 26.45400 43.72800
C  53.89100 21.71000 43.33600
C  58.44900 22.91400 44.89900
C  57.20900 27.48700 45.97700
N  53.78000 24.15100 43.52500
C  52.87000 25.11700 43.22800
C  51.67100 24.52700 42.55800
C  51.75400 23.07600 42.99800
C  53.22000 22.93200 43.31300
C  50.81700 22.69300 44.14500
C  51.62300 24.76500 41.00100
C  50.17000 24.58200 40.48100
H  49.96400 24.81000 38.95100
N  56.08400 22.60000 44.08200
C  55.27100 21.58300 43.64600
C  55.99600 20.30500 43.55900
C  57.32700 20.64600 44.00300
C  57.34400 22.08900 44.36400
C  55.43300 18.94900 43.10500
C  58.44100 19.65300 44.13800
O  58.38400 18.60800 43.52800
C  59.65300 19.92700 44.84200
N  57.58400 25.09700 45.39900
C  58.61600 24.18000 45.38500
C  59.91400 24.83600 45.85500
C  59.50400 26.31700 46.19400
C  58.00200 26.32000 45.87800
C  60.52500 24.14500 47.12800
C  60.35300 27.50600 45.40800
C  60.80500 28.79700 46.22500
N  55.19800 26.57100 44.96500
C  55.89800 27.64200 45.51300
C  55.05400 28.80000 45.38600
C  53.84700 28.37900 44.73500
C  54.06200 27.05300 44.44300
C  55.44000 30.17900 45.88300
C  52.60500 28.79100 44.31300
O  52.11800 29.86900 44.38700
C  51.88900 27.56400 43.60700
C  51.49100 27.97000 42.24500
O  52.27600 28.20100 41.33800
O  50.08700 28.11000 42.17000
C  49.57600 28.48100 40.76300
H  53.32300 20.83600 43.01200
H  59.44100 22.46300 44.96800
H  57.68100 28.38500 46.38200
H  50.76200 24.98800 42.94200
H  51.54400 22.39600 42.17200
H  51.46300 22.61900 45.02000
H  50.47300 21.67800 43.94700
H  50.03400 23.41600 44.37500
H  52.22400 24.02100 40.47800
H  52.03100 25.74300 40.74300
H  49.56500 25.41500 40.83800
H  49.79200 23.58700 40.71800
H  55.24700 18.22700 43.90000
H  56.15400 18.45800 42.45200
H  54.49800 19.05100 42.55400
H  60.22300 20.56200 44.16500
H  60.15500 18.96800 44.97400
H  59.42300 20.42700 45.78300
H  60.69200 24.78700 45.09300
H  59.55000 26.50400 47.26600
H  60.18600 23.13400 47.35200
H  60.46200 24.66600 48.08300
H  61.59400 24.19300 46.92000
H  59.90600 27.81600 44.46300
H  61.33200 27.09700 45.16000
H  60.22400 28.83400 47.14700
H  60.69300 29.73300 45.67900
H  61.84100 28.69400 46.54800
H  56.39000 30.08900 46.41100
H  54.79900 30.66700 46.61700
H  55.58200 30.92400 45.10000
H  51.01900 27.21500 44.16300
H  49.15200 29.48300 40.68900
H  48.86600 27.69600 40.50200
H  50.34500 28.51600 39.99200

