158

Mg 47.22400 35.10300 28.29800
C  45.38300 33.50700 30.72900
C  47.53400 37.72900 30.50000
C  48.80800 36.91000 25.75800
C  46.59000 32.60100 26.09300
N  46.66500 35.43700 30.40300
C  45.99500 34.58300 31.20500
C  45.97900 35.02500 32.65500
C  46.41700 36.58100 32.47700
C  46.88200 36.60100 31.04000
C  45.42600 37.68100 32.77400
C  47.04400 34.22600 33.45300
C  47.20300 34.50500 34.95700
H  46.15000 35.36600 35.78900
N  48.04800 36.94500 28.17200
C  48.08100 37.89700 29.21600
C  48.63300 39.09000 28.72300
C  48.97400 38.88900 27.35400
C  48.63000 37.47600 27.01600
C  49.06000 40.29300 29.55500
C  49.58000 39.95800 26.41300
O  50.15000 39.62400 25.35300
C  49.41800 41.37400 26.73200
N  47.70300 34.84100 26.29000
C  48.36300 35.64100 25.42700
C  48.29800 35.10800 23.96100
C  47.82100 33.61400 24.15100
C  47.31500 33.68200 25.56000
C  47.40200 36.07700 23.14700
C  48.92000 32.52500 24.01000
C  48.51000 31.38400 23.02100
N  46.14900 33.36300 28.39000
C  46.03100 32.42300 27.35400
C  45.25800 31.32200 28.00600
C  44.86200 31.75300 29.24800
C  45.53500 32.96600 29.47800
C  44.97800 29.96300 27.33400
C  44.14900 31.36200 30.43000
O  43.53500 30.34400 30.72000
C  44.36000 32.53100 31.38300
C  44.59100 32.02000 32.75000
O  45.41300 31.21100 33.11100
O  43.70000 32.60900 33.58300
C  43.77300 32.10500 34.95000
H  47.63100 38.57500 31.18200
H  49.14800 37.58200 24.96700
H  46.45300 31.68900 25.50700
H  44.98100 34.85300 33.05700
H  47.11700 36.83300 33.27400
H  44.43200 37.23400 32.78400
H  45.48400 38.51000 32.06900
H  45.55900 38.10100 33.77100
H  47.93100 34.48500 32.87500
H  47.05100 33.14000 33.35800
H  48.22300 34.88900 34.96900
H  47.16800 33.52700 35.43700
H  50.14100 40.38100 29.44500
H  48.77000 40.20500 30.60200
H  48.43300 41.12200 29.22700
H  49.52700 41.94600 25.81000
H  50.08200 41.71000 27.52900
H  48.38100 41.45700 27.05600
H  49.29200 34.97900 23.53200
H  46.88400 33.43500 23.62300
H  48.15100 36.33000 22.39600
H  46.98500 36.90800 23.71600
H  46.57500 35.57700 22.64200
H  49.23800 32.09800 24.96200
H  49.80200 32.96400 23.54300
H  49.27500 31.35200 22.24500
H  47.54200 31.59600 22.56700
H  48.48600 30.44400 23.57300
H  43.94500 29.69200 27.55100
H  45.66700 29.23200 27.75900
H  45.07400 29.99600 26.24900
H  43.44200 33.11800 31.34900
H  43.74800 31.01500 34.96600
H  42.97300 32.55100 35.54000
H  44.77000 32.39400 35.28400
Mg 29.24200 58.87700 41.10300
C  26.08300 57.45600 40.46800
C  30.80600 56.20100 39.67500
C  32.04900 60.62600 41.39000
C  27.44700 61.95800 41.79800
N  28.48500 57.11100 40.04300
C  27.16300 56.66700 40.01900
C  27.10000 55.36700 39.26400
C  28.59200 54.94000 39.18100
C  29.38500 56.15400 39.64800
C  28.94300 53.73000 40.04200
C  26.40700 55.66100 37.85400
C  25.08900 55.02300 37.42300
H  25.03000 54.40500 36.05900
N  31.19200 58.43600 40.63300
C  31.67400 57.26100 40.11800
C  33.17100 57.41000 40.06100
C  33.52900 58.73300 40.56300
C  32.22800 59.31000 40.94700
C  34.09900 56.42500 39.39900
C  35.00600 59.23500 40.71000
O  35.84900 58.42200 40.53600
C  35.36400 60.61900 41.06900
N  29.64100 61.01000 41.27500
C  30.88000 61.38900 41.57900
C  30.89500 62.90100 41.94400
C  29.42000 63.34500 41.78900
C  28.75100 62.03200 41.56600
C  31.57300 63.30600 43.28000
C  29.24200 64.49500 40.75800
C  28.42500 65.64400 41.35800
N  27.21900 59.57000 41.23800
C  26.67400 60.82400 41.54600
C  25.23000 60.73600 41.64700
C  24.93700 59.44200 41.27200
C  26.21200 58.77100 41.01200
C  24.30800 61.78900 41.80500
C  23.85800 58.52700 41.03600
O  22.63000 58.69600 41.13900
C  24.58300 57.16300 40.46800
C  24.25000 56.09600 41.48600
O  24.62800 56.15400 42.62300
O  23.69900 54.96700 40.89600
C  23.68100 53.75700 41.74300
H  31.26600 55.23700 39.44700
H  32.98700 61.08900 41.70400
H  26.93600 62.89300 42.03500
H  26.46000 54.63100 39.75000
H  28.87300 54.60200 38.18400
H  29.96100 53.58100 40.40300
H  28.61900 52.73400 39.74000
H  28.26400 53.69100 40.89400
H  27.10200 55.42600 37.04800
H  26.21000 56.73200 37.82400
H  24.39700 55.86400 37.37000
H  24.79800 54.29600 38.18000
H  33.58400 55.46400 39.38900
H  34.96500 56.23800 40.03400
H  34.40000 56.71900 38.39400
H  35.01600 61.32800 40.31800
H  36.43900 60.78400 41.14200
H  35.02700 60.82100 42.08500
H  31.53500 63.33400 41.17500
H  28.96000 63.62300 42.73800
H  31.91700 62.39400 43.76900
H  30.84100 63.76000 43.94800
H  32.45800 63.89800 43.04500
H  28.75900 64.05600 39.88500
H  30.16500 64.94200 40.39100
H  28.99800 66.54000 41.12100
H  28.21300 65.67300 42.42600
H  27.48500 65.61700 40.80700
H  24.39600 62.49800 40.98200
H  24.51500 62.26000 42.76600
H  23.26900 61.46200 41.81800
H  24.12700 56.85200 39.52800
H  22.62700 53.55000 41.93100
H  24.30400 53.77800 42.63700
H  24.17300 53.00700 41.12500

