158

Mg 48.63800 16.50300 28.24400
C  46.61400 15.97900 31.03900
C  50.96700 17.98400 30.15200
C  50.13800 17.48600 25.33500
C  45.82000 15.29400 26.25600
N  48.67200 17.13500 30.35700
C  47.81600 16.70500 31.31400
C  48.34400 17.05600 32.64800
C  49.75400 17.72900 32.38000
C  49.81500 17.65500 30.83800
C  49.89800 19.16500 33.01300
C  48.56500 15.85100 33.64600
C  47.76200 15.87300 34.96700
H  47.39300 17.16800 35.62100
N  50.30300 17.60100 27.81000
C  51.22900 17.96900 28.74300
C  52.33700 18.50100 28.03500
C  52.11200 18.32100 26.65500
C  50.77700 17.78300 26.54200
C  53.51400 19.08600 28.77000
C  53.04000 18.69800 25.46100
O  52.74500 18.48800 24.29500
C  54.36800 19.25200 25.76800
N  48.01800 16.29800 26.06800
C  48.84800 16.85100 25.12300
C  48.19100 16.65200 23.69300
C  46.95600 15.75000 24.00600
C  46.89100 15.83300 25.53600
C  47.77700 18.01600 23.01600
C  47.00900 14.29200 23.45600
C  46.01500 13.85900 22.39900
N  46.72800 15.56700 28.55400
C  45.74500 15.14200 27.65500
C  44.61800 14.61200 28.39600
C  44.95700 14.87300 29.74700
C  46.19700 15.53500 29.76500
C  43.31600 14.08700 27.91800
C  44.46000 14.74100 31.11300
O  43.45600 14.27200 31.62100
C  45.53500 15.46500 32.02700
C  44.77000 16.53900 32.80400
O  44.62400 17.70800 32.45000
O  44.20500 15.99200 33.95900
C  43.25400 16.88100 34.74400
H  51.68300 18.43800 30.84000
H  50.59500 17.69000 24.36500
H  45.02700 14.94600 25.59100
H  47.66900 17.70600 33.20600
H  50.59100 17.10700 32.69800
H  48.96300 19.71000 32.88300
H  50.71300 19.72100 32.54700
H  50.19300 19.06900 34.05800
H  49.59000 15.66400 33.96700
H  48.33700 14.86300 33.24600
H  48.29900 15.31400 35.73300
H  46.81200 15.35100 34.85600
H  54.35900 18.40000 28.70900
H  53.29600 19.33600 29.80800
H  53.80400 20.01600 28.28000
H  54.26400 20.30800 26.01700
H  55.04800 19.03800 24.94300
H  54.74500 18.59600 26.55300
H  48.86200 16.12700 23.01200
H  46.12800 16.27400 23.52800
H  48.37500 18.81500 23.45400
H  46.71700 18.21700 23.16900
H  47.89000 18.02600 21.93200
H  46.99500 13.56800 24.27100
H  47.97500 14.10700 22.98400
H  46.50300 13.79300 21.42700
H  45.36000 14.72700 22.33200
H  45.55800 12.87900 22.54100
H  43.33300 13.01500 27.72000
H  42.93900 14.65700 27.06800
H  42.59200 14.39100 28.67400
H  45.96400 14.69000 32.66200
H  42.32100 17.11800 34.23300
H  43.63400 17.79500 35.20000
H  42.88300 16.25800 35.55700
Mg 47.71500 25.16900 28.31800
C  48.89300 27.14800 30.98500
C  46.85100 22.70100 30.57900
C  47.42500 23.04900 25.74000
C  49.07500 27.46700 26.07800
N  47.78100 25.05400 30.52700
C  48.33600 25.92000 31.43000
C  48.16300 25.39900 32.88700
C  47.42700 24.03800 32.68900
C  47.33400 23.92800 31.16600
C  48.12200 22.85000 33.40400
C  47.50400 26.33900 33.93400
C  46.47200 25.96700 34.94500
H  46.57000 26.55300 36.39500
N  47.13300 23.22100 28.18600
C  46.77100 22.35200 29.20500
C  46.24400 21.12300 28.69300
C  46.51400 21.15000 27.29800
C  46.98900 22.53700 26.99800
C  45.67000 20.06800 29.55400
C  46.31000 20.10500 26.23700
O  46.66700 20.26800 25.08700
C  45.82800 18.75800 26.72700
N  48.38000 25.18600 26.19000
C  47.91700 24.24300 25.30500
C  48.09500 24.60200 23.82600
C  48.42100 26.10200 23.96200
C  48.62100 26.29500 25.48900
C  49.24300 23.70800 23.27400
C  47.31800 27.04000 23.37300
C  46.04100 27.00800 24.13000
N  48.71100 26.96800 28.40100
C  49.15700 27.83800 27.38700
C  49.66100 28.98100 28.03000
C  49.45400 28.81300 29.34200
C  49.05700 27.47800 29.59600
C  50.22500 30.18900 27.49700
C  49.59500 29.52200 30.64000
O  49.96800 30.66900 30.89100
C  49.28000 28.40500 31.72100
C  50.53000 28.14700 32.46700
O  51.51200 27.61700 32.03600
O  50.37600 28.55700 33.74200
C  51.42400 28.16200 34.74200
H  46.36500 22.04800 31.30800
H  47.26500 22.37700 24.89400
H  49.31600 28.20700 25.31200
H  49.15800 25.18900 33.27800
H  46.43200 24.12400 33.12600
H  48.33000 23.17300 34.42400
H  48.98700 22.48000 32.85400
H  47.40000 22.03400 33.43800
H  47.21500 27.20600 33.34100
H  48.35400 26.55200 34.58300
H  46.44000 24.88500 35.08000
H  45.46000 26.23800 34.64500
H  44.59300 20.05600 29.38900
H  45.90200 20.17600 30.61400
H  46.09400 19.12500 29.20800
H  46.47300 18.10300 27.31400
H  45.50500 18.18000 25.86100
H  44.85600 18.94900 27.18000
H  47.13900 24.46800 23.31900
H  49.37600 26.36400 23.50700
H  49.73100 24.16100 22.41100
H  48.79700 22.76000 22.97300
H  50.02900 23.54400 24.01100
H  47.07200 26.89200 22.32100
H  47.82300 27.98300 23.58300
H  46.08400 26.45700 25.07000
H  45.33400 26.39800 23.56600
H  45.65900 28.01000 24.32400
H  51.10600 30.35900 28.11600
H  49.48500 30.98000 27.61600
H  50.60100 30.01900 26.48800
H  48.49600 28.66600 32.43100
H  52.32300 27.99200 34.15000
H  51.10600 27.21800 35.18600
H  51.58000 29.03400 35.37800

