158

Mg 8.48800 3.10700 27.12100
C  10.10800 1.49700 29.75600
C  7.07600 5.23200 29.32200
C  6.92400 4.47400 24.46400
C  9.83000 0.59500 24.95300
N  8.55300 3.31800 29.34200
C  9.40300 2.62900 30.17400
C  9.22800 3.10300 31.68900
C  8.25900 4.33300 31.55100
C  7.92900 4.32300 30.01400
C  7.09400 4.31100 32.47000
C  10.52300 3.30100 32.59000
C  10.44800 4.19400 33.83800
H  10.95600 3.51800 35.15400
N  7.17100 4.52200 26.95700
C  6.79300 5.38500 27.93400
C  5.83700 6.32000 27.39800
C  5.64800 6.02900 25.99000
C  6.65200 4.98300 25.74500
C  5.03300 7.27500 28.31100
C  4.71400 6.65500 24.99500
O  4.62400 6.29400 23.86700
C  3.62800 7.55800 25.45100
N  8.58800 2.69400 25.00600
C  7.72000 3.36700 24.19300
C  7.53900 2.47700 22.94100
C  8.57500 1.38700 23.00800
C  9.13000 1.60300 24.37900
C  6.03000 2.00200 22.74800
C  9.66800 1.37800 21.89200
C  9.69300 0.20800 20.92800
N  9.68300 1.37700 27.28900
C  10.27700 0.56800 26.30200
C  11.20500 -0.29500 26.97600
C  11.21100 0.00400 28.30800
C  10.25700 1.07300 28.46400
C  12.08100 -1.41000 26.42200
C  11.76100 -0.36400 29.68000
O  12.57600 -1.22400 30.04000
C  11.13000 0.71100 30.57300
C  10.57500 0.05100 31.82000
O  9.42900 -0.40100 31.99400
O  11.62600 0.02300 32.71100
C  11.36600 -0.31500 34.11400
H  6.72500 6.01800 29.99300
H  6.39200 4.84700 23.58600
H  10.09100 -0.28400 24.35900
H  8.70100 2.27900 32.16900
H  8.87400 5.20900 31.75900
H  6.68500 5.31900 32.54600
H  7.45500 3.94600 33.43100
H  6.35100 3.56400 32.19100
H  11.37900 3.61900 31.99500
H  10.69200 2.32300 33.04100
H  9.48300 4.62400 34.10400
H  11.11800 5.02700 33.62200
H  4.00000 7.05300 28.04400
H  5.33500 8.30900 28.14500
H  5.09300 7.11700 29.38700
H  3.14300 8.01300 24.58800
H  4.21200 8.38500 25.85600
H  2.97900 7.13100 26.21700
H  7.65700 3.16400 22.10300
H  7.96400 0.48800 22.93200
H  5.51600 2.15700 23.69700
H  5.98800 0.92300 22.60100
H  5.48700 2.49000 21.93800
H  10.63900 1.43300 22.38500
H  9.65100 2.25400 21.24400
H  8.87200 -0.48600 21.11200
H  10.61500 -0.36600 21.02100
H  9.60900 0.50000 19.88100
H  12.34700 -0.98100 25.45600
H  11.45000 -2.27900 26.23700
H  12.95700 -1.60700 27.04100
H  11.93800 1.37900 30.87000
H  11.46700 0.55200 34.76600
H  12.16500 -0.90200 34.56700
H  10.52400 -1.00000 34.21200
Mg -0.28200 43.66400 24.38500
C  1.46200 43.21500 27.36000
C  -3.21600 43.00400 26.03300
C  -1.87300 43.35000 21.30900
C  2.77600 43.88200 22.61600
N  -0.81500 43.31400 26.50300
C  0.10400 43.14000 27.51900
C  -0.60400 42.78800 28.75100
C  -2.13500 42.63800 28.29700
C  -2.07600 42.95500 26.85000
C  -2.67600 41.23200 28.61400
C  -0.42600 43.80200 29.97600
C  -0.39700 43.22100 31.44100
H  -0.71800 41.76600 31.75500
N  -2.28000 43.37400 23.82500
C  -3.35500 43.19000 24.63000
C  -4.55100 43.26200 23.91500
C  -4.17300 43.22300 22.53600
C  -2.71700 43.32200 22.48500
C  -5.94700 43.20100 24.54900
C  -5.09300 43.12800 21.34500
O  -4.68800 43.27000 20.22400
C  -6.56600 42.64600 21.52600
N  0.31100 43.59400 22.35800
C  -0.47200 43.44000 21.25900
C  0.25000 43.40500 19.91400
C  1.63500 43.71700 20.33300
C  1.55200 43.68500 21.88700
C  0.05000 42.11800 19.02900
C  2.26600 45.01100 19.76000
C  1.50500 46.37100 19.86200
N  1.79500 43.52000 24.82800
C  2.89100 43.69800 23.99400
C  4.10200 43.63400 24.87100
C  3.58500 43.45600 26.16900
C  2.16700 43.38800 26.11600
C  5.62200 43.64400 24.43900
C  3.93000 43.28400 27.54500
O  4.98300 43.18500 28.10500
C  2.58900 43.06800 28.35000
C  2.71700 41.87800 29.16800
O  2.65300 40.75100 28.70800
O  3.00900 42.23200 30.44800
C  3.39700 41.19200 31.34400
H  -4.13400 42.89600 26.61400
H  -2.38200 43.15200 20.36400
H  3.64100 43.92300 21.95100
H  -0.22600 41.86100 29.18300
H  -2.85600 43.33300 28.72900
H  -1.94100 40.42900 28.65800
H  -3.40200 40.92700 27.86000
H  -3.06900 41.27200 29.63000
H  -1.29700 44.45600 29.94800
H  0.38200 44.49500 29.74000
H  -1.05600 43.86100 32.02700
H  0.64500 43.34800 31.73400
H  -6.43300 42.24500 24.35500
H  -6.54400 43.98000 24.07500
H  -6.07800 43.46500 25.59900
H  -7.22000 43.47800 21.78700
H  -6.63800 41.76000 22.15700
H  -6.82500 42.11200 20.61200
H  -0.15500 44.20300 19.29200
H  2.35200 42.95400 20.03100
H  0.72800 41.39700 19.48500
H  0.21800 42.34800 17.97700
H  -0.96000 41.73100 19.16900
H  2.42600 44.93800 18.68400
H  3.23400 45.19900 20.22500
H  0.93200 46.83000 19.05600
H  2.15500 47.22700 20.04700
H  0.83300 46.44200 20.71800
H  6.05300 44.54600 24.87300
H  5.72100 43.62800 23.35400
H  6.13800 42.73900 24.75900
H  2.46800 43.91400 29.02600
H  4.16500 40.60000 30.84700
H  2.54700 40.53200 31.51500
H  3.76900 41.63900 32.26600

