158

Mg 8.48200 3.39500 27.78500
C  9.96200 1.95100 30.72200
C  6.48200 5.09800 30.17400
C  7.06200 4.68700 25.28600
C  10.40300 1.33900 25.84500
N  8.13200 3.30200 30.29300
C  8.92200 2.73300 31.22100
C  8.44800 3.02700 32.63100
C  7.34200 4.10800 32.34000
C  7.28300 4.11400 30.85600
C  5.86100 3.71300 32.94500
C  9.55800 3.39100 33.60800
C  9.26900 4.53400 34.60400
H  9.97000 4.29800 35.96100
N  6.94200 4.66600 27.70500
C  6.27300 5.27300 28.78500
C  5.31500 6.27000 28.19100
C  5.57500 6.27800 26.80100
C  6.55600 5.14100 26.58000
C  4.29400 7.12700 28.96700
C  5.04900 7.15100 25.72400
O  5.49700 7.18300 24.54300
C  3.88100 7.98600 26.01600
N  8.59500 2.95400 25.74900
C  7.93500 3.70000 24.88600
C  8.34800 3.36400 23.45900
C  9.58600 2.47000 23.70500
C  9.49300 2.17200 25.19500
C  7.20400 2.56500 22.66500
C  10.88700 3.14100 23.32600
C  11.72300 3.92100 24.32400
N  9.81700 1.90700 28.12600
C  10.49500 1.11400 27.21400
C  11.43000 0.26600 27.83600
C  11.28300 0.57500 29.21700
C  10.28900 1.58800 29.37500
C  12.30700 -0.83900 27.26100
C  11.77900 0.21000 30.52200
O  12.72700 -0.50900 30.77400
C  10.91300 1.10500 31.53600
C  10.09000 0.16700 32.30200
O  9.17800 -0.45800 31.89600
O  10.49900 0.18200 33.61000
C  9.82200 -0.67100 34.58100
H  5.87100 5.78500 30.76400
H  6.64800 5.12800 24.37800
H  11.16400 0.86200 25.22400
H  8.10200 2.02200 32.87300
H  7.58100 5.11600 32.67900
H  5.18500 3.21900 32.24700
H  5.44600 4.66100 33.28700
H  5.91800 3.09000 33.83700
H  10.42800 3.53900 32.96900
H  9.65300 2.53500 34.27700
H  8.18900 4.64700 34.70100
H  9.69000 5.47400 34.24700
H  3.33800 6.60800 28.90000
H  4.30700 8.15000 28.59300
H  4.52200 7.24700 30.02700
H  3.58800 8.40200 25.05200
H  4.27600 8.81400 26.60500
H  3.11400 7.44800 26.57400
H  8.54000 4.20600 22.79400
H  9.66300 1.52800 23.16200
H  6.40800 2.59000 23.40900
H  7.31800 1.51400 22.39900
H  6.86200 3.17900 21.83200
H  10.69800 3.85400 22.52400
H  11.53700 2.39600 22.86600
H  11.15500 4.35800 25.14400
H  12.30100 4.71000 23.84400
H  12.38100 3.09500 24.59500
H  12.20600 -1.64700 27.98600
H  13.35500 -0.57600 27.39900
H  12.06300 -1.18400 26.25600
H  11.58900 1.64300 32.20100
H  9.53900 -0.01900 35.40700
H  10.48200 -1.34900 35.12200
H  8.93500 -1.08400 34.09900
Mg 9.81000 48.16100 24.96900
C  7.14100 48.45500 27.45100
C  11.77900 49.33200 27.16300
C  12.05900 48.02500 22.41600
C  7.20100 47.63400 22.63100
N  9.49600 48.74900 27.06900
C  8.44000 48.75700 27.92200
C  8.75000 49.04400 29.42000
C  10.23900 49.60700 29.17600
C  10.51000 49.39200 27.70500
C  10.47100 51.06700 29.66300
C  8.51500 47.81700 30.43400
C  9.50200 47.64600 31.60800
H  9.01700 46.88100 32.83200
N  11.71900 48.44200 24.91100
C  12.39300 48.90900 25.94600
C  13.75100 48.86800 25.67400
C  13.88600 48.53200 24.28400
C  12.51800 48.41900 23.77800
C  14.78800 49.20300 26.72500
C  15.10400 48.38400 23.45400
O  15.07600 48.15400 22.26300
C  16.40700 48.32400 24.09000
N  9.66200 48.05500 22.82600
C  10.73500 47.94400 21.97500
C  10.35400 47.55500 20.56900
C  8.86900 47.26200 20.68400
C  8.52000 47.68700 22.12000
C  10.76600 48.65700 19.61900
C  8.38000 45.81900 20.28900
C  9.20500 44.67700 20.84700
N  7.63300 47.90800 24.97700
C  6.71700 47.75900 23.90200
C  5.33900 47.82800 24.38600
C  5.51200 48.07000 25.76600
C  6.88100 48.09600 26.04400
C  4.09300 47.60100 23.59900
C  4.72900 48.43800 26.97700
O  3.54100 48.67600 27.19700
C  5.75900 48.55100 28.16300
C  5.59900 47.39900 29.05500
O  5.87600 46.24200 28.77800
O  5.09500 47.88800 30.21400
C  5.05400 46.81600 31.26900
H  12.47700 49.69100 27.92300
H  12.80400 47.88300 21.63100
H  6.38700 47.41300 21.93700
H  8.11500 49.84700 29.79400
H  10.97100 49.02000 29.73100
H  11.31000 51.11600 30.35800
H  9.58600 51.25100 30.27100
H  10.54000 51.76000 28.82400
H  8.37000 46.88700 29.88400
H  7.53000 47.97300 30.87500
H  9.85900 48.64100 31.87600
H  10.30200 47.00900 31.23200
H  15.66800 48.56600 26.63500
H  14.55700 49.14200 27.78900
H  14.98800 50.22300 26.39900
H  16.55800 49.31900 24.50900
H  17.16800 48.16100 23.32700
H  16.32900 47.56200 24.86500
H  10.88400 46.64400 20.29100
H  8.31000 47.83100 19.94000
H  11.58900 49.21300 20.06700
H  9.92300 49.30800 19.39000
H  11.11600 48.22000 18.68400
H  8.53400 45.77500 19.21100
H  7.35000 45.75000 20.64000
H  9.80400 44.93300 21.72100
H  9.69200 44.14900 20.02800
H  8.39200 44.01900 21.15500
H  3.70900 48.55500 23.23800
H  3.33900 47.25900 24.30800
H  4.22500 46.84900 22.82100
H  5.74700 49.46200 28.76200
H  6.06900 46.43000 31.36100
H  4.54400 45.88400 31.02300
H  4.69600 47.18000 32.23200

