158

Mg 44.40700 4.48300 46.78800
C  42.27700 7.21800 46.28800
C  41.83300 2.39500 46.21400
C  46.68300 1.97600 46.79000
C  47.11500 6.81000 46.39800
N  42.33900 4.79500 46.26200
C  41.66600 5.98200 46.13400
C  40.13900 5.71400 46.01900
C  40.01800 4.15000 46.14800
C  41.50300 3.77100 46.27100
C  39.22500 3.63800 47.39600
C  39.37900 6.26200 44.80900
C  40.04400 6.13700 43.44200
H  40.68200 7.31900 42.67500
N  44.31700 2.39700 46.69600
C  43.11000 1.70000 46.41200
C  43.38400 0.31900 46.40600
C  44.77100 0.16200 46.53500
C  45.34200 1.55000 46.70500
C  42.27000 -0.66300 46.13900
C  45.57000 -1.15200 46.57000
O  44.98500 -2.26700 46.31000
C  46.99900 -1.23200 46.97800
N  46.62200 4.39900 46.78100
C  47.26100 3.25000 46.78300
C  48.75600 3.42400 46.55500
C  48.79000 4.96000 46.18100
C  47.41800 5.43000 46.37700
C  49.69800 3.00900 47.67100
C  49.40400 5.20900 44.76600
C  50.91600 5.48500 44.80300
N  44.68600 6.58700 46.49300
C  45.81100 7.34100 46.38500
C  45.47700 8.72400 46.14600
C  44.09400 8.74800 46.25200
C  43.63200 7.38300 46.46100
C  46.32300 9.84800 46.01200
C  42.92400 9.64700 46.42300
O  42.83400 10.89700 46.51700
C  41.71300 8.60300 46.31200
C  40.87600 8.92200 47.41600
O  41.00800 8.38200 48.50600
O  39.95200 9.77000 47.07800
C  39.06100 10.12000 48.19800
H  40.91900 1.80800 46.10500
H  47.53200 1.29200 46.85100
H  47.95300 7.47700 46.18500
H  39.74600 6.17500 46.92500
H  39.64300 3.65700 45.25100
H  38.40100 4.34000 47.52800
H  39.92400 3.55400 48.22800
H  38.82000 2.64900 47.18000
H  39.25300 7.32400 45.02100
H  38.42900 5.74500 44.68000
H  39.28900 5.80200 42.73100
H  40.76900 5.32600 43.50200
H  41.98400 -0.68800 45.08700
H  41.30800 -0.30200 46.50300
H  42.50400 -1.65900 46.51700
H  47.13500 -2.19400 47.47200
H  47.14300 -0.51200 47.78300
H  47.65900 -0.91400 46.17100
H  49.08800 2.88600 45.66700
H  49.36900 5.55500 46.88800
H  50.25400 2.11800 47.38100
H  49.09700 2.67700 48.51700
H  50.43400 3.73600 48.01500
H  48.89400 6.04600 44.28800
H  49.20400 4.39100 44.07400
H  51.43400 5.00700 45.63400
H  50.98400 6.56200 44.95800
H  51.44300 5.28300 43.87000
H  47.30100 9.40400 45.82700
H  46.30800 10.48600 46.89600
H  45.97300 10.59100 45.29500
H  41.26400 8.84200 45.34800
H  38.46900 9.25900 48.50900
H  38.29900 10.81400 47.84400
H  39.51200 10.60900 49.06100
Mg 5.44500 54.39100 39.99500
C  5.99500 50.85200 40.01800
C  8.83100 54.70600 39.29000
C  4.92400 57.58700 39.27800
C  2.17800 53.87100 40.61900
N  7.17000 52.91100 39.68400
C  7.13600 51.55500 39.68600
C  8.49200 50.96600 39.48300
C  9.42000 52.23600 39.73200
C  8.44800 53.36500 39.51700
C  10.25700 52.22800 41.06900
C  8.74100 50.27400 38.06200
C  8.70800 51.17000 36.80300
H  7.63900 50.98100 35.73200
N  6.67000 55.89500 39.28200
C  8.03800 55.86800 39.15300
C  8.55000 57.16100 38.79600
C  7.41600 58.02100 38.73400
C  6.28200 57.18100 39.05100
C  9.97700 57.59100 38.60100
C  7.43500 59.50300 38.33000
O  8.51300 59.97600 37.97400
C  6.24100 60.38200 38.17000
N  3.70700 55.49800 39.57900
C  3.78100 56.83400 39.52100
C  2.42000 57.52100 39.86500
C  1.52700 56.22300 40.15600
C  2.55200 55.12200 40.14600
C  2.43000 58.54500 41.04300
C  0.47900 55.96600 39.05200
C  -0.95700 56.36900 39.29100
N  4.26800 52.75900 40.25000
C  2.93000 52.67100 40.57900
C  2.54800 51.29400 40.95000
C  3.69800 50.55500 40.71500
C  4.71900 51.45300 40.24800
C  1.24300 50.80400 41.60400
C  4.27500 49.19000 40.83800
O  3.80800 48.12600 41.21300
C  5.74000 49.33500 40.23500
C  5.72100 48.51100 38.98900
O  5.15100 48.79500 37.92700
O  6.37100 47.27900 39.22300
C  6.66400 46.46900 38.01100
H  9.90500 54.78000 39.10500
H  4.63600 58.64000 39.26600
H  1.16800 53.72000 41.00700
H  8.74200 50.14200 40.15000
H  10.20000 52.41400 38.99100
H  11.32400 52.43100 40.97600
H  10.21800 51.23900 41.52700
H  9.71000 52.94300 41.68300
H  7.98000 49.52600 37.83800
H  9.70600 49.77100 38.12100
H  9.72200 51.07000 36.41500
H  8.61600 52.21100 37.11000
H  10.72300 56.81100 38.75400
H  10.20700 58.30300 39.39300
H  10.04100 58.09000 37.63400
H  6.49400 61.26000 37.57400
H  5.97600 60.64300 39.19400
H  5.45100 59.86900 37.62200
H  1.98200 58.05200 39.02000
H  0.95900 56.21400 41.08600
H  2.93500 59.48500 40.82000
H  2.84300 58.02700 41.90800
H  1.39900 58.79300 41.29400
H  0.54200 54.93100 38.71700
H  0.79000 56.43700 38.11900
H  -1.51800 55.64700 38.69700
H  -1.11800 57.34800 38.84000
H  -1.20400 56.30600 40.35100
H  0.83900 51.67900 42.11300
H  1.37000 50.04000 42.37100
H  0.49100 50.49300 40.87900
H  6.42300 48.85400 40.93600
H  5.87700 46.33100 37.27000
H  7.10900 45.50300 38.25200
H  7.44800 47.02400 37.49500

