158

Mg -0.19800 7.96100 24.62200
C  0.44100 8.95900 28.01600
C  -0.38300 4.72900 25.70700
C  -0.58500 7.16900 21.48700
C  0.02900 11.35400 23.74700
N  0.05100 6.94900 26.67300
C  0.32400 7.53200 27.89400
C  0.62100 6.48100 28.96500
C  0.43500 5.08800 28.13000
C  0.01500 5.59600 26.79000
C  1.66100 3.99500 28.12500
C  -0.27900 6.41900 30.25600
C  0.56600 6.61800 31.52100
H  1.77900 5.77800 31.84700
N  -0.43300 6.19200 23.72800
C  -0.46600 4.92900 24.36400
C  -0.49400 3.89800 23.31100
C  -0.54000 4.62400 22.05100
C  -0.54200 6.03400 22.37600
C  -0.66600 2.42300 23.60300
C  -0.63000 4.07200 20.62500
O  -0.73700 4.82700 19.62200
C  -0.50500 2.56600 20.42500
N  -0.30400 9.10500 22.86400
C  -0.44500 8.50300 21.68200
C  -0.40400 9.54500 20.48100
C  -0.33600 10.83400 21.28500
C  -0.13100 10.40900 22.75300
C  0.79800 9.42800 19.49600
C  -1.63300 11.76800 21.15700
C  -2.89100 11.21700 21.86600
N  0.26500 9.81600 25.61000
C  0.18800 11.12500 25.13100
C  0.61500 12.05000 26.20600
C  0.66900 11.25800 27.29800
C  0.47300 9.88800 26.94300
C  0.86700 13.45900 26.02700
C  0.89600 11.32900 28.73600
O  1.10500 12.30600 29.51000
C  0.83700 9.81600 29.21900
C  2.18600 9.63300 29.73700
O  3.11300 9.15400 29.15100
O  2.19000 9.92300 31.09000
C  3.32400 9.44800 31.87600
H  -0.20200 3.68300 25.96300
H  -0.72900 6.87400 20.44600
H  0.01900 12.35700 23.31500
H  1.68000 6.54800 29.21400
H  -0.48100 4.61600 28.48600
H  1.53300 3.56700 27.13100
H  1.57900 3.23000 28.89700
H  2.60900 4.51000 28.28000
H  -0.75400 5.45200 30.41800
H  -1.04100 7.19500 30.19000
H  -0.14600 6.48500 32.33500
H  0.78400 7.68100 31.42000
H  -1.50900 2.07300 23.00700
H  -0.91700 2.25600 24.65100
H  0.28900 2.00100 23.29200
H  0.35200 2.16100 20.96300
H  -0.39100 2.49300 19.34300
H  -1.40600 2.07500 20.79300
H  -1.36100 9.34300 19.99900
H  0.55300 11.42300 21.05900
H  1.35800 10.34200 19.29700
H  0.38200 9.03700 18.56800
H  1.43000 8.66600 19.95200
H  -1.96900 11.87000 20.12500
H  -1.32100 12.71700 21.59400
H  -3.59800 10.97300 21.07300
H  -3.32700 12.11500 22.30400
H  -2.70800 10.30700 22.43800
H  1.65500 13.74900 26.72100
H  0.01000 14.09900 26.23800
H  1.19500 13.62500 25.00100
H  0.07600 9.78600 29.99800
H  3.47300 10.20100 32.65100
H  4.15300 9.35100 31.17500
H  3.16000 8.51500 32.41600
Mg 42.27100 41.72700 26.34500
C  40.96300 43.93000 28.64900
C  42.90700 39.48100 28.80000
C  43.51400 39.73800 23.99500
C  41.69100 44.24100 23.92300
N  42.08300 41.76300 28.53900
C  41.36000 42.71700 29.23700
C  41.31500 42.37500 30.76400
C  42.02200 40.99000 30.73400
C  42.37300 40.68700 29.27400
C  43.26600 40.77000 31.60100
C  39.90700 42.39400 31.38600
C  39.58000 41.66000 32.63100
H  39.30200 42.50000 33.88500
N  42.92000 39.85400 26.38100
C  43.10200 39.00800 27.44600
C  43.46700 37.67700 27.05800
C  43.60700 37.74100 25.63900
C  43.40800 39.20800 25.29400
C  43.50500 36.45600 27.98100
C  43.70200 36.68400 24.62300
O  43.94900 36.79900 23.43900
C  43.61500 35.22800 25.11200
N  42.48200 41.93800 24.21500
C  43.24200 41.03500 23.51500
C  43.56500 41.52900 22.14300
C  42.68300 42.81500 21.99000
C  42.24500 43.04100 23.46100
C  45.13200 41.67900 21.94200
C  41.51900 42.77200 21.01000
C  40.07300 43.03400 21.42900
N  41.55100 43.62600 26.24800
C  41.36100 44.54100 25.20500
C  40.72900 45.78200 25.64600
C  40.64600 45.59500 27.05300
C  41.08200 44.27800 27.33600
C  40.29700 46.96100 24.88800
C  40.20900 46.22800 28.28700
O  39.74900 47.36200 28.47200
C  40.46700 45.16400 29.37200
C  41.50100 45.74600 30.30500
O  42.68100 45.75400 30.18100
O  40.93600 46.17600 31.47700
C  41.76100 46.50500 32.64600
H  43.29200 38.79100 29.55400
H  44.01300 39.28200 23.13800
H  41.56300 45.03300 23.18200
H  42.03000 43.03200 31.26000
H  41.22600 40.29100 30.99000
H  44.11600 40.75700 30.91900
H  43.16700 39.86800 32.20500
H  43.40100 41.62200 32.26800
H  39.13500 42.09700 30.67600
H  39.66800 43.45400 31.48200
H  40.48400 41.09500 32.85500
H  38.80300 40.91100 32.48000
H  44.45100 36.01500 27.66600
H  42.66000 35.80700 27.75000
H  43.54100 36.72100 29.03800
H  43.54000 34.63700 24.19900
H  42.63700 35.10700 25.57900
H  44.55500 34.94600 25.58500
H  43.18900 40.83500 21.39100
H  43.27800 43.71100 21.81100
H  45.67600 41.42000 22.85100
H  45.31300 42.74500 21.80200
H  45.54500 41.10400 21.11300
H  41.58200 41.84200 20.44500
H  41.75100 43.50700 20.23800
H  39.43900 42.57400 20.67200
H  39.88200 44.08600 21.21800
H  39.74800 42.78100 22.43900
H  39.77900 46.57600 24.00900
H  41.04000 47.72600 24.66400
H  39.72900 47.59600 25.56800
H  39.52700 45.04800 29.91300
H  41.57500 47.50000 33.04900
H  42.81500 46.57100 32.37600
H  41.59300 45.70300 33.36500

