158

Mg 47.33700 44.88000 44.10600
C  43.93400 44.33300 43.66900
C  47.92900 41.58900 43.05000
C  50.66600 45.72400 43.50000
C  46.63300 48.25900 44.66000
N  46.11100 43.20900 43.37400
C  44.72000 43.21800 43.48000
C  44.17500 41.96300 42.79200
C  45.38200 40.96300 43.13000
C  46.58700 41.93500 43.18400
C  45.22200 40.18400 44.47400
C  43.97600 42.06200 41.24800
C  42.52300 41.92700 40.78200
H  42.29600 41.32300 39.37300
N  49.09000 43.78300 43.49700
C  49.07400 42.45400 43.08200
C  50.40400 42.10500 42.79600
C  51.19100 43.24800 42.95100
C  50.32000 44.32500 43.31600
C  50.72000 40.70400 42.37600
C  52.66100 43.29000 42.68500
O  53.27300 42.27900 42.48900
C  53.47200 44.53400 42.93100
N  48.51200 46.72200 44.05900
C  49.83600 46.80400 43.84100
C  50.36000 48.25900 44.05000
C  49.01700 49.07400 44.41100
C  47.98200 47.93800 44.45000
C  51.57000 48.43800 45.08300
C  48.72900 50.16200 43.29500
C  47.91200 51.33200 43.66500
N  45.62200 46.05500 44.34100
C  45.52700 47.40300 44.53700
C  44.17200 47.75400 44.61600
C  43.44600 46.61400 44.25100
C  44.41200 45.59600 44.07800
C  43.54400 49.05200 44.74600
C  42.24600 46.02200 43.89700
O  41.09600 46.60800 43.76100
C  42.36100 44.50800 43.67100
C  41.64400 43.83500 44.85000
O  40.48000 43.44600 44.87500
O  42.44900 43.73900 45.96500
C  41.83100 43.05300 47.13300
H  48.02500 40.53200 42.79300
H  51.65200 46.05500 43.16500
H  46.25600 49.28100 44.74100
H  43.28600 41.61100 43.31500
H  45.66900 40.26800 42.34100
H  44.17400 39.98600 44.70000
H  45.66200 40.79000 45.26600
H  45.67100 39.19100 44.49500
H  44.61400 41.32600 40.76000
H  44.24200 43.09400 41.02000
H  42.04900 42.90800 40.76100
H  42.03800 41.27300 41.50700
H  50.57300 40.73700 41.29600
H  50.13700 39.94600 42.89900
H  51.74400 40.57300 42.72700
H  54.54300 44.33200 42.91300
H  53.21100 44.81100 43.95300
H  53.23700 45.37600 42.28100
H  50.88900 48.53700 43.13900
H  49.08100 49.40200 45.44800
H  51.39100 49.25100 45.78600
H  52.53000 48.53200 44.57600
H  51.72100 47.54700 45.69200
H  48.11400 49.79900 42.47200
H  49.60200 50.52300 42.75200
H  48.62700 52.15400 43.64300
H  47.62100 51.39300 44.71300
H  47.01200 51.57400 43.09900
H  42.58800 48.92700 44.23700
H  44.19000 49.83100 44.34200
H  43.38500 49.20500 45.81300
H  41.93600 44.17700 42.72400
H  41.75500 41.97200 47.01900
H  40.98200 43.66600 47.43600
H  42.55000 43.12600 47.95000
Mg 41.15000 41.33900 27.05100
C  40.26200 43.71200 29.47200
C  42.04200 39.28500 29.61300
C  42.30300 39.14400 24.80400
C  40.77300 43.80800 24.58500
N  41.07900 41.51800 29.16100
C  40.52900 42.44900 29.95500
C  40.57800 42.14500 31.44700
C  41.17300 40.67500 31.51400
C  41.51600 40.49300 30.00200
C  42.36200 40.48000 32.49900
C  39.23800 42.29400 32.21100
C  39.20900 41.61000 33.56200
H  38.46100 42.24200 34.72100
N  42.06700 39.46200 27.22000
C  42.37900 38.77600 28.39400
C  42.69700 37.42900 28.04800
C  42.63800 37.30400 26.64200
C  42.30000 38.65800 26.12200
C  42.94300 36.34900 29.14000
C  42.90300 36.01600 25.75500
O  42.96000 36.02700 24.51400
C  42.86800 34.73000 26.55100
N  41.63800 41.46300 25.05400
C  42.07400 40.43200 24.33000
C  41.99500 40.69100 22.80400
C  41.40700 42.15200 22.72800
C  41.19900 42.48300 24.21600
C  43.38300 40.46900 22.00000
C  40.15700 42.33700 21.79500
C  38.77700 42.20900 22.44500
N  40.57700 43.31200 26.96000
C  40.53200 44.21900 25.89800
C  39.96800 45.41700 26.37800
C  39.87100 45.30400 27.77100
C  40.29700 44.05900 28.07200
C  39.77400 46.61700 25.56600
C  39.44500 45.99300 29.00700
O  38.94100 47.07100 29.13400
C  39.63700 44.98700 30.11400
C  40.56700 45.61600 31.09700
O  41.78500 45.61100 30.97700
O  39.94000 46.27300 32.17700
C  40.82100 46.83700 33.24800
H  42.35500 38.59300 30.39800
H  42.53800 38.46600 23.98100
H  40.59000 44.46500 23.73200
H  41.36100 42.80500 31.82100
H  40.42900 39.91200 31.74300
H  43.29500 40.23100 31.99400
H  42.06000 39.74300 33.24300
H  42.49400 41.40800 33.05700
H  38.32700 42.00100 31.69000
H  38.95500 43.32800 32.41000
H  40.26900 41.58300 33.81300
H  38.79900 40.60600 33.46000
H  42.51100 36.64600 30.09600
H  44.02100 36.21300 29.23000
H  42.41500 35.43300 28.87700
H  41.93400 34.64200 27.10600
H  43.72000 34.67200 27.22900
H  42.84700 33.91800 25.82400
H  41.24700 40.04400 22.34500
H  42.23600 42.83100 22.52800
H  43.17100 39.70900 21.24800
H  44.09200 40.09400 22.73800
H  43.61100 41.44900 21.58100
H  40.39200 41.73800 20.91600
H  40.06200 43.40200 21.58500
H  38.15300 41.49600 21.90700
H  38.25200 43.15300 22.59400
H  38.93200 41.85900 23.46600
H  39.17700 47.36900 26.08200
H  39.24800 46.28400 24.67100
H  40.60400 47.20600 25.17500
H  38.68200 44.76000 30.58800
H  40.45700 46.60300 34.24800
H  40.95100 47.89700 33.02700
H  41.78600 46.35800 33.41600

