158

Mg 45.51200 4.23600 47.66400
C  43.52000 6.97100 47.05800
C  42.90100 2.14400 47.01900
C  47.78500 1.69000 47.23800
C  48.25600 6.41900 47.74100
N  43.44700 4.55200 47.17200
C  42.83600 5.76900 46.92400
C  41.33200 5.62600 46.59900
C  41.05600 4.06400 46.88700
C  42.51900 3.51900 47.06200
C  40.09700 3.67800 48.00100
C  40.84400 6.38700 45.23400
C  40.71100 5.51300 43.97900
H  40.48100 6.24100 42.64800
N  45.35300 2.16700 47.26900
C  44.17000 1.50700 47.05500
C  44.47000 0.11100 46.93400
C  45.85400 -0.08300 46.97000
C  46.40400 1.27700 47.17800
C  43.37000 -0.96000 46.80700
C  46.57300 -1.35200 46.83000
O  45.84300 -2.37100 46.68400
C  48.04300 -1.53800 46.91200
N  47.69100 4.11800 47.80200
C  48.34000 2.98300 47.47100
C  49.89300 3.17500 47.65600
C  50.00800 4.64100 47.91500
C  48.58800 5.10300 47.88800
C  50.56300 2.20500 48.60700
C  51.02900 5.39900 46.94800
C  51.85800 6.56500 47.67700
N  45.87800 6.29800 47.64400
C  47.01700 7.07700 47.66400
C  46.70900 8.45800 47.54800
C  45.35200 8.50400 47.44200
C  44.88400 7.13700 47.47400
C  47.67900 9.55400 47.56900
C  44.16400 9.37800 47.32800
O  44.07100 10.60600 47.39000
C  42.96400 8.36100 47.10400
C  42.08800 8.55800 48.29500
O  42.28200 7.99400 49.41700
O  41.05700 9.50100 48.07700
C  40.20800 9.63600 49.26800
H  42.04900 1.46400 47.09400
H  48.40600 0.84000 46.95000
H  49.11600 7.08400 47.84800
H  40.80700 6.14800 47.39800
H  40.73500 3.67300 45.92100
H  40.13700 4.36100 48.84900
H  40.40500 2.73900 48.46200
H  39.09400 3.59200 47.58300
H  41.66000 7.03700 44.91900
H  39.83300 6.77000 45.37300
H  39.82600 4.88900 44.10000
H  41.50400 4.78300 43.81700
H  43.40100 -1.66300 47.64000
H  43.56900 -1.60900 45.95500
H  42.36100 -0.54900 46.76400
H  48.44300 -1.07400 47.81400
H  48.39500 -1.05900 45.99900
H  48.52100 -2.51800 46.92800
H  50.37900 3.06000 46.68700
H  50.33400 4.61000 48.95400
H  49.79600 1.70500 49.19900
H  51.28800 2.75400 49.20700
H  51.10000 1.40300 48.10100
H  50.49000 5.89100 46.13800
H  51.74300 4.81600 46.36500
H  52.52100 6.06900 48.38600
H  51.28200 7.26700 48.28000
H  52.33200 7.13100 46.87600
H  47.19500 10.50000 47.32700
H  48.57500 9.36400 46.97800
H  47.94600 9.67000 48.62000
H  42.50200 8.68800 46.17300
H  40.82300 9.69200 50.16600
H  39.40300 8.92100 49.43700
H  39.67700 10.58800 49.24200
Mg 42.19500 41.53800 27.37400
C  41.40700 43.95100 29.84300
C  42.86100 39.23900 29.91200
C  42.94100 39.31200 25.06100
C  41.80300 44.09300 25.00500
N  42.26100 41.66700 29.57400
C  41.70900 42.66200 30.35400
C  41.74300 42.26900 31.78900
C  42.43800 40.93300 31.82700
C  42.50100 40.56200 30.35100
C  43.85000 40.85400 32.48300
C  40.27900 42.24800 32.33800
C  40.03100 43.04400 33.61400
H  39.48500 42.37000 34.95600
N  42.76100 39.54300 27.48700
C  42.98700 38.79100 28.58900
C  43.31800 37.44400 28.15900
C  43.29900 37.38000 26.74700
C  42.95800 38.74700 26.37800
C  43.59400 36.31500 29.13000
C  43.51100 36.24900 25.87300
O  43.58700 36.43100 24.70600
C  43.82100 34.87200 26.35800
N  42.32400 41.72200 25.43900
C  42.68100 40.62600 24.62600
C  42.66500 40.96000 23.12900
C  42.08800 42.41600 23.05700
C  42.14200 42.81800 24.60000
C  43.96500 40.67200 22.30600
C  40.67700 42.61300 22.55100
C  39.54800 41.90300 23.36400
N  41.66400 43.64500 27.38900
C  41.55000 44.49200 26.31900
C  41.05600 45.77000 26.80000
C  40.92400 45.60700 28.23800
C  41.37400 44.31300 28.45600
C  40.77300 46.95800 25.88700
C  40.53300 46.24000 29.48600
O  40.15700 47.35900 29.82600
C  40.87600 45.15900 30.61900
C  41.98200 45.66500 31.54500
O  43.18400 45.43900 31.43300
O  41.40200 46.31100 32.56100
C  42.29400 46.77800 33.69400
H  43.16700 38.55300 30.70400
H  43.19200 38.66100 24.22100
H  41.48600 44.80600 24.24000
H  42.30000 42.96300 32.41800
H  41.77400 40.19700 32.28100
H  43.70200 39.90000 32.98900
H  43.89700 41.73400 33.12400
H  44.63300 40.69200 31.74100
H  40.07900 41.22700 32.66500
H  39.54100 42.46400 31.56600
H  39.22700 43.75100 33.40900
H  40.82700 43.76300 33.81300
H  44.65000 36.16900 29.35600
H  43.13400 35.34200 28.95400
H  43.07200 36.58900 30.04700
H  43.81300 34.16900 25.52400
H  42.91300 34.61900 26.90600
H  44.71300 34.93000 26.98200
H  41.97000 40.30700 22.59900
H  42.81200 43.04300 22.53600
H  44.37200 41.59400 21.89200
H  43.68800 40.01700 21.47900
H  44.70600 40.21000 22.95800
H  40.64600 42.11300 21.58300
H  40.43300 43.67300 22.62400
H  39.82100 41.78300 24.41200
H  39.23800 40.95700 22.91900
H  38.65000 42.51100 23.25800
H  40.41700 46.57100 24.93200
H  41.75400 47.40400 25.72800
H  39.97200 47.60800 26.23700
H  40.00600 44.98700 31.25300
H  42.62200 45.95300 34.32600
H  41.77600 47.46500 34.36300
H  43.10100 47.36300 33.25300

