158

Mg 46.75400 25.76400 27.72300
C  47.95600 27.94800 30.34600
C  45.82400 23.40500 30.12400
C  46.04700 23.71100 25.20500
C  48.41200 27.91700 25.43300
N  46.93400 25.69500 29.90200
C  47.30600 26.69700 30.80800
C  46.89100 26.35800 32.24500
C  46.31600 24.92600 32.15200
C  46.28400 24.60900 30.63900
C  46.78300 23.82300 33.09100
C  46.05700 27.45200 33.05700
C  46.75900 27.96300 34.35800
H  45.76400 28.29200 35.54400
N  45.84600 23.86300 27.65000
C  45.74500 23.01700 28.74900
C  45.46900 21.66600 28.23300
C  45.34700 21.77900 26.81000
C  45.75300 23.17300 26.48300
C  45.18000 20.52000 29.20400
C  44.93100 20.78400 25.78800
O  44.98600 20.86600 24.55200
C  44.63300 19.36100 26.24300
N  47.08900 25.79800 25.63200
C  46.54800 24.91100 24.79500
C  46.82800 25.21300 23.29700
C  47.62100 26.54700 23.31500
C  47.62700 26.83600 24.87100
C  47.75300 24.13200 22.68200
C  46.95800 27.78600 22.60800
C  47.90100 28.60900 21.65500
N  47.82000 27.57300 27.84100
C  48.40900 28.34300 26.81900
C  49.13200 29.49700 27.37700
C  48.95100 29.37200 28.72400
C  48.13200 28.25400 28.98500
C  49.97000 30.43300 26.70000
C  49.42700 29.95500 30.03800
O  50.13500 30.86400 30.39000
C  48.67500 29.09800 31.12000
C  49.76400 28.53500 31.99500
O  50.62000 27.78300 31.66000
O  49.75500 29.22700 33.22900
C  50.86900 29.10100 34.15800
H  45.47300 22.63200 30.81200
H  45.73100 23.14200 24.32900
H  48.97100 28.62600 24.81800
H  47.88500 26.16400 32.64900
H  45.27300 25.14300 32.38400
H  45.95000 23.56400 33.74400
H  47.58900 24.09700 33.77300
H  47.00500 22.88100 32.59100
H  45.14400 26.99500 33.44100
H  45.95800 28.34000 32.43300
H  47.29600 28.87000 34.07900
H  47.52800 27.25800 34.67100
H  45.57700 19.52200 29.01500
H  44.09800 20.45200 29.31700
H  45.48300 20.76200 30.22200
H  45.53300 18.90400 26.65200
H  44.35900 18.70700 25.41500
H  43.95000 19.26400 27.08700
H  45.88000 25.18600 22.76100
H  48.68200 26.50200 23.06700
H  48.56000 23.71800 23.28600
H  48.19400 24.45600 21.73900
H  47.25600 23.17400 22.53000
H  46.53600 28.43800 23.37200
H  46.13400 27.29700 22.08900
H  47.78400 28.24500 20.63400
H  48.97800 28.51700 21.80000
H  47.63200 29.66600 21.65700
H  49.66400 30.46300 25.65400
H  51.01100 30.20600 26.92800
H  49.76800 31.41700 27.12200
H  47.89800 29.74600 31.52400
H  51.03600 30.09400 34.57500
H  51.80500 28.67200 33.80200
H  50.64700 28.55900 35.07800
Mg 26.81300 50.69400 26.75400
C  24.73200 51.55700 29.64600
C  29.14100 49.55300 28.94100
C  28.58900 49.67000 24.10000
C  24.35700 51.94100 24.76900
N  26.77500 50.39900 29.06500
C  25.85600 50.80200 29.99700
C  26.21400 50.40100 31.43300
C  27.74700 50.00400 31.16300
C  27.95500 50.00600 29.63500
C  28.83000 50.80000 31.91800
C  25.36300 49.27100 32.19500
C  24.77300 49.50000 33.55400
H  25.78500 49.94000 34.60000
N  28.58200 49.72100 26.58600
C  29.43100 49.35900 27.60500
C  30.57700 48.68700 27.09700
C  30.53000 48.78000 25.66500
C  29.20200 49.38400 25.41100
C  31.68200 48.26800 28.02000
C  31.51200 48.40600 24.53900
O  31.31300 48.74500 23.35800
C  32.87200 47.94800 24.88600
N  26.53500 50.71400 24.70900
C  27.39600 50.27500 23.74800
C  26.86400 50.58500 22.36000
C  25.43200 50.88200 22.60500
C  25.40100 51.21100 24.09800
C  27.67000 51.71700 21.63300
C  24.30000 49.90100 22.19400
C  23.11800 50.48900 21.45500
N  25.04400 51.69700 27.06000
C  24.11900 52.19000 26.12800
C  22.88300 52.69300 26.80400
C  23.14800 52.54500 28.15300
C  24.42400 51.88500 28.26900
C  21.68000 53.24100 26.08900
C  22.57000 52.77200 29.49800
O  21.60700 53.37100 29.79400
C  23.57100 52.12400 30.46600
C  23.97900 53.16100 31.50400
O  24.76800 54.01200 31.25600
O  23.22900 52.93100 32.61600
C  23.61700 53.69500 33.80500
H  29.83100 49.14700 29.68300
H  29.15600 49.35600 23.22200
H  23.58600 52.24300 24.05700
H  26.16300 51.31900 32.01900
H  27.90400 48.93600 31.31700
H  28.44500 50.96900 32.92300
H  29.11700 51.73100 31.42900
H  29.73400 50.19100 31.95600
H  25.89200 48.32000 32.14000
H  24.45100 49.19300 31.60400
H  24.34200 48.57300 33.93200
H  23.98100 50.24900 33.58900
H  32.34800 47.52300 27.58300
H  31.28100 47.90900 28.96800
H  32.13900 49.23600 28.22300
H  33.51800 48.04000 24.01200
H  32.82100 46.89000 25.14300
H  33.24600 48.47000 25.76700
H  27.07000 49.69900 21.76000
H  25.02800 51.79700 22.17100
H  28.44800 52.04800 22.32200
H  27.07200 52.57100 21.31600
H  28.34400 51.41800 20.83000
H  23.80600 49.43500 23.04600
H  24.74700 49.05800 21.66600
H  23.03300 49.89700 20.54400
H  23.31300 51.48300 21.05200
H  22.19100 50.55900 22.02400
H  20.96300 53.63000 26.81100
H  21.14600 52.59600 25.39100
H  22.15700 53.96500 25.42900
H  23.10600 51.27900 30.97200
H  22.71500 53.76500 34.41300
H  23.95500 54.72000 33.65400
H  24.38900 53.15000 34.34700

