158

Mg 47.45600 45.13800 43.29600
C  43.98400 44.90100 43.18400
C  47.73900 41.74500 42.89200
C  50.66000 45.57200 41.98400
C  47.00600 48.78100 43.11600
N  46.08500 43.59100 43.17900
C  44.67000 43.66900 43.18900
C  44.06900 42.23200 43.19000
C  45.28900 41.38300 43.54300
C  46.50600 42.30000 43.18400
C  45.41600 40.80100 45.03800
C  43.24400 41.84000 41.94200
C  43.59700 42.49900 40.59600
H  43.43200 41.73300 39.25000
N  49.04100 43.82400 42.67300
C  48.97400 42.40100 42.59500
C  50.29800 41.88900 42.22300
C  51.13700 42.97100 42.02200
C  50.27900 44.21700 42.25400
C  50.71500 40.41000 42.27100
C  52.63600 42.85500 41.65000
O  53.10300 41.78500 41.34500
C  53.49200 44.07500 41.63600
N  48.62400 46.95100 42.78700
C  50.00100 46.78300 42.36700
C  50.67600 48.21700 42.19900
C  49.41700 49.16900 42.42500
C  48.29400 48.25200 42.87400
C  51.97100 48.51900 43.14500
C  49.18300 50.18700 41.34900
C  48.55800 51.49500 41.73800
N  45.87000 46.61400 43.26400
C  45.83800 47.98900 43.27200
C  44.45400 48.46900 43.37600
C  43.62900 47.30700 43.24800
C  44.57300 46.20500 43.27900
C  43.96200 49.82300 43.38900
C  42.27700 46.75400 43.24300
O  41.16400 47.31900 43.27300
C  42.49400 45.16800 43.21300
C  41.73500 44.56200 44.41300
O  40.91100 43.67900 44.41800
O  42.18000 45.15600 45.60600
C  41.30000 44.78000 46.82100
H  47.78200 40.65500 42.95800
H  51.64700 45.75400 41.55300
H  47.02700 49.86100 43.27200
H  43.25300 42.22700 43.91100
H  45.42000 40.52500 42.88400
H  45.73000 39.76200 44.94300
H  44.42700 40.96100 45.46700
H  46.21600 41.33700 45.54900
H  42.22800 42.19900 42.10900
H  43.11700 40.77000 41.77500
H  44.67400 42.55100 40.76100
H  43.23700 43.52700 40.55400
H  50.62800 40.00800 41.26200
H  49.95900 39.85000 42.82200
H  51.67300 40.30300 42.77900
H  53.29200 44.68700 42.51500
H  53.43000 44.70300 40.74700
H  54.48800 43.66200 41.79700
H  51.03300 48.12000 41.17400
H  49.60200 49.77100 43.31400
H  51.73300 49.26900 43.89900
H  52.79600 48.85000 42.51400
H  52.28700 47.61000 43.65700
H  48.51400 49.69100 40.64600
H  50.12500 50.38800 40.83900
H  48.58600 51.61800 42.82100
H  47.59300 51.71400 41.28200
H  49.13000 52.36700 41.42200
H  44.29400 50.38300 44.26300
H  42.87400 49.84500 43.44900
H  44.21800 50.19300 42.39600
H  42.01100 44.83700 42.29300
H  41.71100 45.13100 47.76800
H  41.24900 43.69200 46.86200
H  40.27500 45.13700 46.71500
Mg -6.30300 24.52500 26.53800
C  -4.55200 26.41700 28.89900
C  -7.07500 22.28600 29.06600
C  -7.88200 22.65700 24.26900
C  -4.98600 26.57200 23.99900
N  -5.95000 24.40000 28.79400
C  -5.37100 25.41000 29.50500
C  -5.54000 25.05800 31.01400
C  -5.96200 23.52800 30.99700
C  -6.41200 23.35600 29.49700
C  -4.80000 22.44700 31.39500
C  -6.64200 26.03400 31.67700
C  -6.36400 26.32900 33.08800
H  -6.94500 25.79400 34.38100
N  -7.30200 22.74600 26.65000
C  -7.52200 21.99900 27.75700
C  -8.25000 20.84000 27.44900
C  -8.61400 20.92600 26.08300
C  -7.98100 22.14800 25.56300
C  -8.68800 19.75100 28.46200
C  -9.52500 19.93700 25.27300
O  -9.73500 20.20100 24.07100
C  -10.27900 18.78300 25.90900
N  -6.52200 24.64800 24.53900
C  -7.23100 23.82000 23.79300
C  -7.48700 24.31200 22.29600
C  -6.42000 25.46700 22.27600
C  -5.86600 25.57900 23.66900
C  -7.39700 23.22500 21.12000
C  -6.88800 26.85300 21.67000
C  -5.96800 27.48100 20.54000
N  -4.98700 26.13400 26.37900
C  -4.61400 26.85600 25.30400
C  -3.86000 27.97800 25.73300
C  -3.77500 27.90500 27.12400
C  -4.51500 26.72100 27.49700
C  -3.33600 28.97300 24.78800
C  -3.23900 28.56500 28.38600
O  -2.60300 29.58100 28.63500
C  -3.73800 27.56500 29.53600
C  -2.53700 27.17600 30.33500
O  -1.67800 26.38600 29.95200
O  -2.63800 27.71200 31.53900
C  -1.67900 27.32900 32.59600
H  -7.32900 21.70400 29.95400
H  -8.37000 22.08700 23.47500
H  -4.71800 27.23800 23.17600
H  -4.61800 25.33200 31.52700
H  -6.88300 23.33100 31.54600
H  -4.71300 21.68600 30.62000
H  -5.06600 21.86100 32.27500
H  -3.82600 22.87200 31.63900
H  -7.57200 25.47300 31.58100
H  -6.79500 26.93100 31.07800
H  -6.38200 27.41800 33.14000
H  -5.30600 26.19500 33.31300
H  -9.57300 19.99700 29.04900
H  -7.85400 19.47300 29.10500
H  -8.96700 18.89300 27.85000
H  -10.71100 19.07000 26.86700
H  -9.59000 17.95900 26.09400
H  -11.17100 18.50400 25.34600
H  -8.40600 24.87500 22.13100
H  -5.62100 25.09200 21.63600
H  -7.59300 22.18200 21.36800
H  -6.44000 23.26700 20.59900
H  -8.21600 23.48300 20.44900
H  -7.00600 27.62400 22.43100
H  -7.85300 26.85600 21.16100
H  -5.66200 28.51100 20.72500
H  -6.55500 27.44000 19.62300
H  -5.10100 26.83900 20.38800
H  -4.13200 29.30900 24.12300
H  -2.56400 28.60000 24.11400
H  -2.88000 29.85900 25.23000
H  -4.44400 28.15100 30.12500
H  -0.69000 27.19200 32.16000
H  -2.06500 26.43100 33.07800
H  -1.54900 28.20600 33.23000

