158

Mg 6.33000 54.13900 41.31600
C  5.93800 50.55200 41.00300
C  9.39700 54.03100 39.97300
C  6.28400 57.47800 41.27400
C  2.94000 54.13100 42.44700
N  7.41200 52.44100 40.55100
C  7.14400 51.07600 40.48400
C  8.38700 50.30500 39.93100
C  9.54000 51.40000 39.90400
C  8.74500 52.72000 40.17400
C  10.71200 51.25200 40.92600
C  8.21600 49.58800 38.54400
C  7.50000 50.34100 37.37600
H  6.81800 49.53300 36.19100
N  7.71400 55.62600 40.72600
C  8.94500 55.38300 40.18500
C  9.59700 56.58600 39.98900
C  8.70200 57.60400 40.31700
C  7.48900 56.91100 40.80500
C  11.00700 56.60100 39.44200
C  8.93500 59.12500 40.17600
O  9.98700 59.60800 39.70500
C  7.86800 60.22300 40.37500
N  4.71500 55.59200 41.66300
C  5.04200 56.90400 41.69500
C  3.81200 57.78600 41.94100
C  2.67900 56.64800 42.12500
C  3.49000 55.39600 42.09900
C  3.97500 58.77500 43.16400
C  1.59500 56.79900 41.00300
C  0.38000 57.59500 41.43500
N  4.71300 52.66800 41.60000
C  3.50600 52.82300 42.19500
C  2.95300 51.50900 42.59900
C  3.85600 50.54900 42.01200
C  4.90200 51.37400 41.43300
C  1.68900 51.26800 43.40400
C  4.17100 49.14500 41.89800
O  3.52000 48.22600 42.42100
C  5.55400 49.09700 41.21100
C  5.43300 48.17100 40.00600
O  4.88800 48.47500 38.89900
O  5.90200 46.89800 40.26700
C  5.50400 45.97000 39.21100
H  10.42600 54.01700 39.60900
H  6.29200 58.55300 41.46500
H  1.89700 54.06500 42.76300
H  8.66000 49.56800 40.68700
H  9.98500 51.40900 38.90900
H  11.70500 51.26600 40.47600
H  10.60400 50.24500 41.32800
H  10.63000 52.11200 41.59100
H  7.88000 48.56900 38.73700
H  9.20400 49.40000 38.12500
H  8.19800 51.04600 36.92500
H  6.73500 50.94000 37.87000
H  11.67300 56.08800 40.13600
H  11.28500 57.65000 39.34000
H  11.12500 56.20500 38.43400
H  8.21400 61.17000 39.96300
H  7.54000 60.27700 41.41300
H  7.03300 59.98400 39.71500
H  3.52700 58.36300 41.06100
H  2.24200 56.88000 43.09600
H  3.73900 59.82900 43.01200
H  5.03900 58.81400 43.39700
H  3.50800 58.56900 44.12700
H  1.28400 55.80900 40.66800
H  2.01600 57.33800 40.15400
H  0.15300 58.31400 40.64800
H  0.58800 58.18800 42.32500
H  -0.50000 56.97400 41.60400
H  1.71900 51.87100 44.31100
H  1.77700 50.26500 43.82300
H  0.78000 51.41200 42.82100
H  6.34100 48.60600 41.78400
H  4.41900 45.98900 39.10900
H  5.68400 44.93400 39.49900
H  5.97500 46.08000 38.23400
Mg -12.84300 16.34700 41.92900
C  -9.82900 14.64300 41.71300
C  -11.23500 19.14000 40.53800
C  -15.86100 17.87900 41.47100
C  -14.45600 13.29000 42.52300
N  -10.78000 16.74900 40.98900
C  -9.68900 15.93500 41.19600
C  -8.43000 16.63700 40.59400
C  -8.92100 18.09400 40.19900
C  -10.41500 18.01300 40.63000
C  -8.06400 19.22700 40.73100
C  -8.07500 15.82000 39.33800
C  -6.59700 15.64400 38.98000
H  -6.20400 16.57700 37.77600
N  -13.46200 18.28400 41.21700
C  -12.61000 19.27900 40.73900
C  -13.37900 20.48300 40.55800
C  -14.75100 20.10800 40.75600
C  -14.75500 18.70800 41.17600
C  -12.81400 21.80300 40.07600
C  -15.89000 21.03300 40.54000
O  -15.71000 22.20600 40.18600
C  -17.30400 20.62200 40.68700
N  -14.82500 15.63900 41.98600
C  -15.86100 16.54300 41.93300
C  -17.18600 15.87800 42.16000
C  -16.82700 14.37700 42.43200
C  -15.33200 14.37900 42.29500
C  -17.92900 16.57300 43.37200
C  -17.36400 13.33400 41.40800
C  -18.93500 13.11800 41.40900
N  -12.29800 14.44800 42.16600
C  -13.00300 13.32000 42.52900
C  -12.16600 12.21200 42.93400
C  -10.90500 12.63500 42.63900
C  -11.02700 14.00300 42.08800
C  -12.55200 10.81900 43.34500
C  -9.51600 12.30700 42.72700
O  -8.85800 11.33200 43.11900
C  -8.80600 13.58400 42.00100
C  -7.67400 14.13900 42.83800
O  -7.66200 14.68900 43.92400
O  -6.50100 13.97700 42.11800
C  -5.42600 14.80200 42.57400
H  -10.69400 19.95000 40.04500
H  -16.86200 18.25900 41.25600
H  -14.95900 12.36500 42.81200
H  -7.68800 16.85000 41.36300
H  -8.92800 18.24000 39.11900
H  -7.92200 19.87600 39.86600
H  -7.10000 18.94300 41.15200
H  -8.65400 19.78300 41.46000
H  -8.59500 16.31600 38.51800
H  -8.45900 14.81000 39.48500
H  -6.31100 14.60800 38.79400
H  -5.97200 15.92400 39.82700
H  -13.10300 21.90900 39.03100
H  -11.72800 21.74100 40.14300
H  -13.10600 22.64300 40.70600
H  -17.55900 19.81100 40.00500
H  -17.98800 21.47100 40.66000
H  -17.54400 20.17200 41.65100
H  -17.79200 16.03400 41.26700
H  -17.10200 14.07400 43.44300
H  -17.36500 17.42200 43.75700
H  -18.05500 15.91900 44.23400
H  -18.83600 16.98600 42.92900
H  -16.88700 12.39700 41.69500
H  -17.06600 13.65200 40.40800
H  -19.25200 12.20200 41.90700
H  -19.12200 12.92000 40.35400
H  -19.50700 13.96300 41.79300
H  -13.27300 10.95500 44.15100
H  -11.74800 10.32500 43.89000
H  -13.18100 10.15300 42.75400
H  -8.30500 13.28500 41.08000
H  -5.27600 14.73400 43.65200
H  -5.51800 15.85400 42.30700
H  -4.51900 14.39900 42.12400

