158

Mg -1.92600 17.37900 25.96100
C  -2.58300 14.96800 28.57000
C  -2.30000 19.82100 28.30000
C  -2.11600 19.37900 23.38900
C  -1.83400 14.65500 23.70800
N  -2.38400 17.35000 28.17200
C  -2.37300 16.24200 29.03600
C  -2.50300 16.67500 30.49500
C  -2.59000 18.22200 30.39100
C  -2.45200 18.50800 28.87000
C  -3.83600 19.01400 31.08400
C  -1.23900 16.19900 31.24800
C  -0.88400 16.81100 32.57700
H  -0.51400 15.98800 33.77800
N  -2.12800 19.36700 25.85300
C  -2.26500 20.16100 26.92000
C  -2.25600 21.47900 26.39700
C  -2.39400 21.37500 25.01500
C  -2.22500 20.03800 24.65800
C  -2.23200 22.74200 27.38100
C  -2.63800 22.54000 23.94400
O  -2.83900 22.37700 22.69700
C  -2.57900 23.89800 24.42100
N  -1.85700 17.01600 23.92300
C  -1.91700 18.06900 23.05700
C  -1.88100 17.58300 21.59100
C  -1.52600 16.11800 21.66800
C  -1.62300 15.92100 23.23100
C  -3.10200 17.85700 20.72700
C  -0.13400 15.69900 21.14600
C  -0.13100 14.67000 20.04000
N  -2.12500 15.21700 26.10200
C  -2.11900 14.24300 25.06200
C  -2.48300 12.94300 25.57800
C  -2.66900 13.17000 26.98600
C  -2.48000 14.55000 27.17400
C  -2.70500 11.65600 24.93000
C  -2.93700 12.52500 28.21900
O  -3.18700 11.37200 28.48700
C  -2.98700 13.63900 29.26400
C  -2.07100 13.20600 30.38000
O  -0.88500 13.36000 30.39000
O  -2.66700 12.44400 31.31600
C  -1.79300 11.77200 32.31500
H  -2.32600 20.53900 29.12300
H  -2.19800 20.00600 22.49900
H  -1.74400 13.75100 23.10300
H  -3.42500 16.23300 30.87300
H  -1.71700 18.72100 30.81100
H  -3.58700 19.71400 31.88200
H  -4.45800 18.22600 31.50800
H  -4.59900 19.42000 30.42000
H  -0.39600 15.97200 30.59500
H  -1.53900 15.23300 31.65600
H  -1.53400 17.66300 32.77600
H  0.07900 17.23400 32.29100
H  -2.04700 22.44000 28.41200
H  -3.16700 23.28800 27.25900
H  -1.51900 23.50600 27.06900
H  -3.38900 24.12500 25.11500
H  -2.98200 24.53800 23.63600
H  -1.62700 24.31300 24.75000
H  -1.00800 18.14400 21.25900
H  -2.26000 15.44300 21.22900
H  -2.81300 18.64300 20.02900
H  -3.92100 18.19300 21.36300
H  -3.46000 16.94100 20.25700
H  0.49000 15.23900 21.91200
H  0.41700 16.61000 20.91300
H  0.73900 14.85200 19.40900
H  -1.00400 14.63200 19.38800
H  -0.11300 13.64400 20.40800
H  -3.78600 11.55800 24.82900
H  -2.29100 10.88200 25.57600
H  -2.27900 11.70000 23.92700
H  -3.93500 13.73100 29.79300
H  -1.32400 10.95500 31.76900
H  -2.41500 11.43200 33.14300
H  -1.01100 12.41400 32.72200
Mg 17.54600 -1.07300 27.53500
C  16.14300 0.85200 30.15100
C  19.33000 -2.75000 29.75100
C  18.77200 -2.72200 24.92700
C  15.81700 1.15900 25.22100
N  17.65800 -0.81000 29.73900
C  17.06100 -0.05300 30.68600
C  17.59700 -0.23500 32.11400
C  18.68300 -1.26800 31.77100
C  18.57700 -1.65700 30.28000
C  20.08100 -0.65000 32.17100
C  16.66400 -0.75100 33.19500
C  16.94200 -0.14000 34.61100
H  18.37700 0.07700 35.14900
N  18.73200 -2.65600 27.36500
C  19.36600 -3.22800 28.38700
C  20.00200 -4.47500 27.98300
C  19.94900 -4.45300 26.56200
C  19.11500 -3.28100 26.24000
C  20.73100 -5.40100 28.87200
C  20.48200 -5.41800 25.47100
O  20.20400 -5.30900 24.27600
C  21.31800 -6.66000 25.94700
N  17.32200 -0.82000 25.34400
C  17.98700 -1.63800 24.53500
C  17.87200 -1.19800 23.11500
C  16.83000 -0.04300 23.16000
C  16.61700 0.17600 24.62800
C  19.14300 -0.96400 22.27500
C  15.49000 -0.28800 22.38400
C  15.46000 0.03800 20.91400
N  16.19300 0.52200 27.61500
C  15.57500 1.30200 26.58200
C  14.57800 2.20600 27.31100
C  14.75700 1.98100 28.67000
C  15.80400 1.02700 28.83000
C  13.75000 3.25600 26.63700
C  14.42200 2.60000 29.92600
O  13.66900 3.48500 30.24000
C  15.25900 1.77600 30.93800
C  16.04200 2.84400 31.68900
O  17.08000 3.36800 31.32200
O  15.42500 2.97000 32.86400
C  16.09200 3.94100 33.75700
H  19.94800 -3.16400 30.55000
H  19.19800 -3.26100 24.07800
H  15.18900 1.76900 24.56800
H  17.92300 0.78900 32.29800
H  18.66300 -2.20700 32.32300
H  20.65600 -0.49300 31.25800
H  20.57900 -1.42400 32.75500
H  19.95300 0.29300 32.70300
H  16.79100 -1.83000 33.29100
H  15.66300 -0.51300 32.83500
H  16.52700 -0.90700 35.26500
H  16.38000 0.74500 34.91200
H  21.74000 -5.33800 28.46500
H  20.31600 -6.40700 28.81400
H  20.68600 -5.08000 29.91300
H  22.35400 -6.44500 26.20700
H  21.38200 -7.32900 25.08900
H  20.87200 -7.10900 26.83500
H  17.36200 -2.02700 22.62500
H  17.33400 0.85200 22.79400
H  20.00000 -1.06800 22.94100
H  19.21900 -0.00400 21.76500
H  19.19000 -1.81500 21.59500
H  14.73300 0.24800 22.95700
H  15.25100 -1.35100 22.41600
H  14.71200 0.79400 20.67500
H  15.22700 -0.90100 20.41100
H  16.46100 0.25400 20.54100
H  13.63200 3.05600 25.57200
H  14.25900 4.21500 26.73000
H  12.72100 3.33100 26.98900
H  14.58900 1.40900 31.71400
H  15.75300 3.83600 34.78700
H  16.02900 4.99400 33.48200
H  17.16400 3.76600 33.66000

