158

Mg 9.04200 48.14300 26.00400
C  7.38200 48.33800 29.08300
C  11.84700 49.61100 27.43700
C  10.67000 47.95800 22.98500
C  6.04700 47.63000 24.41300
N  9.56400 48.87800 27.99500
C  8.76400 48.69900 29.15300
C  9.53200 49.02500 30.39400
C  10.85300 49.66700 29.83300
C  10.75700 49.43800 28.27800
C  10.92400 51.18200 30.30400
C  9.80700 47.82500 31.34200
C  9.19300 47.95000 32.79200
H  9.45700 46.79300 33.77500
N  11.01700 48.66200 25.35800
C  12.01900 49.22800 26.11300
C  13.28700 49.21200 25.36400
C  12.92500 48.66500 24.09000
C  11.50100 48.43500 24.01800
C  14.70900 49.49300 26.04400
C  13.87700 48.38700 22.92700
O  13.54100 47.91800 21.83300
C  15.25300 48.71100 23.11900
N  8.38000 48.04300 24.02400
C  9.28900 47.80600 22.96800
C  8.54700 47.52500 21.59800
C  7.05600 47.53400 22.06500
C  7.15200 47.70500 23.58800
C  8.92800 48.51200 20.46300
C  6.31600 46.25900 21.56600
C  6.29300 45.05000 22.48500
N  7.03700 48.02200 26.58100
C  5.91300 47.74500 25.85100
C  4.79100 47.67300 26.76300
C  5.30100 47.92800 28.02900
C  6.69100 48.10800 27.84000
C  3.48000 47.28700 26.23400
C  4.97600 48.20000 29.44600
O  3.88500 48.27200 29.94600
C  6.35400 48.21800 30.21100
C  6.45600 46.87100 30.87400
O  7.11600 45.90400 30.51200
O  5.78000 46.90600 32.12000
C  5.69100 45.60400 32.78100
H  12.69900 50.12500 27.88600
H  11.12400 47.71600 22.02100
H  5.07000 47.49600 23.94500
H  8.96800 49.76400 30.96300
H  11.74000 49.12900 30.16800
H  11.42400 51.27300 31.26800
H  9.93300 51.54500 30.57600
H  11.35100 51.77900 29.49700
H  10.86600 47.65800 31.54100
H  9.42600 46.89500 30.91800
H  8.12900 48.17000 32.88500
H  9.76300 48.83300 33.07900
H  14.49300 49.79100 27.07000
H  15.34400 50.21600 25.53200
H  15.23700 48.55500 26.21300
H  15.67600 48.16800 23.96400
H  15.28100 49.80100 23.13100
H  15.78200 48.25700 22.28100
H  8.83000 46.57400 21.14900
H  6.47700 48.30500 21.55700
H  9.52000 49.36500 20.79600
H  8.04100 48.83900 19.92100
H  9.60900 48.06200 19.74000
H  6.65700 45.93100 20.58400
H  5.27100 46.48500 21.35600
H  6.64600 44.17000 21.94800
H  5.35700 44.81000 22.99000
H  6.95900 45.28800 23.31500
H  3.24500 48.09700 25.54400
H  2.70000 47.23700 26.99300
H  3.44500 46.35800 25.66400
H  6.47900 49.04400 30.91200
H  4.99900 44.91900 32.29100
H  5.50800 45.82200 33.83300
H  6.71500 45.23000 32.77800
Mg -10.50900 39.06100 40.48400
C  -9.47400 35.97500 39.60200
C  -7.53400 40.39700 39.11000
C  -11.79000 42.20300 40.37300
C  -13.61900 37.75200 41.45900
N  -8.74500 38.30000 39.38800
C  -8.54300 36.97000 39.22500
C  -7.07800 36.66900 38.67400
C  -6.41700 38.08100 38.95300
C  -7.63100 39.00200 39.07100
C  -5.58200 38.13400 40.24600
C  -7.12100 36.15200 37.13700
C  -7.86200 37.01900 36.08800
H  -8.62700 36.21500 35.07600
N  -9.71600 40.98300 39.97500
C  -8.50700 41.31600 39.43100
C  -8.35700 42.71500 39.37300
C  -9.59000 43.24700 39.75000
C  -10.45700 42.12700 40.01500
C  -7.06600 43.40700 38.82000
C  -9.84600 44.74300 39.94700
O  -9.08700 45.61800 39.41500
C  -11.01800 45.22000 40.65000
N  -12.43100 39.87700 40.97500
C  -12.71500 41.20300 40.70900
C  -14.19600 41.42900 40.94800
C  -14.88300 40.00100 41.11900
C  -13.57400 39.12800 41.26500
C  -14.53500 42.44900 42.07000
C  -15.79300 39.63500 39.92300
C  -17.23800 39.20400 40.30800
N  -11.35200 37.24900 40.64500
C  -12.66400 36.80300 41.07800
C  -12.72000 35.43800 40.98400
C  -11.47500 35.03100 40.45100
C  -10.69200 36.18300 40.26600
C  -13.94200 34.52800 41.13700
C  -10.73700 33.88500 39.93200
O  -11.03100 32.69700 39.94400
C  -9.40000 34.47900 39.41000
C  -8.33600 33.87700 40.24400
O  -8.41100 33.65600 41.42500
O  -7.15200 33.57300 39.51900
C  -6.03800 33.06100 40.24000
H  -6.62400 40.84900 38.71100
H  -12.38200 43.11800 40.29600
H  -14.56700 37.31700 41.78100
H  -6.67100 35.84900 39.26500
H  -5.81200 38.32600 38.08000
H  -4.52900 38.07300 39.97100
H  -5.84900 37.41200 41.01800
H  -5.74000 39.10000 40.72300
H  -7.55100 35.15200 37.08800
H  -6.11800 36.05700 36.72200
H  -7.19900 37.73900 35.60700
H  -8.67900 37.57400 36.54700
H  -6.89400 43.20300 37.76300
H  -6.26300 43.00000 39.43500
H  -6.98700 44.47800 39.00400
H  -11.25100 44.68500 41.57000
H  -11.79100 45.25900 39.88200
H  -11.01700 46.27400 40.92900
H  -14.51900 42.03700 40.10300
H  -15.49100 39.97200 42.02300
H  -15.56700 42.78500 42.17000
H  -13.91700 43.34400 41.99700
H  -14.12600 42.03000 42.99000
H  -15.31700 38.80900 39.39400
H  -15.86600 40.54700 39.33000
H  -17.88200 39.78400 39.64700
H  -17.46300 39.31700 41.36900
H  -17.49400 38.17100 40.07500
H  -13.77700 33.84100 41.96700
H  -13.89300 33.91200 40.23900
H  -14.94500 34.94800 41.05800
H  -9.12000 34.19600 38.39500
H  -5.17500 33.69400 40.03200
H  -5.76800 32.07800 39.85500
H  -6.14500 33.11500 41.32400

