158

Mg 30.14800 59.09700 40.87600
C  27.23100 57.50300 39.73200
C  32.02500 56.54200 39.94000
C  32.90300 61.07900 41.28200
C  28.20700 61.93200 41.66300
N  29.69200 57.24300 39.82100
C  28.40400 56.82300 39.41900
C  28.53000 55.46000 38.71300
C  30.02300 54.97200 39.03200
C  30.64100 56.27300 39.59800
C  30.06500 53.81300 40.15300
C  28.29900 55.40600 37.17500
C  27.29200 54.37400 36.75700
H  26.28800 54.73400 35.59400
N  32.14000 58.78400 40.75800
C  32.74000 57.60700 40.48800
C  34.12400 57.64200 40.76400
C  34.42200 58.90900 41.22400
C  33.11400 59.66900 41.11800
C  35.06100 56.55300 40.25900
C  35.77900 59.40400 41.61500
O  36.78100 58.72100 41.38500
C  35.94000 60.75800 42.16300
N  30.54300 61.17900 41.47800
C  31.74800 61.80700 41.39500
C  31.73700 63.37300 41.45900
C  30.24000 63.56800 41.90200
C  29.58200 62.16000 41.70400
C  32.90000 64.00900 42.36500
C  29.51900 64.78100 41.24100
C  29.31600 66.05200 42.07600
N  28.13000 59.59200 40.90200
C  27.48600 60.76500 41.26300
C  26.05300 60.64300 40.93500
C  25.87500 59.35400 40.39500
C  27.17100 58.78300 40.42700
C  25.04000 61.69700 41.27600
C  24.94100 58.40500 39.82900
O  23.73000 58.50900 39.69300
C  25.74400 57.16800 39.49700
C  25.45300 56.06700 40.36900
O  25.84400 55.95300 41.51400
O  24.55500 55.22500 39.72400
C  23.92400 54.22500 40.61800
H  32.63200 55.65200 39.76300
H  33.85200 61.60800 41.39100
H  27.68200 62.86800 41.86800
H  27.89200 54.74900 39.23800
H  30.48200 54.52200 38.15200
H  30.50700 54.16900 41.08300
H  30.71300 53.07800 39.67600
H  29.11900 53.31900 40.37600
H  29.20700 55.27900 36.58600
H  27.85700 56.39100 37.02700
H  26.70800 54.04200 37.61600
H  27.89100 53.53600 36.40100
H  34.65000 55.84400 39.54000
H  35.27200 55.93700 41.13300
H  35.95100 56.90500 39.73900
H  36.86600 60.75100 42.73600
H  35.19500 61.16400 42.84800
H  36.09500 61.51000 41.38900
H  31.85800 63.69000 40.42400
H  30.24500 63.69100 42.98500
H  33.54800 64.52600 41.65700
H  33.48400 63.28900 42.93800
H  32.51000 64.70900 43.10400
H  28.57700 64.52100 40.75800
H  30.12100 65.08900 40.38700
H  29.54300 65.94100 43.13700
H  28.31900 66.48000 41.97200
H  30.05400 66.77400 41.72400
H  24.14700 61.09700 41.45000
H  24.86900 62.35300 40.42200
H  25.25700 62.38700 42.09100
H  25.66700 56.91100 38.44000
H  24.70300 53.54200 40.95600
H  23.21800 53.53500 40.15600
H  23.40900 54.69300 41.45700
Mg 16.11400 51.61100 25.88600
C  18.09700 50.52900 28.51500
C  13.49900 52.14600 27.93600
C  14.28600 52.43100 23.18400
C  18.70300 50.50600 23.61300
N  15.87400 51.30700 27.86200
C  16.82500 50.94000 28.82600
C  16.34800 51.32800 30.19400
C  14.74100 51.45700 29.96900
C  14.62100 51.46400 28.48500
C  13.89700 50.26800 30.62000
C  16.98400 52.59900 30.77700
C  17.05000 52.74300 32.31900
H  16.17200 51.76400 33.12500
N  14.14800 52.24500 25.58600
C  13.21700 52.36400 26.58100
C  11.93200 52.87300 26.04000
C  12.14700 52.94500 24.63900
C  13.56600 52.54100 24.38400
C  10.86100 53.44300 26.88400
C  11.22000 53.36200 23.49900
O  11.50000 53.28700 22.30100
C  9.71900 53.83500 23.85500
N  16.51300 51.49700 23.67600
C  15.60900 52.01100 22.83800
C  16.09400 51.87600 21.37800
C  17.57100 51.33000 21.55500
C  17.59500 51.09200 23.02500
C  15.18900 51.00700 20.45700
C  18.72400 52.29800 21.01900
C  19.78900 51.50800 20.17100
N  17.98700 50.55000 25.99800
C  18.97500 50.26800 24.99600
C  20.10200 49.67400 25.71200
C  19.82000 49.79600 27.09400
C  18.54400 50.25700 27.16800
C  21.31100 49.13700 25.03700
C  20.36500 49.67700 28.46000
O  21.42500 49.26100 28.87000
C  19.24200 50.12300 29.43900
C  18.86100 49.10900 30.38000
O  18.38000 48.04100 30.06400
O  19.27900 49.47900 31.63400
C  19.22300 48.44100 32.67600
H  12.90200 52.53300 28.76500
H  13.74000 52.69600 22.27600
H  19.54600 50.26100 22.96400
H  16.68300 50.51000 30.83200
H  14.39000 52.40300 30.38200
H  14.50400 49.58000 31.20900
H  13.45400 49.73600 29.77900
H  13.09700 50.67600 31.23700
H  16.49800 53.45800 30.31400
H  17.99900 52.60300 30.38000
H  16.91000 53.79800 32.55500
H  18.09900 52.56300 32.55500
H  10.54700 54.43400 26.55600
H  11.13500 53.40100 27.93800
H  10.02800 52.75300 26.74900
H  9.14700 53.17500 24.50700
H  9.24400 53.92400 22.87800
H  9.86000 54.83100 24.27500
H  16.00800 52.84000 20.87500
H  17.60200 50.29800 21.20700
H  14.54600 50.44000 21.13100
H  15.77600 50.29000 19.88300
H  14.58400 51.51200 19.70400
H  19.25500 52.75200 21.85600
H  18.41400 53.07300 20.31700
H  19.51200 51.73300 19.14100
H  19.69300 50.43600 20.34600
H  20.79400 51.80700 20.46800
H  22.07900 48.98400 25.79400
H  21.60500 49.66500 24.13000
H  21.07000 48.16500 24.60600
H  19.53200 51.02100 29.98300
H  19.62500 47.51900 32.25400
H  18.28900 48.38400 33.23400
H  19.91500 48.68800 33.48100

