158

Mg 26.20300 0.89700 28.98800
C  28.28600 0.74900 31.98600
C  23.48700 0.70200 31.24600
C  24.34600 0.93300 26.44300
C  29.02600 0.26900 27.11500
N  26.01900 0.80100 31.34900
C  26.93700 0.90900 32.31000
C  26.38100 0.98300 33.74700
C  24.81600 0.87700 33.48300
C  24.72000 0.91300 31.94800
C  24.04400 -0.32300 34.24200
C  26.83000 2.16300 34.60000
C  27.38400 1.93300 35.97100
H  27.05800 2.89100 37.13900
N  24.19200 0.86400 28.83400
C  23.22000 0.78200 29.87000
C  21.96700 1.02000 29.24900
C  22.13900 1.10200 27.84100
C  23.57600 0.91000 27.62800
C  20.66800 1.17900 30.00600
C  21.05300 1.44100 26.70100
O  21.42100 1.25500 25.57600
C  19.61700 1.76800 26.96500
N  26.65700 0.52400 27.09300
C  25.70400 0.72300 26.16200
C  26.27500 0.83700 24.73200
C  27.74000 0.51700 24.91800
C  27.84400 0.40600 26.45500
C  25.64800 -0.09800 23.61600
C  28.73900 1.55500 24.36100
C  28.76400 1.63000 22.88500
N  28.29700 0.55000 29.38000
C  29.30300 0.23800 28.50100
C  30.51400 0.13800 29.21500
C  30.25000 0.35100 30.56100
C  28.85700 0.64000 30.64000
C  31.79900 -0.25300 28.73900
C  30.79600 0.48000 31.91800
O  31.94900 0.31500 32.29200
C  29.53000 0.69800 32.93100
C  29.39500 -0.33400 33.96800
O  28.91800 -1.44000 33.85800
O  29.95100 0.08400 35.15800
C  29.97100 -0.81800 36.37400
H  22.59900 0.64300 31.87900
H  23.68800 0.94900 25.57200
H  29.90600 0.14600 26.48100
H  26.70500 0.13700 34.35400
H  24.30400 1.75200 33.88100
H  22.98500 -0.06900 34.27800
H  24.49000 -0.45500 35.22800
H  24.05100 -1.30400 33.76500
H  25.99000 2.82700 34.80200
H  27.53000 2.78300 34.04100
H  28.45500 1.74100 35.90400
H  26.91800 0.98000 36.22100
H  19.97200 0.37300 29.77300
H  20.20700 2.09300 29.63100
H  20.63800 1.34800 31.08300
H  19.46800 2.66200 27.57000
H  19.16300 0.86800 27.38000
H  19.10400 1.96400 26.02300
H  26.18900 1.88000 24.42600
H  27.95500 -0.45600 24.47700
H  24.96000 -0.69500 24.21500
H  26.32400 -0.83800 23.19000
H  25.07100 0.46800 22.88400
H  29.76700 1.39600 24.68700
H  28.45100 2.56600 24.65100
H  28.40000 2.59900 22.54600
H  28.13200 0.88300 22.40500
H  29.76700 1.42400 22.50900
H  31.68800 -1.32900 28.60400
H  32.56400 0.02800 29.46300
H  32.19600 0.22700 27.84500
H  29.67300 1.65100 33.44100
H  29.41000 -0.35100 37.18300
H  31.01200 -0.94900 36.67100
H  29.53200 -1.78800 36.13800
Mg -4.58300 25.51300 25.77300
C  -3.67000 27.05500 28.80700
C  -6.65200 23.51800 27.57500
C  -5.06500 23.63200 23.06500
C  -2.36600 27.52500 24.21000
N  -5.07100 25.37200 28.00600
C  -4.60000 26.03600 29.03600
C  -5.17200 25.53200 30.35200
C  -6.10400 24.29100 29.97700
C  -5.94300 24.37200 28.43900
C  -5.49800 22.92700 30.36400
C  -5.84800 26.73200 31.16700
C  -5.46800 26.94000 32.57400
H  -5.25000 25.74400 33.42500
N  -5.80700 23.82700 25.37600
C  -6.60800 23.23700 26.18800
C  -7.40600 22.26900 25.44500
C  -6.96000 22.22100 24.08600
C  -5.92700 23.29200 24.11400
C  -8.45600 21.42400 26.09000
C  -7.31400 21.31300 22.89300
O  -6.84600 21.40900 21.71600
C  -8.10500 20.13100 23.16900
N  -3.89000 25.64200 23.85300
C  -4.21200 24.77000 22.83900
C  -3.43400 25.18000 21.55600
C  -2.86300 26.56500 21.92100
C  -3.08100 26.64200 23.39900
C  -2.45500 24.09100 21.03200
C  -3.65300 27.73900 21.22100
C  -3.03700 28.49800 20.01200
N  -3.35200 27.04400 26.26400
C  -2.43100 27.77200 25.54100
C  -1.73000 28.77500 26.37800
C  -2.26600 28.55100 27.63300
C  -3.18100 27.47900 27.55500
C  -0.56100 29.61800 26.02700
C  -2.00800 28.86000 29.03400
O  -1.21600 29.59400 29.59900
C  -2.96100 27.92400 29.80000
C  -2.19300 27.18700 30.83200
O  -1.63700 26.10200 30.61700
O  -2.18100 27.89500 32.00700
C  -1.26400 27.42400 33.04000
H  -7.30500 22.90700 28.20200
H  -5.21300 23.04500 22.15600
H  -1.78900 28.20100 23.57500
H  -4.39000 25.16500 31.01700
H  -7.18300 24.38700 30.10200
H  -4.49200 23.02800 30.77000
H  -5.48000 22.32100 29.45900
H  -6.27900 22.57600 31.03900
H  -6.88200 26.39000 31.12600
H  -5.77600 27.69300 30.65800
H  -6.33100 27.41800 33.03700
H  -4.59300 27.57700 32.70100
H  -7.99600 20.54800 26.54800
H  -9.29100 21.12700 25.45600
H  -9.00100 21.98600 26.84900
H  -8.19300 19.55500 22.24700
H  -9.07600 20.58400 23.37300
H  -7.66900 19.50100 23.94300
H  -4.22400 25.16400 20.80400
H  -1.78500 26.49100 21.77900
H  -2.32800 23.29900 21.76900
H  -1.41800 24.42400 20.98400
H  -2.86600 23.72900 20.08900
H  -3.80900 28.53700 21.94700
H  -4.64500 27.34600 20.99900
H  -2.92100 29.57300 20.14900
H  -3.61600 28.20200 19.13700
H  -1.99600 28.18400 19.93300
H  -0.21600 30.25300 26.84300
H  -0.87700 30.18000 25.14800
H  0.18900 28.88000 25.74400
H  -3.62000 28.51200 30.43900
H  -0.36300 28.01700 32.88300
H  -1.00300 26.36800 32.95800
H  -1.55700 27.68200 34.05700

