158

Mg -1.97400 17.00300 27.47200
C  -2.31000 14.72000 30.09400
C  -2.36700 19.56300 29.56400
C  -1.93900 18.91500 24.73800
C  -2.17400 14.14400 25.18200
N  -2.34800 17.06700 29.55500
C  -2.46000 16.09700 30.45000
C  -3.05000 16.64700 31.80100
C  -2.89700 18.19300 31.65100
C  -2.58700 18.31100 30.15800
C  -4.09200 19.08500 32.18300
C  -2.22300 16.02400 32.91000
C  -2.04400 16.64600 34.28800
H  -2.24100 15.76800 35.52900
N  -2.03400 18.89900 27.19200
C  -2.17400 19.90500 28.19100
C  -2.14200 21.18300 27.56700
C  -1.88100 21.07100 26.16000
C  -1.94500 19.58600 26.01300
C  -2.34700 22.46600 28.43900
C  -1.58500 22.13500 25.09900
O  -1.41800 21.92600 23.89400
C  -1.42100 23.61600 25.55900
N  -2.00900 16.59700 25.20600
C  -2.05800 17.56400 24.35500
C  -2.07100 17.13400 22.89000
C  -2.12900 15.61400 23.05600
C  -2.06700 15.42200 24.60100
C  -3.22600 17.81000 22.02900
C  -1.16100 14.85800 22.12900
C  0.19900 14.43400 22.79200
N  -2.20000 14.87400 27.51600
C  -2.27300 13.84500 26.54200
C  -2.33700 12.55500 27.25800
C  -2.36100 12.90800 28.62500
C  -2.30600 14.27400 28.73500
C  -2.51900 11.14900 26.66100
C  -2.50400 12.29100 29.93800
O  -2.54200 11.08700 30.19600
C  -2.39000 13.42900 30.98100
C  -1.14700 13.22200 31.72500
O  -0.13000 13.79700 31.44900
O  -1.28000 12.31500 32.78400
C  -0.10900 12.19400 33.64500
H  -2.40600 20.48300 30.15200
H  -1.95900 19.64800 23.92900
H  -2.35100 13.26100 24.56400
H  -4.11100 16.39500 31.79000
H  -2.10500 18.64900 32.24500
H  -4.88200 18.55900 32.71800
H  -4.59500 19.63600 31.38800
H  -3.82100 19.81300 32.94700
H  -1.20500 15.88400 32.54600
H  -2.63000 15.05000 33.18200
H  -2.70700 17.51100 34.27300
H  -1.00100 16.96000 34.32200
H  -1.33500 22.70900 28.76300
H  -3.01700 22.32500 29.28700
H  -2.85900 23.23000 27.85400
H  -1.07700 24.25200 24.74300
H  -0.72700 23.67500 26.39700
H  -2.46500 23.91200 25.67000
H  -1.10300 17.46100 22.51100
H  -3.13300 15.22200 22.89700
H  -2.91700 18.76500 21.60400
H  -4.10800 18.16900 22.55900
H  -3.52300 17.17000 21.19800
H  -0.95900 15.59000 21.34600
H  -1.66000 13.95500 21.77900
H  1.04100 14.87700 22.26100
H  0.37900 13.36500 22.90700
H  0.27800 14.89900 23.77500
H  -2.18900 11.05700 25.62600
H  -3.58200 10.91000 26.67900
H  -1.84700 10.63600 27.34900
H  -3.21500 13.39800 31.69200
H  0.65800 12.96500 33.57700
H  0.38500 11.25900 33.37800
H  -0.43800 12.17200 34.68400
Mg 47.15900 16.89900 28.34600
C  45.03700 16.52300 31.12400
C  49.23400 18.64300 30.19800
C  48.64200 17.63000 25.46600
C  44.50700 15.34200 26.36700
N  46.98200 17.66600 30.40600
C  46.14500 17.24300 31.38300
C  46.75700 17.65100 32.83100
C  47.86800 18.61500 32.39000
C  48.09100 18.30600 30.90700
C  47.52300 20.10000 32.69100
C  47.17100 16.40700 33.68000
C  46.68000 16.41000 35.18500
H  46.36800 17.75300 35.78100
N  48.85600 17.89200 27.95000
C  49.64500 18.48300 28.83400
C  50.84300 18.89900 28.18200
C  50.68500 18.57700 26.80600
C  49.35600 18.06600 26.67200
C  51.89500 19.39100 29.02100
C  51.61900 18.76200 25.63300
O  51.29600 18.64400 24.46400
C  52.88900 19.46100 25.92400
N  46.68000 16.52300 26.22700
C  47.51000 16.97600 25.21200
C  46.95300 16.58800 23.80000
C  45.72800 15.73500 24.14800
C  45.63000 15.82200 25.67500
C  46.88400 17.85600 22.81900
C  45.71600 14.26400 23.53700
C  44.79000 14.09400 22.29600
N  45.07600 16.11900 28.61100
C  44.24600 15.51200 27.71900
C  43.01900 15.08800 28.44500
C  43.27500 15.45000 29.83300
C  44.57800 16.04800 29.81400
C  41.75200 14.55400 27.85500
C  42.87700 15.40100 31.24500
O  41.90600 14.91700 31.74400
C  43.93100 16.11900 32.09600
C  43.21900 17.21800 32.84300
O  43.04200 18.35300 32.40800
O  42.68700 16.78900 34.03900
C  41.87100 17.75900 34.75900
H  49.90700 19.18700 30.86400
H  49.17200 17.80900 24.52800
H  43.79800 14.76600 25.76700
H  45.92400 18.25400 33.19200
H  48.75500 18.32900 32.95500
H  48.39300 20.64300 33.05900
H  46.82200 20.19100 33.52000
H  47.18700 20.53800 31.75000
H  48.24200 16.21000 33.64700
H  46.64700 15.57400 33.21300
H  47.42000 15.82300 35.73000
H  45.75000 15.84100 35.19800
H  52.86200 19.40500 28.51900
H  52.10100 18.77600 29.89600
H  51.55500 20.39900 29.26000
H  52.71900 20.33200 26.55600
H  53.15300 19.87700 24.95200
H  53.53700 18.76100 26.45200
H  47.71700 15.88500 23.46800
H  44.81900 16.22800 23.80300
H  45.95000 17.76100 22.26600
H  47.67100 17.92800 22.06900
H  46.92900 18.78400 23.39000
H  45.44300 13.53200 24.29800
H  46.71800 14.07300 23.15500
H  45.33500 13.50800 21.55600
H  44.53000 15.05000 21.84200
H  43.93100 13.45700 22.50700
H  40.96700 14.95300 28.49900
H  41.70900 13.46500 27.85800
H  41.76000 15.02300 26.87100
H  44.31300 15.40800 32.82800
H  41.01200 18.13500 34.20400
H  42.49400 18.57600 35.12300
H  41.37000 17.38800 35.65300

