158

Mg 36.33200 49.75200 24.50600
C  36.49600 48.31000 27.69100
C  35.06500 52.64100 25.94800
C  35.47300 50.93400 21.37000
C  37.07900 46.61000 23.04100
N  35.69700 50.30100 26.65600
C  36.05000 49.66400 27.81600
C  35.96300 50.55500 29.04300
C  35.41600 51.86800 28.40800
C  35.34700 51.58800 26.91000
C  34.11900 52.54700 29.02300
C  37.33300 50.59100 29.91900
C  37.29400 50.61000 31.43100
H  35.89600 50.67600 32.17900
N  35.43600 51.58600 23.71900
C  35.04200 52.58100 24.53700
C  34.60200 53.69100 23.71400
C  34.56100 53.20600 22.34600
C  35.20400 51.84500 22.47200
C  34.19800 55.00000 24.23100
C  34.04200 53.83300 21.09200
O  34.10700 53.20400 20.05300
C  33.47300 55.24500 21.06400
N  36.24100 48.88800 22.50900
C  36.06500 49.64700 21.38700
C  36.29500 48.79900 20.15000
C  36.97500 47.47400 20.70700
C  36.71100 47.61600 22.13900
C  35.06400 48.50700 19.25500
C  38.46100 47.44900 20.23800
C  38.60300 46.40400 19.10800
N  36.80700 47.85500 25.14300
C  37.13700 46.68700 24.44300
C  37.40300 45.63700 25.42900
C  37.18400 46.21800 26.64000
C  36.81700 47.56100 26.50000
C  37.80700 44.11000 25.16200
C  37.13900 45.85600 28.05600
O  37.44200 44.80900 28.59100
C  36.75800 47.22400 28.77200
C  35.45700 46.95400 29.43700
O  34.39300 46.63000 28.90200
O  35.58500 47.24900 30.72600
C  34.42100 46.97700 31.46700
H  34.88700 53.56600 26.50100
H  35.36500 51.20500 20.31800
H  37.18600 45.65700 22.51800
H  35.11400 50.14600 29.59100
H  36.24800 52.56500 28.50900
H  33.78800 52.01000 29.91200
H  33.32700 52.54200 28.27500
H  34.09200 53.61700 29.22900
H  37.91500 51.47100 29.64700
H  37.85100 49.66700 29.66300
H  37.79500 51.49200 31.83100
H  37.90400 49.80500 31.84200
H  33.11500 54.97600 24.11000
H  34.57100 55.82900 23.63000
H  34.51500 55.19200 25.25600
H  32.88300 55.35500 20.15400
H  34.02000 56.18800 21.05600
H  32.67700 55.23800 21.81000
H  36.90100 49.35400 19.43400
H  36.43600 46.56800 20.43000
H  34.15100 48.49500 19.85100
H  35.29500 47.56100 18.76500
H  34.92400 49.31400 18.53600
H  39.04200 47.14300 21.10800
H  38.72900 48.47600 19.98800
H  38.68500 46.94800 18.16700
H  37.77500 45.69800 19.05400
H  39.51500 45.81600 19.21600
H  37.34500 43.32500 25.76100
H  38.89100 44.05700 25.05700
H  37.57000 43.91200 24.11700
H  37.57800 47.54700 29.41300
H  33.85100 46.11800 31.11300
H  33.69700 47.78500 31.56900
H  34.71600 46.71400 32.48300
Mg -11.87800 16.69600 41.14700
C  -8.73500 15.07300 40.78700
C  -10.31900 19.61900 40.05900
C  -14.76700 17.82600 40.18000
C  -13.24700 13.49200 41.75400
N  -9.74600 17.25000 40.61400
C  -8.66600 16.45400 40.52800
C  -7.39700 17.35000 40.30700
C  -7.85700 18.85100 40.52000
C  -9.44900 18.56300 40.41400
C  -7.45800 19.56700 41.85500
C  -6.97600 17.13900 38.81100
C  -5.51600 16.59800 38.69100
H  -4.64700 17.09100 37.52300
N  -12.42600 18.62700 40.44500
C  -11.70300 19.65600 39.95700
C  -12.49400 20.72100 39.51000
C  -13.79100 20.13200 39.33200
C  -13.69100 18.78300 39.98000
C  -12.10100 22.15100 39.02300
C  -15.00900 20.69900 38.60200
O  -14.98100 21.89300 38.26000
C  -16.33200 19.94600 38.23900
N  -13.81900 15.76500 41.09900
C  -14.83000 16.51700 40.72300
C  -16.09600 15.60500 40.87100
C  -15.63500 14.17000 41.31800
C  -14.14200 14.43700 41.44300
C  -17.15900 16.35800 41.74200
C  -15.96500 12.98200 40.39900
C  -16.51800 11.69500 41.08600
N  -11.19800 14.70400 41.33900
C  -11.85900 13.56300 41.65200
C  -10.97900 12.43200 41.72900
C  -9.73700 13.02300 41.36600
C  -9.90600 14.38800 41.11800
C  -11.29400 11.00700 42.22800
C  -8.29200 12.68800 41.07700
O  -7.68800 11.59800 41.13300
C  -7.62300 14.05700 40.66800
C  -6.72500 14.31300 41.84000
O  -7.00000 14.32500 43.05500
O  -5.48200 14.44900 41.30800
C  -4.49500 15.16500 42.04800
H  -9.90000 20.58000 39.75300
H  -15.73900 18.28100 39.97800
H  -13.63500 12.47200 41.72200
H  -6.64800 17.19100 41.08300
H  -7.51900 19.44700 39.67200
H  -6.91000 18.84000 42.45400
H  -8.33700 19.86400 42.42700
H  -6.80800 20.42400 41.68000
H  -7.04000 18.04300 38.20600
H  -7.53200 16.39700 38.23900
H  -5.57400 15.51300 38.60400
H  -5.06100 16.89800 39.63500
H  -12.45200 22.22000 37.99300
H  -11.01200 22.15600 39.00200
H  -12.41400 22.89400 39.75700
H  -16.88600 20.56200 37.53100
H  -16.96100 19.74500 39.10600
H  -16.13100 19.01100 37.71500
H  -16.63800 15.46200 39.93600
H  -15.94900 13.85800 42.31400
H  -16.79000 17.29400 42.16200
H  -17.54200 15.65000 42.47700
H  -17.99900 16.54100 41.07300
H  -15.03400 12.68600 39.91600
H  -16.72200 13.17400 39.63800
H  -15.71500 10.97100 41.22300
H  -17.14800 11.13500 40.39500
H  -16.93400 11.85100 42.08200
H  -11.99000 10.56000 41.51800
H  -11.76200 11.05300 43.21100
H  -10.38300 10.41000 42.20200
H  -7.11600 14.01200 39.70500
H  -4.23300 16.03800 41.45100
H  -3.62600 14.50700 42.08000
H  -4.90800 15.40000 43.02900

