158

Mg 1.87500 -2.18100 44.36300
C  5.26900 -0.96800 44.04100
C  0.98100 0.42400 42.46400
C  -1.03100 -3.65100 44.20300
C  3.25800 -5.15700 45.81200
N  3.01900 -0.55900 43.14100
C  4.38600 -0.28400 43.22700
C  4.65400 0.99200 42.48700
C  3.22500 1.63200 42.41400
C  2.35000 0.45000 42.80300
C  3.08300 2.94300 43.35100
C  5.45200 0.75600 41.17700
C  6.86000 1.37800 41.26800
H  7.93100 1.22300 40.20100
N  0.17600 -1.68400 43.42400
C  -0.07100 -0.50200 42.71400
C  -1.48900 -0.26100 42.48000
C  -2.08400 -1.50100 43.02600
C  -0.96500 -2.33600 43.57500
C  -2.06000 0.91200 41.75200
C  -3.55500 -1.79000 42.87500
O  -4.29600 -0.95600 42.36900
C  -4.16900 -3.05800 43.44800
N  1.21100 -4.13200 44.97700
C  -0.04500 -4.46700 44.69300
C  -0.41700 -5.89200 45.24000
C  0.99500 -6.36300 45.78600
C  1.90600 -5.19300 45.44700
C  -1.46300 -5.99300 46.37500
C  1.50700 -7.75800 45.30800
C  2.10600 -8.68500 46.42400
N  3.79500 -2.92000 44.92300
C  4.18400 -4.09600 45.55700
C  5.60300 -4.03300 45.91600
C  5.97200 -2.75200 45.43100
C  4.89100 -2.19800 44.72200
C  6.37100 -5.03900 46.65000
C  7.18000 -1.87200 45.26000
O  8.31700 -2.00200 45.62100
C  6.71300 -0.68600 44.33400
C  6.96600 0.49800 45.18100
O  6.31800 0.71500 46.18500
O  8.02200 1.31200 44.72600
C  8.13600 2.60200 45.49100
H  0.63500 1.36400 42.03000
H  -2.02900 -4.08200 44.31300
H  3.56400 -6.07500 46.31700
H  5.22800 1.58000 43.20400
H  3.11800 2.05500 41.41500
H  2.24400 3.04500 44.04000
H  3.00600 3.68500 42.55700
H  3.99900 3.16900 43.89800
H  4.96600 1.27400 40.35000
H  5.57500 -0.30500 40.95700
H  7.26900 1.21500 42.26500
H  6.58700 2.43300 41.25700
H  -3.00600 1.20900 42.20600
H  -2.19500 0.76400 40.68000
H  -1.49600 1.83400 41.89100
H  -4.04900 -3.98200 42.88300
H  -5.22700 -2.81600 43.35400
H  -3.87600 -3.04700 44.49800
H  -0.69100 -6.43800 44.33800
H  0.91000 -6.30700 46.87100
H  -1.51500 -4.98400 46.78300
H  -1.14900 -6.66500 47.17400
H  -2.40300 -6.27300 45.89800
H  2.33200 -7.52100 44.63700
H  0.82900 -8.36800 44.71100
H  1.72200 -9.68500 46.22200
H  1.84300 -8.31100 47.41300
H  3.18700 -8.58600 46.32400
H  6.08700 -5.05700 47.70200
H  7.43800 -4.86100 46.51600
H  6.23000 -5.99500 46.14500
H  7.39300 -0.73000 43.48300
H  7.27200 3.21500 45.23600
H  8.93100 3.21000 45.05900
H  8.17200 2.43500 46.56700
Mg 30.03600 58.04200 40.58000
C  27.10300 56.04100 39.75000
C  31.88100 55.51600 39.50900
C  32.51800 60.12600 40.43000
C  27.85100 60.52200 41.49600
N  29.47400 55.97800 39.66500
C  28.29900 55.40900 39.33100
C  28.50400 54.26700 38.32500
C  29.97000 53.95800 38.59400
C  30.51200 55.22500 39.30400
C  30.32700 52.64500 39.39300
C  28.18000 54.76500 36.88500
C  27.64300 53.65900 35.96400
H  27.96200 53.62400 34.45800
N  32.00100 57.81700 40.08400
C  32.63200 56.70900 39.74600
C  34.01400 56.89400 39.67200
C  34.18200 58.25400 39.90600
C  32.87200 58.80000 40.18300
C  34.98500 55.83100 39.36700
C  35.57900 58.96200 39.94100
O  36.64600 58.32700 39.82900
C  35.75800 60.44400 40.11400
N  30.11600 60.02100 40.84300
C  31.27400 60.68800 40.69500
C  31.11700 62.21200 40.78500
C  29.71700 62.22500 41.54200
C  29.20100 60.84000 41.34900
C  32.17900 62.86000 41.73800
C  28.73400 63.41100 41.21500
C  28.19400 64.21100 42.37400
N  27.81800 58.31900 40.63800
C  27.16600 59.39600 41.12400
C  25.73600 59.05400 41.05200
C  25.67000 57.75800 40.44700
C  26.99800 57.33300 40.29500
C  24.62800 59.91300 41.40300
C  24.73300 56.69100 40.03600
O  23.49200 56.66100 40.10900
C  25.66100 55.56700 39.53000
C  25.32600 54.35700 40.29500
O  25.95100 53.88200 41.24800
O  24.19500 53.75200 39.69900
C  23.77600 52.41300 40.12600
H  32.48100 54.76300 38.99300
H  33.29700 60.89100 40.45100
H  27.23500 61.37500 41.78800
H  27.85400 53.45100 38.64100
H  30.41800 53.78800 37.61500
H  29.45800 52.20000 39.87800
H  31.14500 52.84300 40.08400
H  30.70400 51.91700 38.67400
H  29.10100 55.11200 36.41700
H  27.27100 55.36700 36.85000
H  26.56300 53.80200 35.98400
H  27.73500 52.66500 36.40300
H  35.96500 56.21100 39.07900
H  34.54600 55.05800 38.73600
H  35.07100 55.32100 40.32600
H  35.24200 60.98900 39.32300
H  36.81400 60.66300 39.96100
H  35.46700 60.72000 41.12800
H  30.97800 62.74000 39.84100
H  29.87900 62.25000 42.62000
H  31.66200 63.56100 42.39400
H  32.86100 63.41700 41.09500
H  32.70500 62.23500 42.45900
H  27.90700 63.06800 40.59300
H  29.35900 64.07900 40.62200
H  28.68300 63.84300 43.27600
H  27.11500 64.21400 42.53200
H  28.56200 65.23500 42.31800
H  23.93100 60.19600 40.61300
H  25.06200 60.84200 41.77200
H  24.06500 59.42600 42.19900
H  25.35300 55.44000 38.49200
H  22.88500 52.59200 40.72800
H  24.53000 51.81400 40.63800
H  23.47300 51.75700 39.31000

