158

Mg 24.68200 -5.70000 46.31300
C  26.76700 -3.60000 44.28900
C  22.11800 -4.97400 44.22400
C  23.12500 -8.31700 47.63900
C  27.70000 -6.62100 48.01600
N  24.50300 -4.56300 44.42000
C  25.43200 -3.65100 43.96600
C  24.81000 -2.70800 42.93100
C  23.28100 -2.91600 43.17100
C  23.25100 -4.24400 43.94000
C  22.66700 -1.86000 44.10500
C  25.45400 -3.03600 41.48300
C  25.85600 -1.77300 40.60500
H  25.40500 -1.90500 39.16400
N  22.83500 -6.41600 46.02900
C  21.87900 -6.01700 45.13200
C  20.74000 -6.88100 45.14000
C  20.89900 -7.80900 46.16400
C  22.35000 -7.53700 46.69600
C  19.49100 -6.67400 44.14700
C  19.94800 -8.89300 46.57300
O  18.86700 -9.03600 45.98200
C  20.15600 -9.77900 47.76800
N  25.32900 -7.25900 47.62700
C  24.42400 -8.16200 48.14500
C  25.11700 -9.24300 48.99500
C  26.50900 -8.61700 49.21000
C  26.51500 -7.46400 48.21400
C  24.32700 -9.53200 50.30100
C  27.64700 -9.63400 48.79800
C  27.83100 -10.70900 49.81900
N  26.91500 -5.23700 46.27400
C  27.92600 -5.57800 47.06200
C  29.19600 -4.97700 46.55000
C  28.75600 -4.11600 45.53800
C  27.40900 -4.34000 45.38100
C  30.64100 -5.12800 47.12900
C  29.22600 -3.17100 44.50800
O  30.32800 -2.77400 44.12500
C  27.86900 -2.66700 43.80000
C  27.58900 -1.22800 44.25200
O  26.72300 -0.98100 45.07700
O  28.42800 -0.39500 43.60800
C  28.22900 0.99700 43.97700
H  21.31900 -4.77100 43.50800
H  22.72300 -9.27400 47.97700
H  28.43300 -6.92800 48.76500
H  25.05100 -1.67800 43.19200
H  22.66700 -3.05200 42.28100
H  22.71400 -0.90400 43.58400
H  23.12700 -1.85800 45.09300
H  21.58700 -1.96700 44.21000
H  24.67300 -3.60000 40.97500
H  26.25300 -3.77600 41.43200
H  26.94100 -1.80700 40.69900
H  25.50300 -0.84900 41.06500
H  18.65200 -7.35300 44.29400
H  19.86400 -6.81500 43.13300
H  19.25500 -5.61400 44.23400
H  21.04400 -10.34900 47.49700
H  19.32500 -10.42900 48.04200
H  20.41700 -9.19500 48.65100
H  25.05900 -10.11000 48.33700
H  26.55700 -8.21000 50.22000
H  24.86300 -9.27400 51.21500
H  24.28100 -10.61300 50.42900
H  23.30600 -9.15900 50.21600
H  28.61900 -9.14100 48.78000
H  27.50500 -10.14300 47.84500
H  27.30100 -11.62700 49.56600
H  27.55100 -10.43000 50.83500
H  28.88200 -10.99600 49.80900
H  31.12900 -4.16100 47.00500
H  31.16100 -5.80400 46.45000
H  30.72800 -5.50600 48.14800
H  27.99600 -2.70500 42.71800
H  29.11200 1.62900 43.88900
H  27.96500 1.01900 45.03400
H  27.45000 1.37700 43.31500
Mg 41.38200 9.26700 30.24300
C  42.96000 10.39200 33.10600
C  39.01400 7.66400 32.20900
C  39.64200 8.37500 27.47100
C  43.85200 10.61000 28.42500
N  41.06900 9.01700 32.35300
C  41.82500 9.58100 33.34100
C  41.08900 9.51700 34.67700
C  40.02400 8.35100 34.42500
C  40.04900 8.29200 32.90200
C  40.46400 6.99600 34.98400
C  40.45200 10.89300 35.01200
C  40.17500 11.08900 36.57100
H  40.89100 12.01300 37.51400
N  39.62600 8.20000 29.88400
C  38.77400 7.62600 30.84000
C  37.59600 7.00700 30.10500
C  37.68200 7.31700 28.71900
C  39.03000 7.98300 28.63600
C  36.45600 6.31000 30.81700
C  36.67900 7.10400 27.62100
O  36.84600 7.56300 26.49200
C  35.40400 6.25800 27.89400
N  41.68500 9.44800 28.29400
C  40.89000 8.98200 27.35700
C  41.56100 9.06800 25.95100
C  42.83100 9.96700 26.24400
C  42.80800 10.02100 27.74300
C  41.82900 7.71700 25.27500
C  42.85000 11.37900 25.55300
C  41.62900 12.32200 25.85700
N  43.08300 10.25700 30.63000
C  44.07100 10.73700 29.83600
C  45.07900 11.42700 30.57200
C  44.71200 11.31400 31.89500
C  43.51300 10.64500 31.87200
C  46.38100 12.01900 30.01500
C  45.07300 11.60100 33.28100
O  45.92000 12.27600 33.77000
C  43.87900 11.09500 34.08900
C  44.42500 10.21200 35.12700
O  44.99100 9.11400 34.87900
O  44.25600 10.80100 36.35900
C  44.57000 10.09100 37.59500
H  38.27500 7.13800 32.81700
H  39.15900 8.23700 26.50100
H  44.66500 11.11300 27.89700
H  41.62100 9.25500 35.59100
H  39.04400 8.58900 34.83900
H  39.55100 6.71000 35.50600
H  41.33000 6.85100 35.63000
H  40.74400 6.21100 34.28200
H  39.49200 10.96200 34.50000
H  40.95800 11.77400 34.61400
H  40.25800 10.13400 37.09000
H  39.18500 11.52700 36.69300
H  35.57400 6.88700 30.53700
H  36.59600 6.33400 31.89800
H  36.51600 5.28900 30.44000
H  34.81300 6.18800 26.98000
H  34.77000 6.80400 28.59200
H  35.72200 5.27500 28.24100
H  40.86100 9.75100 25.46900
H  43.66000 9.36200 25.87600
H  41.43400 6.88300 25.85300
H  42.90200 7.52300 25.24400
H  41.46100 7.75400 24.24900
H  42.79100 11.16800 24.48600
H  43.80800 11.86000 25.74800
H  41.96500 13.30500 26.18700
H  41.01900 11.92900 26.67000
H  41.00500 12.36100 24.96400
H  46.99700 11.20400 29.63500
H  46.92300 12.71700 30.65200
H  46.17300 12.62400 29.13300
H  43.48400 11.95300 34.63300
H  45.39700 10.58300 38.10700
H  44.90300 9.11800 37.23400
H  43.71700 9.94200 38.25600

