158

Mg 1.03600 8.18300 26.33500
C  1.60300 9.96000 29.36200
C  0.94700 5.32800 28.33900
C  0.71900 6.30700 23.56200
C  1.31300 11.06300 24.60900
N  1.24800 7.75000 28.58900
C  1.31500 8.61900 29.64200
C  1.19200 7.95700 30.94800
C  1.39700 6.48700 30.57600
C  1.14400 6.50100 29.07800
C  2.69100 5.78000 30.90100
C  -0.09400 8.41100 31.69200
C  0.01700 8.51800 33.22800
H  1.25400 7.93600 33.95300
N  0.83900 6.07500 26.02400
C  0.85100 5.11900 26.94400
C  0.55300 3.84500 26.28500
C  0.68300 4.11900 24.92500
C  0.74800 5.53800 24.77800
C  0.35400 2.52600 26.99600
C  0.60200 3.12400 23.66900
O  0.60100 3.53000 22.51200
C  0.57200 1.60900 23.86500
N  0.94000 8.60400 24.43000
C  0.82300 7.71300 23.41600
C  0.76300 8.45100 22.01500
C  0.83400 9.96000 22.39500
C  0.99700 9.85900 23.92100
C  1.71400 7.97000 20.87300
C  -0.46500 10.77400 21.91300
C  -1.73400 10.51600 22.74700
N  1.37700 10.10400 26.78600
C  1.51000 11.17100 25.96400
C  1.81800 12.37600 26.77200
C  1.83100 11.89000 28.06100
C  1.55800 10.53600 28.05200
C  2.04400 13.81900 26.21300
C  2.20000 12.28800 29.39000
O  2.57200 13.39800 29.84200
C  1.93400 11.01300 30.31900
C  3.15600 10.67200 31.07900
O  4.09000 9.87100 30.83900
O  3.17900 11.52100 32.18300
C  4.40600 11.54600 33.08100
H  0.82600 4.38700 28.88000
H  0.66400 5.89700 22.55100
H  1.22200 11.95700 23.98800
H  2.11800 8.15800 31.48600
H  0.60200 5.87500 31.00200
H  2.48100 5.07300 31.70300
H  3.45000 6.39800 31.38100
H  3.09700 5.17400 30.09100
H  -0.91200 7.72200 31.47700
H  -0.42800 9.37800 31.31800
H  -0.88000 8.07900 33.66400
H  0.08700 9.59800 33.35700
H  1.34400 2.08400 26.88100
H  -0.43600 1.95200 26.51200
H  0.01800 2.67100 28.02300
H  1.56500 1.18800 24.02300
H  0.31300 1.15500 22.90900
H  -0.13100 1.24800 24.61600
H  -0.26000 8.16900 21.76500
H  1.77900 10.39400 22.06700
H  2.42300 7.22000 21.22700
H  2.27900 8.88100 20.67800
H  1.23000 7.44200 20.05200
H  -0.54800 10.57000 20.84500
H  -0.27700 11.84200 22.02000
H  -1.58400 9.99900 23.69500
H  -2.40200 9.80800 22.25700
H  -2.18500 11.48900 22.94100
H  2.47100 13.72900 25.21400
H  2.76700 14.29800 26.87200
H  1.14300 14.42200 26.09400
H  1.08000 11.19900 30.96900
H  5.29300 11.02000 32.72900
H  4.13100 11.15700 34.06200
H  4.75800 12.57000 33.20800
Mg 17.22700 52.41700 26.60700
C  19.14500 50.42800 28.88500
C  15.12900 53.25100 29.15700
C  15.39600 53.68700 24.39800
C  19.33700 50.90200 24.00100
N  17.08900 51.74300 28.73000
C  18.10000 51.19000 29.48300
C  17.83700 51.41200 31.00400
C  16.41000 51.95500 31.03900
C  16.18500 52.37600 29.54900
C  15.38900 50.84700 31.46700
C  18.89400 52.39000 31.62900
C  19.30200 52.00600 33.05600
H  18.20500 51.43200 33.97600
N  15.51200 53.46600 26.77900
C  14.77500 53.71700 27.89900
C  13.76300 54.65800 27.52400
C  13.83900 54.93500 26.14800
C  14.92000 54.01500 25.71500
C  12.80000 55.20300 28.54900
C  13.09400 55.89300 25.32700
O  13.21300 56.00900 24.07200
C  12.29300 56.96900 26.13400
N  17.33200 52.20400 24.54000
C  16.43800 52.93400 23.86800
C  16.79000 52.99300 22.36800
C  18.00600 52.06500 22.23100
C  18.27600 51.67700 23.67200
C  15.53200 52.84600 21.44600
C  19.24400 52.66900 21.47800
C  20.21200 53.62200 22.16200
N  18.96200 51.04200 26.42800
C  19.66900 50.51200 25.32900
C  20.67000 49.54900 25.77700
C  20.52000 49.59600 27.12800
C  19.46800 50.46500 27.49700
C  21.64600 48.81800 24.88100
C  21.08700 49.04300 28.32400
O  21.96700 48.19300 28.47000
C  20.30500 49.68100 29.50900
C  19.89300 48.62000 30.47100
O  19.03700 47.77300 30.33900
O  20.49200 48.92100 31.68500
C  20.27300 48.09800 32.93200
H  14.45500 53.45500 29.99200
H  14.68300 54.19500 23.74600
H  19.90100 50.44700 23.18400
H  17.78300 50.45700 31.52700
H  16.28400 52.78200 31.73800
H  14.93300 50.40800 30.57900
H  14.55300 51.26400 32.02900
H  15.91000 50.10800 32.07500
H  18.54500 53.42300 31.64200
H  19.77700 52.37500 30.99000
H  19.75400 52.81700 33.62800
H  20.03500 51.20000 33.02600
H  11.76200 54.93400 28.35200
H  12.81400 56.29300 28.56100
H  13.01700 54.89700 29.57200
H  13.10700 57.37100 26.73700
H  11.40100 56.51500 26.56400
H  11.93900 57.76900 25.48400
H  17.13400 53.97400 22.03900
H  17.66600 51.22200 21.62900
H  14.75500 52.35700 22.03400
H  15.75600 52.11000 20.67400
H  15.16600 53.79800 21.06100
H  18.87500 53.09500 20.54400
H  19.83300 51.82800 21.11300
H  21.10500 52.99800 22.16400
H  19.75400 53.90100 23.11100
H  20.23500 54.42400 21.42500
H  22.55000 49.36900 24.62400
H  21.11100 48.57000 23.96500
H  21.93500 47.89100 25.37700
H  20.93500 50.43200 29.98400
H  20.92900 48.30500 33.77700
H  20.31900 47.03000 32.71700
H  19.23700 48.29100 33.21000

