158

Mg 17.15200 -2.22600 28.43500
C  16.19600 -0.01700 30.94200
C  18.91900 -3.96300 30.80400
C  18.42100 -3.86400 25.83000
C  15.74300 0.04700 26.02000
N  17.44500 -2.03200 30.64700
C  16.91000 -1.07200 31.41700
C  17.37100 -1.23600 32.91200
C  18.39500 -2.36600 32.86300
C  18.18700 -2.87100 31.40900
C  19.89800 -2.02000 33.11700
C  16.17600 -1.52100 33.90700
C  16.68100 -1.80800 35.37500
H  17.82400 -1.07700 35.94300
N  18.49300 -3.69900 28.35400
C  19.05000 -4.33900 29.45800
C  19.80700 -5.47700 28.96600
C  19.70400 -5.43600 27.53500
C  18.78900 -4.30400 27.17300
C  20.58500 -6.43500 29.93900
C  20.30600 -6.40400 26.60900
O  19.91800 -6.61500 25.43700
C  21.10700 -7.41900 27.08200
N  16.91500 -2.01200 26.20800
C  17.58900 -2.90700 25.35900
C  17.62500 -2.38700 23.96500
C  16.59100 -1.16600 24.07500
C  16.35800 -1.03100 25.53900
C  19.03700 -1.96700 23.53300
C  15.35100 -1.12900 23.14100
C  13.95800 -1.22300 23.86300
N  16.15100 -0.38900 28.43400
C  15.67300 0.42300 27.39800
C  14.86700 1.46200 27.97500
C  15.02300 1.31400 29.39600
C  15.95100 0.24600 29.58000
C  13.87200 2.37000 27.27200
C  14.65300 1.88900 30.68700
O  13.93600 2.87200 30.89100
C  15.50800 1.01400 31.73600
C  16.28500 1.88100 32.61600
O  17.40200 2.18400 32.33900
O  15.54300 2.35900 33.67300
C  16.28900 3.19100 34.66200
H  19.39000 -4.42600 31.67300
H  18.93700 -4.48400 25.09400
H  15.29300 0.76800 25.33500
H  17.70500 -0.30600 33.37200
H  18.04200 -3.13300 33.55300
H  20.37600 -2.95800 33.39900
H  20.01200 -1.09900 33.68700
H  20.23500 -1.51400 32.21200
H  15.57100 -2.35900 33.56000
H  15.48900 -0.69200 34.07900
H  16.98400 -2.85200 35.46100
H  15.88400 -1.63200 36.09700
H  21.65800 -6.24500 29.91500
H  20.45700 -7.47600 29.63900
H  20.19100 -6.37700 30.95400
H  21.97100 -6.90100 27.49900
H  21.35900 -8.10200 26.27100
H  20.55300 -8.04700 27.78000
H  17.19200 -3.10600 23.27000
H  17.10400 -0.23200 23.84700
H  19.45400 -2.77400 22.93100
H  19.61600 -1.71400 24.42100
H  18.91900 -1.06600 22.93100
H  15.43100 -1.87300 22.34800
H  15.58200 -0.12200 22.79200
H  13.26800 -1.63200 23.12500
H  13.57700 -0.26200 24.21100
H  13.88500 -1.85700 24.74600
H  13.57000 3.20900 27.89900
H  12.99300 1.81000 26.95100
H  14.31600 2.85600 26.40400
H  14.85000 0.51800 32.44900
H  17.08100 3.72900 34.14200
H  16.60800 2.52300 35.46200
H  15.63500 3.92300 35.13600
Mg -1.94000 34.23600 26.85800
C  -3.41000 32.50400 29.49800
C  -0.95800 36.58700 29.07800
C  -1.25400 36.14900 24.21900
C  -3.58600 31.89500 24.61900
N  -2.23900 34.59600 29.00000
C  -2.72000 33.66900 29.93200
C  -2.32300 34.08300 31.38400
C  -1.41900 35.31600 31.20200
C  -1.60200 35.54200 29.67300
C  -1.66500 36.57800 32.04600
C  -1.70100 32.86500 32.19700
C  -2.39000 32.42700 33.51000
H  -1.60900 32.53200 34.90100
N  -1.16500 36.06900 26.66300
C  -0.90900 36.92000 27.77900
C  -0.35800 38.19000 27.20300
C  -0.28400 37.99300 25.77900
C  -0.96100 36.69600 25.48400
C  0.47300 39.27200 27.96400
C  0.34400 38.89300 24.68900
O  0.28600 38.60900 23.43900
C  1.03300 40.07700 24.98600
N  -2.43000 34.10100 24.64500
C  -1.91700 34.96100 23.82400
C  -2.05500 34.40400 22.35300
C  -2.58800 33.00000 22.48700
C  -2.94400 33.00200 24.00000
C  -2.90200 35.20100 21.37900
C  -1.48700 31.94100 22.10600
C  -0.34000 31.91500 23.06300
N  -3.21700 32.54800 27.02600
C  -3.70300 31.67600 26.05500
C  -4.45700 30.58600 26.71700
C  -4.40500 30.87600 28.09600
C  -3.52700 32.03000 28.18800
C  -5.26900 29.57400 26.08700
C  -4.81600 30.53100 29.37400
O  -5.57800 29.60000 29.69600
C  -4.22500 31.54400 30.29000
C  -5.26300 32.27500 31.08100
O  -6.02300 33.12200 30.66900
O  -5.21000 31.69300 32.34500
C  -6.31900 32.11800 33.22100
H  -0.40600 37.24800 29.75000
H  -0.94500 36.71700 23.33900
H  -4.08000 31.15200 23.99000
H  -3.21800 34.46100 31.87900
H  -0.41400 34.98900 31.46900
H  -1.71600 37.49000 31.45000
H  -0.96900 36.56700 32.88500
H  -2.65000 36.52600 32.50900
H  -0.66600 33.03000 32.49700
H  -1.63700 31.98500 31.55800
H  -2.70700 31.38400 33.50600
H  -3.26700 33.07300 33.54000
H  0.16500 40.25300 27.60200
H  1.55200 39.25400 27.81500
H  0.34800 39.26500 29.04700
H  1.79300 40.20000 25.75800
H  0.40300 40.96600 24.96700
H  1.56000 40.43500 24.10200
H  -1.03600 34.50500 21.97900
H  -3.39400 32.74300 21.79900
H  -3.52500 35.85500 21.99000
H  -3.50600 34.63600 20.66900
H  -2.31700 35.92700 20.81600
H  -1.06200 32.16500 21.12700
H  -1.91500 30.94000 22.15100
H  -0.51200 31.43500 24.02600
H  0.00500 32.90800 23.35100
H  0.47300 31.34500 22.61300
H  -4.84400 29.20400 25.15400
H  -6.32500 29.82800 25.99400
H  -5.17700 28.74100 26.78300
H  -3.44000 31.09500 30.89900
H  -5.92900 32.56200 34.13600
H  -6.81800 31.18600 33.48900
H  -6.93700 32.91100 32.80100

