158

Mg 25.41100 1.40700 30.20700
C  27.71800 0.94300 32.92200
C  22.87600 1.72300 32.51300
C  23.27600 1.53700 27.65700
C  28.02600 0.55400 28.07100
N  25.33500 1.28700 32.51100
C  26.40400 1.26300 33.37500
C  25.92900 1.57300 34.84900
C  24.39700 1.70500 34.68100
C  24.14500 1.59000 33.14300
C  23.79600 0.48500 35.41100
C  26.68300 2.87100 35.49000
C  27.10300 2.85700 36.98700
H  26.39500 3.93300 37.88300
N  23.37200 1.59900 30.11500
C  22.52400 1.76600 31.18700
C  21.15200 1.93900 30.65000
C  21.23400 1.69000 29.27900
C  22.65900 1.54700 28.95500
C  19.86700 2.27600 31.37800
C  20.20000 1.66000 28.23900
O  20.45700 1.28900 27.13800
C  18.77100 1.91900 28.62600
N  25.49000 0.85800 28.12200
C  24.55600 1.30700 27.24400
C  25.11200 1.20600 25.77200
C  26.67000 1.06100 25.93900
C  26.78300 0.86400 27.47700
C  24.50200 0.22600 24.72900
C  27.52400 2.14600 25.31300
C  27.59400 3.59100 26.02700
N  27.43100 0.88300 30.38200
C  28.41700 0.56000 29.40900
C  29.72600 0.35100 29.99200
C  29.44500 0.51100 31.37400
C  28.11600 0.80800 31.52700
C  31.07400 -0.00200 29.31200
C  30.12600 0.46500 32.63600
O  31.29700 0.34800 32.92800
C  29.03800 0.91400 33.68200
C  28.89100 -0.14600 34.88100
O  28.10300 -1.06300 34.90500
O  29.64000 0.22800 35.96300
C  29.22300 -0.49900 37.18300
H  21.97900 1.88400 33.11400
H  22.61500 1.83000 26.83800
H  28.90100 0.49600 27.42000
H  26.14700 0.69000 35.45000
H  23.84300 2.51200 35.16200
H  24.36400 0.36900 36.33400
H  23.80900 -0.30700 34.66200
H  22.77100 0.67100 35.73400
H  25.98800 3.71000 35.51100
H  27.60300 3.21900 35.02000
H  28.14200 3.17800 37.05000
H  26.95600 1.89800 37.48500
H  19.29600 1.35100 31.29200
H  19.40000 3.17100 30.96800
H  19.93000 2.38200 32.46100
H  18.22300 1.85800 27.68500
H  18.74300 2.90400 29.09100
H  18.35600 1.14900 29.27600
H  24.94600 2.20800 25.37600
H  27.21700 0.21400 25.52300
H  24.00800 0.67800 23.86900
H  23.73700 -0.44800 25.11400
H  25.22000 -0.51200 24.37100
H  27.26800 2.32000 24.26700
H  28.57500 1.85600 25.32300
H  26.94800 3.55400 26.90400
H  27.19100 4.25400 25.26100
H  28.61900 3.86100 26.27900
H  31.00400 -0.46700 28.32800
H  31.50700 -0.71200 30.01700
H  31.74600 0.84300 29.16300
H  29.32400 1.90100 34.04300
H  29.68300 -1.47900 37.31400
H  28.14900 -0.63700 37.30400
H  29.56200 0.09400 38.03200
Mg -11.40500 37.49400 43.25900
C  -8.98800 35.24400 42.41300
C  -9.20200 40.01000 41.92500
C  -13.85100 39.91800 43.36500
C  -13.63400 35.01400 43.78000
N  -9.37400 37.56200 42.07100
C  -8.53900 36.51500 41.98200
C  -7.10600 36.85300 41.49600
C  -7.22500 38.42700 41.66600
C  -8.70700 38.69300 41.89300
C  -6.31600 39.08500 42.73700
C  -6.88100 36.29500 40.03900
C  -5.47800 35.62400 39.76600
H  -4.96100 35.45300 38.36900
N  -11.48800 39.64100 42.67800
C  -10.53700 40.43600 42.14900
C  -10.94600 41.78100 42.04900
C  -12.31700 41.83400 42.48600
C  -12.61900 40.43500 42.86100
C  -10.06700 42.88300 41.55800
C  -13.18100 43.13700 42.66000
O  -12.80900 44.22500 42.22300
C  -14.57200 43.12500 43.18400
N  -13.46700 37.47900 43.35600
C  -14.22700 38.59600 43.64600
C  -15.60600 38.25500 44.31800
C  -15.56400 36.66600 44.16200
C  -14.11200 36.34200 43.71400
C  -15.82200 38.78200 45.76000
C  -16.52100 36.06900 43.07400
C  -17.83800 35.43600 43.69800
N  -11.36500 35.48600 43.24800
C  -12.31500 34.54400 43.45000
C  -11.77200 33.26200 43.41000
C  -10.43500 33.41700 43.00100
C  -10.23000 34.86500 42.93100
C  -12.49100 31.96000 43.64700
C  -9.20000 32.75600 42.69400
O  -8.82500 31.56200 42.69200
C  -8.19300 33.92500 42.30300
C  -6.99800 33.93000 43.19800
O  -5.88300 33.92500 42.70800
O  -7.24700 34.01500 44.54800
C  -6.10500 33.90400 45.50200
H  -8.46100 40.77500 41.68100
H  -14.59900 40.66800 43.62800
H  -14.24200 34.24900 44.26700
H  -6.40600 36.43300 42.21800
H  -6.94600 38.86400 40.70800
H  -6.82500 39.47300 43.62000
H  -5.63000 39.73600 42.19400
H  -5.66500 38.35200 43.21300
H  -6.98800 37.16900 39.39600
H  -7.51000 35.45900 39.73300
H  -5.68900 34.60400 40.08700
H  -4.66100 36.01900 40.36900
H  -10.14000 42.92300 40.47100
H  -9.03500 42.69800 41.85500
H  -10.24900 43.92700 41.81400
H  -15.09500 44.07300 43.30900
H  -14.46200 42.64900 44.15900
H  -15.10800 42.53000 42.44400
H  -16.47600 38.56700 43.74100
H  -15.62600 36.19600 45.14400
H  -14.89100 39.22200 46.11600
H  -16.03600 37.89600 46.35800
H  -16.62500 39.51100 45.65300
H  -16.08300 35.28500 42.45600
H  -16.73700 36.76000 42.26000
H  -18.69000 35.83000 43.14300
H  -17.90200 35.68200 44.75800
H  -17.81900 34.36600 43.48800
H  -13.48800 32.13100 44.05200
H  -11.95900 31.31700 44.34800
H  -12.65100 31.34000 42.76500
H  -8.05200 33.79400 41.23000
H  -6.39100 33.18500 46.27000
H  -6.00500 34.94700 45.80400
H  -5.18700 33.58300 45.00900

