158

Mg 23.91800 -5.35300 46.34600
C  26.31700 -3.30700 44.62300
C  21.56500 -4.00400 44.10500
C  21.99000 -8.08000 46.85700
C  26.65200 -6.99900 47.90800
N  24.00000 -3.84600 44.50100
C  25.03300 -3.02800 44.14000
C  24.57100 -2.12500 42.99900
C  23.00700 -2.15300 43.08800
C  22.82700 -3.41800 43.96600
C  22.35400 -0.87500 43.65900
C  25.17000 -2.58600 41.60800
C  26.10400 -1.67100 40.89700
H  26.04000 -1.48600 39.42000
N  22.00100 -5.85700 45.75800
C  21.23400 -5.15300 44.87000
C  19.96400 -5.80800 44.85100
C  20.07500 -7.04600 45.54100
C  21.42900 -7.08100 46.04400
C  18.75200 -5.26700 44.15600
C  18.89700 -8.00300 45.64900
O  17.72900 -7.75100 45.33500
C  19.16100 -9.36200 46.13100
N  24.26700 -7.23100 47.36500
C  23.24100 -8.16600 47.45600
C  23.74900 -9.40000 48.26000
C  25.25900 -9.04100 48.68300
C  25.47000 -7.73600 47.93500
C  22.82900 -9.79600 49.47600
C  26.31400 -10.10100 48.19200
C  27.36700 -10.69200 49.12100
N  26.02700 -5.14600 46.39200
C  26.98300 -5.84400 47.11900
C  28.25300 -5.26300 46.91000
C  28.07700 -4.25500 45.93000
C  26.68800 -4.30700 45.56500
C  29.58500 -5.56800 47.59100
C  28.69700 -3.23700 45.13900
O  29.89200 -2.81400 45.09500
C  27.65800 -2.65800 44.15400
C  27.60600 -1.15200 44.39000
O  27.20600 -0.59200 45.41500
O  28.15900 -0.50300 43.33800
C  28.01200 0.92200 43.25000
H  20.78500 -3.40000 43.63600
H  21.44900 -9.00900 47.05000
H  27.51500 -7.48600 48.36800
H  25.01500 -1.16800 43.27500
H  22.52300 -2.35000 42.13100
H  22.00200 -0.87400 44.69100
H  21.52200 -0.58600 43.01600
H  23.02400 -0.04200 43.44900
H  24.33200 -2.80000 40.94600
H  25.67300 -3.54300 41.75100
H  27.11500 -1.92900 41.21200
H  26.03800 -0.64900 41.27100
H  18.00800 -5.47300 44.92600
H  18.55300 -5.62900 43.14800
H  18.77400 -4.18000 44.08000
H  19.26300 -9.23800 47.20900
H  20.07100 -9.66700 45.61500
H  18.37500 -10.06900 45.86500
H  23.78400 -10.28500 47.62500
H  25.38900 -8.79800 49.73700
H  21.96200 -9.13700 49.51900
H  23.45800 -9.65600 50.35500
H  22.54900 -10.84700 49.41300
H  26.75400 -9.82900 47.23200
H  25.61800 -10.92800 48.05500
H  27.28500 -11.74000 49.41100
H  27.68000 -10.06000 49.95300
H  28.27800 -10.76000 48.52700
H  30.23900 -4.73700 47.32500
H  29.94600 -6.51500 47.19100
H  29.47700 -5.71800 48.66500
H  27.83100 -2.92900 43.11200
H  29.03200 1.28700 43.12700
H  27.34900 1.37300 43.98900
H  27.58900 1.17300 42.27700
Mg 25.98600 0.50400 29.12000
C  28.01700 0.27000 32.03400
C  23.34700 1.17200 31.19400
C  24.09900 0.28200 26.43000
C  28.78200 -0.55800 27.19400
N  25.71500 0.54800 31.41700
C  26.71100 0.55700 32.35700
C  26.15000 0.91400 33.70800
C  24.63100 1.16300 33.41900
C  24.52300 0.90400 31.92000
C  23.52200 0.28500 34.18000
C  26.84900 2.18800 34.33300
C  26.10600 2.80700 35.51500
H  26.95900 3.16100 36.81100
N  23.97800 0.67300 28.87100
C  23.05300 1.09600 29.83700
C  21.77600 1.30500 29.17700
C  22.00800 1.14100 27.80600
C  23.41700 0.60400 27.60600
C  20.56000 1.62300 29.90700
C  21.02200 1.44600 26.64900
O  21.26200 1.10000 25.50100
C  19.76500 2.03500 26.84700
N  26.40200 -0.08800 27.16800
C  25.38900 -0.06300 26.20200
C  26.03800 -0.30600 24.75900
C  27.51100 -0.53400 25.05100
C  27.56100 -0.47200 26.55400
C  25.26900 -1.44800 24.00900
C  28.38100 0.38000 24.24400
C  28.30600 1.84500 24.39700
N  28.04600 0.12000 29.46500
C  29.00800 -0.44300 28.61100
C  30.23300 -0.59800 29.32600
C  29.83800 -0.33500 30.65400
C  28.50400 0.07600 30.69100
C  31.49200 -1.01600 28.82100
C  30.40600 -0.32000 31.95000
O  31.55300 -0.59000 32.26900
C  29.26200 0.14200 32.87000
C  29.09500 -0.83800 33.96400
O  28.71600 -1.98600 33.86300
O  29.45100 -0.28300 35.22800
C  29.25600 -1.14400 36.38300
H  22.51700 1.41000 31.86200
H  23.42300 0.16100 25.58100
H  29.60600 -0.71700 26.49600
H  26.39800 0.05700 34.33400
H  24.52100 2.23600 33.57300
H  23.83300 0.05800 35.20000
H  23.53700 -0.69800 33.71000
H  22.48900 0.62700 34.11400
H  26.98500 2.93300 33.54900
H  27.85900 1.91700 34.64000
H  25.37300 2.09000 35.88500
H  25.48500 3.64200 35.19300
H  19.73600 1.12400 29.39600
H  20.33300 2.68900 29.89400
H  20.61000 1.44700 30.98100
H  18.96800 1.31700 27.04000
H  19.62200 2.69800 25.99400
H  19.76800 2.75000 27.67100
H  25.92800 0.61400 24.18500
H  27.80500 -1.56700 24.86500
H  24.50800 -1.89500 24.64800
H  25.98500 -2.21700 23.71700
H  24.72600 -1.03500 23.15900
H  28.08300 0.20500 23.21000
H  29.39800 -0.01300 24.22500
H  27.64300 2.31300 23.66800
H  29.29100 2.22400 24.12500
H  28.01100 2.18100 25.39100
H  31.49500 -1.60900 27.90600
H  32.08700 -1.53000 29.57600
H  32.00400 -0.07600 28.61700
H  29.53000 1.03000 33.44300
H  29.58300 -2.12800 36.04900
H  28.21200 -1.19200 36.69300
H  29.88400 -0.74200 37.17800

