158

Mg 41.97700 41.07700 27.13600
C  41.19800 43.54200 29.51400
C  42.64500 38.88200 29.61200
C  42.93300 38.89600 24.74000
C  41.09300 43.37700 24.58200
N  42.15900 41.32500 29.30700
C  41.70300 42.36000 30.10700
C  41.50800 41.84700 31.56200
C  42.35800 40.51400 31.53700
C  42.35100 40.19300 30.03100
C  43.73000 40.79500 32.14700
C  40.03500 41.72600 32.00500
C  39.52500 42.80700 32.96200
H  39.38000 42.51300 34.44400
N  42.72400 39.11900 27.22800
C  42.88900 38.35500 28.32900
C  43.32100 37.08100 27.92300
C  43.47900 37.07800 26.51100
C  43.08000 38.36600 26.09000
C  43.78300 36.02300 28.87100
C  44.07900 36.04500 25.58800
O  44.50500 36.24500 24.44700
C  44.25100 34.68300 26.04800
N  41.97200 41.11600 24.96400
C  42.43600 40.08000 24.23400
C  42.29000 40.40100 22.72900
C  41.68500 41.79700 22.69900
C  41.58100 42.13700 24.17800
C  43.67600 40.17100 21.97800
C  40.36600 41.90900 21.89100
C  39.10700 41.34000 22.54900
N  41.33800 43.04200 27.02700
C  41.01600 43.81700 25.91500
C  40.70900 45.15500 26.35300
C  40.68700 45.06900 27.79200
C  41.18300 43.81600 28.17400
C  40.41800 46.47300 25.49100
C  40.55600 45.83300 29.05100
O  40.37400 46.99400 29.19900
C  40.71800 44.79600 30.19500
C  41.73600 45.37500 31.11200
O  42.96900 45.28900 30.90700
O  41.10900 46.03600 32.13300
C  42.02300 46.80500 32.96500
H  42.75600 38.21400 30.46900
H  43.17900 38.15700 23.97400
H  40.93800 44.08800 23.76800
H  41.94300 42.50800 32.31100
H  41.92300 39.64800 32.03600
H  44.54400 40.47700 31.49500
H  43.83000 40.12700 33.00200
H  43.90500 41.80800 32.50800
H  39.82600 40.74200 32.42400
H  39.45200 41.97700 31.11900
H  38.55800 43.11500 32.56300
H  40.09500 43.72800 32.84600
H  43.20200 35.12000 28.68600
H  43.65700 36.39900 29.88700
H  44.83000 35.72200 28.86000
H  44.43800 33.94900 25.26400
H  43.29600 34.37800 26.47600
H  45.00300 34.71000 26.83700
H  41.61200 39.64500 22.33400
H  42.34900 42.50100 22.19900
H  44.15700 39.25200 22.31400
H  44.35300 40.97700 22.25900
H  43.46300 39.89700 20.94400
H  40.48900 41.39900 20.93600
H  40.26200 42.98900 21.78600
H  39.33500 40.88300 23.51100
H  38.55700 40.68900 21.87000
H  38.43500 42.18000 22.72400
H  39.72700 47.07000 26.08600
H  39.88700 46.27200 24.56100
H  41.34600 46.96400 25.20000
H  39.75300 44.57100 30.65000
H  43.07300 46.51500 32.99900
H  41.60000 46.62500 33.95300
H  41.81400 47.85900 32.78200
Mg -4.71200 24.96800 25.85000
C  -3.22100 26.51700 28.64100
C  -5.92300 22.58600 27.94100
C  -5.71600 23.24400 23.14000
C  -2.81400 27.18000 23.88900
N  -4.68800 24.71000 27.98900
C  -4.15600 25.49400 28.91900
C  -4.64100 25.18400 30.43100
C  -5.52600 23.86600 30.13100
C  -5.37100 23.67800 28.59000
C  -5.28100 22.61600 31.08300
C  -5.40800 26.38500 30.96300
C  -4.85900 27.16500 32.25800
H  -4.45500 26.20200 33.42600
N  -5.73100 23.14900 25.54600
C  -6.03700 22.28500 26.55300
C  -6.60800 21.03600 25.90600
C  -6.71300 21.28300 24.48400
C  -6.08100 22.62100 24.31400
C  -7.18200 19.88300 26.73100
C  -7.23200 20.32700 23.44600
O  -7.00800 20.49800 22.29900
C  -7.97100 19.10800 23.77800
N  -4.45600 25.32100 23.79000
C  -5.03600 24.43900 22.90900
C  -4.67100 24.95600 21.51200
C  -3.84400 26.28300 21.71500
C  -3.74900 26.38900 23.24500
C  -4.00600 23.88500 20.61000
C  -4.55700 27.55700 21.19700
C  -3.91600 28.15000 19.92000
N  -3.37800 26.67500 26.09200
C  -2.63200 27.36300 25.21900
C  -1.79100 28.32700 25.99500
C  -2.01700 28.02900 27.36500
C  -2.88500 26.95600 27.33700
C  -0.91300 29.44600 25.46100
C  -1.56600 28.31100 28.69500
O  -0.80800 29.08900 29.20900
C  -2.34800 27.29900 29.59500
C  -1.43900 26.37800 30.34400
O  -0.95700 25.31200 29.91800
O  -1.25000 26.91500 31.56900
C  -0.27100 26.24800 32.48900
H  -6.31800 21.80100 28.58900
H  -6.09200 22.84900 22.19500
H  -2.09300 27.72900 23.27900
H  -3.81000 24.82300 31.03700
H  -6.61200 23.94000 30.19400
H  -6.19800 22.21500 31.51400
H  -4.51000 22.76600 31.83900
H  -4.89600 21.82300 30.44200
H  -6.41000 26.07200 31.25800
H  -5.35800 27.14300 30.18100
H  -5.68200 27.76400 32.64700
H  -4.08800 27.90100 32.02600
H  -8.26000 19.95300 26.87200
H  -6.74700 19.88200 27.73100
H  -6.79500 19.01000 26.20500
H  -8.33300 18.75100 22.81400
H  -8.79500 19.37600 24.43900
H  -7.29200 18.31100 24.08000
H  -5.63600 25.20900 21.07400
H  -2.84600 26.27300 21.27600
H  -3.81200 23.00900 21.23000
H  -3.04100 24.25400 20.26400
H  -4.66400 23.63200 19.77900
H  -4.64400 28.35400 21.93500
H  -5.55900 27.33900 20.82800
H  -3.44600 29.12200 20.07400
H  -4.70400 28.18200 19.16800
H  -3.14900 27.44500 19.59800
H  -1.03700 29.57500 24.38600
H  0.11300 29.17100 25.70800
H  -1.10800 30.43500 25.87600
H  -3.02700 27.92100 30.17700
H  0.73000 26.67200 32.40600
H  -0.22100 25.17800 32.28500
H  -0.69400 26.38100 33.48400

