158

Mg 35.65600 2.18900 30.10400
C  32.95000 3.09600 32.24000
C  37.81800 2.59200 32.84700
C  38.15500 1.73400 28.01200
C  33.31800 2.22500 27.54400
N  35.42100 2.91100 32.34900
C  34.18500 2.95000 32.97800
C  34.44300 3.08200 34.51800
C  36.01400 3.42100 34.59700
C  36.46400 2.94600 33.22600
C  36.39100 4.90100 34.85000
C  34.07200 1.88600 35.32400
C  33.46700 2.09200 36.68600
H  34.17500 3.06400 37.62900
N  37.65300 1.99800 30.45500
C  38.38500 2.10800 31.58700
C  39.80200 1.86300 31.34600
C  39.93900 1.49900 29.94100
C  38.55900 1.74000 29.42900
C  40.85700 1.87400 32.46400
C  41.11700 1.07200 29.06800
O  41.13300 0.95200 27.88000
C  42.42400 0.76600 29.74300
N  35.68000 1.94200 28.06100
C  36.89900 1.80700 27.43500
C  36.71000 1.52200 25.93600
C  35.10900 1.26700 25.86400
C  34.61100 1.81900 27.22900
C  37.07600 2.75700 25.04200
C  34.63000 -0.19100 25.69500
C  33.60300 -0.39800 24.59500
N  33.62300 2.87000 29.82200
C  32.76300 2.77200 28.71000
C  31.31700 3.04400 29.07700
C  31.43500 3.27200 30.46300
C  32.81300 3.04900 30.82300
C  30.12600 3.01200 28.14800
C  30.62300 3.61600 31.64800
O  29.48700 3.83400 31.79900
C  31.57300 3.49200 32.85100
C  31.49200 4.78700 33.50700
O  31.93400 5.81900 33.07900
O  31.09500 4.56700 34.79200
C  31.35200 5.67700 35.69300
H  38.42300 2.70700 33.74900
H  38.95300 1.45900 27.32000
H  32.61100 1.97700 26.74900
H  33.83500 3.82900 35.02900
H  36.32100 2.84800 35.47200
H  35.47100 5.31500 35.26300
H  36.62800 5.52400 33.98700
H  37.10600 5.01300 35.66500
H  34.87100 1.14400 35.34700
H  33.34500 1.36100 34.70500
H  33.47300 1.12800 37.19300
H  32.48500 2.48300 36.41800
H  41.58100 1.06300 32.38900
H  40.41200 1.72900 33.44800
H  41.35300 2.84500 32.47000
H  42.24700 -0.18400 30.24800
H  42.60200 1.69000 30.29400
H  43.14200 0.73000 28.92400
H  37.15600 0.58000 25.61900
H  34.55300 1.92400 25.19500
H  37.20700 3.68000 25.60600
H  36.25100 2.91200 24.34700
H  38.02100 2.66300 24.50700
H  34.30600 -0.69000 26.60800
H  35.51400 -0.70700 25.32000
H  33.24400 0.52400 24.13900
H  32.64100 -0.79100 24.92100
H  33.98500 -1.04200 23.80200
H  29.41600 2.26800 28.51200
H  30.38800 2.63000 27.16200
H  29.78300 4.04500 28.10100
H  31.19800 2.73200 33.53600
H  32.22200 6.27700 35.42700
H  31.52900 5.30100 36.70000
H  30.47700 6.32300 35.61700
Mg -2.07700 35.37100 26.69500
C  -3.92600 34.07100 29.37400
C  -0.84600 37.76100 28.78100
C  -0.46000 36.71900 23.96900
C  -3.55300 32.98700 24.68100
N  -2.25900 35.82000 28.88400
C  -3.05600 35.15400 29.74500
C  -2.84800 35.64500 31.16900
C  -1.93600 36.88800 30.95900
C  -1.64800 36.89700 29.42500
C  -2.66500 38.28600 31.41200
C  -2.23800 34.48900 32.07300
C  -1.78100 34.98400 33.42900
H  -2.17600 34.11200 34.59100
N  -0.87400 37.08500 26.39700
C  -0.46800 37.95800 27.42100
C  0.43800 38.97100 26.94500
C  0.47300 38.72400 25.49300
C  -0.29900 37.44200 25.23400
C  1.06400 39.99700 27.79700
C  1.31100 39.43300 24.46500
O  1.34600 39.12700 23.28800
C  2.21000 40.54800 24.87000
N  -1.99100 34.94200 24.66400
C  -1.25900 35.58200 23.71100
C  -1.22200 34.77000 22.38000
C  -2.28200 33.68300 22.59700
C  -2.69300 33.83900 24.07900
C  -1.24200 35.66000 21.11500
C  -1.64300 32.27200 22.36100
C  -2.56400 31.18400 21.84700
N  -3.56400 33.89900 26.84200
C  -4.05400 32.97800 25.98400
C  -4.89000 31.99200 26.57700
C  -4.87500 32.39200 27.92300
C  -4.05200 33.54200 28.04800
C  -5.52900 30.72100 25.94000
C  -5.40600 32.05500 29.24800
O  -6.10600 31.14600 29.62000
C  -4.69400 33.09700 30.21200
C  -5.63700 33.75300 31.08400
O  -6.54300 34.50700 30.84300
O  -5.34700 33.36300 32.38300
C  -6.09600 33.97600 33.47800
H  -0.30900 38.37900 29.50300
H  0.11500 36.86500 23.05200
H  -3.86800 32.20000 23.99200
H  -3.80500 35.96800 31.57700
H  -0.97400 36.86900 31.46900
H  -2.63100 38.97900 30.57100
H  -2.07700 38.74500 32.20600
H  -3.68400 37.99800 31.67100
H  -1.46100 33.96100 31.51900
H  -2.93400 33.66600 32.23500
H  -2.10400 35.97800 33.74000
H  -0.70000 35.12100 33.45600
H  0.73800 40.08000 28.83400
H  0.91700 40.94800 27.28500
H  2.14400 39.84500 27.78000
H  3.04700 40.20800 25.48000
H  1.68200 41.31300 25.43900
H  2.59400 41.00100 23.95600
H  -0.25500 34.28000 22.27600
H  -3.19800 33.87700 22.03900
H  -1.39500 36.71600 21.33900
H  -1.99000 35.31800 20.39900
H  -0.25300 35.62500 20.65700
H  -1.35500 31.94200 23.35900
H  -0.72400 32.25700 21.77400
H  -3.54500 31.59100 21.60300
H  -2.60900 30.38300 22.58600
H  -2.19300 30.84900 20.87900
H  -6.55100 31.01400 25.70200
H  -5.59000 29.88300 26.63500
H  -5.03000 30.43600 25.01400
H  -3.93400 32.54600 30.76600
H  -5.44300 34.01600 34.35100
H  -7.02000 33.40800 33.58800
H  -6.35100 34.98900 33.16700

