158

Mg -0.23700 7.04100 25.97100
C  0.68300 8.88800 28.87600
C  -0.74000 4.25800 27.95600
C  -0.69300 5.25200 23.26100
C  0.08600 9.87700 24.17500
N  -0.08300 6.62200 28.16500
C  0.33900 7.50200 29.09000
C  0.22000 6.78500 30.56400
C  -0.21000 5.32400 30.20100
C  -0.37100 5.42400 28.66600
C  0.68600 4.19100 30.74700
C  -0.71300 7.54800 31.56500
C  -0.14400 7.80600 32.96500
H  1.04800 6.97500 33.53200
N  -0.57300 5.03200 25.65200
C  -0.78100 4.03100 26.56700
C  -1.06900 2.72700 25.88500
C  -0.90300 3.03800 24.48100
C  -0.70300 4.46900 24.40900
C  -1.26700 1.38600 26.61800
C  -0.89200 2.08400 23.27300
O  -0.68800 2.47200 22.12100
C  -1.02600 0.48900 23.46500
N  -0.32900 7.53600 24.00400
C  -0.44700 6.61000 23.06300
C  -0.38600 7.20400 21.64100
C  -0.52300 8.72700 21.97100
C  -0.28700 8.70100 23.48000
C  0.93400 6.90700 20.89400
C  -1.89400 9.38000 21.65500
C  -1.78700 10.82800 21.14000
N  0.39600 8.95000 26.29400
C  0.48500 10.00700 25.52400
C  1.01200 11.15000 26.17900
C  1.15200 10.76200 27.48600
C  0.72500 9.43000 27.56200
C  1.30900 12.51300 25.57400
C  1.49300 11.22200 28.77200
O  1.87800 12.32300 29.20400
C  1.18100 10.02000 29.75600
C  2.43100 9.46700 30.40700
O  3.18200 8.56600 30.05500
O  2.76400 10.33200 31.41900
C  3.93000 10.08800 32.24200
H  -1.11600 3.39000 28.50200
H  -0.95000 4.77200 22.31400
H  0.15600 10.77900 23.56300
H  1.23300 6.66500 30.94800
H  -1.22900 5.16500 30.55400
H  0.13200 3.54100 31.42500
H  1.56400 4.53900 31.29100
H  0.88100 3.65200 29.82000
H  -1.60600 6.94300 31.72500
H  -0.94800 8.52000 31.13300
H  -1.01800 7.59200 33.58000
H  0.10800 8.82800 33.24700
H  -2.33200 1.18200 26.73200
H  -0.82300 1.38100 27.61300
H  -0.78700 0.62200 26.00600
H  -1.18800 0.06100 22.47500
H  -1.92300 0.13700 23.97600
H  -0.15300 0.02300 23.92100
H  -1.19500 6.75100 21.06900
H  0.32400 9.21200 21.48700
H  0.64500 6.15900 20.15500
H  1.67600 6.59100 21.62800
H  1.35500 7.75400 20.35200
H  -2.54500 9.39000 22.53000
H  -2.35600 8.76900 20.88000
H  -0.73900 11.12100 21.09300
H  -2.28500 11.50500 21.83500
H  -2.23900 10.82100 20.14900
H  2.26600 12.91400 25.90600
H  0.46000 13.19200 25.65800
H  1.30400 12.28700 24.50800
H  0.59600 10.24100 30.64900
H  4.44800 10.99100 32.56400
H  4.64800 9.57100 31.60600
H  3.72200 9.30500 32.97100
Mg 49.44800 45.67400 42.76300
C  45.94500 45.60700 42.13400
C  49.50900 42.30400 41.87200
C  52.71500 45.82300 42.55700
C  49.21300 49.04700 43.22000
N  47.86300 44.14300 42.10100
C  46.50600 44.33200 41.96200
C  45.73800 42.94200 41.77500
C  46.92500 41.95800 41.87500
C  48.17800 42.85900 41.96200
C  46.95700 40.91700 43.08200
C  44.96200 42.75800 40.44100
C  45.60800 43.36400 39.25300
H  45.63500 42.56600 37.94500
N  50.91600 44.21600 42.36900
C  50.73600 42.92100 42.08400
C  52.02200 42.28400 41.88500
C  53.02600 43.27100 42.11300
C  52.26400 44.53000 42.32000
C  52.23800 40.79200 41.43100
C  54.52200 43.03200 41.83200
O  54.92700 41.89100 41.79900
C  55.39800 44.22500 41.53900
N  50.71100 47.33900 42.71000
C  52.04400 47.05500 42.85600
C  52.81000 48.29900 43.30800
C  51.75300 49.36600 43.41400
C  50.46500 48.56900 43.15000
C  53.64500 48.17700 44.60800
C  52.00600 50.65800 42.52100
C  51.69100 52.04200 43.21800
N  47.87100 47.10100 42.69000
C  47.93700 48.43600 42.88500
C  46.59700 48.99700 42.77100
C  45.75300 47.87500 42.50900
C  46.62300 46.79700 42.37600
C  46.11900 50.41000 42.90500
C  44.35300 47.38300 42.32000
O  43.30400 47.93300 42.24500
C  44.46500 45.85700 42.14000
C  43.70800 45.11200 43.14200
O  42.80600 44.32000 42.91300
O  44.26900 45.38000 44.40700
C  43.67000 44.47900 45.47000
H  49.52700 41.22100 41.73100
H  53.80100 45.91200 42.62300
H  49.14700 50.13000 43.34200
H  45.00200 42.68800 42.53700
H  47.06200 41.46400 40.91300
H  46.10700 41.04700 43.75200
H  47.93500 40.85000 43.55800
H  46.85900 39.91500 42.66300
H  43.99100 43.22800 40.59100
H  44.87900 41.69400 40.21700
H  46.65400 43.54300 39.50400
H  45.00400 44.23900 39.01400
H  52.99900 40.88800 40.65600
H  51.35100 40.27300 41.06700
H  52.71700 40.20100 42.21100
H  55.54100 44.74700 42.48500
H  54.93900 44.95200 40.86800
H  56.32900 43.94300 41.04700
H  53.53200 48.35300 42.49400
H  51.74700 49.55800 44.48700
H  53.30600 47.38100 45.27200
H  53.80400 49.14900 45.07500
H  54.59900 47.85400 44.19300
H  51.32300 50.58200 41.67400
H  53.03300 50.72800 42.16400
H  51.19500 52.64500 42.45700
H  52.63200 52.48900 43.54000
H  51.15700 52.10600 44.16600
H  45.04500 50.51400 43.05900
H  46.44800 51.03000 42.07100
H  46.67900 50.81900 43.74600
H  43.90100 45.62100 41.23800
H  43.36200 43.49000 45.13300
H  42.85200 45.03500 45.92800
H  44.43500 44.26200 46.21600

