158

Mg 3.01000 -0.18400 44.49500
C  6.39700 0.54500 43.99600
C  2.16000 2.80700 42.55500
C  -0.25500 -1.07300 44.35900
C  3.84100 -3.13500 45.94300
N  4.08100 1.36000 43.38600
C  5.51400 1.46000 43.28600
C  5.95100 2.47600 42.18500
C  4.65000 3.46000 42.13800
C  3.52800 2.54000 42.72600
C  4.84200 4.86400 42.93000
C  6.42900 1.73800 40.81200
C  7.72200 2.40000 40.09900
H  7.39900 3.45600 39.03900
N  1.18400 0.76300 43.56400
C  1.06500 1.96300 42.84000
C  -0.28300 2.07800 42.46700
C  -1.01400 0.94100 42.88600
C  -0.01400 0.10500 43.54200
C  -0.75500 3.34100 41.66300
C  -2.45000 0.78700 42.61700
O  -3.19700 1.66100 42.19900
C  -3.04600 -0.61400 42.81700
N  1.99800 -1.85400 45.04700
C  0.59500 -1.97500 44.96700
C  0.20800 -3.41000 45.41700
C  1.50000 -3.78600 46.29200
C  2.49300 -2.93600 45.63700
C  -1.17300 -3.49600 46.15600
C  1.88600 -5.33600 46.19700
C  2.02100 -6.06000 47.52600
N  4.75500 -1.19400 44.87100
C  4.92900 -2.40900 45.49000
C  6.35400 -2.66400 45.56500
C  6.92900 -1.54300 45.06700
C  5.94000 -0.62400 44.64400
C  7.05500 -3.92000 46.22600
C  8.19500 -0.93400 44.75100
O  9.37400 -1.39900 44.85400
C  7.90300 0.48400 44.04900
C  8.54000 1.62600 44.79300
O  8.08300 2.15300 45.80800
O  9.56700 2.17500 44.04200
C  9.91300 3.59900 44.38000
H  1.97600 3.77600 42.08500
H  -1.28100 -1.44800 44.35900
H  4.16000 -3.89600 46.65800
H  6.81200 3.03100 42.55700
H  4.56100 3.77000 41.09700
H  5.60400 4.66500 43.68400
H  3.98300 5.23200 43.49000
H  5.31600 5.61100 42.29300
H  5.52700 1.85000 40.21100
H  6.63900 0.67700 40.95100
H  8.38500 1.66000 39.65100
H  8.25200 3.01100 40.82900
H  0.07900 3.61100 41.01600
H  -1.13000 4.17400 42.25700
H  -1.43900 3.13000 40.84200
H  -3.95200 -0.72800 42.22200
H  -3.43000 -0.78600 43.82200
H  -2.35900 -1.38700 42.47200
H  0.19400 -3.95200 44.47100
H  1.44900 -3.56000 47.35700
H  -1.87200 -4.09600 45.57200
H  -1.55400 -2.50300 46.39200
H  -1.07100 -4.13400 47.03400
H  2.79900 -5.45900 45.61500
H  1.14500 -5.93300 45.66400
H  2.89400 -5.94500 48.16800
H  2.00500 -7.12900 47.31400
H  1.15700 -5.78800 48.13400
H  7.85000 -4.15400 45.51800
H  6.48200 -4.84700 46.24900
H  7.51800 -3.83400 47.21000
H  8.34500 0.39100 43.05700
H  10.26400 4.05600 43.45500
H  10.62300 3.67200 45.20400
H  8.99800 4.10600 44.68700
Mg -2.17400 34.73500 25.77600
C  -3.91300 33.10800 28.33000
C  -1.10500 36.98900 28.01500
C  -0.89300 36.58900 23.15400
C  -3.73700 32.67500 23.44800
N  -2.65100 35.04500 27.94300
C  -3.26900 34.27300 28.80800
C  -3.03800 34.70200 30.28300
C  -2.27000 36.02800 30.15300
C  -1.93500 36.00200 28.60600
C  -3.06400 37.35900 30.53500
C  -2.36900 33.58800 31.13600
C  -3.06900 33.28200 32.45600
H  -2.08400 33.16800 33.60100
N  -1.18400 36.52800 25.67000
C  -0.76100 37.25700 26.73100
C  0.04100 38.43500 26.20400
C  0.09200 38.32900 24.75400
C  -0.64600 37.14000 24.46900
C  0.53500 39.53200 27.10600
C  0.68200 39.27600 23.65000
O  0.72500 39.09900 22.42700
C  1.47900 40.51300 24.11400
N  -2.43400 34.72300 23.71700
C  -1.67200 35.49800 22.82800
C  -1.79100 35.00800 21.34900
C  -2.41100 33.60100 21.59500
C  -2.88900 33.67900 23.03800
C  -2.75100 35.96500 20.52600
C  -1.43600 32.35200 21.38200
C  -0.72500 31.70200 22.62300
N  -3.55900 33.10600 25.80300
C  -4.12000 32.41600 24.78300
C  -4.94000 31.30500 25.39400
C  -4.82500 31.51300 26.75900
C  -4.02600 32.65300 26.98300
C  -5.86000 30.42600 24.74200
C  -5.29800 31.03800 28.03500
O  -5.94900 30.04100 28.31100
C  -4.71500 32.06800 29.15600
C  -5.82500 32.60500 29.88100
O  -6.55000 33.48800 29.46300
O  -5.87400 32.08500 31.14000
C  -6.89100 32.44400 32.15500
H  -0.63600 37.69100 28.70700
H  -0.30600 36.93200 22.30000
H  -4.00900 31.95700 22.67000
H  -4.08100 34.80500 30.58200
H  -1.27700 36.09900 30.59700
H  -3.61300 37.75000 29.67800
H  -2.36300 38.13800 30.83500
H  -3.69600 37.13400 31.39500
H  -1.40700 33.97200 31.47600
H  -2.22200 32.71500 30.50100
H  -3.38500 32.24800 32.31900
H  -3.88300 33.98000 32.65100
H  0.98300 40.39900 26.62000
H  1.32000 39.31500 27.83100
H  -0.24700 39.92200 27.75700
H  1.91000 40.94800 23.21200
H  2.37400 40.03400 24.51000
H  1.00600 41.22800 24.78700
H  -0.89300 34.90100 20.74000
H  -3.31200 33.47500 20.99400
H  -2.21300 36.78300 20.04800
H  -3.47900 36.43400 21.18800
H  -3.08500 35.35900 19.68400
H  -0.64600 32.75000 20.74700
H  -1.92900 31.60500 20.76000
H  -1.15200 32.09900 23.54400
H  0.34300 31.89200 22.51400
H  -0.88200 30.62600 22.69600
H  -5.55800 30.29500 23.70300
H  -6.87400 30.81400 24.83400
H  -5.84700 29.48200 25.28700
H  -4.04900 31.43500 29.74200
H  -7.12800 31.57800 32.77300
H  -7.78600 32.96600 31.81500
H  -6.34600 33.11900 32.81500

