158

Mg 9.28400 3.37800 27.79100
C  10.37700 1.72300 30.66500
C  7.69000 5.66800 29.73900
C  7.86900 4.57600 24.91000
C  10.66700 0.70200 25.92800
N  9.01800 3.59400 29.97600
C  9.67300 2.94000 30.98700
C  9.47600 3.58900 32.32000
C  8.48700 4.75200 32.00300
C  8.42300 4.71600 30.49800
C  7.07600 4.47500 32.61100
C  10.80900 4.03100 32.94600
C  11.20200 3.37400 34.35000
H  11.50400 4.34600 35.45800
N  7.99700 4.93700 27.44800
C  7.40200 5.78300 28.32100
C  6.67100 6.83300 27.65700
C  6.66200 6.38100 26.27100
C  7.55500 5.27500 26.12500
C  5.92200 7.95800 28.37300
C  5.84300 6.89000 25.09500
O  6.02300 6.64300 23.90700
C  4.85000 8.02200 25.29600
N  9.30000 2.58500 25.69700
C  8.67400 3.36700 24.74000
C  8.65500 2.79000 23.35800
C  9.57500 1.48900 23.59000
C  9.92500 1.57900 25.12600
C  7.28000 2.26600 22.74700
C  10.81700 1.46100 22.76500
C  10.65400 1.07500 21.20000
N  10.27800 1.63000 28.14500
C  10.81100 0.68300 27.28400
C  11.59200 -0.36600 28.07200
C  11.44700 0.06000 29.36100
C  10.61600 1.20900 29.39000
C  12.43000 -1.43200 27.42100
C  11.85200 -0.25900 30.79700
O  12.56700 -1.08300 31.25600
C  11.13200 0.88600 31.59400
C  10.15300 0.11300 32.53900
O  9.01800 -0.33000 32.33500
O  10.82300 0.03400 33.76500
C  10.15600 -0.51500 34.89200
H  7.40800 6.54300 30.32800
H  7.57900 4.92800 23.91800
H  11.17500 -0.01400 25.27800
H  9.06900 2.80400 32.95800
H  8.86100 5.69000 32.41500
H  7.16800 4.91500 33.60500
H  6.99900 3.39000 32.68200
H  6.40100 4.84300 31.83800
H  10.79800 5.09500 33.18100
H  11.58400 3.87900 32.19500
H  12.12300 2.80200 34.23900
H  10.36500 2.73800 34.63600
H  6.25200 7.94000 29.41200
H  4.87000 7.83800 28.11500
H  6.21500 8.92300 27.95900
H  4.17700 8.17000 24.45100
H  5.36300 8.97200 25.44500
H  4.28900 7.69300 26.17100
H  9.08200 3.59300 22.75800
H  9.17200 0.50400 23.35800
H  6.88600 2.91800 21.96700
H  6.51200 2.34400 23.51700
H  7.28400 1.20100 22.51500
H  11.47600 0.68300 23.15100
H  11.29300 2.43700 22.85900
H  9.64100 0.83100 20.87800
H  11.09100 0.07700 21.19200
H  11.11200 1.79400 20.52100
H  11.75800 -2.00400 26.78200
H  12.88900 -2.11600 28.13500
H  13.15600 -0.96300 26.75700
H  11.80000 1.55900 32.13100
H  9.34600 -1.19300 34.62100
H  9.60900 0.20100 35.50600
H  10.89300 -1.00900 35.52400
Mg 36.37300 49.74900 24.70000
C  36.22500 48.06700 27.77100
C  35.34900 52.65000 26.23000
C  35.97200 51.23400 21.58400
C  36.99600 46.67800 23.12700
N  35.76400 50.21400 26.71300
C  35.99000 49.42800 27.83400
C  35.74200 50.31700 29.15300
C  35.28000 51.72400 28.58300
C  35.47600 51.55000 27.09600
C  33.98600 52.22500 29.09800
C  37.09800 50.39300 29.95600
C  37.14900 50.51000 31.49300
H  35.93300 50.76600 32.31400
N  35.75300 51.70900 23.99000
C  35.48400 52.74300 24.81000
C  35.17600 53.91100 24.03300
C  35.39100 53.58900 22.65300
C  35.75100 52.11000 22.67700
C  34.74200 55.31700 24.60100
C  35.16900 54.32500 21.34000
O  35.28500 53.76400 20.22000
C  34.66600 55.76900 21.42800
N  36.51100 49.03000 22.66000
C  36.34600 49.87400 21.60700
C  36.77100 49.15200 20.29700
C  37.22300 47.75400 20.82500
C  36.79700 47.76900 22.25000
C  35.70500 49.09900 19.21700
C  38.79900 47.46400 20.69700
C  39.28400 46.04500 20.37900
N  36.60800 47.75800 25.24700
C  36.78300 46.61300 24.52100
C  36.90100 45.51300 25.39400
C  36.71600 45.96700 26.68300
C  36.50400 47.32800 26.57700
C  37.15700 44.11400 24.98100
C  36.60600 45.62700 28.09000
O  36.76900 44.56600 28.65900
C  36.28700 47.03200 28.83500
C  35.07200 46.90500 29.70900
O  33.96300 47.06600 29.35500
O  35.44700 46.41500 30.97300
C  34.32000 46.36400 31.94000
H  35.11700 53.56900 26.77400
H  35.75600 51.61300 20.58300
H  37.36200 45.71700 22.76000
H  34.95300 49.80800 29.70700
H  35.97300 52.50500 28.89200
H  33.80100 51.78500 30.07800
H  33.11700 52.23600 28.44000
H  34.25900 53.26200 29.29300
H  37.67900 51.22700 29.56300
H  37.66700 49.50200 29.69000
H  37.86600 51.30900 31.68000
H  37.68700 49.70400 31.99300
H  35.53800 56.04100 24.42700
H  34.43100 55.24200 25.64300
H  33.86400 55.60400 24.02200
H  35.36600 56.42500 21.94600
H  33.65000 55.78300 21.82200
H  34.58500 56.04900 20.37800
H  37.56600 49.71100 19.80200
H  36.70100 46.93600 20.32800
H  35.85900 49.87400 18.46700
H  34.70300 49.31300 19.58700
H  35.55700 48.11000 18.78500
H  39.32100 47.75400 21.60800
H  39.13800 48.26800 20.04200
H  39.99400 46.18000 19.56300
H  38.45600 45.42500 20.03400
H  39.70100 45.49300 21.22200
H  37.91100 43.98200 24.20400
H  36.20100 43.65900 24.72100
H  37.67200 43.67700 25.83600
H  37.06600 47.21800 29.57500
H  34.56700 46.04700 32.95300
H  33.51200 45.80500 31.46700
H  33.90500 47.36900 32.01900

