158

Mg 24.80500 1.32300 29.72900
C  27.16500 1.32000 32.33400
C  22.33700 1.44200 32.10200
C  22.60200 1.55600 27.27500
C  27.35100 0.72900 27.50900
N  24.79300 1.45800 31.97800
C  25.85100 1.39800 32.83600
C  25.38200 1.74200 34.27900
C  23.84000 1.51600 34.16000
C  23.63500 1.48200 32.65800
C  23.31300 0.23400 34.79500
C  25.72200 3.16800 34.74300
C  26.29000 3.36800 36.19600
H  25.49100 2.68500 37.31200
N  22.69400 1.33300 29.69400
C  21.86100 1.47800 30.75100
C  20.50600 1.66500 30.28000
C  20.60300 1.68200 28.84000
C  22.00100 1.56700 28.54400
C  19.37800 1.88700 31.25500
C  19.45200 1.72100 27.89100
O  19.57600 1.49800 26.71200
C  18.05800 1.76800 28.42700
N  24.87000 0.68900 27.66600
C  23.85400 1.10700 26.87300
C  24.34000 1.31400 25.37300
C  25.93100 1.03000 25.43500
C  26.08000 0.77800 26.95100
C  23.50700 0.57500 24.23000
C  26.88900 2.06700 24.78800
C  27.20400 3.39900 25.60700
N  26.85100 0.99600 29.88700
C  27.73600 0.71800 28.88300
C  29.04500 0.60200 29.41100
C  28.91400 0.88300 30.76200
C  27.55400 1.11800 30.97500
C  30.20000 0.19900 28.60900
C  29.60500 0.98500 32.00100
O  30.78900 0.78600 32.29500
C  28.47000 1.23800 33.09000
C  28.54200 0.27300 34.16500
O  28.14700 -0.87000 34.12800
O  29.19300 0.75800 35.26400
C  29.51200 -0.09900 36.41200
H  21.57200 1.59300 32.86600
H  21.94600 1.88800 26.46700
H  28.18800 0.60700 26.81800
H  25.94900 1.06700 34.92000
H  23.28700 2.36300 34.56800
H  23.94400 -0.07300 35.62900
H  23.19900 -0.57900 34.07800
H  22.30900 0.50800 35.11800
H  24.95500 3.89800 34.48600
H  26.62300 3.43900 34.19400
H  26.40800 4.43000 36.40900
H  27.32800 3.06400 36.33500
H  19.69200 1.90800 32.29900
H  18.62800 1.10200 31.16600
H  18.93100 2.85600 31.03200
H  17.75000 2.75300 28.77700
H  17.83000 0.95600 29.11700
H  17.59500 1.44300 27.49500
H  24.30400 2.37600 25.13000
H  26.11600 0.02300 25.06200
H  24.17900 -0.11500 23.71900
H  23.00800 1.28700 23.57300
H  22.79300 -0.13900 24.64000
H  26.43000 2.33800 23.83700
H  27.77000 1.47600 24.53400
H  26.92600 4.30100 25.06200
H  28.28700 3.31500 25.69200
H  26.76100 3.58700 26.58500
H  31.15500 0.22400 29.13400
H  30.33500 1.03400 27.92100
H  30.20100 -0.75800 28.08800
H  28.77700 2.16300 33.57800
H  30.56700 0.01800 36.65900
H  29.11300 -1.11300 36.43200
H  29.04400 0.43400 37.23900
Mg 16.80700 52.17200 26.14600
C  18.84900 50.74300 28.56600
C  14.56100 52.81200 28.69700
C  14.78300 53.39300 23.81400
C  18.89000 50.91700 23.65200
N  16.70800 51.73900 28.31000
C  17.75200 51.34600 29.09900
C  17.41800 51.41600 30.56100
C  15.87200 51.66600 30.55000
C  15.69800 52.10100 29.12700
C  14.99000 50.47800 30.98800
C  18.29000 52.49700 31.25800
C  18.49400 52.50200 32.80000
H  17.57600 51.56900 33.63800
N  14.96400 52.93700 26.27500
C  14.22200 53.28200 27.35200
C  13.10400 53.99900 27.01100
C  13.03700 54.11700 25.59900
C  14.28300 53.44700 25.14200
C  12.11100 54.57100 28.13300
C  12.01200 54.78200 24.62900
O  12.12100 54.89000 23.41600
C  10.85900 55.64000 25.25200
N  16.76400 52.05300 23.99800
C  15.87800 52.72700 23.25400
C  16.29000 52.84300 21.79100
C  17.62100 52.11100 21.74200
C  17.84700 51.65800 23.23100
C  15.22700 52.41200 20.71600
C  18.85900 53.00700 21.35400
C  20.01000 52.20200 20.78200
N  18.62400 51.13900 26.08600
C  19.24900 50.59700 24.98800
C  20.47300 49.96700 25.46700
C  20.32000 49.92400 26.89800
C  19.18100 50.66800 27.20000
C  21.55800 49.25200 24.66100
C  20.97500 49.41200 28.11900
O  22.01000 48.75900 28.24600
C  19.97400 49.95300 29.28700
C  19.69000 48.79700 30.18000
O  18.90800 47.92500 29.81800
O  20.22900 48.91500 31.45400
C  19.83100 47.92900 32.44900
H  13.80300 52.94700 29.47100
H  14.23900 53.87000 22.99600
H  19.54200 50.51700 22.87200
H  17.51700 50.43500 31.02600
H  15.69500 52.48900 31.24300
H  15.53500 49.60600 31.34800
H  14.30000 50.31100 30.16100
H  14.44100 50.77500 31.88100
H  17.80900 53.46300 31.10900
H  19.29600 52.53700 30.83900
H  18.30800 53.50200 33.19200
H  19.52200 52.18300 32.97600
H  11.12400 54.11200 28.19600
H  11.87200 55.57900 27.79700
H  12.39500 54.74800 29.17100
H  10.08600 55.80100 24.50200
H  11.28700 56.62800 25.42300
H  10.36100 55.18600 26.10900
H  16.30900 53.90800 21.56100
H  17.41800 51.27300 21.07500
H  14.73800 53.24100 20.20400
H  14.47800 51.83900 21.26200
H  15.61800 51.67100 20.01800
H  19.27300 53.48400 22.24200
H  18.48700 53.67400 20.57600
H  19.84400 51.13600 20.63000
H  20.97100 52.40800 21.25300
H  20.15900 52.58800 19.77300
H  22.32900 49.97300 24.38900
H  21.26300 48.76000 23.73500
H  21.94000 48.50100 25.35300
H  20.59000 50.59300 29.91800
H  18.76100 48.00800 32.64300
H  20.43000 48.06700 33.34900
H  20.14800 46.94500 32.10400

