158

Mg 35.66200 2.86900 29.30800
C  33.50900 3.81600 31.94000
C  38.37100 3.06400 31.47400
C  37.72300 2.22100 26.64500
C  32.96500 3.42600 26.98900
N  35.91400 3.50000 31.34200
C  34.90100 3.65800 32.29000
C  35.46800 3.71000 33.71000
C  36.98500 3.83600 33.50900
C  37.10300 3.37800 32.06200
C  37.50700 5.30400 33.70100
C  34.90800 2.57100 34.64900
C  34.90200 2.80200 36.20300
H  35.76200 3.96200 36.77400
N  37.70900 2.51700 29.12800
C  38.62700 2.58500 30.15100
C  39.93800 2.16700 29.64100
C  39.80700 1.96200 28.28400
C  38.35700 2.28100 27.92800
C  41.09700 2.02400 30.64000
C  40.95800 1.67300 27.28400
O  40.68900 1.57300 26.06100
C  42.40400 1.42600 27.72700
N  35.38900 2.79500 27.10900
C  36.41600 2.58300 26.24300
C  35.96400 2.71900 24.76500
C  34.44800 3.09300 24.93000
C  34.23900 3.12000 26.41600
C  36.72500 3.71600 23.97500
C  33.44700 2.12300 24.18000
C  32.93600 0.84100 24.85100
N  33.70600 3.50300 29.38000
C  32.70700 3.59400 28.40600
C  31.42500 4.03300 29.04200
C  31.68300 4.03100 30.39100
C  33.07200 3.70900 30.57500
C  30.15100 4.39000 28.27300
C  31.11700 4.27100 31.75200
O  30.01500 4.55700 32.16600
C  32.25200 4.05900 32.71400
C  32.30500 5.26700 33.49000
O  32.54400 6.34600 33.01700
O  32.07200 4.98300 34.82100
C  32.09700 6.21300 35.62600
H  39.12000 3.01300 32.26700
H  38.37200 2.07600 25.77900
H  32.04600 3.60400 26.42700
H  35.05600 4.56500 34.24500
H  37.47800 3.13400 34.18200
H  36.67800 5.96500 33.44700
H  38.39900 5.43600 33.09000
H  37.83100 5.43900 34.73300
H  35.58800 1.72100 34.59900
H  33.89000 2.31100 34.35700
H  35.10000 1.85300 36.70200
H  33.87700 3.08800 36.43800
H  41.77400 1.23000 30.32400
H  40.69400 1.73500 31.61000
H  41.66900 2.93500 30.81500
H  42.66000 2.18900 28.46300
H  43.18200 1.38100 26.96500
H  42.46800 0.45700 28.22200
H  35.97200 1.75900 24.24800
H  34.19000 4.11700 24.66300
H  36.71300 3.31400 22.96200
H  37.74600 3.79800 24.34900
H  36.24700 4.69500 24.00600
H  34.00800 1.73000 23.33200
H  32.57100 2.63100 23.77700
H  33.57400 0.03600 24.48600
H  31.92500 0.53600 24.57700
H  33.13800 0.73800 25.91700
H  29.70700 3.51800 27.79200
H  30.36500 5.09100 27.46600
H  29.46300 4.81800 29.00200
H  32.07600 3.25900 33.43200
H  33.10100 6.62500 35.51800
H  32.00300 6.04000 36.69800
H  31.24600 6.78600 35.25800
Mg 30.84800 58.43600 41.45900
C  28.05900 57.02400 39.88600
C  32.77000 55.85100 40.23500
C  33.65800 60.33600 42.12900
C  28.94300 61.33700 41.95600
N  30.47800 56.68100 40.04400
C  29.25000 56.26500 39.57900
C  29.42900 54.89600 38.85200
C  30.87600 54.43300 39.25300
C  31.41300 55.70300 39.90400
C  30.90500 53.31300 40.26000
C  29.31800 55.08600 37.28600
C  28.19900 54.31300 36.54100
H  27.24000 55.16400 35.77100
N  32.95900 58.08400 41.32200
C  33.54700 56.96400 40.75100
C  34.94900 57.23000 40.68500
C  35.23900 58.44500 41.40500
C  33.90600 58.97800 41.70800
C  35.92700 56.20400 40.13100
C  36.61600 59.07200 41.73800
O  37.63900 58.58500 41.27400
C  36.72000 60.26900 42.63400
N  31.26600 60.49300 42.10800
C  32.51300 61.03800 42.21000
C  32.46200 62.56600 42.46100
C  30.94200 62.82200 42.71600
C  30.26600 61.47500 42.37700
C  33.52200 63.01900 43.60500
C  30.43300 64.13200 42.01100
C  31.12700 65.41700 42.35800
N  28.80400 58.96800 41.37500
C  28.19000 60.22100 41.52800
C  26.80200 60.05800 41.16500
C  26.70900 58.71800 40.67300
C  27.94400 58.20500 40.66100
C  25.61200 60.94400 41.24800
C  25.80200 57.79500 40.02800
O  24.54600 57.80100 39.88400
C  26.62800 56.61700 39.46900
C  26.20400 55.29300 40.07200
O  26.78600 54.77700 41.04300
O  25.17300 54.76900 39.34700
C  24.76200 53.40800 39.78500
H  33.39800 54.99700 39.97400
H  34.48500 61.01300 42.35200
H  28.33300 62.22900 42.11200
H  28.62000 54.18300 39.01800
H  31.51100 54.03800 38.46000
H  30.03200 52.66100 40.26400
H  31.03100 53.72500 41.26200
H  31.77500 52.66700 40.13600
H  30.20400 54.67500 36.80300
H  29.29400 56.13800 37.00400
H  27.53300 53.73900 37.18600
H  28.70300 53.59300 35.89700
H  36.94500 56.57700 40.02000
H  35.52200 55.73900 39.23200
H  36.05900 55.51000 40.96200
H  36.13900 60.25800 43.55600
H  36.31600 60.97800 41.91000
H  37.77800 60.46700 42.80800
H  32.80300 63.27900 41.70900
H  30.78000 62.82600 43.79400
H  33.03400 63.67400 44.32800
H  34.32400 63.55400 43.09600
H  33.87800 62.11800 44.10400
H  29.36100 64.22300 42.18700
H  30.50200 63.89600 40.94900
H  31.99800 65.25300 42.99200
H  30.44400 65.92300 43.04000
H  31.40300 66.02900 41.49900
H  24.73400 60.30000 41.19500
H  25.72500 61.57700 40.36800
H  25.70200 61.47900 42.19400
H  26.47600 56.63200 38.38900
H  25.65000 52.77800 39.73600
H  24.00900 53.00700 39.10600
H  24.31800 53.32300 40.77700

