158

Mg 9.72400 47.70000 25.30700
C  7.56100 47.86900 28.07300
C  12.08900 49.28700 27.34500
C  11.89700 47.47000 22.77800
C  7.07500 47.15000 23.30900
N  9.79900 48.27900 27.52800
C  8.80000 48.28500 28.48400
C  9.23500 48.76900 29.84300
C  10.47300 49.64800 29.41300
C  10.83200 49.05000 28.03100
C  10.21300 51.11700 29.28500
C  9.73700 47.62800 30.87100
C  9.46400 47.95600 32.35800
H  9.43600 46.83300 33.44700
N  11.70300 48.14900 25.18300
C  12.52800 48.72800 26.11800
C  13.89400 48.65700 25.57400
C  13.87300 48.14600 24.28700
C  12.50100 47.86600 24.01200
C  15.06400 48.98000 26.47000
C  15.00300 47.93700 23.30800
O  14.82400 47.45400 22.17100
C  16.43700 48.26700 23.64600
N  9.53500 47.46400 23.38000
C  10.53900 47.35100 22.46700
C  10.07900 46.80200 21.04500
C  8.54100 46.76000 21.28400
C  8.32700 47.11100 22.74900
C  10.62800 47.55700 19.76600
C  7.86900 45.46600 20.75900
C  6.76600 45.65100 19.69100
N  7.65900 47.45900 25.58700
C  6.73900 47.29500 24.66500
C  5.40700 47.33800 25.23100
C  5.68000 47.42500 26.56500
C  7.13300 47.56200 26.75200
C  4.09000 47.20100 24.46400
C  5.06400 47.41400 27.89500
O  3.88300 47.26700 28.15700
C  6.22000 47.91700 28.86100
C  6.13900 47.14100 30.17700
O  6.79900 46.15400 30.53700
O  5.40800 47.93900 31.01300
C  5.16500 47.40400 32.36300
H  12.74000 50.03100 27.80900
H  12.53400 47.30000 21.90700
H  6.26200 46.97100 22.60200
H  8.48400 49.39600 30.32300
H  11.36400 49.53400 30.03000
H  9.27600 51.36200 29.78500
H  10.06600 51.35000 28.23000
H  11.01100 51.67700 29.77300
H  10.75900 47.25000 30.86000
H  9.23400 46.66200 30.83600
H  8.39900 48.18200 32.32200
H  10.04000 48.80500 32.72600
H  14.62200 49.29800 27.41400
H  15.67800 49.85500 26.25600
H  15.68600 48.10800 26.67300
H  16.79600 49.08100 23.01700
H  17.06100 47.38700 23.48800
H  16.69400 48.48800 24.68200
H  10.51300 45.80700 20.95100
H  8.09000 47.59000 20.73900
H  10.59700 46.87600 18.91600
H  11.64400 47.89100 19.97500
H  9.96600 48.41300 19.63100
H  7.32600 44.87400 21.49600
H  8.65900 44.80700 20.39800
H  5.90800 44.98700 19.80200
H  7.18300 45.47700 18.69900
H  6.39400 46.66900 19.80400
H  3.22100 47.75300 24.82300
H  3.78900 46.15500 24.41300
H  4.24500 47.55600 23.44600
H  6.02900 48.96100 29.10900
H  4.76400 46.39400 32.28600
H  4.46700 48.07000 32.87100
H  6.08000 47.45500 32.95300
Mg -11.85800 15.68100 41.93500
C  -8.60400 14.01300 41.88000
C  -10.37800 18.38700 40.57300
C  -14.83700 16.81600 41.43800
C  -13.19700 12.54500 42.92300
N  -9.83100 16.06300 41.18500
C  -8.70500 15.35700 41.43000
C  -7.46200 16.11400 40.83900
C  -7.98400 17.62300 40.90000
C  -9.51900 17.38000 40.88700
C  -7.57700 18.42200 42.18200
C  -7.11600 15.51000 39.34700
C  -5.67700 15.07600 39.24700
H  -4.93100 15.90400 38.24500
N  -12.51700 17.35600 41.10700
C  -11.75200 18.34300 40.57400
C  -12.64000 19.35200 40.10000
C  -13.97500 18.89500 40.23900
C  -13.82200 17.60500 40.99100
C  -12.13400 20.63100 39.42400
C  -15.13700 19.65900 39.74200
O  -14.98500 20.78200 39.23000
C  -16.50500 19.05400 39.75800
N  -13.69000 14.73800 42.03600
C  -14.81300 15.50700 41.98200
C  -16.14500 14.77700 42.35400
C  -15.63600 13.35800 42.71000
C  -14.08400 13.55200 42.53700
C  -16.88400 15.42000 43.58600
C  -16.15500 12.17800 41.73700
C  -16.20000 10.77800 42.32300
N  -11.03400 13.74600 42.46900
C  -11.76300 12.57600 42.80100
C  -10.77400 11.48700 43.06800
C  -9.54600 11.98600 42.73100
C  -9.72000 13.35200 42.31700
C  -11.09700 10.12800 43.66400
C  -8.13700 11.69300 42.55500
O  -7.57100 10.61300 42.77200
C  -7.47200 12.97900 42.07400
C  -6.49000 13.54500 43.05700
O  -6.62400 13.78900 44.23700
O  -5.30900 13.64800 42.43600
C  -4.22300 14.40100 43.05800
H  -9.80900 19.20800 40.13100
H  -15.84000 17.20600 41.25200
H  -13.71800 11.62300 43.18900
H  -6.62000 15.89700 41.49700
H  -7.75800 18.12300 39.95800
H  -6.58600 18.17500 42.56200
H  -8.28200 18.15400 42.96800
H  -7.61300 19.49900 42.01700
H  -7.42600 16.25900 38.61800
H  -7.73000 14.62800 39.16000
H  -5.71600 14.00200 39.06400
H  -5.03900 15.30300 40.10000
H  -12.43900 20.77100 38.38700
H  -11.04900 20.71000 39.35300
H  -12.50800 21.48800 39.98400
H  -17.14900 19.50900 39.00600
H  -16.95600 19.06900 40.74900
H  -16.36100 18.03200 39.40600
H  -16.89400 14.77500 41.56200
H  -15.80000 13.05800 43.74500
H  -17.92800 15.71000 43.46900
H  -16.30800 16.34200 43.67800
H  -16.81800 14.78300 44.46800
H  -15.55300 12.00500 40.84500
H  -17.09800 12.51900 41.31000
H  -16.98900 10.16900 41.88100
H  -16.30000 10.89700 43.40200
H  -15.23700 10.29700 42.15300
H  -11.64700 9.52200 42.94400
H  -11.80700 10.14400 44.49000
H  -10.14500 9.68400 43.95600
H  -6.93700 12.93100 41.12600
H  -3.51700 14.31100 42.23200
H  -3.77700 13.91300 43.92400
H  -4.55100 15.42300 43.25200

