158

Mg 16.88100 -1.24900 28.24800
C  15.60100 0.71300 30.86500
C  18.86800 -2.93300 30.50700
C  18.11600 -3.16400 25.67800
C  15.18500 0.75600 26.01700
N  17.23500 -1.11600 30.40500
C  16.55200 -0.25800 31.25800
C  17.03300 -0.54600 32.69300
C  18.21400 -1.48800 32.58100
C  18.15600 -1.84900 31.07100
C  19.68700 -0.97100 32.82400
C  15.87200 -0.99500 33.65300
C  16.06200 -0.60200 35.13800
H  17.34400 0.23300 35.56000
N  18.14600 -2.85000 28.11100
C  18.76600 -3.42500 29.20300
C  19.53200 -4.59400 28.73900
C  19.31600 -4.78500 27.32200
C  18.53600 -3.55300 26.98200
C  20.33400 -5.35900 29.84800
C  19.73200 -5.89900 26.36900
O  19.55200 -5.89200 25.15100
C  20.44300 -7.03100 26.85700
N  16.77400 -1.12300 26.13700
C  17.31100 -2.11200 25.33900
C  16.91300 -1.78500 23.92400
C  15.86200 -0.65600 24.02800
C  15.90800 -0.27900 25.47900
C  18.15700 -1.54500 23.04900
C  14.44800 -1.11100 23.64000
C  13.83400 -0.32600 22.44300
N  15.59500 0.37600 28.37600
C  15.05300 1.07600 27.41600
C  14.27600 2.15000 27.96600
C  14.45000 1.99200 29.33500
C  15.31500 0.94400 29.54800
C  13.47900 3.03100 27.23900
C  14.05000 2.58200 30.54100
O  13.22800 3.49300 30.72200
C  14.89600 1.79100 31.72800
C  15.80500 2.87500 32.49900
O  16.67500 3.55700 31.94900
O  15.51000 2.98100 33.82800
C  16.25900 4.11700 34.39100
H  19.45400 -3.42600 31.28600
H  18.52500 -3.70900 24.82500
H  14.62800 1.39400 25.32900
H  17.51500 0.38200 33.00000
H  18.20300 -2.32900 33.27400
H  20.21000 -1.79700 33.30700
H  19.74900 -0.09900 33.47400
H  20.17900 -0.72600 31.88200
H  15.90100 -2.08100 33.56400
H  14.92400 -0.66000 33.23200
H  16.06000 -1.49300 35.76600
H  15.11900 -0.08900 35.33000
H  19.67600 -5.35000 30.71700
H  21.16800 -4.79100 30.26000
H  20.60100 -6.38800 29.60900
H  20.90600 -7.56400 26.02600
H  19.73700 -7.73400 27.29800
H  21.20300 -6.72200 27.57500
H  16.34300 -2.63300 23.54300
H  16.15800 0.22200 23.45400
H  18.28000 -0.46900 22.93000
H  18.03300 -2.10200 22.12000
H  19.09700 -1.91300 23.46100
H  13.87700 -1.02500 24.56500
H  14.40200 -2.19200 23.50500
H  14.40800 0.59100 22.31200
H  12.79500 -0.17000 22.73000
H  13.82400 -0.94800 21.54700
H  12.45500 2.65800 27.22400
H  13.84100 3.27100 26.23900
H  13.57800 3.91400 27.87100
H  14.18400 1.24300 32.34600
H  16.10600 4.16000 35.46900
H  15.86200 4.96600 33.83400
H  17.33300 4.04000 34.22300
Mg 47.57400 25.53700 28.28400
C  48.49100 27.87100 30.74900
C  46.78000 23.33200 30.78600
C  46.98600 23.17600 25.91800
C  48.88700 27.80600 25.77600
N  47.75600 25.53600 30.47700
C  48.09000 26.60600 31.30600
C  47.71200 26.45500 32.75300
C  47.41000 24.91300 32.75200
C  47.24700 24.56400 31.26400
C  48.52000 24.05700 33.36800
C  46.38100 27.24400 33.08500
C  46.47600 28.14700 34.34400
H  45.56000 27.71700 35.45700
N  47.08700 23.48800 28.33300
C  46.72600 22.83600 29.51200
C  46.27300 21.49600 29.16100
C  46.24000 21.44300 27.72100
C  46.86000 22.72500 27.24700
C  45.87500 20.50200 30.22500
C  45.67800 20.30900 26.80400
O  45.73100 20.39100 25.61900
C  45.13000 19.04900 27.40300
N  48.06300 25.44400 26.13000
C  47.60500 24.35000 25.40400
C  47.94100 24.51400 23.91000
C  48.43000 26.03300 23.92000
C  48.48200 26.51800 25.36800
C  49.01600 23.57600 23.39200
C  47.47600 26.95900 23.05700
C  48.17600 27.80800 22.02800
N  48.40400 27.38400 28.19100
C  48.96800 28.13000 27.13300
C  49.56300 29.35000 27.65500
C  49.37600 29.25200 29.12700
C  48.64200 28.06100 29.36400
C  50.36200 30.44700 26.86000
C  49.66500 29.99500 30.34000
O  50.24000 31.06400 30.40300
C  49.06100 29.12500 31.49100
C  50.15000 28.78900 32.43600
O  51.13600 28.09500 32.18300
O  49.78200 29.31700 33.67900
C  50.64600 29.04700 34.79000
H  46.33300 22.75900 31.60100
H  46.80600 22.48100 25.09600
H  49.29300 28.55400 25.09300
H  48.60100 26.64100 33.35600
H  46.49200 24.60700 33.25500
H  48.05000 23.16000 33.77100
H  49.10100 24.58200 34.12500
H  49.30300 23.71100 32.69300
H  45.64200 26.45000 33.19000
H  46.06700 27.75900 32.17700
H  46.28200 29.15900 33.99000
H  47.48500 28.21000 34.75200
H  46.38200 19.58000 29.93900
H  44.84400 20.17300 30.09100
H  46.03200 20.75200 31.27400
H  44.39800 19.19700 28.19600
H  46.02800 18.58800 27.81300
H  44.71100 18.46900 26.58000
H  46.97200 24.25200 23.48400
H  49.44000 26.03800 23.51000
H  48.49200 22.85900 22.76100
H  49.36800 23.03200 24.26900
H  49.81700 24.13500 22.90700
H  46.97700 27.62000 23.76600
H  46.69400 26.40700 22.53500
H  49.25800 27.76100 22.15000
H  47.75800 28.81400 22.06400
H  47.92700 27.37800 21.05800
H  49.84900 30.85200 25.98800
H  51.39500 30.17500 26.64500
H  50.37500 31.20700 27.64200
H  48.29600 29.78200 31.90400
H  50.24300 28.14400 35.25000
H  50.54100 29.81700 35.55400
H  51.68400 28.78000 34.59400

