158

Mg 35.24400 1.90300 29.27800
C  33.04800 2.98500 31.88900
C  37.78000 1.85300 31.72700
C  37.40500 0.96800 26.89400
C  32.68500 2.31100 27.07200
N  35.39600 2.27400 31.49100
C  34.31100 2.68800 32.33800
C  34.80200 2.70600 33.80800
C  36.35200 2.69700 33.69500
C  36.55600 2.22200 32.25200
C  37.00600 4.17000 33.85700
C  34.20600 1.66000 34.81200
C  33.81800 2.15300 36.24600
H  34.60800 3.29400 36.83400
N  37.32200 1.45000 29.38200
C  38.17200 1.55400 30.41300
C  39.47900 1.06900 29.98900
C  39.36900 0.70400 28.59900
C  38.00800 1.08800 28.20700
C  40.67900 1.15100 30.83600
C  40.44800 0.26000 27.66800
O  40.18400 -0.03500 26.50000
C  41.88300 0.00600 28.11900
N  35.16400 1.80700 27.20700
C  36.18100 1.34700 26.44700
C  35.72200 1.24000 24.97700
C  34.14200 1.36800 25.08500
C  33.97800 1.90600 26.54300
C  36.41600 2.27700 24.01500
C  33.34900 0.10100 24.91100
C  32.02000 0.23400 24.26700
N  33.31400 2.57000 29.41600
C  32.40800 2.67600 28.41500
C  31.17400 3.12100 28.93000
C  31.31100 3.21500 30.30300
C  32.62100 2.84600 30.54300
C  29.84300 3.20800 28.18000
C  30.62900 3.55300 31.60000
O  29.48800 3.78700 31.93900
C  31.80800 3.41400 32.68000
C  31.92200 4.68200 33.39000
O  32.68600 5.65200 33.17300
O  31.05000 4.63000 34.48300
C  31.33400 5.55100 35.59300
H  38.55400 1.94800 32.49000
H  38.03400 0.58800 26.08600
H  31.90100 2.33600 26.31300
H  34.56300 3.72000 34.13000
H  36.77700 2.08200 34.48800
H  36.29100 4.77900 34.41100
H  37.21900 4.71300 32.93600
H  37.89800 4.09500 34.47900
H  34.96000 0.88200 34.92800
H  33.30100 1.12100 34.53100
H  34.12200 1.32300 36.88300
H  32.77300 2.33300 36.50000
H  41.21800 0.20800 30.74500
H  40.45100 1.48900 31.84700
H  41.36200 1.92400 30.48300
H  42.21000 0.81000 28.77900
H  42.52700 -0.06900 27.24200
H  41.84600 -0.88400 28.74700
H  36.02900 0.22300 24.73300
H  33.90700 2.11400 24.32600
H  36.88500 1.89400 23.10900
H  37.27700 2.60100 24.59900
H  35.75200 3.11800 23.81700
H  33.25500 -0.34000 25.90400
H  33.88900 -0.55400 24.22800
H  31.95100 -0.34700 23.34700
H  31.80900 1.29600 24.14200
H  31.18500 -0.18300 24.83000
H  29.40400 2.21400 28.09000
H  30.01600 3.52000 27.15000
H  29.14400 3.88300 28.67300
H  31.56900 2.51700 33.25100
H  30.92700 5.16300 36.52700
H  30.67400 6.41600 35.52500
H  32.28900 6.06400 35.70500
Mg -12.13200 37.66800 41.76500
C  -9.52300 35.25400 41.24300
C  -10.07600 40.04300 40.51600
C  -14.82200 39.78200 41.15400
C  -14.24000 35.10400 42.60200
N  -10.11600 37.55700 40.80000
C  -9.18100 36.57700 40.76200
C  -7.84200 37.08400 40.16900
C  -7.97400 38.61500 40.18300
C  -9.43000 38.76000 40.61000
C  -6.85300 39.38100 40.99300
C  -7.62700 36.31300 38.81400
C  -6.34800 35.42800 38.65800
H  -5.24500 35.83800 37.70000
N  -12.38200 39.75700 41.11600
C  -11.37300 40.50300 40.64500
C  -11.90100 41.75800 40.20300
C  -13.32900 41.72300 40.25300
C  -13.61600 40.42700 40.88600
C  -11.02600 42.82600 39.67900
C  -14.33900 42.82400 39.75100
O  -13.94500 43.91000 39.21700
C  -15.85700 42.60900 39.87500
N  -14.28100 37.49600 41.82200
C  -15.15100 38.50800 41.58700
C  -16.66300 37.85500 41.61600
C  -16.32800 36.42600 42.10300
C  -14.83900 36.28400 42.12400
C  -17.58500 38.81700 42.45600
C  -16.93200 35.26500 41.15300
C  -18.15900 34.57300 41.83200
N  -11.97800 35.61700 41.87800
C  -12.89100 34.71200 42.35600
C  -12.20900 33.46100 42.68400
C  -10.83300 33.72400 42.28800
C  -10.78600 34.97900 41.74100
C  -12.79800 32.27800 43.33000
C  -9.50400 33.05400 42.27000
O  -9.21700 31.88600 42.64100
C  -8.59400 34.04100 41.50200
C  -7.40800 34.39100 42.37300
O  -6.24200 34.03600 42.15600
O  -7.79600 34.98300 43.56200
C  -6.80600 34.81800 44.67400
H  -9.38300 40.74200 40.04400
H  -15.70400 40.39200 40.95100
H  -14.80000 34.22300 42.92200
H  -7.08200 36.73500 40.86900
H  -7.79500 39.12300 39.23500
H  -6.37600 40.07400 40.30100
H  -6.11300 38.69900 41.41100
H  -7.32100 39.96100 41.78900
H  -7.47500 37.15200 38.13400
H  -8.50000 35.73600 38.51000
H  -6.73300 34.46800 38.31400
H  -5.92200 35.16200 39.62500
H  -11.53800 43.08000 38.75100
H  -10.02900 42.50800 39.37300
H  -11.13700 43.71100 40.30600
H  -16.34000 43.55300 39.62100
H  -16.02800 42.36600 40.92300
H  -16.31700 41.87100 39.21800
H  -17.05800 37.86800 40.60000
H  -16.74900 36.31900 43.10300
H  -17.12500 39.73700 42.81600
H  -18.02000 38.19000 43.23500
H  -18.30000 39.10100 41.68400
H  -16.27600 34.41100 40.97800
H  -17.17600 35.69000 40.17900
H  -18.75400 35.27000 42.42200
H  -17.77100 33.75000 42.43100
H  -18.76400 34.13400 41.03900
H  -12.10700 31.76600 43.99900
H  -13.11100 31.51900 42.61300
H  -13.77600 32.49300 43.75900
H  -8.20800 33.67200 40.55200
H  -6.67500 33.76400 44.91800
H  -7.09800 35.23600 45.63800
H  -5.85400 35.26400 44.38600

