158

Mg 42.18800 40.96800 26.79700
C  41.45000 43.48000 29.13400
C  43.13300 38.97500 29.41600
C  43.03800 38.58300 24.46900
C  41.38700 43.21500 24.23400
N  42.35100 41.27500 29.04800
C  41.87500 42.35000 29.78300
C  42.02200 42.07400 31.26400
C  42.76200 40.73200 31.28100
C  42.73000 40.28400 29.84300
C  44.19500 40.81900 31.93000
C  40.59700 41.96100 31.91200
C  40.48900 42.70300 33.21300
H  39.85000 41.91800 34.41900
N  42.74600 38.96900 26.93900
C  43.19600 38.38000 28.14200
C  43.53400 37.00100 27.81000
C  43.48700 36.81500 26.39600
C  43.00600 38.10800 25.81100
C  43.86900 35.92000 28.87200
C  43.85600 35.57500 25.57800
O  43.55800 35.51100 24.38100
C  44.42700 34.37100 26.21500
N  42.36900 40.95700 24.62600
C  42.63800 39.82200 23.87500
C  42.44100 40.17400 22.33800
C  41.68400 41.53400 22.32300
C  41.82300 41.92500 23.85700
C  43.87100 40.28400 21.74000
C  40.13600 41.40800 21.96400
C  39.38400 40.20100 22.57700
N  41.74300 42.99800 26.61700
C  41.31800 43.71300 25.53100
C  40.93900 45.03400 25.98900
C  40.94200 45.03800 27.41700
C  41.37500 43.72600 27.74500
C  40.53100 46.19400 25.21100
C  40.76400 45.84000 28.66000
O  40.46900 46.99600 28.81800
C  40.88500 44.73500 29.73200
C  41.73600 45.35000 30.81600
O  42.90800 45.49400 30.81100
O  40.88900 45.89200 31.74100
C  41.59800 46.34000 33.02600
H  43.38700 38.31700 30.25000
H  43.09700 37.89900 23.62000
H  41.21700 43.95000 23.44600
H  42.59200 42.87000 31.74300
H  42.09400 40.06900 31.83000
H  44.33800 40.08500 32.72300
H  44.54300 41.82600 32.15900
H  44.93900 40.48100 31.20800
H  40.33300 40.92700 32.13200
H  39.89400 42.41300 31.21200
H  39.91100 43.60500 33.01000
H  41.48900 43.03100 33.49700
H  44.93100 35.73900 28.70500
H  43.34300 34.96600 28.86400
H  43.75900 36.36000 29.86300
H  43.94300 34.05800 27.14000
H  45.49600 34.51600 26.36900
H  44.42600 33.50800 25.54900
H  41.97400 39.38000 21.75400
H  42.11200 42.32700 21.70800
H  43.94600 39.46400 21.02600
H  44.65700 40.30800 22.49400
H  44.05300 41.18200 21.15100
H  40.16000 41.44800 20.87500
H  39.61400 42.35300 22.11300
H  38.86800 39.66000 21.78400
H  38.54700 40.55700 23.17900
H  39.96300 39.69100 23.34600
H  39.79600 46.69100 25.84400
H  40.03600 45.88300 24.29100
H  41.39600 46.83000 25.02300
H  39.90800 44.52500 30.16700
H  41.91600 45.61900 33.77900
H  40.97200 46.98400 33.64400
H  42.43800 46.97900 32.75300
Mg 6.06200 54.43700 41.10900
C  5.22700 51.11500 40.77700
C  9.10400 53.88800 39.47200
C  6.45800 57.79600 40.46700
C  2.77800 55.14400 42.00800
N  6.96700 52.73500 40.01200
C  6.48600 51.44400 40.13600
C  7.58300 50.40200 39.57200
C  8.80500 51.34100 39.54400
C  8.29800 52.75100 39.62600
C  9.87200 51.21300 40.63200
C  7.26400 49.82500 38.09000
C  6.57400 50.80500 37.07000
H  7.14100 50.89600 35.67100
N  7.73400 55.68300 40.24300
C  8.85100 55.25300 39.63600
C  9.66800 56.34200 39.27700
C  8.98300 57.58400 39.62800
C  7.67500 57.08400 40.15200
C  11.13200 56.11000 38.81200
C  9.44600 59.00700 39.54400
O  10.55200 59.32800 39.01200
C  8.64800 60.16000 40.06700
N  4.79600 56.20900 41.13600
C  5.17700 57.46100 40.88400
C  4.04400 58.44800 40.93500
C  2.86600 57.60300 41.40000
C  3.48700 56.24800 41.52300
C  4.31500 59.79900 41.57800
C  1.61800 57.60900 40.49200
C  0.34200 58.09900 41.16500
N  4.42700 53.38700 41.62100
C  3.15400 53.77300 42.00600
C  2.34600 52.57100 42.30400
C  3.17600 51.52800 41.83300
C  4.37600 52.04300 41.38700
C  0.92300 52.45100 42.83400
C  3.15900 50.10700 41.64000
O  2.31700 49.22200 41.88000
C  4.64100 49.76600 41.16800
C  4.53800 48.88600 40.02100
O  4.03000 49.16400 38.94100
O  5.09400 47.66500 40.34000
C  4.93500 46.68100 39.26600
H  10.14600 53.69900 39.20500
H  6.46800 58.86300 40.23200
H  1.80100 55.42300 42.40700
H  7.75600 49.53700 40.21300
H  9.32100 51.22700 38.59100
H  9.76500 50.31400 41.23900
H  9.76900 52.04200 41.33200
H  10.86300 51.28300 40.18200
H  6.62700 48.94000 38.08800
H  8.17200 49.49800 37.58400
H  6.62800 51.78900 37.53800
H  5.53400 50.58400 36.83200
H  11.78900 56.97800 38.86900
H  11.20600 55.77000 37.77900
H  11.57800 55.34400 39.44600
H  7.84400 60.50800 39.41800
H  9.34200 60.96900 40.29300
H  8.31400 59.78200 41.03300
H  3.92900 58.51000 39.85300
H  2.51100 57.81400 42.40900
H  3.72700 60.50700 40.99400
H  5.33500 60.18000 41.62700
H  4.03700 59.79100 42.63200
H  1.49600 56.61500 40.06000
H  1.78200 58.31700 39.67900
H  -0.50000 57.51400 40.79500
H  0.24600 59.15700 40.92200
H  0.31100 57.96700 42.24700
H  0.99400 51.91600 43.78100
H  0.35000 51.90200 42.08700
H  0.36700 53.38600 42.90000
H  5.23500 49.21400 41.89600
H  5.53600 45.78800 39.43600
H  5.09400 47.07700 38.26300
H  3.89000 46.37800 39.19200

