158

Mg 46.25200 3.61300 47.48900
C  43.70800 6.05900 46.73000
C  43.78100 1.35500 47.78000
C  48.70700 1.30400 47.44200
C  48.59400 6.21600 47.25600
N  43.99800 3.69900 47.12200
C  43.14900 4.73700 46.86900
C  41.68800 4.34000 46.84900
C  41.73800 2.83200 47.27100
C  43.28000 2.61400 47.48400
C  40.85900 2.43700 48.51300
C  41.05600 4.65600 45.39600
C  39.75300 5.51300 45.23300
H  39.85200 6.87300 44.36800
N  46.27800 1.63000 47.55400
C  45.08200 0.88700 47.68700
C  45.45800 -0.52400 47.70400
C  46.87100 -0.61100 47.52600
C  47.32900 0.80400 47.50500
C  44.45900 -1.69000 47.73700
C  47.70100 -1.88800 47.38900
O  47.21900 -3.00300 47.43200
C  49.18000 -1.82600 47.32500
N  48.32100 3.74300 47.06400
C  49.13100 2.60700 47.16500
C  50.59500 3.04800 47.42200
C  50.47200 4.60500 47.42300
C  49.02300 4.90100 47.20900
C  51.09500 2.45300 48.81600
C  51.41800 5.27900 46.42900
C  52.18300 6.52000 46.99000
N  46.22300 5.65500 46.96400
C  47.28000 6.60300 47.08400
C  46.75500 7.92800 46.71500
C  45.38100 7.76400 46.67100
C  45.10200 6.36600 46.83100
C  47.52100 9.17300 46.51400
C  44.13400 8.44800 46.48600
O  43.88000 9.68200 46.32800
C  42.96500 7.34400 46.58900
C  42.20000 7.65400 47.85600
O  42.17100 6.96100 48.90700
O  41.41500 8.77100 47.57600
C  40.29700 9.06000 48.54600
H  43.06200 0.61600 48.13800
H  49.47700 0.54100 47.57200
H  49.32900 7.02200 47.22800
H  41.20400 4.94800 47.61200
H  41.36300 2.19200 46.47300
H  41.38100 2.02000 49.37400
H  40.21600 1.61700 48.19500
H  40.23900 3.32100 48.65900
H  40.77700 3.69300 44.96900
H  41.84600 5.09400 44.78700
H  39.30100 5.67600 46.21100
H  38.97900 4.94400 44.71800
H  44.68900 -2.54700 47.10300
H  43.49900 -1.26800 47.43900
H  44.36300 -2.11200 48.73800
H  49.54600 -2.85000 47.25600
H  49.58100 -1.37000 48.23000
H  49.53000 -1.30000 46.43600
H  51.19200 2.61200 46.62100
H  50.79000 4.89700 48.42300
H  50.46000 1.63600 49.16100
H  51.16400 3.25800 49.54700
H  52.08700 2.02600 48.66800
H  50.84600 5.65800 45.58200
H  52.07300 4.60000 45.88200
H  51.88800 6.71300 48.02100
H  51.99500 7.32600 46.28000
H  53.24900 6.32800 46.86800
H  46.76400 9.90400 46.23000
H  48.15700 8.92100 45.66500
H  48.22500 9.28000 47.33800
H  42.39900 7.53900 45.67800
H  40.37900 8.59000 49.52600
H  39.26600 8.86800 48.24800
H  40.32200 10.15000 48.56700
Mg 47.48100 35.75000 26.31500
C  45.68000 34.22500 29.04000
C  48.46200 38.30500 28.37600
C  48.88800 37.01000 23.57100
C  46.23500 32.97100 24.25100
N  47.02200 36.21600 28.34700
C  46.36600 35.39800 29.37700
C  46.60500 35.94500 30.76900
C  47.23900 37.34900 30.46500
C  47.65400 37.32300 28.97200
C  46.31100 38.55000 30.63200
C  47.62700 35.02100 31.54500
C  47.50500 34.78000 33.03300
H  46.69500 35.83800 33.80400
N  48.59500 37.41500 26.02000
C  48.90200 38.30900 27.00600
C  49.70800 39.34200 26.34800
C  49.85700 38.97600 24.95200
C  49.04300 37.78500 24.77000
C  50.27800 40.45800 27.16000
C  50.58100 39.67900 23.76300
O  50.70800 39.21900 22.60100
C  51.11800 41.15500 24.00100
N  47.39700 35.07600 24.14000
C  48.18800 35.77500 23.34100
C  48.35500 35.04200 21.95600
C  47.53000 33.72900 22.22300
C  47.07500 33.87000 23.66400
C  47.90700 35.88300 20.79000
C  48.35700 32.40600 22.05500
C  47.88700 31.51500 20.93200
N  46.03000 34.01000 26.53400
C  45.77400 33.00300 25.58300
C  45.07800 32.00600 26.30400
C  44.95000 32.42100 27.66100
C  45.59600 33.67700 27.71400
C  44.50800 30.71900 25.80000
C  44.41900 32.07600 28.96200
O  43.72900 31.13300 29.32300
C  44.77100 33.30000 29.83400
C  45.16000 32.76000 31.19500
O  45.94800 31.85200 31.39400
O  44.38700 33.43500 32.14700
C  44.36100 32.75800 33.47900
H  48.84300 39.09600 29.02500
H  49.53300 37.28900 22.73400
H  46.01700 32.10600 23.62000
H  45.64800 35.89300 31.28800
H  48.17000 37.61200 30.96700
H  46.00700 39.05600 29.71600
H  46.84500 39.24500 31.28000
H  45.38300 38.28000 31.13600
H  48.63900 35.41500 31.45000
H  47.85200 34.11100 30.98900
H  48.55100 34.75300 33.33700
H  47.21600 33.74200 33.19500
H  49.85800 41.41700 26.85700
H  51.35700 40.47700 27.00500
H  50.16700 40.45400 28.24500
H  51.61500 41.36900 23.05500
H  51.83300 41.16600 24.82400
H  50.23400 41.78100 24.11700
H  49.42200 34.82200 21.97300
H  46.67300 33.76800 21.55000
H  47.46200 35.26300 20.01200
H  48.75900 36.52100 20.55600
H  47.16800 36.58500 21.17900
H  48.32000 31.70700 22.88900
H  49.40800 32.59300 21.83400
H  47.22600 30.69000 21.19700
H  48.80100 31.05700 20.55200
H  47.44000 32.12000 20.14400
H  43.45700 30.76300 25.51300
H  44.70800 30.08100 26.66100
H  45.18100 30.29400 25.05500
H  43.80100 33.78200 29.95800
H  43.67800 31.90800 33.48900
H  44.09200 33.49500 34.23500
H  45.36400 32.38300 33.68300

