158

Mg 40.35000 9.53300 29.63800
C  42.66400 10.57200 32.14400
C  38.17300 8.59000 32.06600
C  38.26700 8.47600 27.19000
C  42.92900 9.88000 27.28900
N  40.48500 9.43600 31.79300
C  41.44100 10.12500 32.63900
C  40.92400 10.14600 34.11700
C  39.63300 9.16500 34.11700
C  39.43000 9.06100 32.56400
C  39.77100 7.83900 34.88700
C  40.77300 11.61300 34.70600
C  40.00800 11.74200 36.03600
H  40.34700 12.79100 37.09100
N  38.51400 8.49200 29.64200
C  37.77800 8.22000 30.73600
C  36.58100 7.57800 30.34900
C  36.67900 7.37500 28.93500
C  37.84600 8.15900 28.49200
C  35.41300 7.14900 31.29700
C  35.82800 6.61400 28.03900
O  36.15000 6.41600 26.88700
C  34.64200 5.99100 28.62000
N  40.57700 9.17600 27.53400
C  39.55000 8.90600 26.75500
C  39.94600 8.96400 25.24600
C  41.51300 9.10700 25.29200
C  41.71800 9.34900 26.78400
C  39.56900 7.67400 24.37300
C  42.05800 10.20400 24.34800
C  42.11000 11.68800 24.85900
N  42.31600 10.22000 29.61000
C  43.24300 10.35500 28.61300
C  44.43600 10.97100 29.09700
C  44.16900 11.11700 30.46900
C  42.91400 10.64200 30.76700
C  45.60200 11.38200 28.30000
C  44.77200 11.69800 31.61100
O  45.87200 12.28600 31.77600
C  43.78500 11.36400 32.76600
C  44.49700 10.53000 33.76700
O  44.72500 9.34900 33.76200
O  44.78000 11.37200 34.80200
C  45.36100 10.73600 35.99600
H  37.43800 8.36100 32.84100
H  37.57700 8.22700 26.38100
H  43.73000 9.86900 26.54700
H  41.63000 9.73300 34.83800
H  38.87500 9.80600 34.56800
H  40.80800 7.56500 35.08100
H  39.27800 7.11600 34.23700
H  39.17100 7.76800 35.79400
H  40.29800 12.23500 33.94700
H  41.70300 12.14100 34.91800
H  39.93100 10.80400 36.58700
H  38.96800 11.96900 35.80300
H  35.66800 7.75300 32.16800
H  35.48900 6.09300 31.55900
H  34.38500 7.42500 31.06600
H  34.86700 5.43500 29.53000
H  34.20700 5.28200 27.91500
H  33.84400 6.67900 28.90000
H  39.45700 9.72700 24.64100
H  42.02800 8.18200 25.03200
H  39.54700 6.78800 25.00700
H  40.30700 7.48600 23.59400
H  38.60700 7.96200 23.94900
H  41.68400 10.21000 23.32400
H  43.13400 10.03200 24.37200
H  41.26200 11.86800 25.51900
H  41.99200 12.33900 23.99300
H  43.05500 11.89100 25.36400
H  45.49000 12.30900 27.73800
H  46.09700 10.70200 27.60700
H  46.40300 11.59600 29.00900
H  43.41000 12.31500 33.14500
H  44.75700 9.88700 36.31500
H  45.61000 11.44400 36.78600
H  46.31900 10.26900 35.76900
Mg 47.02000 16.71300 28.23200
C  45.24000 16.15500 31.19500
C  48.97700 18.94100 29.98200
C  48.69900 17.40200 25.33300
C  44.64400 14.98700 26.44600
N  47.02200 17.48400 30.36900
C  46.32400 17.00300 31.38000
C  46.87600 17.49000 32.75000
C  48.11300 18.42200 32.22900
C  48.00400 18.26700 30.76100
C  48.06100 19.85600 32.67300
C  47.33700 16.38300 33.66000
C  46.97200 16.47000 35.15200
H  47.55300 17.65700 35.94100
N  48.59500 17.97500 27.66100
C  49.24600 18.86900 28.55600
C  50.08100 19.76700 27.84600
C  50.02500 19.30300 26.53700
C  49.14600 18.16200 26.44300
C  50.98400 20.84900 28.46900
C  50.88100 19.83500 25.29100
O  50.68600 19.32900 24.13200
C  51.89600 20.91100 25.40000
N  46.89800 16.04300 26.25500
C  47.74200 16.42500 25.27500
C  47.16700 15.89200 23.94600
C  45.92300 15.05100 24.31500
C  45.77000 15.41000 25.77700
C  46.88200 16.85800 22.76200
C  46.01300 13.53700 24.01600
C  46.22800 12.95300 22.60900
N  45.26900 15.71000 28.64000
C  44.37400 15.08600 27.85900
C  43.23700 14.65600 28.66700
C  43.59800 15.03300 29.97400
C  44.85100 15.67900 29.90600
C  42.04200 13.92100 28.23900
C  43.08900 15.01600 31.32700
O  42.02700 14.56300 31.76200
C  44.16000 15.80600 32.21500
C  43.55200 17.02200 32.91000
O  42.91900 17.85800 32.29300
O  43.73100 16.97600 34.26500
C  43.03400 18.02600 34.98500
H  49.59700 19.63200 30.55700
H  49.10800 17.60200 24.34000
H  43.81200 14.56500 25.87800
H  46.11200 18.18500 33.09900
H  49.08100 18.06400 32.57900
H  48.90100 19.94800 33.36100
H  47.21000 20.00400 33.33700
H  48.13700 20.63400 31.91300
H  48.42100 16.26700 33.65500
H  47.01700 15.43700 33.22300
H  47.02100 15.47000 35.58100
H  45.90900 16.71000 35.17000
H  50.87000 21.70200 27.80000
H  52.01300 20.52000 28.61400
H  50.62000 21.11800 29.46000
H  51.29900 21.80100 25.59800
H  52.55300 20.85000 24.53200
H  52.52700 20.63700 26.24600
H  47.89600 15.14200 23.63900
H  45.01900 15.52900 23.93800
H  47.42400 17.77800 22.97900
H  45.83700 17.09900 22.56400
H  47.34800 16.48000 21.85200
H  45.11300 13.18100 24.51800
H  46.73700 13.10500 24.70700
H  47.06100 12.25500 22.51800
H  46.59800 13.65700 21.86300
H  45.28300 12.53200 22.26700
H  42.26700 13.66300 27.20400
H  41.25000 14.66800 28.18600
H  41.88300 13.07800 28.91100
H  44.54200 15.13400 32.98300
H  43.21600 18.99500 34.52100
H  43.43200 18.04900 35.99900
H  41.96400 17.91700 35.16500

