158

Mg 42.25900 41.88400 26.13000
C  41.64600 44.30300 28.37600
C  43.30900 39.85300 28.69800
C  43.05900 39.73800 23.77200
C  41.71700 44.34700 23.49000
N  42.27300 42.00500 28.29700
C  41.93300 43.08900 29.00400
C  41.86900 42.80100 30.52400
C  42.78500 41.54500 30.62200
C  42.77600 41.08400 29.13100
C  44.22800 41.91300 31.05900
C  40.36300 42.68800 31.05000
C  40.15200 43.22300 32.56400
H  40.80400 42.41500 33.67000
N  42.91100 40.03200 26.26000
C  43.40100 39.38300 27.36800
C  43.90100 38.08400 26.98900
C  43.81100 38.01100 25.56700
C  43.23400 39.28500 25.13900
C  44.40800 36.97400 27.97100
C  43.91600 36.85500 24.66600
O  43.53200 36.86700 23.50400
C  44.16000 35.54600 25.27600
N  42.46500 42.08700 23.87900
C  42.66800 41.00200 23.13800
C  42.70400 41.25400 21.72700
C  42.09600 42.66000 21.64100
C  42.05800 43.05300 23.14100
C  44.11900 41.06700 21.08300
C  40.67100 42.73700 21.01900
C  39.56700 41.79300 21.61400
N  41.79600 43.91600 25.92800
C  41.62200 44.73100 24.84300
C  41.33000 46.06200 25.29900
C  41.32200 46.01300 26.68400
C  41.56100 44.63200 26.99500
C  41.08800 47.30900 24.37800
C  41.06800 46.65400 27.94000
O  40.68000 47.77400 28.20100
C  41.26200 45.59000 29.07400
C  42.10400 46.11500 30.17200
O  43.33400 46.13600 30.15600
O  41.34000 46.41900 31.26100
C  41.92600 46.95200 32.52900
H  43.66000 39.07600 29.38000
H  43.32900 39.11800 22.91500
H  41.43100 45.12000 22.77300
H  42.36700 43.61400 31.05400
H  42.38700 40.73900 31.23900
H  44.14900 42.67200 31.83700
H  44.74400 42.22100 30.15000
H  44.61300 41.04100 31.58800
H  40.07800 41.63900 30.96900
H  39.64300 43.20100 30.41200
H  39.08300 43.17600 32.77200
H  40.33900 44.29200 32.65800
H  44.66600 37.37900 28.94900
H  45.28100 36.39000 27.67700
H  43.50100 36.37200 28.02800
H  44.00200 34.76600 24.53100
H  43.47100 35.34600 26.09700
H  45.19100 35.63200 25.61800
H  42.09000 40.52600 21.19600
H  42.77000 43.37600 21.17200
H  44.44800 41.98400 20.59500
H  44.11500 40.27000 20.34000
H  44.75500 40.82900 21.93500
H  40.75100 42.42900 19.97700
H  40.39400 43.79100 21.03700
H  39.06600 41.28700 20.78900
H  38.84200 42.50200 22.01300
H  39.83600 41.06800 22.38200
H  41.84200 47.42300 23.60000
H  41.12800 48.26100 24.90600
H  40.16000 47.22400 23.81300
H  40.23600 45.56700 29.44100
H  41.82200 46.24300 33.35000
H  41.31600 47.82500 32.76200
H  42.93700 47.35900 32.52300
Mg -6.75400 26.00000 25.71000
C  -4.88200 27.47000 28.38900
C  -7.94000 23.72200 28.01600
C  -8.18500 24.55300 23.27800
C  -5.18800 28.38600 23.58300
N  -6.41200 25.66100 27.92400
C  -5.68900 26.41500 28.83400
C  -5.87100 26.11700 30.31600
C  -6.77100 24.79900 30.14200
C  -7.04300 24.64400 28.59600
C  -6.28800 23.51100 30.81200
C  -6.66900 27.31600 30.93600
C  -6.58300 27.47500 32.47800
H  -6.08000 26.35000 33.35800
N  -7.90100 24.37700 25.63900
C  -8.38300 23.56500 26.66900
C  -9.36000 22.66300 26.20000
C  -9.56600 22.91200 24.73900
C  -8.44800 23.98400 24.48900
C  -10.13700 21.75500 27.10300
C  -10.60800 22.55000 23.80200
O  -10.65500 22.88100 22.65400
C  -11.70900 21.69800 24.26600
N  -6.68800 26.36200 23.74000
C  -7.43200 25.62100 22.87400
C  -7.41200 26.16500 21.41600
C  -6.40000 27.37700 21.53300
C  -6.03700 27.44800 23.05300
C  -6.99600 25.08500 20.38500
C  -6.81500 28.77000 20.93900
C  -6.29100 29.33000 19.53700
N  -5.29100 27.67700 25.90400
C  -4.85900 28.57800 24.95000
C  -3.91900 29.48200 25.56000
C  -3.86800 29.10100 26.95600
C  -4.73600 27.96900 27.08300
C  -2.98100 30.43700 24.87600
C  -3.27100 29.36000 28.22300
O  -2.43600 30.20800 28.61000
C  -3.94800 28.37500 29.20000
C  -2.80600 27.58700 29.84300
O  -1.86900 27.20000 29.25400
O  -3.00800 27.47400 31.16500
C  -2.18700 26.38700 31.72300
H  -8.48800 23.18300 28.79100
H  -8.83200 24.28900 22.43900
H  -4.50800 28.81800 22.84500
H  -4.91200 25.89400 30.78500
H  -7.73700 24.97900 30.61400
H  -6.37700 22.67600 30.11700
H  -6.92500 23.38300 31.68700
H  -5.23500 23.45500 31.08600
H  -7.72300 27.16400 30.70400
H  -6.44000 28.24600 30.41700
H  -7.61700 27.65900 32.77000
H  -5.88500 28.31200 32.51700
H  -10.25100 20.77400 26.64300
H  -11.12300 22.17500 27.30200
H  -9.63200 21.55000 28.04700
H  -12.02600 22.13400 25.21300
H  -11.26500 20.70300 24.30200
H  -12.41100 21.74400 23.43300
H  -8.35400 26.60400 21.08500
H  -5.51100 27.03900 21.00100
H  -7.70400 25.08500 19.55600
H  -6.79900 24.13400 20.87900
H  -6.03800 25.38700 19.96300
H  -6.70700 29.59100 21.64800
H  -7.90400 28.77300 20.90100
H  -7.04300 29.07500 18.79000
H  -5.39500 28.77500 19.25500
H  -6.12600 30.40700 19.52900
H  -2.97300 31.40600 25.37600
H  -3.33700 30.73400 23.88900
H  -1.95900 30.07100 24.77800
H  -4.42000 28.96300 29.98700
H  -2.53900 25.46900 31.25200
H  -2.42100 26.34700 32.78700
H  -1.11800 26.59400 31.66600

