158

Mg 1.20000 8.05300 25.41700
C  2.02200 9.75900 28.36500
C  1.74300 5.01200 27.27400
C  0.40500 6.37100 22.80400
C  1.47800 11.04800 23.71700
N  1.94900 7.42100 27.53400
C  1.95900 8.32700 28.59400
C  2.10800 7.67700 29.99300
C  2.13700 6.14500 29.59500
C  1.91700 6.16500 28.02800
C  3.42200 5.25900 30.03100
C  0.96200 8.08200 30.96200
C  1.40600 8.26500 32.47100
H  2.55300 7.56200 33.01800
N  1.19100 6.01700 25.04800
C  1.49600 4.92300 25.91000
C  1.23800 3.69200 25.19000
C  0.70100 4.02800 23.91800
C  0.73000 5.56400 23.89000
C  1.52600 2.33700 25.80600
C  0.25000 3.17200 22.75800
O  -0.11800 3.62300 21.66700
C  0.04500 1.67100 22.93600
N  1.14100 8.61800 23.45100
C  0.60100 7.74400 22.57300
C  0.35300 8.46100 21.19900
C  0.63600 10.00800 21.54800
C  1.18600 9.90100 22.97100
C  1.19700 7.83400 20.06300
C  -0.68500 10.87500 21.42700
C  -1.82400 10.29900 22.23600
N  1.68200 10.02600 25.89200
C  1.73300 11.13200 25.13100
C  1.99100 12.29500 25.87900
C  2.14300 11.82200 27.15900
C  1.90000 10.42700 27.12100
C  2.16000 13.71900 25.37300
C  2.43400 12.21800 28.53500
O  2.78900 13.29500 28.91700
C  2.11300 10.91800 29.40300
C  3.29900 10.81400 30.29400
O  4.39700 10.24000 30.14500
O  3.03100 11.46200 31.45800
C  4.12700 11.41400 32.43300
H  1.74100 4.03000 27.75400
H  -0.01200 5.88300 21.92000
H  1.45400 12.01800 23.21800
H  3.12700 7.87200 30.32900
H  1.20000 5.74000 29.97800
H  2.92100 4.37600 30.42800
H  3.95400 5.77300 30.83100
H  4.15000 4.89600 29.30500
H  0.06500 7.47100 30.85900
H  0.69500 9.08900 30.64100
H  0.52400 7.97600 33.04300
H  1.47900 9.32900 32.69700
H  1.21200 1.53200 25.14100
H  0.68600 2.32900 26.50100
H  2.50300 2.19900 26.27000
H  -0.47800 1.43400 23.86300
H  1.05400 1.26600 22.86700
H  -0.62900 1.27000 22.18000
H  -0.63800 8.34100 20.76200
H  1.41500 10.46600 20.93800
H  1.73500 8.60000 19.50600
H  0.55500 7.41000 19.29100
H  1.89000 7.07300 20.42100
H  -0.99000 11.04100 20.39400
H  -0.49100 11.92000 21.66900
H  -2.23300 11.16500 22.75700
H  -1.60900 9.48300 22.92500
H  -2.56600 9.91900 21.53400
H  2.76900 13.84400 24.47800
H  2.69000 14.46100 25.96900
H  1.17700 14.14600 25.17100
H  1.23600 11.13400 30.01300
H  5.09900 11.55800 31.96200
H  4.02600 10.44100 32.91600
H  3.95800 12.08400 33.27500
Mg 35.83900 48.99400 25.88000
C  35.77100 47.22500 28.93200
C  34.37700 51.67100 27.41700
C  35.84800 50.58700 22.90100
C  37.10100 46.03600 24.31500
N  35.26300 49.35700 28.00600
C  35.42600 48.60300 29.08100
C  35.24200 49.48400 30.38600
C  34.62500 50.81500 29.84200
C  34.74200 50.56400 28.26100
C  33.21600 51.20100 30.31900
C  36.49900 49.56000 31.25300
C  36.33500 48.98400 32.70800
H  34.97600 48.87100 33.35700
N  35.11300 50.87200 25.25000
C  34.59000 51.83100 26.02900
C  34.36600 52.97700 25.22700
C  34.55800 52.55600 23.84000
C  35.23900 51.35500 23.92300
C  33.79300 54.23000 25.87200
C  34.27600 53.21100 22.56300
O  34.76900 52.96900 21.44700
C  33.24200 54.40800 22.61200
N  36.28800 48.39700 23.89800
C  36.34200 49.31600 22.92300
C  36.98700 48.69800 21.63000
C  37.37200 47.27100 22.05600
C  36.87600 47.16700 23.51200
C  36.03800 48.59900 20.44700
C  38.98400 47.07300 21.96000
C  39.77300 47.73600 23.13200
N  36.36900 47.12000 26.44400
C  36.90500 46.05300 25.71300
C  37.13200 44.91700 26.59600
C  36.67500 45.35700 27.83900
C  36.21600 46.66500 27.70900
C  37.62500 43.61400 26.16000
C  36.58200 44.86700 29.19800
O  36.77400 43.79100 29.71300
C  36.00500 46.10000 29.95600
C  34.89100 45.66500 30.82600
O  33.75000 45.60400 30.49700
O  35.37500 45.30500 32.09900
C  34.35000 44.55800 32.83600
H  33.89700 52.54800 27.85400
H  35.95900 51.16400 21.98000
H  37.64400 45.17500 23.91900
H  34.50900 48.97900 31.01500
H  35.23100 51.65900 30.17100
H  32.66900 51.43300 29.40600
H  33.17900 52.09600 30.94100
H  32.75100 50.36700 30.84400
H  36.82000 50.59000 31.40900
H  37.32400 48.98300 30.83400
H  36.98000 49.50200 33.41800
H  36.77000 47.98500 32.73300
H  33.85800 55.11400 25.23700
H  34.41100 54.57200 26.70300
H  32.78000 54.05400 26.23400
H  33.54900 55.30200 23.15500
H  32.33500 53.99300 23.05200
H  33.07000 54.79200 21.60700
H  37.87100 49.29000 21.39600
H  36.76900 46.55700 21.49400
H  35.34300 47.77200 20.59200
H  36.65900 48.37100 19.58000
H  35.57800 49.58300 20.35200
H  39.30100 47.59600 21.05700
H  39.27700 46.02500 21.90200
H  40.63600 48.33900 22.85000
H  40.13900 46.87300 23.68800
H  39.08000 48.27400 23.77900
H  38.67900 43.68500 25.89300
H  37.04300 43.28600 25.29800
H  37.61400 43.02700 27.07800
H  36.75500 46.50200 30.63700
H  34.83800 43.97200 33.61500
H  33.70500 43.94200 32.21000
H  33.65600 45.18700 33.39400

