158

Mg 40.14700 8.26900 29.97800
C  41.48200 9.45300 32.98500
C  37.61300 6.77200 31.69100
C  39.14800 6.93800 27.16100
C  43.09000 9.58200 28.35600
N  39.65300 8.09200 32.05900
C  40.23700 8.82600 33.09000
C  39.42300 8.64700 34.38500
C  38.14800 7.80700 34.00700
C  38.49500 7.50200 32.52300
C  37.89900 6.56600 34.83300
C  39.12100 10.03800 35.07700
C  38.96300 9.95000 36.57600
H  39.94700 10.76100 37.43900
N  38.49100 7.11100 29.47600
C  37.54900 6.62400 30.33300
C  36.67100 5.78400 29.58000
C  37.03300 5.89400 28.24200
C  38.32500 6.72000 28.23900
C  35.55800 4.88900 30.25600
C  36.36300 5.28700 27.02000
O  36.92000 5.19200 25.94900
C  34.94600 4.62500 27.12500
N  41.08200 8.10700 28.08400
C  40.37700 7.60900 27.09900
C  41.15500 7.70800 25.74800
C  42.21700 8.78200 26.07400
C  42.11400 8.81900 27.60500
C  41.77200 6.35200 25.33800
C  42.03300 10.15900 25.26000
C  40.68600 10.69500 24.81300
N  41.91000 9.27800 30.49400
C  42.98100 9.79000 29.73000
C  43.90300 10.53100 30.53600
C  43.38600 10.37700 31.80800
C  42.21700 9.60100 31.78600
C  45.13100 11.31700 30.14900
C  43.65900 10.64900 33.17800
O  44.65500 11.24100 33.68500
C  42.42800 10.11900 33.96400
C  42.86800 9.03600 34.91700
O  43.41700 7.92900 34.63300
O  42.54800 9.41500 36.26200
C  42.60500 8.25500 37.17100
H  36.73900 6.44900 32.26000
H  38.93500 6.32300 26.28400
H  43.89300 10.09900 27.82700
H  40.06600 8.00100 34.98300
H  37.27700 8.46000 34.05900
H  36.86800 6.50900 35.18100
H  38.48800 6.65600 35.74600
H  38.12800 5.57800 34.43500
H  38.13900 10.42800 34.80700
H  39.86400 10.81100 34.88100
H  38.98700 8.90900 36.89800
H  37.95200 10.24800 36.85400
H  35.76400 4.89600 31.32700
H  35.63600 3.85900 29.91000
H  34.56400 5.29900 30.07600
H  34.91700 3.83900 27.88100
H  34.77300 4.26000 26.11300
H  34.30100 5.46900 27.36900
H  40.49400 8.02500 24.94200
H  43.19200 8.36700 25.82200
H  42.72000 6.50300 24.82200
H  41.12500 5.87700 24.60100
H  41.90600 5.62400 26.13800
H  42.64700 10.14700 24.36000
H  42.50300 10.91100 25.89300
H  40.35100 10.14600 23.93300
H  40.75900 11.78100 24.75800
H  39.87100 10.40200 25.47400
H  44.81800 11.70900 29.18200
H  46.07300 10.77000 30.09800
H  45.19800 12.13700 30.86400
H  41.91000 11.00900 34.32200
H  43.63600 7.90500 37.12800
H  41.81900 7.57300 36.84800
H  42.38800 8.58200 38.18800
Mg 6.46400 56.90800 42.14500
C  5.50700 53.46400 42.57800
C  9.34100 55.64500 40.80000
C  7.08100 59.86000 41.22200
C  3.10600 57.64300 43.03300
N  7.29200 54.73300 41.50800
C  6.73100 53.50800 41.82900
C  7.62800 52.38400 41.30000
C  8.99500 53.16300 41.19800
C  8.54200 54.61800 41.24700
C  10.13800 52.83200 42.20300
C  7.19700 51.97500 39.89900
C  7.73000 50.60300 39.46300
H  6.97100 49.82100 38.43300
N  8.12900 57.71300 41.41900
C  9.17400 57.04400 40.89700
C  10.16000 58.03800 40.47700
C  9.54700 59.34200 40.54000
C  8.17700 59.04300 41.11700
C  11.62800 57.69000 40.07600
C  10.15300 60.65400 40.07400
O  11.21600 60.66600 39.48100
C  9.41200 61.90300 40.36500
N  5.25000 58.53600 42.10600
C  5.76700 59.67000 41.69200
C  4.66800 60.78100 41.76800
C  3.41000 60.06800 42.43000
C  3.89800 58.65900 42.49700
C  5.21200 62.16300 42.26800
C  2.11500 60.35000 41.66900
C  0.93500 60.78500 42.55300
N  4.64800 55.84900 42.71400
C  3.43500 56.35800 43.20500
C  2.66500 55.23100 43.75400
C  3.48800 54.05600 43.56500
C  4.61900 54.50100 42.89900
C  1.24200 55.30900 44.33300
C  3.62100 52.63700 43.85100
O  2.90600 51.81300 44.45200
C  4.93200 52.23700 43.18200
C  4.69800 51.23000 42.17700
O  4.21000 51.47300 41.08900
O  5.15100 50.00900 42.67000
C  5.02700 48.83600 41.82400
H  10.25000 55.26100 40.33200
H  7.21400 60.87100 40.83200
H  2.17000 57.93400 43.51400
H  7.65700 51.55300 42.00400
H  9.42900 53.12900 40.19800
H  9.98900 51.81800 42.57500
H  10.14300 53.51700 43.05100
H  11.07400 52.95900 41.66000
H  7.66900 52.65000 39.18500
H  6.11600 52.01000 39.76400
H  7.76800 49.96300 40.34500
H  8.76600 50.73600 39.15200
H  12.24900 58.44000 40.56600
H  11.85200 57.83000 39.01900
H  11.91900 56.66300 40.29700
H  9.10600 61.95600 41.41000
H  8.59000 62.02300 39.65900
H  10.17900 62.63500 40.11300
H  4.49500 60.93900 40.70300
H  3.45400 60.55900 43.40200
H  6.13000 62.00800 42.83500
H  4.54800 62.68900 42.95400
H  5.33100 62.76200 41.36400
H  1.86600 59.47700 41.06600
H  2.34500 61.13300 40.94600
H  1.07500 60.54400 43.60700
H  0.01400 60.26100 42.29700
H  0.94200 61.87500 42.55300
H  0.97300 56.31900 44.64200
H  1.31500 54.72300 45.24900
H  0.48200 54.89100 43.67300
H  5.65800 51.78700 43.85900
H  4.11600 48.76000 41.23000
H  5.09100 47.93300 42.43100
H  5.86100 48.72200 41.13300

