158

Mg 43.59800 3.92600 47.54400
C  41.78000 6.98500 47.26500
C  40.57000 2.34200 47.25600
C  45.11600 1.08100 46.67600
C  46.51100 5.74000 47.05100
N  41.40700 4.62100 47.05300
C  40.91100 5.90800 47.09000
C  39.41800 5.92800 47.07100
C  39.05900 4.38800 47.24600
C  40.44700 3.73100 47.16100
C  38.28900 3.98600 48.48100
C  38.75200 6.62500 45.83100
C  38.79200 5.80200 44.55100
H  38.92500 6.71500 43.35700
N  42.95400 1.90200 47.26600
C  41.65900 1.50100 47.17700
C  41.59700 0.09500 46.97600
C  42.90500 -0.41400 46.80600
C  43.70900 0.85700 46.99100
C  40.32200 -0.71000 46.78600
C  43.32700 -1.86600 46.59300
O  42.44000 -2.74200 46.59900
C  44.82800 -2.27500 46.55200
N  45.46700 3.47200 46.76300
C  45.97100 2.18500 46.64200
C  47.54700 2.12600 46.39500
C  47.84400 3.64900 46.73200
C  46.54200 4.34400 46.84400
C  48.36400 1.05000 47.28300
C  48.78900 4.27500 45.71700
C  50.14900 4.83700 46.22300
N  44.12500 5.92900 47.45800
C  45.35900 6.48900 47.23700
C  45.26300 7.98500 47.36000
C  43.87400 8.20100 47.46300
C  43.19600 6.90900 47.42100
C  46.37100 8.95000 47.29100
C  42.78300 9.22100 47.52400
O  42.79500 10.42900 47.75600
C  41.37700 8.47300 47.30100
C  40.38900 8.72200 48.39500
O  40.41900 8.20600 49.48000
O  39.32200 9.48300 47.88100
C  38.34500 9.82200 48.92000
H  39.58900 1.86400 47.24600
H  45.56700 0.13900 46.35500
H  47.39900 6.34400 46.85400
H  39.02500 6.45400 47.94100
H  38.47300 4.08800 46.37700
H  38.92400 3.73200 49.32900
H  37.54000 3.22600 48.25900
H  37.79900 4.91200 48.78300
H  39.41200 7.47600 45.66300
H  37.75200 7.02200 46.00700
H  37.81200 5.32400 44.53800
H  39.65000 5.14800 44.70800
H  40.43300 -1.66900 47.29100
H  40.09000 -0.94800 45.74700
H  39.48600 -0.19600 47.26000
H  45.42300 -1.84600 47.35800
H  45.34700 -1.96200 45.64600
H  44.82500 -3.36500 46.53600
H  47.53500 1.80300 45.35400
H  48.22400 3.84900 47.73400
H  48.03300 1.11200 48.32000
H  49.41000 1.35700 47.27600
H  48.26900 0.03400 46.89900
H  48.27700 5.08700 45.20000
H  49.06600 3.50100 45.00200
H  50.83300 4.02500 45.97400
H  50.10200 5.20500 47.24800
H  50.51200 5.69900 45.66400
H  46.13800 9.73500 48.01000
H  46.35900 9.48500 46.34100
H  47.32800 8.45400 47.45300
H  41.00900 8.90400 46.37000
H  38.22600 9.00900 49.63600
H  37.33400 9.77100 48.51500
H  38.57200 10.73500 49.47100
Mg -11.86000 38.48500 42.02400
C  -9.62300 36.04800 40.74900
C  -9.70700 40.95800 40.70100
C  -14.35700 40.77500 42.28700
C  -13.98800 35.90700 42.97300
N  -9.93900 38.43200 40.88300
C  -9.23600 37.33700 40.48900
C  -8.03900 37.78000 39.64000
C  -8.05600 39.28900 39.76900
C  -9.35400 39.61800 40.45100
C  -6.83900 39.89700 40.57300
C  -8.04100 37.27900 38.16900
C  -6.94900 36.33300 37.66800
H  -5.88100 36.91400 36.73900
N  -11.96300 40.55400 41.59100
C  -10.90200 41.40300 41.23100
C  -11.39600 42.84200 41.13900
C  -12.77800 42.78100 41.58300
C  -13.11400 41.35200 41.82900
C  -10.50200 44.09600 40.85200
C  -13.72500 44.03100 41.70400
O  -13.39000 45.13600 41.29300
C  -15.08600 43.92600 42.26700
N  -13.86400 38.38800 42.44800
C  -14.64500 39.47600 42.68900
C  -16.13100 39.02900 43.26600
C  -15.95600 37.50100 43.24100
C  -14.51100 37.24300 42.77900
C  -16.40300 39.60300 44.70800
C  -17.01100 36.83200 42.28400
C  -17.03000 37.13500 40.76500
N  -11.86100 36.37700 41.91400
C  -12.69100 35.46700 42.44000
C  -12.14300 34.10700 42.40200
C  -10.93100 34.26700 41.67000
C  -10.81700 35.67700 41.39000
C  -12.79900 32.85000 42.92000
C  -9.74600 33.62100 41.04600
O  -9.38800 32.45700 40.95700
C  -8.90300 34.79600 40.46700
C  -7.58900 34.68400 41.17700
O  -7.33200 35.19100 42.23400
O  -6.76300 33.98200 40.34100
C  -5.34900 34.00100 40.66100
H  -9.16900 41.70900 40.11900
H  -15.21600 41.42200 42.48000
H  -14.63100 35.16600 43.45200
H  -7.18100 37.33700 40.14500
H  -8.30900 39.75100 38.81500
H  -6.88200 40.97300 40.74200
H  -5.87000 39.71400 40.10800
H  -6.84200 39.27300 41.46700
H  -8.13100 38.03000 37.38400
H  -8.97900 36.72800 38.11200
H  -7.43300 35.43800 37.27700
H  -6.25000 35.98900 38.43000
H  -9.53800 43.91900 41.32900
H  -10.94400 44.93200 41.39600
H  -10.44800 44.24200 39.77300
H  -15.70100 43.32200 41.60200
H  -15.51800 44.92600 42.22100
H  -15.08400 43.51900 43.27900
H  -16.87200 39.41200 42.56400
H  -16.00500 37.19800 44.28700
H  -16.01100 40.61200 44.83600
H  -16.01500 38.94200 45.48200
H  -17.44500 39.63300 45.02900
H  -17.98200 37.11200 42.69000
H  -17.00200 35.74300 42.33200
H  -15.99500 37.34600 40.49600
H  -17.73200 37.93100 40.51800
H  -17.39700 36.24000 40.26200
H  -12.15500 32.05400 42.54600
H  -13.82000 32.80700 42.54200
H  -12.61800 32.86000 43.99500
H  -8.89600 34.63900 39.38800
H  -4.67100 33.65600 39.88000
H  -5.17700 33.25100 41.43200
H  -5.10300 34.98400 41.06200

