158

Mg 17.04300 52.47900 26.28900
C  18.97000 51.11500 28.82900
C  14.77900 53.50100 28.73000
C  14.93400 53.40700 23.84500
C  19.39000 51.54400 23.95200
N  16.97800 52.34700 28.57000
C  17.85900 51.81000 29.35200
C  17.65300 52.14400 30.75800
C  16.12300 52.60400 30.72600
C  15.96500 52.93000 29.28300
C  15.05100 51.56000 31.21500
C  18.66200 53.16500 31.40400
C  18.74200 53.16800 32.90600
H  17.74100 52.24400 33.66900
N  15.17400 53.36400 26.26300
C  14.44300 53.78600 27.37300
C  13.18900 54.31500 26.90900
C  13.26900 54.33400 25.48900
C  14.46700 53.64600 25.14900
C  12.03700 54.79900 27.79400
C  12.32600 54.92000 24.38400
O  12.44200 54.86500 23.14200
C  11.19300 55.90800 24.75700
N  17.18900 52.39400 24.25300
C  16.12600 52.76700 23.43300
C  16.48700 52.62200 21.94100
C  17.93900 52.08200 22.01000
C  18.21300 52.08000 23.47600
C  15.46200 51.79200 21.28500
C  19.00900 52.93000 21.23600
C  19.58600 54.15600 21.90800
N  18.85800 51.64900 26.31300
C  19.69000 51.25200 25.27900
C  20.73400 50.45600 25.77200
C  20.54600 50.35000 27.13800
C  19.42100 51.17100 27.46700
C  21.69900 49.67500 24.95900
C  21.02600 49.78300 28.34600
O  22.01100 49.11700 28.59500
C  20.11300 50.35700 29.51400
C  19.74700 49.32600 30.53800
O  18.76500 48.57100 30.46400
O  20.52600 49.52200 31.62800
C  20.41900 48.47900 32.65400
H  14.09400 53.92400 29.46800
H  14.30100 53.67500 22.99700
H  20.08600 51.15800 23.20400
H  17.71200 51.25200 31.38200
H  15.97100 53.53700 31.26900
H  14.66700 50.90400 30.43300
H  14.24900 52.06500 31.75400
H  15.54400 50.90800 31.93600
H  18.20300 54.09700 31.07600
H  19.68600 53.09200 31.03800
H  18.80700 54.22400 33.16800
H  19.69700 52.69600 33.13400
H  12.17900 54.44300 28.81500
H  11.14900 54.32100 27.38000
H  11.93900 55.88400 27.82300
H  10.77200 56.40800 23.88400
H  11.41000 56.69400 25.48100
H  10.47300 55.27800 25.27700
H  16.45800 53.59800 21.45700
H  18.00800 51.04900 21.66900
H  14.78600 52.46100 20.75200
H  14.81100 51.24800 21.97000
H  15.87900 51.09500 20.55800
H  18.55300 53.28500 20.31100
H  19.80200 52.27400 20.87800
H  20.65700 53.97000 21.98800
H  19.23900 54.32800 22.92600
H  19.36200 55.09700 21.40600
H  21.27600 49.31200 24.02200
H  22.00500 48.79000 25.51600
H  22.62900 50.22600 24.82500
H  20.63700 51.20700 29.95000
H  20.07600 47.51400 32.28100
H  19.75200 48.84800 33.43300
H  21.38200 48.38800 33.15600
Mg 10.70900 47.95800 25.64800
C  7.97100 48.10900 27.89400
C  12.72500 49.23700 28.04400
C  13.02800 47.92200 23.30400
C  8.19200 47.44100 22.97500
N  10.37000 48.62300 27.70000
C  9.28700 48.36900 28.47800
C  9.53800 48.46400 30.04700
C  10.99300 49.22700 29.97600
C  11.38500 49.08100 28.44200
C  11.00100 50.72800 30.29500
C  9.45300 47.15800 30.90600
C  10.10400 47.07100 32.33400
H  9.39200 46.53800 33.51900
N  12.59000 48.44700 25.67100
C  13.26900 48.93400 26.79500
C  14.67000 49.10900 26.38100
C  14.84500 48.65900 25.04900
C  13.45900 48.25200 24.64300
C  15.67100 49.71000 27.30800
C  16.10600 48.58900 24.22500
O  16.15900 48.12200 23.11200
C  17.38500 48.98100 24.84100
N  10.54800 47.67400 23.40800
C  11.72500 47.78600 22.77600
C  11.51700 47.29200 21.32600
C  9.97900 47.28700 21.15500
C  9.51500 47.39700 22.58700
C  12.17800 48.15100 20.21900
C  9.45500 45.98500 20.48800
C  8.49400 46.12100 19.27000
N  8.56200 47.78800 25.41500
C  7.75100 47.61600 24.29100
C  6.37800 47.54200 24.73000
C  6.40600 47.64000 26.14600
C  7.79200 47.73300 26.50000
C  5.14700 47.33900 23.78500
C  5.59300 47.61900 27.38700
O  4.34100 47.56100 27.41000
C  6.58100 47.92800 28.56800
C  6.48000 46.69200 29.28800
O  7.14900 45.68300 29.06100
O  5.63400 46.87100 30.28300
C  5.54500 45.78600 31.22700
H  13.42300 49.50000 28.84100
H  13.77000 47.95100 22.50300
H  7.46100 47.27200 22.18100
H  8.61800 48.95900 30.35800
H  11.67600 48.73300 30.66600
H  10.79800 50.91500 31.35000
H  10.24500 51.16000 29.63900
H  11.87800 51.34600 30.10500
H  9.66600 46.31500 30.24800
H  8.37800 47.05900 31.05900
H  10.32700 48.11400 32.55700
H  11.06500 46.56200 32.26600
H  15.25800 49.93800 28.29000
H  16.07900 50.61600 26.85900
H  16.46900 48.99400 27.50600
H  17.56400 48.31000 25.68100
H  17.15000 49.91200 25.35600
H  18.20500 49.03600 24.12500
H  11.87700 46.26300 21.31100
H  9.65100 48.18600 20.63200
H  11.46700 48.73900 19.63900
H  12.48900 47.34000 19.56100
H  13.05100 48.74700 20.48600
H  8.79700 45.43900 21.16300
H  10.34200 45.46600 20.12400
H  7.59900 45.51600 19.41400
H  9.04500 45.68800 18.43500
H  8.20100 47.12500 18.96600
H  4.65900 48.30500 23.91900
H  4.49700 46.53200 24.12400
H  5.41600 47.25600 22.73200
H  6.28800 48.77700 29.18600
H  5.22700 44.89200 30.69100
H  4.83100 46.10600 31.98700
H  6.50500 45.56300 31.69200

