158

Mg 37.31100 50.38600 25.56300
C  37.56900 48.05700 28.43500
C  36.11100 52.71500 27.72000
C  36.53500 52.24600 22.90900
C  37.90800 47.58300 23.56800
N  36.96400 50.31000 27.80700
C  37.16400 49.37000 28.76000
C  36.95500 49.95900 30.19800
C  36.35600 51.36400 29.88100
C  36.54100 51.50500 28.33000
C  34.87700 51.59500 30.39200
C  38.35800 50.01600 31.03900
C  38.17200 49.73600 32.54300
H  36.77000 49.93400 33.19800
N  36.52600 52.23800 25.39100
C  36.04700 53.01200 26.36400
C  35.51700 54.24000 25.73800
C  35.74400 54.15900 24.28700
C  36.25500 52.87500 24.15600
C  34.90300 55.32500 26.57600
C  35.39500 55.16700 23.14300
O  35.69600 54.93900 21.98200
C  34.57900 56.41600 23.47300
N  37.12800 49.96900 23.53700
C  36.93400 50.92900 22.58500
C  37.01600 50.34900 21.17300
C  37.43500 48.85600 21.43600
C  37.45400 48.79300 22.94500
C  35.76200 50.59400 20.27900
C  38.72700 48.46000 20.63600
C  40.07900 48.73600 21.31900
N  37.84400 48.28700 25.87200
C  38.05100 47.31000 24.94500
C  38.39200 46.05900 25.58300
C  38.25000 46.34300 26.95100
C  37.86100 47.71000 27.08300
C  38.72000 44.74400 24.95100
C  38.28700 45.72900 28.25200
O  38.49600 44.57800 28.60400
C  37.93000 46.85800 29.28100
C  36.80800 46.51900 30.08200
O  35.63400 46.44100 29.75700
O  37.25900 46.02300 31.30400
C  36.23300 45.69500 32.34000
H  35.82900 53.50700 28.41600
H  36.44900 52.71000 21.92400
H  38.10200 46.77900 22.85500
H  36.22700 49.32300 30.70100
H  36.98300 52.06400 30.43400
H  34.41800 50.61200 30.49900
H  34.22000 52.00900 29.62700
H  34.80300 52.18700 31.30400
H  38.89800 50.95500 30.92200
H  39.09400 49.31000 30.65500
H  38.93200 50.26900 33.11300
H  38.43600 48.68900 32.68900
H  33.99200 55.79400 26.20500
H  35.54500 56.20400 26.62700
H  34.79100 54.95500 27.59500
H  33.59100 56.02700 23.71900
H  34.52300 57.10100 22.62800
H  35.02700 56.92400 24.32700
H  37.83800 50.76800 20.59100
H  36.60500 48.19000 21.20100
H  35.16700 49.69300 20.42800
H  35.94800 50.74500 19.21500
H  35.15600 51.47300 20.49800
H  38.76300 48.99400 19.68700
H  38.74800 47.37300 20.55500
H  40.59300 49.62600 20.95400
H  40.71600 47.86600 21.15800
H  40.16400 48.81600 22.40300
H  38.88900 43.95700 25.68700
H  39.60700 44.80000 24.32000
H  37.95000 44.36600 24.27800
H  38.82000 47.03400 29.88600
H  35.24600 45.82200 31.89500
H  36.12600 46.21500 33.29200
H  36.28400 44.63200 32.57500
Mg 10.17700 47.60800 26.34400
C  8.44800 47.75100 29.48400
C  12.63200 49.43000 27.89800
C  11.72800 47.77800 23.42300
C  7.10600 46.99800 24.77900
N  10.54900 48.37800 28.40800
C  9.71200 48.28600 29.52600
C  10.38500 48.67400 30.85600
C  11.61400 49.52600 30.30500
C  11.58600 49.18200 28.78200
C  11.39800 51.04500 30.46300
C  10.85400 47.40000 31.69300
C  10.27300 47.45500 33.17500
H  10.39300 46.23400 34.06200
N  12.03900 48.23400 25.77700
C  12.90800 48.93500 26.58700
C  14.14000 48.99200 25.92000
C  13.92000 48.56300 24.58400
C  12.49200 48.20400 24.51700
C  15.45800 49.49900 26.50900
C  14.83500 48.19200 23.47400
O  14.52600 47.52200 22.47700
C  16.34600 48.52700 23.56200
N  9.54400 47.42700 24.33300
C  10.34000 47.37700 23.30100
C  9.57700 47.09800 21.95500
C  8.14300 46.75900 22.46200
C  8.23700 47.06500 23.98000
C  9.72100 48.21000 20.93100
C  7.41800 45.44000 22.15000
C  7.97600 44.15700 22.93800
N  8.21200 47.37700 27.02500
C  7.07600 47.04500 26.28600
C  5.95600 46.69400 27.13400
C  6.45700 46.94900 28.43100
C  7.77500 47.41100 28.30400
C  4.64400 46.10700 26.62400
C  6.11800 46.89200 29.75500
O  4.99800 46.68600 30.23600
C  7.42500 47.36000 30.58800
C  7.75500 46.16400 31.38600
O  8.43900 45.22000 31.09400
O  7.01900 46.23800 32.54300
C  6.80800 45.01800 33.39500
H  13.47000 50.00900 28.29000
H  12.21400 47.87300 22.44900
H  6.13900 46.95000 24.27400
H  9.71300 49.24400 31.49800
H  12.55200 49.38100 30.84100
H  10.71100 51.34100 31.25600
H  10.88500 51.48700 29.60900
H  12.34300 51.57800 30.57100
H  11.94200 47.37900 31.63500
H  10.57900 46.51900 31.11200
H  9.22800 47.69600 32.97900
H  10.82100 48.20700 33.74300
H  15.41900 49.76800 27.56500
H  15.76300 50.35800 25.91000
H  16.27300 48.81700 26.26600
H  16.78100 48.38600 22.57300
H  16.81300 47.90500 24.32700
H  16.35000 49.58300 23.82900
H  10.04600 46.16800 21.63500
H  7.50100 47.49100 21.97200
H  10.78000 48.43900 20.80700
H  9.27900 49.10500 21.36700
H  9.19100 47.91900 20.02400
H  7.59800 45.31100 21.08300
H  6.33100 45.39000 22.21900
H  8.52400 44.46300 23.83000
H  8.55200 43.57200 22.22100
H  7.09800 43.55700 23.17500
H  4.75200 45.34700 25.85100
H  4.07900 46.92500 26.17600
H  3.92300 45.79500 27.38000
H  7.20000 48.14200 31.31300
H  5.77100 44.72200 33.24200
H  6.93700 45.31800 34.43500
H  7.52800 44.22700 33.18400

