158

Mg 36.30900 49.37200 24.83600
C  36.26600 47.81700 27.98500
C  34.94600 52.13100 26.30600
C  36.23900 50.78500 21.72000
C  37.35800 46.35500 23.44400
N  35.75700 49.92800 26.93200
C  35.90200 49.18100 28.07200
C  35.71800 49.97900 29.35400
C  35.14900 51.36800 28.78500
C  35.27300 51.14900 27.20400
C  33.70300 51.80800 29.08100
C  36.90900 49.98200 30.34100
C  36.75800 49.61000 31.90100
H  35.47100 49.52500 32.69400
N  35.63200 51.17900 24.09700
C  35.13900 52.15900 24.85200
C  34.85100 53.34200 24.01100
C  35.25400 53.03700 22.73800
C  35.79300 51.58800 22.78900
C  34.21400 54.47100 24.62500
C  35.22000 53.79300 21.33300
O  35.65900 53.39700 20.29200
C  34.68000 55.29900 21.32400
N  36.35700 48.62100 22.84200
C  36.53200 49.41300 21.73100
C  37.06000 48.71400 20.47100
C  37.63600 47.41000 21.12300
C  37.09800 47.46200 22.61700
C  35.91300 48.40400 19.44800
C  39.16700 47.24400 21.04400
C  39.75800 45.96800 20.47900
N  36.62500 47.34700 25.47300
C  37.15300 46.25900 24.80100
C  37.42100 45.23200 25.80900
C  36.98500 45.75400 27.04700
C  36.55800 47.06900 26.77900
C  38.05300 43.89200 25.57400
C  36.90500 45.53600 28.47800
O  37.29000 44.57900 29.14000
C  36.37400 46.84700 29.17800
C  35.18100 46.62200 30.01000
O  33.97400 46.88500 29.69600
O  35.63900 45.92200 31.16200
C  34.38000 45.46100 31.86100
H  34.56700 53.02200 26.81000
H  36.38600 51.25000 20.74300
H  37.77100 45.40100 23.11100
H  34.91600 49.53200 29.94200
H  35.81600 52.13000 29.18700
H  33.28300 51.31600 29.95900
H  32.97400 51.60500 28.29700
H  33.61800 52.86900 29.31200
H  37.40900 50.93600 30.17500
H  37.62900 49.31400 29.86700
H  37.30100 50.38500 32.44300
H  37.32000 48.69100 32.06500
H  34.08400 55.32600 23.96300
H  34.78600 54.81400 25.48700
H  33.23300 54.13500 24.96100
H  33.60500 55.12500 21.35700
H  34.96400 55.76800 20.38200
H  34.95300 56.01000 22.10400
H  37.88300 49.22900 19.97400
H  37.10100 46.53100 20.76400
H  35.08500 49.08700 19.63900
H  35.63200 47.36300 19.60400
H  36.23200 48.54000 18.41400
H  39.63800 47.39600 22.01600
H  39.60900 48.00800 20.40400
H  40.04200 46.21100 19.45500
H  39.04000 45.15800 20.35000
H  40.51400 45.50300 21.11200
H  38.78400 43.83900 26.38100
H  38.40900 43.80700 24.54700
H  37.25900 43.15500 25.69000
H  37.17600 47.11400 29.86600
H  34.01400 44.71500 31.15500
H  33.57200 46.17200 32.03600
H  34.73200 44.93200 32.74700
Mg -2.10100 34.65900 26.18100
C  -3.53600 32.80300 28.81000
C  -0.58400 36.65100 28.53600
C  -1.02900 36.47200 23.67700
C  -3.82300 32.53700 23.94900
N  -2.32200 34.79200 28.47700
C  -2.73600 33.81300 29.38200
C  -2.29700 34.12200 30.81900
C  -1.38800 35.32900 30.63500
C  -1.42600 35.66800 29.11400
C  -1.73700 36.47600 31.55300
C  -1.68300 32.84800 31.43700
C  -2.36000 32.36500 32.70300
H  -1.41000 32.29600 33.92400
N  -0.89200 36.31200 26.15100
C  -0.35700 36.95200 27.21700
C  0.58100 37.93100 26.65300
C  0.44200 37.91300 25.28100
C  -0.45000 36.82800 24.97000
C  1.38600 38.89600 27.49300
C  1.13000 38.72700 24.23800
O  0.88200 38.58200 23.05700
C  2.19900 39.73800 24.57200
N  -2.45500 34.57800 24.17000
C  -1.91500 35.42300 23.31600
C  -2.27200 35.14700 21.86100
C  -2.87600 33.71600 21.96400
C  -3.16600 33.60600 23.43600
C  -3.24000 36.13500 21.27600
C  -1.92700 32.56500 21.43400
C  -0.45200 32.48000 21.97800
N  -3.54900 33.12800 26.30500
C  -4.04600 32.30400 25.32000
C  -4.73200 31.08200 25.86500
C  -4.53600 31.25500 27.24900
C  -3.81300 32.46300 27.42900
C  -5.28500 29.90700 25.13500
C  -4.83200 30.67100 28.54800
O  -5.44200 29.68300 28.93300
C  -4.20000 31.66100 29.58500
C  -5.35400 32.18600 30.57100
O  -6.11600 33.11400 30.41200
O  -5.28000 31.41100 31.68800
C  -6.14200 31.63500 32.88800
H  0.07200 37.26500 29.15600
H  -0.92500 37.18300 22.85400
H  -4.38200 31.78800 23.38300
H  -3.18200 34.33800 31.41700
H  -0.35800 35.09600 30.90700
H  -0.76800 36.95600 31.68900
H  -2.16300 36.02800 32.45100
H  -2.36000 37.22200 31.06000
H  -0.66300 33.16000 31.66300
H  -1.50500 32.05700 30.70800
H  -2.66200 31.32800 32.55800
H  -3.27700 32.92500 32.89000
H  1.37600 39.89900 27.06600
H  2.39300 38.51100 27.65200
H  1.00900 39.07800 28.49900
H  1.77300 40.67800 24.92300
H  2.54700 40.13200 23.61700
H  2.94400 39.19100 25.14900
H  -1.39300 35.02300 21.22900
H  -3.83900 33.59300 21.46800
H  -3.38100 37.05700 21.84000
H  -4.23200 35.69100 21.19400
H  -2.76500 36.49600 20.36400
H  -1.87100 32.45200 20.35100
H  -2.38100 31.61200 21.70400
H  0.20600 33.10300 21.37300
H  -0.07000 31.46600 21.86200
H  -0.25600 32.83000 22.99100
H  -6.21500 30.05000 24.58400
H  -5.58400 29.14600 25.85700
H  -4.50400 29.49400 24.49800
H  -3.50800 31.08600 30.20000
H  -6.55800 30.67000 33.17800
H  -6.94900 32.34700 32.71500
H  -5.57900 31.97000 33.75900

