158

Mg 53.47200 24.35800 45.75600
C  51.05000 26.23800 44.32700
C  52.21600 21.64100 44.00300
C  56.36700 22.64000 46.39700
C  55.01000 27.37800 46.84400
N  52.02400 24.12300 44.19200
C  51.14400 24.99300 43.77000
C  50.37600 24.53600 42.57700
C  50.28900 22.99700 42.93800
C  51.60400 22.85900 43.75500
C  48.90300 22.60200 43.64000
C  51.01100 24.83900 41.30800
C  50.16800 25.09600 40.09900
H  50.91100 25.46700 38.82400
N  54.15100 22.38400 45.35000
C  53.46400 21.39500 44.68000
C  54.14900 20.14600 44.79000
C  55.36500 20.46700 45.45200
C  55.35000 21.87700 45.75800
C  53.56200 18.81300 44.24500
C  56.32800 19.46000 45.86800
O  55.95900 18.28000 45.83700
C  57.66100 19.74400 46.54800
N  55.36100 24.89300 46.59300
C  56.37600 23.96000 46.78000
C  57.57300 24.61100 47.47300
C  57.27600 26.13500 47.27000
C  55.75300 26.16400 46.87000
C  57.68700 24.13900 48.99000
C  58.16100 26.86500 46.18600
C  58.77000 28.14000 46.63600
N  53.04800 26.36100 45.79700
C  53.69100 27.48100 46.33000
C  52.79000 28.66300 46.35800
C  51.71400 28.13800 45.57500
C  51.99700 26.85400 45.19800
C  52.94300 29.96800 47.04600
C  50.49600 28.48600 44.98900
O  49.77000 29.50400 45.09500
C  49.98000 27.25900 44.11400
C  49.76800 27.71800 42.77200
O  50.61200 28.27100 42.08800
O  48.45700 27.70600 42.43000
C  48.05200 28.53500 41.25300
H  51.72400 20.77000 43.56800
H  57.30800 22.11900 46.59000
H  55.40000 28.28500 47.31000
H  49.42200 25.06300 42.55200
H  50.29700 22.41300 42.01800
H  48.28400 23.48800 43.78100
H  49.10700 22.19900 44.63200
H  48.36600 21.83500 43.08200
H  51.69200 24.04000 41.01500
H  51.65300 25.71900 41.31200
H  49.75500 26.00500 40.53700
H  49.29800 24.50500 39.81600
H  53.96000 17.89700 44.68000
H  53.75900 18.79300 43.17300
H  52.47800 18.76500 44.35000
H  57.43200 20.17900 47.52100
H  58.29400 20.35500 45.90500
H  58.15800 18.78200 46.67800
H  58.45600 24.36000 46.88500
H  57.33500 26.69700 48.20200
H  58.70200 23.83800 49.25100
H  56.95500 23.36800 49.23000
H  57.56600 24.94500 49.71400
H  57.65700 27.08900 45.24600
H  58.88000 26.14300 45.79900
H  59.67300 28.10000 46.02800
H  58.85600 28.18700 47.72100
H  58.12800 29.00000 46.44100
H  53.61600 29.82000 47.89100
H  51.99900 30.36500 47.42000
H  53.38500 30.78200 46.47200
H  49.07700 26.99500 44.66400
H  48.53700 28.14800 40.35700
H  48.32900 29.58300 41.37300
H  46.98500 28.56100 41.03200
Mg 27.07200 49.47100 26.00100
C  25.23900 50.91600 28.79200
C  29.64500 48.89400 28.25200
C  28.89500 48.71900 23.28900
C  24.54000 50.74400 23.94300
N  27.38500 49.91000 28.32500
C  26.43000 50.33300 29.22000
C  26.90800 50.04100 30.68200
C  28.43300 49.64700 30.50800
C  28.53200 49.46000 28.92500
C  29.52800 50.61100 31.01000
C  26.00500 49.04600 31.52000
C  25.57700 49.63100 32.83400
H  26.57800 49.98200 33.91900
N  28.96400 48.83400 25.82700
C  29.85800 48.49100 26.85500
C  31.15100 48.13000 26.21100
C  31.00500 48.18700 24.78300
C  29.56800 48.59000 24.57200
C  32.37000 47.74600 26.99700
C  32.09700 48.00200 23.76000
O  31.84000 48.02400 22.57400
C  33.50000 47.72600 24.09000
N  26.72200 49.67400 23.84100
C  27.65200 49.19800 22.93500
C  27.01700 49.41600 21.51300
C  25.52000 49.89600 21.82900
C  25.53500 49.98700 23.32400
C  27.74600 50.38600 20.55600
C  24.46000 48.98800 21.16500
C  24.01700 47.64000 22.01600
N  25.25600 50.53000 26.25000
C  24.30100 50.94600 25.30900
C  23.16200 51.62900 25.95900
C  23.54300 51.60700 27.31700
C  24.81800 50.97000 27.47400
C  22.00800 52.21700 25.20400
C  23.06500 51.87400 28.69400
O  22.03000 52.42700 29.06200
C  24.12600 51.43100 29.63400
C  24.34200 52.49600 30.62100
O  25.29900 53.27100 30.60800
O  23.40300 52.45300 31.58700
C  23.65600 53.32600 32.76000
H  30.54800 48.67700 28.82500
H  29.53400 48.51300 22.42800
H  23.74100 51.04200 23.26200
H  26.90800 50.99900 31.20300
H  28.54900 48.67300 30.98500
H  30.16100 50.90300 30.17100
H  30.17100 50.32500 31.84200
H  29.06700 51.51700 31.40300
H  26.48700 48.07100 31.59500
H  25.06200 48.86800 31.00400
H  24.78300 48.97600 33.19200
H  25.10900 50.60900 32.72200
H  32.14700 47.89500 28.05300
H  33.21900 48.40200 26.80400
H  32.58800 46.74200 26.63300
H  34.05700 47.57600 23.16400
H  33.70300 46.83400 24.68200
H  33.78000 48.65000 24.59700
H  27.01100 48.44200 21.02400
H  25.38000 50.89600 21.42100
H  28.75600 50.46700 20.95700
H  27.14900 51.29700 20.54600
H  27.69900 50.06500 19.51500
H  24.84600 48.57800 20.23200
H  23.58400 49.60900 20.97700
H  24.27400 46.76800 21.41400
H  22.94700 47.64200 22.22300
H  24.51000 47.50800 22.97900
H  21.79200 51.54600 24.37300
H  22.16400 53.18400 24.72600
H  21.15900 52.29700 25.88300
H  23.86700 50.52400 30.17900
H  23.59600 54.36500 32.43900
H  24.65000 53.10000 33.14700
H  22.99200 53.13300 33.60200

