158

Mg 47.10900 33.79900 27.53400
C  45.33600 32.50200 30.09400
C  47.65600 36.69800 29.37300
C  48.24500 35.37600 24.74600
C  46.36100 31.03600 25.57000
N  46.53000 34.42300 29.52700
C  45.94600 33.73700 30.48900
C  46.11900 34.34400 31.90000
C  46.55900 35.83300 31.45200
C  47.00800 35.60600 30.03600
C  45.45000 36.95700 31.42000
C  47.27100 33.53600 32.71000
C  47.23800 33.70300 34.26400
H  46.31400 34.71400 34.93600
N  47.81400 35.74500 27.08900
C  48.10100 36.75800 28.02400
C  48.84000 37.81200 27.40700
C  48.88100 37.54200 25.99100
C  48.23100 36.17500 25.87500
C  49.27200 39.15500 28.12100
C  49.57700 38.30900 24.89200
O  49.61900 37.96900 23.73100
C  50.43900 39.50500 25.34400
N  47.22300 33.33100 25.45100
C  47.70400 34.11600 24.52700
C  47.96800 33.41200 23.18800
C  47.54000 31.91700 23.51400
C  46.93600 32.08900 24.94900
C  47.18200 34.01700 21.96500
C  48.68100 30.93400 23.61200
C  48.42400 29.50700 23.15100
N  46.11000 32.07100 27.78900
C  45.99400 30.98800 26.95300
C  45.28400 29.88500 27.67000
C  45.02700 30.47900 28.92700
C  45.51000 31.82000 28.90400
C  44.73100 28.52500 27.04100
C  44.35500 30.30400 30.17100
O  43.77800 29.26500 30.51500
C  44.36300 31.66200 30.84400
C  44.56500 31.51600 32.33900
O  45.39700 30.78800 32.85700
O  43.51700 32.03300 33.07200
C  43.38000 31.57200 34.46700
H  47.85600 37.55500 30.01800
H  48.82700 35.72300 23.88900
H  45.98300 30.22100 24.94900
H  45.18000 34.46000 32.44100
H  47.41800 36.14100 32.04900
H  45.17800 37.22600 30.39900
H  45.83900 37.84800 31.91300
H  44.53500 36.58800 31.88200
H  48.25000 33.77600 32.29700
H  47.13800 32.46700 32.53900
H  48.24700 33.88600 34.63300
H  47.09500 32.77100 34.81000
H  50.35400 39.21800 28.23600
H  48.81100 39.15400 29.10800
H  48.93000 40.01800 27.55000
H  51.21600 39.25000 26.06500
H  49.82000 40.33700 25.67700
H  50.81800 39.96400 24.43100
H  49.03700 33.44900 22.98000
H  46.80800 31.55800 22.79100
H  46.58800 34.86200 22.31400
H  46.64900 33.21600 21.45300
H  47.95200 34.49100 21.35600
H  48.91000 30.79400 24.66900
H  49.60400 31.26600 23.13700
H  47.36100 29.33100 22.98700
H  48.75000 28.85800 23.96400
H  49.02100 29.18900 22.29600
H  44.61700 28.67400 25.96700
H  43.84600 28.07400 27.49100
H  45.54600 27.80200 27.05500
H  43.45200 32.25500 30.75800
H  43.81700 30.60600 34.72000
H  42.31200 31.37300 34.55900
H  43.78000 32.35600 35.11000
Mg -11.75200 17.16000 42.03700
C  -8.56100 15.73200 41.65900
C  -10.54500 20.15500 40.78400
C  -14.85300 18.04200 41.49600
C  -12.88300 13.76700 42.44800
N  -9.74900 17.85100 41.32100
C  -8.60100 17.13800 41.29400
C  -7.43200 18.01400 40.77800
C  -8.09400 19.46800 41.05300
C  -9.57100 19.10800 40.97200
C  -7.75000 20.21600 42.31500
C  -7.13100 17.69200 39.32000
C  -5.71300 17.35800 38.99700
H  -5.01200 18.12100 37.89500
N  -12.56500 18.90900 41.36100
C  -11.91500 20.07200 41.01600
C  -12.86700 21.16000 40.85500
C  -14.14400 20.57200 40.97900
C  -13.87000 19.10500 41.27800
C  -12.48400 22.53900 40.39900
C  -15.49900 21.26900 40.90300
O  -15.62000 22.52000 40.78000
C  -16.79400 20.53900 40.92300
N  -13.58000 16.06500 41.99400
C  -14.72000 16.70400 41.80300
C  -15.96800 15.84800 41.98100
C  -15.40200 14.44200 42.28900
C  -13.86600 14.74600 42.33400
C  -16.97000 16.45300 42.98900
C  -15.86300 13.35200 41.26600
C  -16.79300 12.27100 41.78900
N  -10.87500 15.17500 42.22900
C  -11.50600 13.94000 42.49900
C  -10.41000 12.90800 42.67600
C  -9.23200 13.60000 42.37400
C  -9.59500 14.91700 42.10900
C  -10.61400 11.49100 42.96500
C  -7.81500 13.37700 42.27500
O  -7.05800 12.39800 42.42000
C  -7.32400 14.76700 41.73800
C  -6.36800 15.33900 42.65500
O  -6.68300 15.80400 43.72800
O  -5.08400 15.28100 42.20300
C  -4.03000 15.86400 43.16100
H  -10.09500 21.12700 40.57100
H  -15.89700 18.22800 41.23200
H  -13.03100 12.68700 42.38100
H  -6.60400 17.94200 41.48300
H  -7.76900 20.13700 40.25500
H  -6.81000 20.71600 42.08300
H  -7.53900 19.56800 43.16600
H  -8.52200 20.95600 42.52700
H  -7.43700 18.52600 38.68800
H  -7.76400 16.86600 38.99400
H  -5.65500 16.27300 38.91900
H  -5.09900 17.54800 39.87800
H  -12.41700 22.38300 39.32300
H  -11.48400 22.72700 40.79000
H  -13.18200 23.28000 40.78800
H  -17.54900 21.32100 41.01100
H  -16.80300 19.93800 41.83200
H  -16.88400 20.08100 39.93800
H  -16.49500 15.87800 41.02700
H  -15.64900 14.17800 43.31700
H  -17.99200 16.46300 42.61000
H  -16.71600 17.48600 43.22800
H  -16.99000 15.94500 43.95400
H  -14.99900 12.84800 40.83200
H  -16.39000 13.82400 40.43700
H  -17.06800 12.46000 42.82600
H  -16.31200 11.30000 41.90900
H  -17.75300 12.24400 41.27300
H  -9.89700 11.18500 43.72700
H  -10.69500 10.91800 42.04100
H  -11.61000 11.43400 43.40400
H  -6.80700 14.66700 40.78400
H  -4.00600 16.95000 43.25000
H  -3.11300 15.36000 42.85400
H  -4.29000 15.51100 44.15900

