158

Mg 49.79000 45.24500 43.21200
C  46.23700 45.62500 42.52000
C  49.53100 42.10400 42.22000
C  53.07400 45.22600 43.40500
C  49.89000 48.85300 43.32500
N  48.04200 44.06400 42.39600
C  46.73500 44.36900 42.26300
C  45.93500 43.08500 41.96600
C  47.02300 41.97300 42.05600
C  48.28700 42.71200 42.24900
C  46.79400 40.92700 43.21300
C  45.10400 43.00800 40.67400
C  45.63200 43.78100 39.45700
H  45.68400 42.90500 38.17000
N  51.09100 43.84500 42.96500
C  50.87000 42.51800 42.58200
C  52.07100 41.76900 42.64100
C  53.13400 42.65800 43.05800
C  52.46400 43.97000 43.14600
C  52.08600 40.29300 42.22800
C  54.58700 42.25500 43.28900
O  54.99800 41.13900 42.94000
C  55.64200 43.20200 43.85100
N  51.26100 46.80900 43.25900
C  52.53400 46.51200 43.52700
C  53.40800 47.74400 43.85200
C  52.48000 48.89700 43.51200
C  51.13700 48.19700 43.39200
C  54.04200 47.79500 45.38500
C  52.91400 49.57500 42.14500
C  52.37700 51.00000 41.82800
N  48.39200 46.90600 43.15800
C  48.59700 48.24500 43.08900
C  47.32000 48.94600 43.08000
C  46.40200 47.98500 42.77700
C  47.08000 46.72600 42.83500
C  47.07300 50.45600 43.27100
C  44.96200 47.75000 42.56400
O  44.03000 48.55100 42.46300
C  44.75900 46.19100 42.42000
C  43.74100 45.70800 43.37600
O  42.75700 45.16500 42.99600
O  44.08700 45.74800 44.70700
C  43.09900 45.12400 45.64900
H  49.38300 41.08600 41.85300
H  54.16300 45.20900 43.32200
H  49.98500 49.94100 43.32400
H  45.18700 42.96900 42.75000
H  47.04300 41.38200 41.14000
H  46.21600 40.12700 42.75000
H  46.37900 41.41400 44.09500
H  47.75400 40.46700 43.44700
H  44.13200 43.43100 40.93000
H  44.96700 41.94300 40.49100
H  46.62300 44.17800 39.68000
H  44.87700 44.56400 39.38300
H  53.04900 39.78600 42.17200
H  51.76500 40.12800 41.20000
H  51.38400 39.76800 42.87600
H  56.16800 43.69400 43.03300
H  56.41400 42.52700 44.21800
H  55.29200 43.84900 44.65500
H  54.27200 47.55900 43.21400
H  52.43300 49.57300 44.36600
H  55.05800 47.40000 45.39100
H  53.36000 47.16000 45.94900
H  53.95400 48.78200 45.83800
H  52.58300 48.91000 41.34700
H  53.98000 49.42700 41.97100
H  53.21800 51.61100 41.50200
H  51.77100 51.39300 42.64400
H  51.76300 50.85800 40.93900
H  47.53300 50.82600 44.18800
H  46.03800 50.79800 43.26800
H  47.62600 51.02500 42.52300
H  44.28600 46.03000 41.45100
H  43.20900 44.04200 45.71400
H  42.09300 45.46200 45.40000
H  43.35200 45.55300 46.61900
Mg 27.20700 50.24200 26.61500
C  25.17400 51.18900 29.30300
C  29.70400 49.35800 28.94300
C  29.15700 49.37700 23.95700
C  24.55600 51.21000 24.42800
N  27.35900 50.20000 28.90200
C  26.39700 50.56300 29.78800
C  26.84200 50.31900 31.25600
C  28.35100 50.03200 31.08800
C  28.47000 49.89000 29.54500
C  29.31100 50.99800 31.75200
C  25.90400 49.21300 31.97700
C  24.94800 49.71300 33.13800
H  25.00900 48.95100 34.39900
N  29.20200 49.44400 26.48500
C  29.99100 49.14200 27.54000
C  31.18600 48.70200 26.96000
C  31.16800 48.79700 25.54800
C  29.81500 49.22100 25.26100
C  32.31800 48.18100 27.85100
C  32.27200 48.44300 24.52300
O  32.09700 48.59000 23.32300
C  33.57500 47.67200 24.96600
N  26.87300 50.24800 24.45500
C  27.87800 49.89600 23.58500
C  27.30900 49.98000 22.15800
C  25.80900 50.46800 22.31300
C  25.74300 50.64600 23.82700
C  28.15900 50.87500 21.19600
C  24.65500 49.48400 21.87400
C  24.55000 48.16200 22.58500
N  25.28300 51.10500 26.77300
C  24.33800 51.44200 25.81600
C  23.26200 52.05100 26.47900
C  23.49300 51.94200 27.81000
C  24.78600 51.33300 27.96900
C  21.97100 52.57200 25.82100
C  22.99000 52.19900 29.18600
O  21.98600 52.67700 29.62500
C  24.02200 51.65600 30.15500
C  24.29900 52.85400 30.98300
O  25.21800 53.62500 30.83500
O  23.45400 52.77600 32.11100
C  23.48700 53.92000 33.04900
H  30.49500 49.12000 29.65800
H  29.73200 49.20400 23.04500
H  23.86500 51.66200 23.71400
H  26.62900 51.24100 31.79700
H  28.62100 49.07200 31.52800
H  30.12900 50.41000 32.16900
H  28.75800 51.60000 32.47300
H  29.79700 51.56200 30.95500
H  26.49400 48.41600 32.43000
H  25.23700 48.73200 31.26200
H  23.93200 49.68400 32.74500
H  25.14900 50.76700 33.32800
H  32.73100 47.28100 27.39400
H  32.01500 47.83600 28.84000
H  32.97200 49.05200 27.88400
H  34.21200 48.22400 25.65700
H  34.13100 47.35700 24.08300
H  33.24000 46.77400 25.48500
H  27.19600 48.99400 21.70800
H  25.71000 51.30900 21.62800
H  28.78600 50.23300 20.57700
H  28.80700 51.50600 21.80500
H  27.60700 51.52200 20.51400
H  24.82700 49.35200 20.80600
H  23.70600 50.01900 21.89500
H  25.32200 48.03000 23.34400
H  24.52400 47.39100 21.81500
H  23.55800 48.11700 23.03600
H  21.10800 52.16300 26.34500
H  21.85200 52.31100 24.76900
H  21.99200 53.66200 25.83300
H  23.59900 50.87100 30.78100
H  23.66500 54.85400 32.51600
H  24.18600 53.88400 33.88400
H  22.54700 54.09200 33.57300

