158

Mg 36.09100 2.10700 31.05000
C  33.58800 3.32400 33.22800
C  38.39500 2.38900 33.48600
C  38.53100 1.55600 28.79600
C  33.82900 2.76100 28.41600
N  35.98100 2.91000 33.04700
C  34.84900 3.11800 33.84800
C  35.19900 3.14700 35.38600
C  36.83600 3.13800 35.39300
C  37.12100 2.80900 33.88300
C  37.51500 4.47000 35.93500
C  34.44400 1.90600 36.06300
C  33.99700 2.20500 37.53500
H  34.78700 3.29100 38.39800
N  38.16900 1.72800 31.22200
C  38.87800 1.85200 32.33400
C  40.24700 1.41800 32.03100
C  40.24200 1.09700 30.64900
C  38.97000 1.43900 30.14300
C  41.34300 1.33700 33.09300
C  41.34600 0.68200 29.74300
O  41.24600 0.58600 28.53600
C  42.80800 0.47700 30.32600
N  36.17200 2.19900 28.94200
C  37.24400 1.75300 28.24900
C  36.97100 1.71900 26.75000
C  35.48600 1.93300 26.60900
C  35.11500 2.34800 28.03800
C  37.94200 2.72200 25.96500
C  34.69900 0.63000 26.28100
C  33.48100 0.91300 25.41900
N  34.08700 2.78900 30.77100
C  33.30100 2.99100 29.67400
C  31.99800 3.34800 30.12500
C  32.05800 3.45900 31.50400
C  33.34700 3.20000 31.84500
C  30.82800 3.57700 29.25200
C  31.30900 3.79100 32.68200
O  30.16700 4.18800 32.76700
C  32.27400 3.79400 33.85300
C  32.37400 5.20800 34.36600
O  32.71300 6.19000 33.79000
O  32.04300 5.20000 35.70000
C  31.86400 6.53500 36.30700
H  39.02500 2.45100 34.37500
H  39.27900 1.39600 28.01600
H  33.10400 2.90600 27.61300
H  34.80800 4.08100 35.79000
H  37.21200 2.25900 35.91700
H  36.76200 5.25000 36.04300
H  38.21500 4.83900 35.18600
H  38.14300 4.28800 36.80700
H  35.14100 1.07200 35.97500
H  33.54100 1.66700 35.50200
H  34.11500 1.22500 37.99800
H  32.94200 2.43600 37.39000
H  42.15000 0.63000 32.89700
H  40.85000 1.06400 34.02600
H  41.84500 2.29400 33.23500
H  43.55600 0.36800 29.54100
H  42.72100 -0.26100 31.12300
H  42.98600 1.38500 30.90200
H  37.18900 0.71400 26.38700
H  35.32200 2.79300 25.95900
H  38.59500 3.28200 26.63500
H  37.27400 3.40600 25.44200
H  38.50500 2.14500 25.23200
H  34.28900 0.11600 27.15000
H  35.37400 -0.12900 25.88500
H  33.52800 1.88600 24.93000
H  32.56900 0.69800 25.97700
H  33.60700 0.25000 24.56300
H  29.99500 2.94000 29.55100
H  31.04800 3.31500 28.21700
H  30.66000 4.65400 29.25300
H  32.05900 3.05100 34.62100
H  31.69800 6.44700 37.38000
H  30.99800 6.90500 35.75700
H  32.74200 7.13700 36.07100
Mg 30.09400 56.45500 41.11400
C  27.01300 55.28400 39.81900
C  31.60500 53.73300 39.61500
C  33.02600 57.96100 41.44600
C  28.45300 59.40300 41.94300
N  29.33300 54.67100 39.99600
C  28.13100 54.46100 39.48900
C  27.99700 53.24600 38.56800
C  29.29500 52.53300 38.98400
C  30.18800 53.69000 39.69000
C  29.19000 51.25400 39.88700
C  27.92600 53.51100 37.00800
C  27.85500 54.87500 36.49400
H  27.08600 55.22600 35.23500
N  32.10000 55.93000 40.59500
C  32.50000 54.77300 40.02600
C  33.83300 54.86700 39.63500
C  34.36100 56.06600 40.22700
C  33.19200 56.71900 40.82800
C  34.43100 53.82600 38.69300
C  35.82300 56.59500 40.03400
O  36.66900 55.96600 39.35100
C  36.23900 57.94200 40.54200
N  30.65100 58.38300 41.64800
C  31.98800 58.71900 41.85800
C  32.11500 60.24400 42.26600
C  30.62900 60.60500 42.68800
C  29.87500 59.40300 42.03600
C  33.13700 60.48600 43.46600
C  30.20800 61.96300 42.20300
C  29.16000 62.83100 43.04500
N  28.08800 57.19900 41.04100
C  27.57300 58.38000 41.49400
C  26.16900 58.33700 41.29700
C  25.92000 57.13400 40.64400
C  27.12600 56.44900 40.51700
C  25.27500 59.50400 41.56800
C  24.84800 56.34000 40.19400
O  23.66300 56.48400 40.21300
C  25.46400 55.09800 39.53100
C  24.87700 53.93600 40.12200
O  25.25200 53.30600 41.08900
O  23.90600 53.49100 39.27300
C  23.26400 52.18700 39.59300
H  32.09600 52.79800 39.33900
H  33.96300 58.50600 41.57700
H  28.08200 60.38300 42.25000
H  27.13200 52.62300 38.79600
H  30.00000 52.26800 38.19700
H  29.77800 51.43400 40.78800
H  29.69400 50.44300 39.36200
H  28.15300 51.00400 40.11500
H  27.03200 52.99100 36.66300
H  28.71900 53.13900 36.36000
H  28.89600 55.15800 36.33700
H  27.66900 55.70500 37.17500
H  33.97300 54.04700 37.72900
H  34.26000 52.77700 38.93800
H  35.51600 53.85500 38.58800
H  35.70200 58.69800 39.96800
H  37.27900 58.05100 40.23500
H  36.19400 57.99800 41.63000
H  32.21800 60.71300 41.28700
H  30.32900 60.46400 43.72600
H  33.69300 59.57200 43.67000
H  32.70400 60.88900 44.38200
H  33.73400 61.32700 43.11500
H  29.84600 61.76200 41.19500
H  31.11600 62.54900 42.06500
H  29.69100 63.69000 43.45600
H  28.68300 62.22900 43.81800
H  28.35400 63.13500 42.37700
H  24.74500 59.67500 40.63100
H  25.74700 60.41900 41.92500
H  24.58000 59.27100 42.37600
H  25.30400 55.12200 38.45300
H  23.93100 51.50500 40.12000
H  22.81600 51.76700 38.69300
H  22.41000 52.46900 40.20900

