158

Mg 49.08300 46.82800 42.81000
C  45.70000 47.03600 42.15500
C  49.10100 43.50600 42.10400
C  52.47800 46.85400 43.12800
C  49.11200 50.33300 43.29900
N  47.63100 45.55300 41.99600
C  46.25700 45.80300 41.84000
C  45.57300 44.56800 41.25200
C  46.61400 43.41800 41.42000
C  47.85500 44.24100 41.91000
C  46.29000 42.33700 42.47500
C  45.09700 44.93000 39.80400
C  43.86500 44.10500 39.19200
H  44.17700 43.04100 38.07600
N  50.62800 45.37500 42.53400
C  50.43900 44.03200 42.18900
C  51.70900 43.38600 41.97200
C  52.72900 44.31500 42.37700
C  51.98400 45.61700 42.67500
C  51.88500 41.86500 41.58000
C  54.19400 44.04300 42.47100
O  54.58300 42.87500 42.28700
C  55.33300 45.09200 42.78300
N  50.58200 48.43000 43.00300
C  51.86600 48.15100 43.30200
C  52.69900 49.47700 43.59900
C  51.61900 50.61400 43.54400
C  50.39400 49.76500 43.26700
C  53.46800 49.53600 44.95000
C  51.89400 51.75400 42.56900
C  51.81400 51.47800 41.01000
N  47.73900 48.39700 42.79200
C  47.87200 49.74500 43.08100
C  46.54800 50.38500 43.11100
C  45.67000 49.35500 42.72000
C  46.40200 48.20800 42.58200
C  46.31700 51.89600 43.39100
C  44.29200 49.05600 42.42000
O  43.35400 49.84100 42.51200
C  44.18000 47.52400 42.02900
C  43.30600 46.84600 43.04200
O  43.63000 46.56300 44.18600
O  42.04000 46.66000 42.50100
C  41.18300 45.96200 43.50600
H  49.09500 42.42200 41.97100
H  53.56700 46.87900 43.19700
H  49.03900 51.41500 43.42900
H  44.62500 44.39900 41.76400
H  46.73400 42.81700 40.51900
H  46.59800 41.30000 42.34100
H  45.21000 42.21800 42.56100
H  46.80300 42.62900 43.39100
H  45.97200 44.96500 39.15500
H  44.80900 45.98100 39.81400
H  43.15800 44.84300 38.81100
H  43.35500 43.52500 39.96100
H  50.98900 41.31800 41.87300
H  52.69300 41.42300 42.16200
H  52.20900 41.73700 40.54700
H  55.15100 45.87200 42.04400
H  56.35300 44.70900 42.77300
H  55.10200 45.50800 43.76400
H  53.50700 49.67200 42.89300
H  51.50100 51.06300 44.53000
H  53.12100 48.71800 45.58100
H  53.44100 50.47300 45.50500
H  54.52500 49.42600 44.70800
H  52.93400 52.03800 42.73200
H  51.37500 52.61400 42.99200
H  51.55000 50.43500 40.83400
H  52.75000 51.86800 40.61000
H  51.04300 52.08500 40.53500
H  45.24700 51.99200 43.57700
H  46.59000 52.40500 42.46700
H  46.81000 52.23000 44.30400
H  43.67700 47.42300 41.06700
H  41.67000 45.03400 43.80700
H  40.22900 45.66000 43.07300
H  41.02400 46.58700 44.38400
Mg 5.67200 53.12800 41.76300
C  5.83400 49.76300 40.66400
C  8.59000 53.63300 40.15400
C  5.28800 56.36000 42.27900
C  2.47900 52.55800 42.95800
N  6.88600 51.87800 40.34400
C  6.78900 50.55200 40.07700
C  7.84800 50.08000 39.08800
C  8.96700 51.11600 39.47900
C  8.09800 52.31300 39.99900
C  9.98500 50.55400 40.49200
C  7.33300 50.29500 37.63600
C  7.81300 49.22000 36.71800
H  6.83300 48.75200 35.55700
N  6.85300 54.81500 41.28100
C  8.06800 54.80500 40.73100
C  8.68200 56.08200 40.90200
C  7.70200 56.91400 41.41200
C  6.51100 56.03500 41.70000
C  9.97300 56.46400 40.38200
C  7.85100 58.42500 41.57400
O  8.84900 59.01000 41.17000
C  6.80300 59.25000 42.05400
N  3.96700 54.33200 42.25900
C  4.18900 55.62600 42.56100
C  2.96200 56.25100 43.22500
C  1.92800 55.01100 43.20200
C  2.87900 53.87100 42.87200
C  3.10900 56.72500 44.71600
C  0.72500 55.19100 42.20100
C  -0.67400 55.05200 42.88100
N  4.38300 51.47300 41.83500
C  3.19100 51.39400 42.54200
C  2.74300 49.97500 42.50100
C  3.80000 49.23200 41.84600
C  4.76700 50.21000 41.43900
C  1.46800 49.41300 43.10300
C  4.38200 47.92300 41.47400
O  3.89400 46.76600 41.60800
C  5.68600 48.22900 40.69700
C  5.57100 47.72600 39.38400
O  4.83900 48.13100 38.46900
O  6.44500 46.61400 39.34500
C  6.32400 45.75900 38.17200
H  9.65400 53.75600 39.94300
H  5.06400 57.39300 42.55300
H  1.50600 52.41100 43.43100
H  8.08300 49.04800 39.35000
H  9.60300 51.48100 38.67300
H  10.28400 51.38600 41.12900
H  10.81300 50.11000 39.93800
H  9.59700 49.67200 41.00200
H  7.79000 51.22600 37.30100
H  6.25900 50.40000 37.48300
H  7.98100 48.25600 37.19800
H  8.80600 49.40200 36.30600
H  9.82200 56.93500 39.41000
H  10.71000 55.66100 40.37800
H  10.48700 57.19600 41.00600
H  6.99400 60.32200 42.10100
H  6.64500 58.87000 43.06300
H  6.00700 59.08100 41.32900
H  2.61400 57.13800 42.69600
H  1.49200 54.98900 44.20100
H  3.97600 56.17700 45.08300
H  2.22200 56.42500 45.27400
H  3.41900 57.76900 44.68500
H  0.94200 54.65200 41.27800
H  0.67100 56.23800 41.90500
H  -0.77100 55.70100 43.75100
H  -0.90200 53.99600 43.02900
H  -1.37300 55.41000 42.12600
H  1.11200 48.55500 42.53300
H  0.73600 50.21700 43.17800
H  1.77200 49.11200 44.10600
H  6.60500 47.86500 41.15700
H  7.26500 45.61000 37.64200
H  5.60000 46.10200 37.43200
H  5.86700 44.85700 38.57700

