158

Mg 35.36300 3.01500 29.92100
C  33.13500 4.24500 32.43500
C  37.90900 3.44300 32.11100
C  37.44100 2.01400 27.47600
C  32.75400 2.93200 27.69400
N  35.47100 3.90500 32.03700
C  34.39000 3.93900 32.88000
C  34.86800 3.90500 34.38200
C  36.44700 3.69200 34.21800
C  36.65500 3.72100 32.68500
C  37.30700 4.73600 34.86000
C  34.10200 2.84600 35.19100
C  33.42300 3.34900 36.48100
H  34.13600 4.44000 37.24200
N  37.40500 2.65200 29.84300
C  38.30400 2.96000 30.80400
C  39.67100 2.73000 30.42900
C  39.53600 2.37800 29.03400
C  38.09500 2.35800 28.70700
C  40.81500 2.88900 31.43400
C  40.57200 1.82600 28.12000
O  40.35000 1.50600 26.99600
C  42.02000 1.72300 28.61100
N  35.13100 2.54900 27.80700
C  36.08300 2.10200 27.03200
C  35.57700 1.88800 25.63800
C  34.00400 1.72100 25.85800
C  33.93700 2.41800 27.23000
C  35.99700 3.03700 24.75000
C  33.59900 0.21000 26.00200
C  32.43100 -0.28000 24.97400
N  33.46100 3.58600 29.95100
C  32.50300 3.48500 28.95500
C  31.28400 4.06400 29.37600
C  31.53500 4.39300 30.73500
C  32.85200 4.02900 31.02000
C  29.99200 4.19100 28.60500
C  30.78200 4.78500 31.91000
O  29.60300 5.12100 32.17300
C  31.82600 4.63800 33.07100
C  31.97400 5.81700 33.87300
O  32.69400 6.75700 33.49800
O  31.21200 5.80300 34.99900
C  31.18500 7.09500 35.70600
H  38.65500 3.30100 32.89700
H  38.06600 1.52700 26.72400
H  31.91400 2.82500 27.00500
H  34.65600 4.87600 34.82900
H  36.60700 2.64700 34.48500
H  38.02900 4.14800 35.42600
H  36.65600 5.33800 35.49300
H  37.79500 5.36500 34.11600
H  34.82100 2.07200 35.46000
H  33.42800 2.34100 34.49900
H  33.34300 2.47800 37.13200
H  32.41000 3.70700 36.30100
H  40.64600 3.61600 32.22700
H  41.70400 3.27500 30.93600
H  40.93500 1.87100 31.80400
H  42.07700 1.01000 29.43400
H  42.41500 2.70300 28.87800
H  42.49200 1.39300 27.68600
H  35.86600 0.93800 25.18800
H  33.67700 2.20200 24.93600
H  35.12200 3.51800 24.31400
H  36.60500 2.77800 23.88300
H  36.52300 3.82900 25.28300
H  33.11600 0.07100 26.96900
H  34.43100 -0.49300 26.03600
H  32.61800 -1.31800 24.69700
H  32.44100 0.18700 23.98900
H  31.43100 -0.21500 25.40300
H  29.79700 3.20900 28.17400
H  30.09700 4.90700 27.79000
H  29.16000 4.54200 29.21500
H  31.40800 3.88700 33.74100
H  30.78500 7.88600 35.07100
H  32.23100 7.28700 35.94100
H  30.70100 7.03700 36.68100
Mg 6.00400 54.09200 40.75400
C  5.40500 50.77700 40.19200
C  9.25800 53.70400 39.69500
C  6.33800 57.43600 40.77300
C  2.62900 54.45100 41.79800
N  7.12300 52.44900 39.80900
C  6.72600 51.17700 39.81500
C  7.86900 50.28500 39.19400
C  9.12600 51.15000 39.58500
C  8.46300 52.52600 39.68700
C  9.85300 50.78600 40.91300
C  7.65500 50.16100 37.65400
C  7.75500 48.85600 36.94000
H  6.75000 48.62200 35.79300
N  7.55300 55.38200 40.21400
C  8.78100 55.02200 39.81700
C  9.59800 56.21600 39.55700
C  8.77600 57.33700 39.86200
C  7.49400 56.76900 40.26200
C  11.06800 56.13300 39.17200
C  9.20000 58.81600 39.87600
O  10.30000 59.13300 39.42700
C  8.36700 59.96500 40.24000
N  4.63500 55.66400 41.09300
C  5.02800 56.97800 41.07800
C  3.91100 57.93100 41.57800
C  2.75100 56.97700 41.86600
C  3.33000 55.63800 41.52500
C  4.43400 58.91700 42.73900
C  1.29500 57.29200 41.14600
C  0.20200 58.03700 41.98600
N  4.20700 52.91300 40.97500
C  3.02100 53.12900 41.56500
C  2.32000 51.87700 41.62900
C  3.18100 50.98900 41.10000
C  4.36000 51.61300 40.76200
C  0.97800 51.57800 42.36600
C  3.32900 49.55700 40.83200
O  2.53200 48.66600 41.06800
C  4.85700 49.37000 40.35900
C  4.93800 48.50500 39.10900
O  4.11300 48.31400 38.17400
O  5.87700 47.49000 39.46000
C  5.64600 46.14600 39.00800
H  10.31200 53.43300 39.61200
H  6.46500 58.51900 40.82600
H  1.59600 54.55700 42.13600
H  7.73800 49.32100 39.68600
H  9.79500 51.20100 38.72600
H  9.33400 50.00100 41.46300
H  10.05500 51.56600 41.64700
H  10.82400 50.40100 40.60100
H  8.51600 50.63200 37.18100
H  6.74500 50.63700 37.28900
H  7.65300 48.07300 37.69200
H  8.73600 48.73400 36.48100
H  11.69200 55.30700 39.51400
H  11.67900 57.01400 39.36700
H  10.97900 56.15700 38.08600
H  8.95700 60.87700 40.32800
H  8.18400 59.81900 41.30500
H  7.57200 60.00100 39.49600
H  3.67900 58.64900 40.79200
H  2.56900 57.00000 42.94000
H  3.76100 58.75700 43.58200
H  4.28000 59.97700 42.53600
H  5.48200 58.72700 42.96700
H  0.98700 56.27000 40.92200
H  1.52000 57.73600 40.17700
H  0.26100 57.88100 43.06400
H  -0.78900 57.70100 41.68000
H  0.28000 59.12200 41.90800
H  0.90700 50.61000 42.86200
H  0.11400 51.82500 41.75000
H  0.84200 52.17100 43.27100
H  5.25300 48.83900 41.22500
H  4.71200 45.82200 39.46700
H  6.45500 45.53600 39.40900
H  5.48100 46.10000 37.93100

