158

Mg 54.41400 24.74200 44.32900
C  52.20800 27.38700 43.55700
C  52.15300 22.51700 43.37900
C  56.95000 22.57700 44.34700
C  56.98300 27.26700 44.48800
N  52.51600 25.01600 43.28900
C  51.80900 26.12100 43.10000
C  50.38700 25.74900 42.60200
C  50.28800 24.20200 42.81500
C  51.70700 23.87500 43.04900
C  49.30000 23.86300 43.97800
C  50.22100 26.29800 41.10700
C  50.27500 25.30200 39.96900
H  50.30000 25.89100 38.50900
N  54.52300 22.80900 43.96000
C  53.44300 22.03400 43.71300
C  53.85700 20.71000 43.59700
C  55.25900 20.59700 43.81500
C  55.67600 22.05000 43.97300
C  52.91100 19.62100 43.12400
C  56.08400 19.30500 43.86400
O  55.56300 18.21900 43.58900
C  57.56300 19.20100 44.09300
N  56.79200 24.92500 44.27900
C  57.43300 23.85500 44.56200
C  58.90800 24.06100 44.65600
C  58.98800 25.67100 44.62200
C  57.56200 26.02400 44.43500
C  59.68000 23.40400 45.88300
C  59.90700 26.27600 43.49900
C  61.33900 26.77500 43.92400
N  54.60200 26.87800 44.29500
C  55.66200 27.70300 44.44900
C  55.17000 29.00200 44.69000
C  53.80200 28.96600 44.31600
C  53.52400 27.61800 44.00800
C  55.97800 30.21000 45.07700
C  52.62600 29.79300 44.03500
O  52.61000 31.03300 44.05200
C  51.51900 28.74900 43.66700
C  50.90900 29.26700 42.33300
O  51.46900 29.35600 41.25600
O  49.54000 29.32800 42.56600
C  48.74200 29.76300 41.39200
H  51.34000 21.78900 43.39800
H  57.67100 21.78400 44.55800
H  57.70100 28.00400 44.85600
H  49.56800 26.24600 43.12100
H  50.02100 23.64200 41.91800
H  49.59700 22.89900 44.39200
H  48.32400 23.70800 43.51900
H  49.20400 24.58600 44.78800
H  51.01900 26.92900 40.71600
H  49.29100 26.85800 41.00700
H  49.47700 24.56100 39.91700
H  51.24400 24.80900 40.04500
H  53.05100 19.35500 42.07600
H  51.92800 19.88000 43.51700
H  53.18500 18.71200 43.65800
H  57.87900 18.15900 44.14900
H  57.66300 19.53600 45.12600
H  58.08200 19.88600 43.42300
H  59.40500 23.69700 43.75700
H  59.20400 26.08200 45.60800
H  58.89000 23.04100 46.54100
H  60.31200 24.10600 46.42800
H  60.18200 22.52800 45.47300
H  59.36300 27.08800 43.01500
H  60.07800 25.55700 42.69800
H  61.41700 27.86200 43.91100
H  61.99700 26.50200 43.09900
H  61.47600 26.35200 44.91900
H  56.70200 30.39000 44.28300
H  56.53100 29.93900 45.97700
H  55.44700 31.14800 45.24000
H  50.69300 28.87700 44.36600
H  49.09800 30.74200 41.07100
H  47.65900 29.79400 41.51300
H  49.00400 28.95500 40.70900
Mg -12.21100 37.49500 41.84900
C  -10.32200 34.80800 40.45500
C  -10.11900 39.61100 40.36500
C  -14.46300 39.89400 42.66500
C  -14.55900 35.01000 42.86800
N  -10.48600 37.22600 40.64100
C  -9.85600 36.06300 40.07800
C  -8.66100 36.40000 39.12500
C  -8.52000 37.91800 39.33400
C  -9.79100 38.26000 40.23200
C  -7.15900 38.47600 39.84500
C  -8.71600 35.81300 37.68600
C  -7.41200 35.18000 37.00700
H  -6.71500 35.93600 35.96900
N  -12.23500 39.49900 41.62100
C  -11.23800 40.17000 41.03200
C  -11.58000 41.58300 41.11900
C  -12.73600 41.71500 41.85300
C  -13.22500 40.36700 42.07000
C  -10.75800 42.67100 40.50200
C  -13.53900 43.03900 42.18300
O  -13.18000 44.17400 41.74800
C  -14.71800 43.00200 43.07900
N  -14.34000 37.49500 42.35000
C  -15.02700 38.57100 42.85500
C  -16.34200 38.25200 43.45800
C  -16.26100 36.72200 43.62200
C  -15.02400 36.37200 42.78800
C  -16.74700 39.07700 44.71500
C  -17.50700 35.99200 43.09800
C  -18.19600 34.85700 43.98600
N  -12.42300 35.37300 41.71600
C  -13.36300 34.47100 42.32900
C  -12.87100 33.08000 42.31500
C  -11.72300 33.20500 41.48500
C  -11.46000 34.62000 41.22100
C  -13.45800 31.77300 42.84700
C  -10.65500 32.42200 40.93600
O  -10.52600 31.23100 40.99400
C  -9.72100 33.39600 40.16500
C  -8.23600 33.27200 40.47300
O  -7.44900 32.50900 39.89900
O  -8.05800 33.99800 41.65200
C  -6.80200 33.81200 42.41800
H  -9.38300 40.28400 39.92100
H  -15.22400 40.60300 43.00000
H  -15.24200 34.33600 43.38900
H  -7.76300 36.02200 39.61400
H  -8.66100 38.43300 38.38400
H  -6.50900 37.67000 39.50500
H  -7.26300 38.71400 40.90300
H  -6.99200 39.48500 39.46900
H  -9.11300 36.55900 36.99800
H  -9.34200 34.92000 37.68000
H  -7.58800 34.18200 36.60500
H  -6.65000 35.07200 37.78000
H  -10.63400 43.46900 41.23400
H  -11.21600 42.95400 39.55400
H  -9.74000 42.34700 40.28400
H  -15.57400 42.62300 42.52200
H  -14.85300 43.95800 43.58400
H  -14.53900 42.30800 43.90100
H  -17.18000 38.48200 42.80000
H  -15.97400 36.50400 44.65100
H  -16.11100 39.87800 45.09200
H  -16.89900 38.44300 45.58800
H  -17.76400 39.46200 44.64000
H  -17.14400 35.50100 42.19500
H  -18.25900 36.75800 42.90900
H  -19.27400 34.87700 43.82200
H  -17.97800 35.05600 45.03500
H  -17.71600 33.90300 43.76700
H  -14.49900 31.77300 42.52400
H  -13.37900 31.82800 43.93300
H  -12.91000 30.88800 42.52400
H  -10.02400 32.89100 39.24700
H  -6.78400 34.64500 43.12000
H  -6.03700 33.95500 41.65500
H  -6.62400 32.93000 43.03400

