158

Mg -2.28600 17.03300 26.11900
C  -2.73800 15.03000 28.89400
C  -2.19300 19.86100 28.19000
C  -2.30600 18.91600 23.24500
C  -2.72000 14.19300 24.04800
N  -2.50800 17.39200 28.28400
C  -2.56700 16.42600 29.26200
C  -2.78600 17.00900 30.69400
C  -2.89500 18.53500 30.38100
C  -2.53500 18.61700 28.83200
C  -4.22500 19.20800 30.68100
C  -1.59700 16.78300 31.69800
C  -2.21800 16.15100 33.00700
H  -1.27200 15.91900 34.18700
N  -2.08400 19.07000 25.73400
C  -2.06200 20.06500 26.76100
C  -1.89900 21.37600 26.09900
C  -2.11700 21.11200 24.63900
C  -2.17600 19.66200 24.45400
C  -1.72700 22.61000 26.84100
C  -2.06300 22.09300 23.47400
O  -2.18000 21.80500 22.26000
C  -1.84100 23.46900 23.86300
N  -2.43800 16.60600 23.97000
C  -2.38100 17.53800 22.94100
C  -2.70500 17.02200 21.54800
C  -2.55300 15.47800 21.85100
C  -2.55900 15.40300 23.36600
C  -4.12700 17.53900 21.13000
C  -1.27200 14.95300 21.19800
C  0.08800 15.33900 21.84000
N  -2.58900 15.01700 26.38600
C  -2.72500 13.95300 25.45800
C  -2.87000 12.70700 26.21000
C  -2.87100 13.04100 27.53600
C  -2.74400 14.47200 27.58400
C  -3.13400 11.39400 25.54600
C  -2.96000 12.56200 28.90600
O  -3.12800 11.40400 29.28100
C  -2.86900 13.79000 29.84400
C  -1.78100 13.45600 30.83300
O  -0.61200 13.73100 30.67400
O  -2.25700 12.76700 31.94100
C  -1.27600 12.51500 32.98600
H  -1.97600 20.70300 28.85000
H  -2.49300 19.49200 22.33600
H  -2.81900 13.34600 23.36600
H  -3.71200 16.58700 31.08500
H  -2.13400 19.07500 30.94500
H  -3.93600 19.96500 31.41000
H  -4.89600 18.54000 31.22000
H  -4.82700 19.60100 29.86200
H  -1.13700 17.72900 31.98300
H  -0.92000 16.15900 31.11400
H  -2.81000 15.25600 32.81600
H  -2.96300 16.91100 33.24300
H  -2.51600 23.29700 26.53600
H  -0.73600 23.05700 26.75600
H  -1.77200 22.48600 27.92300
H  -1.94600 24.09700 22.97900
H  -0.90300 23.54300 24.41300
H  -2.70600 23.75900 24.46000
H  -1.96800 17.29400 20.79200
H  -3.42900 14.95200 21.47200
H  -4.51400 18.39600 21.68000
H  -4.90000 16.77100 21.15700
H  -4.12600 17.75900 20.06200
H  -1.28500 15.13500 20.12300
H  -1.29500 13.87000 21.32000
H  -0.12300 16.07600 22.61500
H  0.71600 15.78000 21.06700
H  0.43200 14.35600 22.16300
H  -3.57500 11.56900 24.56500
H  -3.79700 10.79300 26.16700
H  -2.17000 10.89100 25.47300
H  -3.86800 13.81300 30.28100
H  -1.64800 12.95400 33.91200
H  -0.27100 12.90400 32.82000
H  -1.16200 11.43700 33.09400
Mg 41.62600 41.20000 27.34800
C  41.06900 43.52700 29.80300
C  42.41100 38.82100 29.74900
C  42.40600 39.14300 24.88500
C  41.03300 43.69300 24.87700
N  41.85800 41.30500 29.47400
C  41.31100 42.24400 30.29000
C  41.06300 41.82900 31.77400
C  41.54600 40.30000 31.62900
C  41.98300 40.11200 30.18000
C  42.71200 39.90300 32.54400
C  39.62600 42.05400 32.37100
C  39.43400 42.88600 33.67600
H  38.76500 42.13700 34.77300
N  42.30900 39.22700 27.31900
C  42.57300 38.40700 28.40700
C  42.94100 37.09900 27.93000
C  42.94000 37.12100 26.54200
C  42.57400 38.53100 26.15400
C  43.06300 35.91400 28.92700
C  43.16000 35.98100 25.56400
O  43.29700 36.19800 24.34600
C  43.52200 34.65400 26.03400
N  41.83200 41.49700 25.17400
C  42.03800 40.39000 24.38200
C  41.78400 40.71400 22.84400
C  41.15300 42.09100 22.97200
C  41.28200 42.44100 24.45500
C  43.16800 40.68400 22.06000
C  39.68700 42.08000 22.48500
C  38.54800 41.56600 23.43100
N  41.24600 43.26400 27.29500
C  41.00800 44.16600 26.24300
C  40.51100 45.37600 26.82700
C  40.48500 45.16500 28.19800
C  41.00700 43.90900 28.45500
C  40.00200 46.67300 26.17400
C  40.07900 45.72300 29.49700
O  39.54600 46.80600 29.74800
C  40.60100 44.74500 30.54900
C  41.69100 45.41400 31.23000
O  42.81100 45.70900 30.77700
O  41.27200 45.53400 32.51700
C  42.19000 46.22900 33.42400
H  42.48300 38.06100 30.53000
H  42.61900 38.46500 24.05600
H  40.63800 44.24700 24.02300
H  41.83900 42.47900 32.17800
H  40.69100 39.63700 31.76100
H  43.68200 40.03700 32.06500
H  42.52300 38.90700 32.94200
H  42.75400 40.44800 33.48700
H  39.17700 41.06600 32.47400
H  39.05700 42.63200 31.64200
H  38.77600 43.71400 33.41200
H  40.35400 43.33800 34.04800
H  42.11900 35.38000 29.03100
H  43.42200 36.35600 29.85600
H  43.91900 35.30600 28.63200
H  44.43100 34.80900 26.61500
H  43.76400 33.91400 25.27100
H  42.83800 34.23800 26.77300
H  41.20700 39.87000 22.46600
H  41.79900 42.81600 22.47700
H  43.39400 41.57500 21.47400
H  43.13200 39.88700 21.31700
H  44.01300 40.49800 22.72300
H  39.63200 41.55000 21.53400
H  39.40100 43.07300 22.13800
H  38.94400 41.12200 24.34400
H  38.08900 40.74900 22.87500
H  37.76600 42.31100 23.57700
H  40.77300 47.43800 26.27000
H  39.09300 46.82900 26.75500
H  39.81700 46.49200 25.11500
H  39.78500 44.60800 31.26000
H  42.45500 47.20700 33.02200
H  43.11700 45.65800 33.46000
H  41.57300 46.17000 34.32100

