158

Mg 2.06200 -1.20700 43.58200
C  5.43200 -0.20100 42.75000
C  0.91400 1.62800 42.06100
C  -0.95900 -2.69500 43.52400
C  3.46500 -4.20600 44.88800
N  3.07600 0.41700 42.46800
C  4.44900 0.61900 42.26300
C  4.67800 1.99600 41.62100
C  3.29900 2.67500 41.68400
C  2.32800 1.53500 42.13400
C  3.20400 3.95600 42.63700
C  5.09700 1.79000 40.13900
C  5.94800 2.81900 39.41800
H  5.38300 3.52800 38.24200
N  0.17200 -0.57900 42.98200
C  -0.12000 0.66200 42.44300
C  -1.50400 0.83600 42.37900
C  -2.11600 -0.37600 42.87300
C  -0.99700 -1.33200 43.15000
C  -2.12900 2.14100 41.85300
C  -3.60400 -0.65100 43.06900
O  -4.43000 0.27500 42.78800
C  -4.02000 -1.98900 43.50700
N  1.33100 -3.09900 44.13200
C  0.09800 -3.52800 43.89900
C  -0.14400 -5.01700 44.07500
C  1.23300 -5.40400 44.78900
C  2.07000 -4.16600 44.59500
C  -1.43800 -5.27100 44.90400
C  2.02300 -6.59600 44.19400
C  2.15700 -7.79600 45.11600
N  4.00600 -2.03500 43.95400
C  4.36900 -3.22800 44.58200
C  5.80600 -3.20100 44.77400
C  6.25000 -2.08400 44.01100
C  5.11300 -1.41500 43.51700
C  6.64400 -4.17100 45.43800
C  7.57100 -1.38200 43.58900
O  8.73300 -1.71500 43.71200
C  6.97400 -0.07500 42.89800
C  7.40500 1.09000 43.69300
O  6.79200 1.60800 44.62000
O  8.66300 1.48500 43.24900
C  8.99700 2.88000 43.73300
H  0.69400 2.64700 41.73800
H  -1.86000 -3.30100 43.40700
H  3.94000 -5.07300 45.35200
H  5.38700 2.65600 42.12000
H  3.05600 3.07000 40.69700
H  4.04600 3.96300 43.32900
H  2.29500 3.96200 43.23900
H  3.20400 4.87500 42.05200
H  4.17900 1.51800 39.61800
H  5.59200 0.84200 39.92900
H  6.78800 2.20200 39.10000
H  6.20100 3.60900 40.12600
H  -3.06300 1.84400 41.37700
H  -1.54200 2.58800 41.05100
H  -2.25700 2.95700 42.56500
H  -5.07300 -1.93100 43.78500
H  -3.57800 -2.28100 44.46000
H  -3.80500 -2.60800 42.63600
H  -0.23200 -5.32300 43.03200
H  1.06000 -5.44000 45.86400
H  -1.22000 -6.06300 45.62100
H  -2.26600 -5.54200 44.25000
H  -1.52900 -4.48100 45.65000
H  2.98000 -6.44900 43.69400
H  1.40100 -7.00100 43.39600
H  2.43800 -7.58100 46.14700
H  2.96900 -8.42100 44.74500
H  1.32500 -8.50000 45.09400
H  5.99700 -4.47000 46.26200
H  7.53000 -3.68000 45.84000
H  6.85500 -5.04500 44.82200
H  7.43700 0.06100 41.92000
H  9.75700 3.27100 43.05700
H  9.33100 2.78500 44.76600
H  8.13000 3.54000 43.68400
Mg -6.06900 25.51200 27.19700
C  -4.58000 26.72000 30.14300
C  -7.84100 23.43300 28.82400
C  -7.22200 24.32900 24.26100
C  -3.84200 27.67100 25.41900
N  -6.15300 25.06800 29.22000
C  -5.49200 25.63000 30.37500
C  -6.09100 25.19600 31.67100
C  -6.97300 23.98100 31.26500
C  -7.00300 24.17300 29.70800
C  -6.38700 22.57700 31.57600
C  -6.87700 26.35300 32.44500
C  -6.63100 26.56200 33.94300
H  -5.94200 25.45800 34.78300
N  -7.38100 24.10900 26.61400
C  -8.07500 23.36200 27.47300
C  -8.99900 22.46600 26.82700
C  -8.81700 22.67100 25.43700
C  -7.79700 23.72500 25.39000
C  -9.87600 21.50400 27.50100
C  -9.45800 21.91500 24.27200
O  -9.30400 22.26800 23.12900
C  -10.25000 20.64600 24.41500
N  -5.59700 25.95500 25.14600
C  -6.19300 25.26600 24.16100
C  -5.51600 25.54000 22.78300
C  -4.62600 26.74600 23.18300
C  -4.67300 26.82200 24.66600
C  -4.78100 24.29500 22.23500
C  -5.24400 28.05300 22.50300
C  -6.51100 28.68000 22.99000
N  -4.49600 26.90200 27.65100
C  -3.67700 27.66700 26.85100
C  -2.82400 28.56000 27.65900
C  -3.24300 28.29500 28.99900
C  -4.13000 27.19300 28.89200
C  -1.83600 29.68000 27.10000
C  -3.00700 28.62000 30.32700
O  -2.29300 29.47300 30.82000
C  -3.91900 27.60400 31.18400
C  -3.02000 26.97100 32.17500
O  -2.66000 25.75800 32.09200
O  -2.95500 27.76500 33.30400
C  -2.29500 27.21200 34.48700
H  -8.42200 22.87200 29.56000
H  -7.71400 23.93400 23.36900
H  -3.19200 28.35000 24.86200
H  -5.28000 24.81800 32.29300
H  -7.97200 23.86700 31.68700
H  -5.65700 22.79600 32.35500
H  -5.95600 22.18800 30.65300
H  -7.08400 21.85700 32.00400
H  -7.95000 26.21800 32.30700
H  -6.78500 27.35100 32.01800
H  -7.62400 26.66900 34.37900
H  -5.96500 27.41700 34.06500
H  -9.70100 20.45900 27.24400
H  -10.93400 21.71500 27.34500
H  -9.69800 21.57800 28.57400
H  -11.03800 20.81800 25.14800
H  -9.68000 19.80900 24.81900
H  -10.52300 20.33900 23.40500
H  -6.14200 25.82700 21.93800
H  -3.56200 26.56200 23.02900
H  -5.15800 23.38400 22.70000
H  -3.69400 24.35800 22.29200
H  -4.97100 24.09800 21.18000
H  -5.54300 27.75000 21.49900
H  -4.43900 28.78700 22.44500
H  -7.30000 28.56400 22.24700
H  -6.38900 29.69500 23.36900
H  -6.96200 28.06300 23.76800
H  -0.83900 29.27300 26.92700
H  -1.71600 30.52700 27.77600
H  -2.29900 30.04300 26.18300
H  -4.62600 28.31700 31.60800
H  -1.67500 27.90500 35.05600
H  -1.48400 26.49600 34.35500
H  -3.04300 26.90100 35.21700

