158

Mg 1.36600 8.47500 26.90400
C  2.01000 10.20400 29.98700
C  1.37400 5.49400 28.72600
C  1.16600 6.88600 24.00300
C  2.07300 11.47600 25.27300
N  1.75800 7.94600 29.11500
C  1.74300 8.82000 30.18200
C  1.35700 8.20400 31.48900
C  1.35500 6.64400 31.10600
C  1.48600 6.66500 29.57700
C  2.41100 5.84400 31.92400
C  -0.06700 8.73000 31.96900
C  -0.38800 8.52100 33.45100
H  0.77000 8.02700 34.28900
N  1.37600 6.47600 26.42200
C  1.36600 5.37300 27.29500
C  1.20500 4.22200 26.61400
C  0.90600 4.56600 25.27900
C  1.13400 6.02900 25.16300
C  1.16100 2.90100 27.27000
C  0.48000 3.65600 24.09400
O  0.16600 4.09200 22.97000
C  0.51800 2.16400 24.24300
N  1.82300 9.04300 24.96300
C  1.55000 8.22800 23.92600
C  1.50900 8.99000 22.59600
C  1.70200 10.45600 23.03100
C  1.83600 10.32900 24.53600
C  2.63100 8.52200 21.58800
C  0.48100 11.37300 22.63000
C  -0.89200 10.95900 23.17100
N  1.85500 10.47300 27.48400
C  2.06200 11.60400 26.71200
C  2.32900 12.80300 27.56200
C  2.29300 12.31600 28.86700
C  2.01900 10.88100 28.73100
C  2.44300 14.24000 27.17200
C  2.33800 12.62600 30.26700
O  2.71300 13.68300 30.79300
C  2.16500 11.31400 31.02400
C  3.31100 11.12200 32.01400
O  4.45800 10.99200 31.71300
O  2.83100 11.39600 33.27900
C  3.87900 11.31300 34.31900
H  1.29200 4.59700 29.34200
H  0.89600 6.31500 23.11200
H  2.34500 12.42800 24.81100
H  2.15400 8.33900 32.22000
H  0.38600 6.25700 31.42200
H  3.27600 6.48500 32.09600
H  2.77600 4.98200 31.36600
H  1.89600 5.49200 32.81800
H  -0.80400 8.03400 31.56600
H  -0.27300 9.78700 31.80300
H  -1.24400 7.85600 33.57200
H  -0.71300 9.42500 33.96700
H  0.24300 2.33200 27.12600
H  1.43500 2.79700 28.32000
H  1.80300 2.28100 26.64500
H  1.49800 1.87300 24.62200
H  0.33300 1.63300 23.31000
H  -0.26500 1.88600 24.94900
H  0.53100 8.78700 22.16100
H  2.56200 10.93200 22.56200
H  3.19900 9.31400 21.09900
H  2.29100 7.94500 20.72800
H  3.25100 7.78700 22.10100
H  0.39900 11.37200 21.54400
H  0.59200 12.41500 22.93000
H  -0.62600 10.35300 24.03800
H  -1.39100 10.41800 22.36700
H  -1.48100 11.76700 23.60400
H  1.73100 14.89500 27.67600
H  2.34400 14.28900 26.08800
H  3.43900 14.61700 27.40200
H  1.30600 11.31200 31.69500
H  4.20700 12.31800 34.58400
H  4.72100 10.70000 33.99600
H  3.46200 10.84800 35.21200
Mg 26.26800 0.68400 28.89800
C  28.09000 0.61300 31.96100
C  23.46300 1.14300 30.72500
C  24.64500 1.09400 26.00200
C  29.21500 -0.16200 27.24900
N  25.85800 0.71400 31.15000
C  26.78300 0.91200 32.14200
C  26.04000 1.22700 33.46700
C  24.51800 1.38400 33.02500
C  24.62200 1.08900 31.51700
C  23.56200 0.49900 33.84600
C  26.65500 2.57500 34.03700
C  27.32000 2.47500 35.41500
H  26.87500 3.38500 36.50500
N  24.26200 0.97100 28.39800
C  23.20900 1.04400 29.32200
C  21.93700 1.18900 28.60200
C  22.34600 1.38800 27.21000
C  23.83700 1.21200 27.09800
C  20.66000 1.20500 29.31400
C  21.47300 1.68800 25.98500
O  21.94100 1.78300 24.84400
C  19.99200 1.79700 26.13000
N  26.86000 0.46200 26.92400
C  25.99400 0.76600 25.85000
C  26.69300 0.45500 24.44500
C  28.16500 0.11000 24.89100
C  28.12200 0.11200 26.44500
C  25.99300 -0.57900 23.63000
C  29.37200 0.89000 24.23500
C  29.78600 2.17300 24.98500
N  28.24900 0.22600 29.43500
C  29.31700 -0.03200 28.65100
C  30.50300 -0.30000 29.41900
C  30.05000 -0.01100 30.71900
C  28.67400 0.27400 30.71600
C  31.81600 -0.65400 28.84000
C  30.50800 0.25500 32.14000
O  31.62300 0.24500 32.55000
C  29.26000 0.62600 32.97300
C  29.09800 -0.52000 33.99900
O  28.92400 -1.68500 33.72200
O  29.20300 -0.09200 35.30600
C  29.01700 -1.11200 36.38300
H  22.47100 1.24900 31.16800
H  24.14000 1.19800 25.03900
H  30.11000 -0.48500 26.71400
H  26.12600 0.28100 34.00000
H  24.17000 2.40500 33.18000
H  23.32000 -0.43000 33.33100
H  22.64100 1.06400 33.98800
H  23.92600 0.16600 34.81800
H  25.81700 3.26900 34.09800
H  27.30500 2.96700 33.25500
H  28.39000 2.58600 35.24200
H  27.15700 1.45200 35.75300
H  20.38700 2.16900 29.74400
H  20.69000 0.42200 30.07100
H  19.82800 1.00000 28.63900
H  19.65800 2.52000 26.87500
H  19.63300 0.81300 26.43000
H  19.42500 2.07400 25.24200
H  26.65600 1.38900 23.88400
H  28.27900 -0.95600 24.69600
H  26.58200 -1.47600 23.43800
H  25.64400 -0.16500 22.68400
H  25.08600 -0.84100 24.17600
H  29.06400 1.10100 23.21200
H  30.16900 0.17900 24.45300
H  30.08200 2.84200 24.17700
H  30.71400 2.02300 25.53700
H  28.96000 2.52800 25.60200
H  31.82300 -1.47000 28.11700
H  32.44500 -1.05500 29.63500
H  32.29800 0.22900 28.42200
H  29.38500 1.60300 33.43900
H  29.66300 -0.84100 37.21900
H  29.09200 -2.13900 36.02500
H  27.99200 -1.06200 36.75000

