158

Mg 47.64900 24.59500 28.14400
C  48.77500 26.63300 30.83900
C  46.97400 22.21100 30.67300
C  46.60100 22.67100 25.75800
C  48.76500 26.93500 25.95200
N  47.89000 24.41000 30.54100
C  48.20000 25.42000 31.37700
C  48.04700 25.02700 32.83200
C  47.70900 23.54200 32.69400
C  47.46800 23.37600 31.22300
C  48.88200 22.56800 33.14300
C  46.94700 25.95600 33.56100
C  47.25600 26.90700 34.70700
H  46.37000 26.83400 35.89400
N  46.68500 22.74700 28.20800
C  46.61200 21.89800 29.29200
C  45.92900 20.67400 28.82500
C  45.73000 20.80700 27.40100
C  46.35100 22.12300 27.05000
C  45.56200 19.59300 29.90600
C  45.06900 19.87900 26.37200
O  44.90900 20.23800 25.21800
C  44.38800 18.68000 26.90300
N  47.63200 24.78300 26.09600
C  47.16600 23.84700 25.31200
C  47.33200 24.22800 23.80600
C  47.96500 25.63600 23.90800
C  48.13100 25.85000 25.42600
C  48.14200 23.19500 22.99100
C  47.30800 26.87400 23.20100
C  48.17900 27.88700 22.57000
N  48.64200 26.31200 28.32200
C  49.00200 27.24300 27.35300
C  49.52600 28.43300 27.84100
C  49.46800 28.17500 29.26400
C  48.87700 26.89800 29.47000
C  50.08500 29.62500 27.13600
C  49.83800 28.81400 30.44500
O  50.53300 29.78100 30.65900
C  49.28300 27.86100 31.58500
C  50.35500 27.66200 32.64900
O  51.04900 26.64800 32.68900
O  50.44200 28.76000 33.47700
C  51.22000 28.58900 34.71400
H  46.68600 21.60100 31.53200
H  46.19900 22.05400 24.95200
H  49.34800 27.57100 25.28200
H  49.01900 25.19900 33.29500
H  46.79600 23.22400 33.19600
H  48.48700 21.61400 33.49400
H  49.46300 23.10300 33.89300
H  49.66800 22.37600 32.41200
H  46.22900 25.24300 33.96600
H  46.52000 26.52600 32.73600
H  47.08700 27.94100 34.40900
H  48.26400 26.81800 35.11300
H  45.15600 18.66000 29.51700
H  44.84100 19.95600 30.63900
H  46.48400 19.41200 30.45800
H  45.18900 18.07300 27.32500
H  43.92400 18.22000 26.03000
H  43.63600 18.91600 27.65600
H  46.35000 24.32600 23.34400
H  49.01600 25.61200 23.61900
H  48.31100 22.32000 23.61900
H  49.12900 23.40400 22.58000
H  47.58500 22.95800 22.08400
H  46.63300 27.37500 23.89500
H  46.65300 26.34600 22.50800
H  47.68900 28.06700 21.61300
H  49.13200 27.45300 22.26800
H  48.39600 28.79900 23.12600
H  50.37600 30.33100 27.91400
H  49.24400 29.94900 26.52200
H  50.89100 29.32900 26.46400
H  48.43500 28.41300 31.99300
H  51.22300 29.54000 35.24700
H  52.23500 28.19200 34.69200
H  50.52900 28.01600 35.33300
Mg 30.55800 57.34600 40.83000
C  27.87700 55.78700 39.33100
C  32.59300 55.14600 39.21600
C  33.07100 59.41500 41.51200
C  28.24600 59.92800 41.79300
N  30.21500 55.76500 39.33700
C  29.04700 55.17500 38.97500
C  29.20300 54.09400 37.90500
C  30.73500 53.66900 38.23100
C  31.19100 54.93400 38.96600
C  30.80000 52.34600 39.04800
C  29.04700 54.62300 36.43000
C  28.61100 53.59600 35.38100
H  27.82500 54.05000 34.16500
N  32.59600 57.28600 40.52300
C  33.22200 56.25300 39.93100
C  34.60600 56.31600 40.19200
C  34.85500 57.65600 40.67600
C  33.50600 58.19700 41.00700
C  35.57000 55.36400 39.58800
C  36.24300 58.32400 40.90400
O  37.24500 57.75700 40.56900
C  36.37100 59.57800 41.67200
N  30.61400 59.36000 41.60200
C  31.76100 59.90600 41.80900
C  31.63700 61.29700 42.53200
C  30.06600 61.35400 42.80000
C  29.61000 60.12600 41.99900
C  32.56600 61.67000 43.72600
C  29.37600 62.75700 42.51200
C  28.19300 63.22400 43.41400
N  28.42400 57.74400 40.84500
C  27.64400 58.79200 41.22700
C  26.26300 58.58900 40.91100
C  26.30700 57.39700 40.18400
C  27.62200 56.90200 40.19100
C  25.09100 59.49400 41.24300
C  25.46400 56.45800 39.47200
O  24.24900 56.55300 39.25900
C  26.47000 55.35300 38.86500
C  26.10100 54.05000 39.46100
O  26.82700 53.33800 40.10900
O  24.96900 53.65200 38.88500
C  24.47700 52.28100 39.00200
H  33.22800 54.28600 38.99500
H  33.82300 60.13400 41.84500
H  27.45600 60.63400 42.05700
H  28.53600 53.26000 38.12200
H  31.28800 53.62500 37.29400
H  31.79300 52.21300 39.47900
H  30.51100 51.55900 38.35100
H  30.01300 52.27200 39.79900
H  30.03300 54.95300 36.10000
H  28.41000 55.50600 36.45900
H  28.03100 52.79000 35.83000
H  29.46500 53.10700 34.91000
H  35.48000 55.55100 38.51800
H  35.33200 54.31900 39.78600
H  36.61500 55.54200 39.84600
H  37.40100 59.91400 41.79400
H  36.02000 59.46500 42.69800
H  35.69400 60.29900 41.21200
H  31.87000 62.08200 41.81300
H  29.93700 61.05400 43.84000
H  32.01900 62.06100 44.58400
H  33.32900 62.39800 43.44900
H  33.27100 60.89400 44.02300
H  29.04100 62.65700 41.48000
H  30.14200 63.52200 42.64300
H  27.75400 62.30200 43.79700
H  27.45700 63.79600 42.84800
H  28.53300 63.67700 44.34500
H  25.22000 60.06000 42.16600
H  24.18900 58.88900 41.14800
H  24.97900 60.21000 40.42900
H  26.38800 55.50800 37.78900
H  24.94800 51.73900 39.82200
H  24.32900 51.82400 38.02300
H  23.47100 52.49100 39.36700

