158

Mg 53.24800 23.54700 44.50700
C  50.67100 25.86000 43.66400
C  51.12900 20.95000 43.54100
C  55.99200 21.54700 44.39900
C  55.38300 26.30300 44.99900
N  51.19300 23.51100 43.44700
C  50.32500 24.50300 43.37600
C  48.98900 23.98500 42.84800
C  49.00100 22.47800 43.21800
C  50.57800 22.23200 43.43400
C  48.27100 21.99500 44.51500
C  48.58700 24.28400 41.33500
C  49.70300 24.00500 40.33500
H  49.43900 24.22000 38.82300
N  53.47800 21.44100 44.25700
C  52.49100 20.61600 43.85700
C  53.08500 19.25500 43.79600
C  54.48400 19.39100 44.06100
C  54.75500 20.81200 44.23500
C  52.13800 18.12200 43.54200
C  55.42200 18.18000 43.95500
O  55.05200 17.11200 43.37900
C  56.89800 18.37100 44.37600
N  55.43600 23.91800 44.55900
C  56.24100 22.87800 44.63900
C  57.72500 23.35300 44.93600
C  57.48600 24.86000 45.35700
C  56.06400 25.10000 44.87100
C  58.48400 22.50500 46.06200
C  58.49500 25.83400 44.65400
C  59.98500 25.49000 44.72500
N  53.13300 25.61100 44.33600
C  54.08700 26.63800 44.60200
C  53.46700 27.91600 44.50000
C  52.14200 27.68700 44.19100
C  51.95900 26.27700 44.04300
C  54.09900 29.19200 44.94100
C  50.91100 28.31600 43.88100
O  50.71000 29.51500 43.75700
C  49.81700 27.17800 43.52500
C  49.38300 27.41000 42.11000
O  50.12800 27.58300 41.16700
O  48.03400 27.49900 42.00400
C  47.45000 27.91000 40.70900
H  50.47800 20.12700 43.23600
H  56.87800 20.91000 44.37600
H  56.04200 27.14500 45.22000
H  48.28500 24.46500 43.52800
H  48.63400 21.83700 42.41700
H  48.91700 21.33800 45.09800
H  47.40300 21.42800 44.17900
H  48.11000 22.93200 45.04700
H  48.13100 25.26900 41.23200
H  47.73900 23.70800 40.96400
H  49.87700 22.92900 40.33800
H  50.66600 24.46300 40.55900
H  52.68100 17.21100 43.29200
H  51.39200 18.38000 42.79000
H  51.61500 17.93700 44.48100
H  57.41300 19.07900 43.72700
H  57.25800 17.34300 44.42600
H  56.88500 18.73500 45.40300
H  58.26000 23.23900 43.99300
H  57.61800 24.90600 46.43800
H  57.76700 21.71100 46.27000
H  58.80900 23.07500 46.93200
H  59.24000 21.94300 45.51200
H  58.27900 26.83500 45.02500
H  58.19100 25.70300 43.61500
H  60.19300 24.58800 45.30000
H  60.41400 26.38100 45.18500
H  60.48100 25.38600 43.76000
H  53.41300 30.03800 44.95800
H  54.95000 29.50600 44.33700
H  54.44400 29.09300 45.97000
H  49.00500 27.17300 44.25200
H  46.82100 28.77300 40.92900
H  46.90400 27.16500 40.13100
H  48.17500 28.20200 39.94900
Mg -9.27100 18.55400 42.94200
C  -5.82200 18.08000 43.14200
C  -8.75900 21.83500 42.28700
C  -12.56200 18.83500 42.29100
C  -9.71400 14.99800 43.00200
N  -7.44200 19.68300 42.43900
C  -6.15700 19.36700 42.77200
C  -5.18500 20.63200 42.51700
C  -6.24200 21.80700 42.49400
C  -7.57500 21.04600 42.35700
C  -6.20200 22.68700 43.82100
C  -4.25500 20.71400 41.19100
C  -4.72500 20.08100 39.79200
H  -4.74100 21.04000 38.61200
N  -10.52200 20.16300 42.39900
C  -10.09500 21.44800 42.23100
C  -11.18900 22.26000 41.94700
C  -12.34400 21.35600 41.81600
C  -11.85000 20.03100 42.19100
C  -11.13900 23.68700 41.68600
C  -13.73900 21.75200 41.40700
O  -14.06800 22.91400 41.26500
C  -14.88400 20.84100 41.33300
N  -10.98400 17.08800 42.64100
C  -12.23400 17.47000 42.48300
C  -13.22600 16.22000 42.65300
C  -12.25500 14.99600 42.83100
C  -10.94200 15.72300 42.86000
C  -14.40300 16.27100 43.68300
C  -12.35400 13.87900 41.75700
C  -13.38000 12.75500 42.06200
N  -8.03900 16.88300 43.02300
C  -8.34900 15.52500 43.15900
C  -7.10200 14.80100 43.40200
C  -6.06000 15.77900 43.41200
C  -6.68600 17.00900 43.12900
C  -6.94500 13.28300 43.50500
C  -4.59900 15.97300 43.47300
O  -3.68500 15.15200 43.56900
C  -4.37500 17.50400 43.32300
C  -3.75800 17.97900 44.62700
O  -2.78300 18.68200 44.69000
O  -4.48000 17.54100 45.66700
C  -3.89300 17.92600 46.94800
H  -8.60400 22.91500 42.34200
H  -13.64900 18.91900 42.23400
H  -9.73100 13.90700 43.05300
H  -4.52300 20.61500 43.38200
H  -6.11500 22.37000 41.56900
H  -7.07700 22.53800 44.45400
H  -6.28400 23.74700 43.58200
H  -5.31700 22.47000 44.41900
H  -3.24400 20.40800 41.45800
H  -4.22000 21.79200 41.03200
H  -5.76500 19.77400 39.90600
H  -4.08500 19.24100 39.52400
H  -11.05000 23.88700 40.61800
H  -10.27300 24.13400 42.17500
H  -11.97800 24.31200 41.99000
H  -15.10800 20.48900 42.34000
H  -14.57300 19.94900 40.78800
H  -15.75000 21.27200 40.83100
H  -13.73700 16.12800 41.69500
H  -12.38700 14.57000 43.82600
H  -14.33900 17.22900 44.19900
H  -14.47100 15.47400 44.42400
H  -15.33700 16.23000 43.12300
H  -11.41200 13.40000 41.48800
H  -12.68100 14.38300 40.84800
H  -13.68200 12.71800 43.10900
H  -12.87300 11.81900 41.82900
H  -14.20200 12.93800 41.37000
H  -6.03200 13.02000 44.04000
H  -6.80300 12.81900 42.52900
H  -7.83700 12.84900 43.95700
H  -3.64700 17.51500 42.51200
H  -4.63800 17.89200 47.74300
H  -3.50600 18.94500 46.96000
H  -3.14900 17.16200 47.17400

