158

Mg 17.51000 -0.30000 27.41000
C  16.41800 1.53300 30.22700
C  19.54400 -2.11300 29.66000
C  18.97300 -1.60000 24.83300
C  15.79700 1.99300 25.42900
N  17.82000 -0.44200 29.74500
C  17.25000 0.43800 30.62700
C  17.58700 0.05200 32.02200
C  18.70500 -1.02000 31.84200
C  18.73600 -1.25900 30.34200
C  20.07200 -0.78400 32.50100
C  16.39400 -0.44900 32.89900
C  16.40300 -0.05800 34.43400
H  17.72400 0.47100 35.07700
N  18.92100 -1.73700 27.23500
C  19.55700 -2.46200 28.26800
C  20.44600 -3.45100 27.71200
C  20.43900 -3.31200 26.27000
C  19.41300 -2.21300 26.05300
C  21.22600 -4.48500 28.58400
C  21.06000 -4.05800 25.21500
O  20.87900 -3.84300 24.01300
C  21.98400 -5.12000 25.50700
N  17.36300 0.09600 25.38100
C  18.15300 -0.56200 24.50600
C  17.86700 -0.03700 23.03300
C  16.60700 0.96900 23.24200
C  16.54700 1.03200 24.77000
C  19.06400 0.57000 22.27300
C  15.29200 0.59800 22.58100
C  14.41800 -0.38500 23.45500
N  16.21900 1.35200 27.67100
C  15.61100 2.18400 26.73800
C  14.86200 3.23400 27.39400
C  15.16200 2.99300 28.80000
C  16.02600 1.84600 28.89000
C  14.06000 4.35300 26.87300
C  14.98700 3.50800 30.16300
O  14.34400 4.46800 30.51300
C  15.76700 2.56200 31.06200
C  16.70700 3.32500 32.02200
O  17.89600 3.58400 31.96000
O  15.89100 3.66300 33.08700
C  16.39200 4.60600 34.12800
H  20.10000 -2.77200 30.33000
H  19.43700 -1.99500 23.92700
H  15.28800 2.72600 24.79900
H  18.07700 0.89600 32.50500
H  18.34900 -1.87700 32.41300
H  20.05400 0.18300 33.00300
H  20.89900 -0.89900 31.80000
H  20.39400 -1.44700 33.30400
H  16.29100 -1.52500 32.75500
H  15.48900 -0.00600 32.48500
H  16.10900 -0.95300 34.98300
H  15.60400 0.67000 34.57400
H  21.40600 -5.43900 28.08900
H  20.63900 -4.78000 29.45400
H  22.17800 -4.05000 28.89100
H  22.83000 -4.79400 26.11100
H  22.52400 -5.48100 24.63100
H  21.39200 -5.90100 25.98600
H  17.52000 -0.95300 22.55500
H  16.90500 1.96300 22.90900
H  19.85100 1.12100 22.78800
H  18.67200 1.20300 21.47600
H  19.66200 -0.21800 21.81700
H  15.47400 0.07400 21.64200
H  14.81700 1.55500 22.36600
H  14.25500 0.20400 24.35800
H  15.00500 -1.28900 23.61500
H  13.45800 -0.59500 22.98200
H  12.98200 4.18700 26.86600
H  14.31000 4.66600 25.86000
H  14.31500 5.17300 27.54500
H  15.11100 2.03000 31.75100
H  15.77100 4.48300 35.01600
H  16.27000 5.67500 33.95500
H  17.43400 4.41700 34.38800
Mg 48.26200 16.60400 28.33200
C  46.10100 16.57300 31.19900
C  50.44300 18.62400 30.14300
C  50.11300 16.78100 25.52400
C  45.68700 15.09900 26.59000
N  48.24900 17.52900 30.42100
C  47.36400 17.21700 31.45400
C  47.89200 17.67300 32.81200
C  49.13200 18.58100 32.37600
C  49.31100 18.17400 30.88900
C  48.97700 20.15200 32.56400
C  48.46900 16.46700 33.62000
C  48.03000 16.36400 35.10800
H  47.57000 17.65200 35.80000
N  50.10800 17.58100 27.87500
C  50.86400 18.35700 28.78400
C  52.05700 18.73400 28.07700
C  51.99400 18.16500 26.75100
C  50.67900 17.53300 26.61400
C  53.09000 19.44100 28.76900
C  53.08100 18.14000 25.63700
O  52.87400 17.63400 24.53400
C  54.44700 18.61000 25.99600
N  47.91700 16.10700 26.34700
C  48.92000 16.10400 25.46400
C  48.52100 15.44400 24.14000
C  47.06000 15.03100 24.37300
C  46.85500 15.40800 25.87000
C  48.49700 16.55300 23.04400
C  46.68700 13.51700 23.92900
C  45.47000 13.43900 22.95500
N  46.36600 15.90000 28.77200
C  45.39300 15.29100 27.98900
C  44.20200 15.00700 28.68700
C  44.44300 15.44000 29.98800
C  45.73100 15.98900 29.99900
C  43.01400 14.30500 28.05200
C  43.95600 15.51300 31.32900
O  42.93300 15.05700 31.74900
C  45.04200 16.36100 32.23200
C  44.46400 17.61500 32.85700
O  44.43800 18.70000 32.28500
O  43.99400 17.27100 34.02800
C  42.71600 17.80700 34.50400
H  51.19000 19.13400 30.75400
H  50.77100 16.66400 24.66000
H  44.99600 14.48800 26.00600
H  47.11500 18.20600 33.36000
H  50.11600 18.41700 32.81500
H  49.68900 20.68200 33.19500
H  47.99400 20.37200 32.98000
H  48.99300 20.61700 31.57800
H  49.55600 16.51000 33.55700
H  48.01800 15.55100 33.23900
H  48.91100 16.10300 35.69400
H  47.28200 15.57100 35.08800
H  53.97400 18.82000 28.91300
H  52.85100 19.92500 29.71700
H  53.42600 20.14900 28.01200
H  54.45600 19.69900 26.04000
H  55.01200 18.45600 25.07700
H  54.92700 18.17800 26.87500
H  49.17000 14.58000 23.99200
H  46.32700 15.63600 23.83900
H  48.89300 17.54300 23.27000
H  47.53600 16.66200 22.54200
H  49.12400 16.08600 22.28500
H  46.43200 12.91200 24.79900
H  47.56700 13.05000 23.48700
H  45.80000 13.52500 21.92000
H  44.72100 14.19300 23.20000
H  45.02100 12.44700 22.99200
H  43.55100 13.40200 27.76200
H  42.74200 14.75000 27.09500
H  42.15400 14.17400 28.70800
H  45.38600 15.72200 33.04600
H  42.94200 18.49800 35.31500
H  42.03400 17.03400 34.85900
H  42.16100 18.29100 33.70100

