158

Mg 35.45000 1.34400 29.49200
C  33.13300 2.53700 31.74400
C  37.87900 1.83300 32.01700
C  37.82100 0.25700 27.44800
C  33.19500 1.52100 26.95100
N  35.52900 2.31400 31.59000
C  34.38000 2.38400 32.34000
C  34.74800 2.50000 33.82600
C  36.19100 2.78400 33.75600
C  36.60800 2.17500 32.36300
C  36.63600 4.23400 34.01500
C  34.22200 1.21100 34.69600
C  34.32300 1.26600 36.27700
H  34.91900 2.53100 36.89900
N  37.67400 1.17400 29.66900
C  38.42200 1.37300 30.81700
C  39.77400 0.98000 30.51300
C  39.74500 0.36500 29.22300
C  38.37200 0.57200 28.68200
C  40.82200 1.05200 31.62000
C  40.81400 -0.25100 28.43200
O  40.74800 -0.54300 27.25900
C  42.11600 -0.42900 29.16900
N  35.48500 0.94200 27.54000
C  36.59300 0.51900 26.82700
C  36.32600 0.32100 25.34300
C  34.79000 0.62600 25.23900
C  34.40300 1.03400 26.65600
C  37.10800 1.36100 24.45400
C  33.81900 -0.62800 24.76900
C  33.82800 -1.86500 25.59100
N  33.54900 1.84600 29.28200
C  32.74200 1.94400 28.21500
C  31.44300 2.48900 28.59200
C  31.54700 2.72300 30.06500
C  32.84500 2.33000 30.36900
C  30.32200 2.62000 27.65400
C  30.92100 3.18800 31.22600
O  29.77700 3.62400 31.42200
C  31.89700 2.95500 32.36700
C  32.11000 4.29600 33.06000
O  32.63500 5.25400 32.54900
O  31.60000 4.25500 34.29300
C  31.98900 5.46400 35.04500
H  38.57000 2.06300 32.83000
H  38.56400 -0.11500 26.73900
H  32.46300 1.59900 26.14400
H  34.33800 3.40100 34.28100
H  36.73600 2.20800 34.50300
H  35.81100 4.94400 33.95900
H  37.37200 4.53300 33.26900
H  37.17700 4.32500 34.95700
H  34.87100 0.40700 34.35000
H  33.24300 1.05300 34.24400
H  34.87800 0.33600 36.39600
H  33.33600 1.08100 36.70100
H  41.12900 0.01200 31.72600
H  40.43600 1.34400 32.59700
H  41.66500 1.68600 31.34400
H  41.90500 -1.22400 29.88500
H  42.55500 0.50300 29.52300
H  42.82000 -0.86600 28.46100
H  36.52600 -0.69300 24.99700
H  34.54800 1.41900 24.53200
H  37.83900 1.97900 24.97500
H  36.44700 1.87200 23.75500
H  37.81300 0.73600 23.90500
H  34.06100 -0.99300 23.77100
H  32.80800 -0.25000 24.61200
H  34.87100 -1.95000 25.89800
H  33.59000 -2.75400 25.00700
H  33.14500 -1.75400 26.43300
H  30.54500 2.10700 26.71900
H  29.99400 3.63200 27.41700
H  29.49200 2.12800 28.16200
H  31.49100 2.27000 33.11100
H  32.96800 5.93000 34.93000
H  31.93200 5.26400 36.11500
H  31.31500 6.29800 34.85100
Mg 47.38000 44.79900 43.67100
C  43.84700 45.13500 43.17700
C  47.30700 41.69300 42.28700
C  50.82500 44.62300 43.83100
C  47.53800 48.22700 44.54300
N  45.76200 43.59700 42.71200
C  44.36900 43.89500 42.72900
C  43.60800 42.84600 41.93200
C  44.74200 41.70500 41.80400
C  46.03700 42.36000 42.31900
C  44.32300 40.41300 42.59000
C  43.21200 43.54800 40.58600
C  42.04500 43.04900 39.70100
H  42.33600 41.99100 38.62400
N  48.86500 43.30500 43.28500
C  48.60000 42.13200 42.71800
C  49.79400 41.34400 42.60500
C  50.84900 42.13600 43.20600
C  50.18700 43.44600 43.48200
C  49.81100 39.88000 42.03800
C  52.25700 41.66600 43.48700
O  52.56400 40.51700 43.18400
C  53.20500 42.50000 44.23600
N  48.98500 46.20900 44.06900
C  50.30100 45.91600 44.09700
C  51.17100 47.14400 44.42100
C  50.11700 48.25200 44.76100
C  48.76200 47.54400 44.44500
C  52.20700 46.92400 45.50800
C  50.27900 49.53000 43.96700
C  50.47700 50.87400 44.70400
N  45.99800 46.43300 43.91200
C  46.19700 47.74300 44.22300
C  44.89100 48.40100 44.32000
C  43.98500 47.45000 43.92100
C  44.66200 46.24000 43.65100
C  44.63300 49.90000 44.49100
C  42.55100 47.16300 43.68900
O  41.62900 47.98400 43.83100
C  42.43000 45.69600 43.18900
C  41.44500 44.94400 44.09200
O  40.31200 44.62200 43.75500
O  42.05700 44.68400 45.27800
C  41.20100 44.01500 46.25300
H  47.19700 40.77800 41.70100
H  51.91100 44.50400 43.82400
H  47.50100 49.20600 45.02500
H  42.72000 42.49500 42.45700
H  44.85000 41.31300 40.79200
H  43.80000 39.79500 41.85900
H  43.58300 40.66400 43.35000
H  45.18700 39.87100 42.97300
H  44.02900 43.40000 39.88000
H  43.19700 44.62800 40.73100
H  41.69800 43.99300 39.28100
H  41.30100 42.65600 40.39400
H  50.72900 39.48400 41.60300
H  48.99000 39.64100 41.36200
H  49.69100 39.20700 42.88700
H  53.67800 43.30500 43.67500
H  53.99500 41.80200 44.51200
H  52.77700 42.82000 45.18600
H  51.66100 47.47600 43.50500
H  50.01500 48.42800 45.83200
H  51.80400 46.16400 46.17700
H  52.32700 47.85300 46.06600
H  53.20400 46.66300 45.15400
H  49.30900 49.66500 43.49000
H  50.98700 49.46100 43.14100
H  49.72400 51.58200 44.35800
H  51.47800 51.27100 44.53400
H  50.40400 50.68100 45.77400
H  44.15300 50.27800 43.58800
H  45.56600 50.45800 44.57500
H  44.10300 50.11900 45.41700
H  41.87200 45.71300 42.25300
H  41.40600 44.48800 47.21400
H  41.54700 42.99500 46.42100
H  40.12600 43.97700 46.07500

