158

Mg 23.79700 -5.40300 45.48600
C  25.66100 -2.79900 44.05700
C  21.13000 -4.35800 43.42500
C  22.38000 -8.50500 45.90500
C  26.75100 -6.57700 46.92100
N  23.47800 -3.82000 43.88500
C  24.42800 -2.91000 43.51400
C  23.92000 -2.04300 42.33100
C  22.36800 -2.26800 42.42900
C  22.26300 -3.55700 43.25700
C  21.64900 -1.04000 43.16400
C  24.57400 -2.44200 40.99700
C  25.00700 -1.38100 40.00900
H  24.68800 -1.65800 38.47600
N  22.06800 -6.30200 44.87600
C  21.07500 -5.61800 44.06500
C  19.90300 -6.49900 44.09100
C  20.21100 -7.66300 44.80700
C  21.58700 -7.53600 45.29100
C  18.57600 -6.13100 43.40200
C  19.23500 -8.80800 45.10200
O  18.12200 -8.82300 44.58900
C  19.47800 -9.97100 45.96400
N  24.41700 -7.21800 46.43800
C  23.65400 -8.38000 46.46800
C  24.45800 -9.52500 47.17300
C  25.69700 -8.81900 47.74500
C  25.62900 -7.39700 47.00700
C  23.65600 -10.20300 48.31700
C  26.97700 -9.66300 47.63500
C  27.98200 -9.41500 48.83600
N  25.78800 -4.78300 45.62500
C  26.88900 -5.35100 46.25200
C  28.00300 -4.49200 46.24200
C  27.59500 -3.40300 45.37100
C  26.20200 -3.65100 45.06100
C  29.37300 -4.64300 46.95700
C  28.04400 -2.15400 44.69600
O  29.13300 -1.64800 44.54600
C  26.77000 -1.79400 43.77600
C  26.39600 -0.44100 44.16400
O  26.04800 -0.09100 45.26500
O  26.57600 0.43200 43.07200
C  26.79700 1.88200 43.38000
H  20.23900 -3.94400 42.94700
H  21.82100 -9.44200 45.93500
H  27.67100 -6.94600 47.38000
H  24.10700 -1.00500 42.60700
H  21.84900 -2.40300 41.48000
H  22.10400 -0.84800 44.13600
H  20.58800 -1.23700 43.31600
H  21.76400 -0.25600 42.41600
H  23.86700 -3.04800 40.43000
H  25.41500 -3.07100 41.29000
H  26.08500 -1.31200 40.15600
H  24.61700 -0.42400 40.35700
H  18.13700 -6.96800 42.85800
H  18.72700 -5.40100 42.60700
H  17.81800 -5.71300 44.06500
H  18.51800 -10.48600 45.97900
H  19.81300 -9.69200 46.96300
H  20.22800 -10.55500 45.43000
H  24.72400 -10.17100 46.33700
H  25.65300 -8.51900 48.79200
H  23.90100 -9.65300 49.22500
H  23.81500 -11.28200 48.33100
H  22.59500 -10.04100 48.12800
H  27.51800 -9.43400 46.71700
H  26.82200 -10.74200 47.66800
H  27.62700 -10.10800 49.59800
H  28.18500 -8.40400 49.19100
H  28.93400 -9.80300 48.47500
H  29.26700 -5.50900 47.61100
H  29.82100 -3.84400 47.54800
H  29.95000 -4.96600 46.09000
H  27.06000 -1.87200 42.72900
H  26.85500 2.27500 44.39600
H  25.98500 2.44300 42.91800
H  27.77900 2.19200 43.02200
Mg 6.46000 53.96900 40.73500
C  5.42000 50.55600 40.45800
C  9.58100 53.02200 39.75100
C  7.01100 57.18900 40.27000
C  3.03600 54.66000 41.77900
N  7.20200 52.10300 39.85900
C  6.67500 50.82100 39.85400
C  7.64900 49.80400 39.15000
C  9.00100 50.52600 39.47600
C  8.60300 52.01200 39.66500
C  9.70800 49.90500 40.75600
C  7.22900 49.66800 37.65400
C  7.59500 48.26800 36.93500
H  6.73200 47.84900 35.80200
N  8.15900 54.96700 40.12100
C  9.33300 54.39200 39.81100
C  10.23800 55.43200 39.55000
C  9.60400 56.69000 39.71300
C  8.14400 56.34300 40.01800
C  11.72700 55.20500 39.15600
C  10.22400 58.01200 39.51100
O  11.42600 58.13000 39.20600
C  9.43100 59.30000 39.50800
N  5.17800 55.60800 40.81900
C  5.68100 56.89200 40.65300
C  4.52900 57.94000 40.92700
C  3.38800 57.08700 41.57500
C  3.96000 55.68800 41.47200
C  4.94100 59.18600 41.79300
C  1.95500 57.15100 40.90500
C  1.40900 58.60300 40.59500
N  4.60400 52.86300 41.17500
C  3.41400 53.27900 41.68400
C  2.51800 52.14300 41.98700
C  3.31500 51.06300 41.56200
C  4.51000 51.53600 41.05300
C  1.17400 52.11600 42.55700
C  3.41600 49.60600 41.36600
O  2.61500 48.70100 41.65300
C  4.85200 49.19800 40.77100
C  4.69900 48.29000 39.57300
O  4.21400 48.52600 38.49700
O  5.05100 47.01100 39.94900
C  5.02900 45.92600 38.97000
H  10.58300 52.66600 39.49800
H  7.13000 58.27400 40.30300
H  2.06300 54.95200 42.18000
H  7.57800 48.83200 39.63800
H  9.66500 50.31300 38.63800
H  9.13700 49.13600 41.27800
H  9.92300 50.71300 41.45600
H  10.61500 49.40600 40.41700
H  7.82200 50.45300 37.18500
H  6.21600 50.00500 37.43100
H  7.60200 47.52900 37.73700
H  8.61200 48.49100 36.61300
H  11.90100 54.13300 39.06500
H  12.40900 55.62400 39.89600
H  11.96200 55.63500 38.18300
H  10.04500 60.19200 39.37500
H  8.97800 59.20500 40.49400
H  8.81100 59.29100 38.61200
H  4.17100 58.25300 39.94600
H  3.18900 57.25500 42.63300
H  4.06200 59.64200 42.24800
H  5.40700 59.88300 41.09600
H  5.73300 58.96000 42.50700
H  1.28900 56.65100 41.60800
H  2.02900 56.63800 39.94600
H  2.05600 59.34400 41.06500
H  0.36500 58.72900 40.88000
H  1.44300 58.61100 39.50500
H  0.64000 53.06600 42.54600
H  1.16900 51.74300 43.58100
H  0.64500 51.31000 42.04700
H  5.47200 48.68100 41.50400
H  4.20800 45.99600 38.25600
H  5.06700 44.96000 39.47300
H  5.88000 46.09400 38.31100

