158

Mg 39.76200 8.76300 29.20900
C  41.66100 10.01200 31.89900
C  37.76200 7.17100 31.36400
C  38.03800 7.48600 26.53800
C  42.23100 9.87900 27.05100
N  39.65300 8.58600 31.40500
C  40.53500 9.28900 32.28100
C  39.97700 9.09700 33.73800
C  38.67500 8.19800 33.52900
C  38.72000 7.89300 32.07000
C  38.53500 6.94800 34.42300
C  39.75400 10.43400 34.44500
C  38.82700 10.59300 35.62600
H  39.27100 11.37300 36.91800
N  38.06000 7.57000 28.98200
C  37.40100 6.96200 30.02300
C  36.23600 6.24600 29.48400
C  36.23500 6.42100 28.10500
C  37.48000 7.22100 27.83000
C  35.26300 5.53700 30.50700
C  35.19900 5.77400 27.18900
O  35.40900 5.76900 26.01600
C  34.05100 5.01000 27.58900
N  40.18600 8.55100 27.14600
C  39.25700 8.13500 26.23700
C  39.78000 8.37800 24.77000
C  40.81400 9.40300 24.97400
C  41.10900 9.33000 26.47400
C  40.40300 7.13700 24.09200
C  40.38800 10.87000 24.59000
C  38.91500 11.26100 24.66600
N  41.67800 9.63400 29.35100
C  42.54700 9.96300 28.43300
C  43.74500 10.47800 29.06600
C  43.49400 10.58200 30.42200
C  42.15300 10.03500 30.56400
C  44.87800 11.05600 28.22000
C  43.88100 11.07100 31.66800
O  44.84000 11.71800 31.97300
C  42.75300 10.70700 32.72900
C  43.40100 9.95500 33.80800
O  43.72700 8.77900 33.65700
O  43.62100 10.83500 34.81700
C  44.38200 10.29300 35.93700
H  37.03100 6.64100 31.97900
H  37.53500 7.16300 25.62400
H  42.94100 10.46100 26.46000
H  40.61900 8.50500 34.39000
H  37.83000 8.86400 33.70400
H  37.52200 6.85400 34.81200
H  39.25100 7.05600 35.23900
H  38.83600 6.12400 33.77600
H  39.20200 10.96000 33.66600
H  40.76300 10.84200 34.50800
H  38.64300 9.63200 36.10500
H  37.89100 11.03200 35.28100
H  34.64600 4.77600 30.03000
H  34.65000 6.32900 30.93700
H  35.91800 5.12800 31.27700
H  33.54200 5.65400 28.30600
H  34.48900 4.07000 27.92500
H  33.37100 4.92400 26.74200
H  38.88900 8.69600 24.22900
H  41.67400 9.24400 24.32300
H  39.89900 7.02900 23.13100
H  40.15500 6.28600 24.72600
H  41.49200 7.19200 24.10800
H  40.58700 10.91100 23.51900
H  40.90700 11.72500 25.02400
H  38.50600 11.36000 23.66000
H  38.91400 12.23500 25.15500
H  38.26800 10.57300 25.21000
H  45.82600 10.98100 28.75300
H  44.72000 12.10200 27.95600
H  45.03500 10.45700 27.32300
H  42.46800 11.69300 33.09700
H  43.71700 9.73100 36.59300
H  44.85900 11.14500 36.42200
H  45.14000 9.55000 35.68900
Mg 0.45200 43.16900 25.25700
C  2.88000 42.29500 27.65500
C  -1.86400 43.27600 27.81300
C  -1.90500 43.38800 22.97900
C  2.79900 42.48600 22.70100
N  0.53500 42.70600 27.43300
C  1.62700 42.40900 28.23700
C  1.19800 42.30800 29.70800
C  -0.37800 42.29000 29.59700
C  -0.65900 42.76000 28.19400
C  -0.97900 40.89900 29.72600
C  1.63400 43.54400 30.57800
C  1.41300 43.44900 32.06300
H  1.18800 42.12600 32.66700
N  -1.60300 43.52600 25.37300
C  -2.35900 43.56700 26.49400
C  -3.76100 43.99900 26.15300
C  -3.82300 43.92700 24.73400
C  -2.47100 43.56800 24.26100
C  -4.73500 44.49600 27.18300
C  -5.00700 44.09100 23.89200
O  -4.93800 43.75000 22.71500
C  -6.26100 44.31900 24.50000
N  0.49500 43.01800 23.10600
C  -0.64100 43.22400 22.43800
C  -0.37200 43.11100 20.93700
C  1.19300 42.94700 20.80300
C  1.59100 42.94600 22.26000
C  -1.12500 41.95100 20.23000
C  1.86200 44.13200 20.03300
C  2.18000 45.45400 20.76600
N  2.40500 42.62900 25.15200
C  3.23000 42.42600 24.04000
C  4.56200 42.33400 24.49500
C  4.48300 42.20700 25.89500
C  3.11200 42.40800 26.23100
C  5.80300 42.23500 23.76600
C  5.28100 42.01200 27.12000
O  6.45500 41.89000 27.29300
C  4.25000 42.09200 28.29300
C  4.41200 40.95400 29.23700
O  4.06100 39.82200 28.94100
O  5.01500 41.23500 30.37000
C  5.02900 40.14800 31.47100
H  -2.60800 43.51200 28.57600
H  -2.60600 43.37000 22.14100
H  3.54300 42.20400 21.95300
H  1.63600 41.42500 30.17400
H  -0.84700 42.97400 30.30400
H  -0.22900 40.15700 29.99800
H  -1.48500 40.59800 28.80900
H  -1.67900 40.88900 30.56200
H  0.97900 44.36700 30.29000
H  2.66600 43.81700 30.35800
H  0.53000 44.02500 32.34000
H  2.23500 43.89600 32.62300
H  -4.27900 44.47000 28.17200
H  -5.62400 43.87300 27.28300
H  -5.17000 45.45400 26.89900
H  -7.04800 44.32300 23.74500
H  -6.23200 45.18100 25.16700
H  -6.36000 43.44500 25.14400
H  -0.65800 44.04900 20.46000
H  1.49700 42.08700 20.20500
H  -0.49700 41.13000 19.88500
H  -1.64800 42.21900 19.31100
H  -1.74100 41.52200 21.02000
H  1.19100 44.34600 19.20100
H  2.71600 43.73900 19.48100
H  2.15700 45.34400 21.85000
H  1.46900 46.24900 20.54100
H  3.14800 45.82900 20.43400
H  5.82300 42.74600 22.80300
H  5.93600 41.16700 23.59300
H  6.63200 42.58200 24.38200
H  4.43700 43.03800 28.80100
H  4.11500 39.55400 31.48400
H  5.17500 40.63400 32.43600
H  5.89900 39.52200 31.27300

