158

Mg 24.83200 2.06200 30.00700
C  26.81200 1.63300 32.82100
C  22.09000 2.35700 31.96000
C  22.92000 2.05400 27.14200
C  27.74500 1.62600 28.03500
N  24.57300 2.22200 32.11400
C  25.46000 1.84600 33.06000
C  24.92400 2.20100 34.39200
C  23.40300 2.04700 34.15200
C  23.32800 2.22900 32.64400
C  22.76400 0.66600 34.56800
C  25.31500 3.66000 34.92300
C  26.05300 3.69600 36.21800
H  25.37200 4.48600 37.36800
N  22.83000 2.20700 29.67000
C  21.86100 2.28200 30.62800
C  20.51700 2.22700 29.97300
C  20.72700 2.26900 28.59400
C  22.23200 2.29000 28.40700
C  19.24800 2.22600 30.78400
C  19.67500 1.92200 27.53400
O  20.01600 1.92200 26.34900
C  18.21200 1.57100 27.79400
N  25.23800 1.68600 27.92500
C  24.27500 1.85000 26.92900
C  24.88700 1.84800 25.52000
C  26.47900 1.86700 25.76800
C  26.53200 1.77200 27.32800
C  24.34100 0.75100 24.58300
C  27.16400 3.05800 25.09400
C  27.02500 4.47700 25.74700
N  26.89900 1.61000 30.30900
C  27.91100 1.51300 29.41700
C  29.11400 1.21600 30.08300
C  28.75900 1.35000 31.51100
C  27.37700 1.56400 31.56000
C  30.44400 0.91400 29.51500
C  29.21500 1.34200 32.80900
O  30.33500 1.26100 33.25800
C  27.98400 1.50100 33.75200
C  27.86900 0.31400 34.66200
O  27.32500 -0.77900 34.42900
O  28.46400 0.70200 35.75700
C  28.31000 -0.13400 36.96800
H  21.25000 2.36300 32.65700
H  22.24800 2.15200 26.28700
H  28.70700 1.72000 27.52600
H  25.26300 1.44600 35.10200
H  22.83300 2.92300 34.46200
H  23.44600 0.09300 35.19600
H  22.46100 0.11600 33.67700
H  21.90900 0.80400 35.23100
H  24.49700 4.37500 35.00800
H  25.99000 4.06500 34.16900
H  26.99100 4.21500 36.02100
H  26.34400 2.70900 36.57800
H  19.49500 2.48700 31.81200
H  18.82800 1.22600 30.89000
H  18.57900 2.98400 30.37600
H  18.06900 0.93900 28.67100
H  17.81100 1.02500 26.94000
H  17.64200 2.50000 27.76900
H  24.51900 2.79700 25.13000
H  26.85100 0.90800 25.41000
H  23.84400 1.19500 23.72100
H  23.55600 0.13000 25.01600
H  25.13800 0.11500 24.19900
H  26.59200 3.22200 24.18100
H  28.15500 2.74500 24.76400
H  26.26400 4.94500 25.12200
H  28.01800 4.92500 25.75600
H  26.64500 4.47100 26.76800
H  30.42100 -0.17500 29.49400
H  31.24100 1.31900 30.13900
H  30.53200 1.40200 28.54400
H  28.10900 2.42400 34.31900
H  27.78800 0.36800 37.78200
H  29.31600 -0.39700 37.29600
H  27.76100 -1.06800 36.84300
Mg 30.12800 57.95100 39.92600
C  27.24300 56.04100 38.89700
C  32.04700 55.17300 39.06800
C  32.74200 59.98200 40.18900
C  27.97600 60.71200 40.47300
N  29.68400 55.85900 38.90200
C  28.40700 55.27400 38.72000
C  28.56300 53.85700 38.43700
C  30.06500 53.54900 38.91000
C  30.67200 54.92600 38.92800
C  30.22500 52.83000 40.32500
C  28.20100 53.21700 37.09800
C  28.77100 53.94700 35.93500
H  27.96400 54.71700 34.91600
N  32.13900 57.64500 39.63800
C  32.70900 56.42700 39.30300
C  34.12800 56.70300 39.18400
C  34.38500 58.07700 39.51300
C  33.04900 58.64200 39.75000
C  35.17600 55.64300 38.89800
C  35.71800 58.74900 39.48700
O  36.73800 58.04800 39.45500
C  35.83000 60.26100 39.52200
N  30.33400 60.14300 40.16400
C  31.51900 60.69700 40.30500
C  31.45900 62.18400 40.63700
C  29.93100 62.39500 40.95400
C  29.38400 61.04000 40.42300
C  32.42600 62.75200 41.79700
C  29.34200 63.68000 40.27400
C  28.92600 64.86300 41.18000
N  27.99700 58.33500 39.87600
C  27.33000 59.43800 40.11600
C  25.96300 59.11000 40.16900
C  25.84200 57.84900 39.58900
C  27.10300 57.32400 39.44200
C  24.85200 60.13600 40.33400
C  24.89800 56.77600 39.10100
O  23.65600 56.76200 38.99600
C  25.78700 55.62200 38.61500
C  25.24700 54.43200 39.36700
O  25.32200 54.25500 40.54400
O  24.61200 53.60400 38.43700
C  23.79200 52.64700 39.14100
H  32.67200 54.28000 39.01500
H  33.57800 60.68000 40.26800
H  27.26500 61.51400 40.68300
H  27.85300 53.29200 39.04100
H  30.60300 52.92000 38.20000
H  30.67600 51.84200 40.23400
H  29.27600 52.75500 40.85600
H  30.75400 53.46800 41.03300
H  27.14600 53.00300 36.92800
H  28.71800 52.25900 37.15400
H  29.42700 53.26600 35.39200
H  29.24600 54.79400 36.43000
H  34.76900 54.63800 39.01100
H  35.93300 55.75600 39.67500
H  35.50400 55.74300 37.86300
H  36.81000 60.58300 39.16800
H  35.69100 60.71900 40.50100
H  35.16400 60.64800 38.75100
H  31.71200 62.70900 39.71600
H  29.80400 62.45900 42.03400
H  32.76100 63.75700 41.54200
H  33.32000 62.17900 42.04600
H  31.80200 62.87600 42.68300
H  28.42400 63.47200 39.72300
H  30.01100 64.11700 39.53300
H  27.83800 64.91500 41.22000
H  29.41100 65.82300 40.99900
H  29.09000 64.62700 42.23200
H  23.95200 59.71800 40.78500
H  24.70500 60.53300 39.33000
H  25.18400 60.97800 40.94200
H  25.62400 55.47700 37.54700
H  24.35400 52.18400 39.95200
H  23.57000 51.80200 38.48900
H  22.82200 53.00700 39.48400

