158

Mg 48.48800 14.72700 28.01000
C  46.08000 14.75900 30.62300
C  50.30500 16.79900 30.02800
C  50.97100 14.36500 25.87000
C  46.28000 12.87100 25.98700
N  48.23700 15.61600 30.13600
C  47.23400 15.44700 30.96700
C  47.52700 16.05400 32.36200
C  48.81700 16.78000 32.11100
C  49.08600 16.47000 30.59800
C  48.77800 18.28600 32.27900
C  47.69700 14.89700 33.42500
C  47.42100 15.21700 34.93100
H  48.66200 15.14600 35.83200
N  50.32000 15.62300 27.91200
C  50.86800 16.42600 28.79400
C  52.17100 16.84500 28.36000
C  52.50900 15.98000 27.26600
C  51.26000 15.27700 26.96600
C  52.88300 18.07400 28.85000
C  53.76300 15.87600 26.39400
O  53.83700 15.07400 25.46700
C  55.02100 16.68200 26.68600
N  48.54400 13.86800 26.10000
C  49.78100 13.71700 25.46000
C  49.63800 12.71900 24.34500
C  48.11100 12.43300 24.21300
C  47.60000 13.15600 25.51200
C  50.31900 13.11500 23.08700
C  47.69100 10.94100 24.03600
C  46.81400 10.70100 22.80200
N  46.58600 14.00300 28.17500
C  45.81400 13.35300 27.26700
C  44.48300 13.15400 27.92000
C  44.54600 13.70300 29.16700
C  45.87800 14.13800 29.35800
C  43.33000 12.40500 27.31900
C  43.84800 13.93100 30.33400
O  42.65100 13.79200 30.51600
C  44.79800 14.51400 31.38400
C  44.22000 15.71400 31.98400
O  44.03100 16.78200 31.45000
O  43.88300 15.41900 33.29700
C  42.83400 16.30500 33.95700
H  50.98700 17.31000 30.71000
H  51.76000 14.17400 25.13900
H  45.57800 12.30500 25.37200
H  46.64900 16.61500 32.68300
H  49.69700 16.37000 32.60800
H  47.85700 18.56300 32.79100
H  48.85800 18.77300 31.30700
H  49.56200 18.74200 32.88300
H  48.76400 14.69600 33.32700
H  47.29200 13.96600 33.02800
H  46.72200 14.44600 35.25600
H  47.05800 16.24500 34.93900
H  53.65300 17.61000 29.46600
H  52.25700 18.67500 29.50900
H  53.32900 18.67700 28.05900
H  55.07400 17.65100 27.18400
H  55.45900 16.68500 25.68800
H  55.58500 15.96500 27.28200
H  50.07800 11.84700 24.82900
H  47.71400 13.12900 23.47400
H  51.30000 12.64700 23.00900
H  50.48500 14.19200 23.06300
H  49.66200 12.74400 22.30100
H  47.27800 10.62300 24.99400
H  48.62900 10.44300 23.79100
H  47.31400 10.10300 22.04000
H  46.63600 11.65600 22.30900
H  45.85400 10.22300 22.99600
H  43.66700 11.69300 26.56600
H  42.58800 13.06500 26.87100
H  42.82600 11.83000 28.09600
H  44.93200 13.76000 32.15900
H  43.26200 17.27200 34.22100
H  42.51000 15.69300 34.79900
H  41.92900 16.37400 33.35400
Mg 9.35000 47.55500 27.51200
C  7.20700 47.26800 30.25600
C  12.00800 47.95000 29.72000
C  11.30500 48.33900 25.01200
C  6.54700 47.57900 25.50000
N  9.50600 47.78800 29.74700
C  8.49500 47.49200 30.66100
C  9.00300 47.60300 32.17600
C  10.56900 47.86900 31.86500
C  10.76000 47.78100 30.33800
C  11.21500 49.15800 32.50400
C  8.62300 46.48500 33.21900
C  9.40400 46.41900 34.51000
H  8.94900 45.62000 35.67700
N  11.42500 47.89000 27.30100
C  12.31900 48.04600 28.30900
C  13.60000 48.29800 27.72800
C  13.43100 48.28100 26.31100
C  11.99000 48.18500 26.13200
C  14.80000 48.32400 28.50500
C  14.42600 48.27600 25.17800
O  14.10600 48.10400 24.04100
C  15.78900 48.45300 25.50000
N  8.91200 48.03200 25.50200
C  9.93900 48.29000 24.70300
C  9.42400 48.34900 23.24500
C  7.83700 48.04100 23.38500
C  7.74200 47.80600 24.88700
C  9.79200 49.75100 22.55100
C  7.45100 46.79400 22.58000
C  6.02800 46.77700 21.93700
N  7.31700 47.36200 27.69800
C  6.25600 47.48100 26.81500
C  5.00300 47.30800 27.46900
C  5.31600 47.16300 28.81700
C  6.70400 47.30500 28.92700
C  3.71800 47.34300 26.81300
C  4.76600 47.07300 30.15600
O  3.61000 47.02700 30.52100
C  6.00200 46.93400 31.14000
C  6.05500 45.54200 31.78300
O  6.74000 44.61900 31.43600
O  5.22000 45.52800 32.87300
C  5.20700 44.22900 33.62900
H  12.78100 48.14700 30.46500
H  11.92300 48.60000 24.15000
H  5.66500 47.56200 24.85700
H  8.58200 48.50800 32.61400
H  11.03500 46.94000 32.19500
H  12.27500 48.93700 32.62800
H  10.81300 49.36100 33.49700
H  11.06300 50.09900 31.97600
H  8.70100 45.50900 32.74000
H  7.59500 46.66900 33.53000
H  9.60900 47.45200 34.79100
H  10.34100 45.93700 34.22800
H  15.59000 47.61600 28.25700
H  14.78100 48.30600 29.59500
H  15.31600 49.25400 28.26600
H  16.37100 48.23900 24.60400
H  16.07100 47.71500 26.25200
H  15.86500 49.49700 25.80500
H  9.86500 47.55200 22.64600
H  7.12200 48.86300 23.36000
H  10.23000 50.39500 23.31400
H  8.91200 50.18200 22.07300
H  10.52300 49.49700 21.78400
H  7.47000 45.92900 23.24300
H  8.17900 46.52300 21.81500
H  5.29100 46.20400 22.49900
H  6.04100 46.43500 20.90200
H  5.73700 47.81500 21.77600
H  3.32400 48.35900 26.86500
H  3.10900 46.74200 27.48800
H  3.89000 46.90100 25.83200
H  5.82400 47.76000 31.82900
H  6.19900 44.02500 34.03200
H  4.82800 43.35100 33.10600
H  4.64500 44.45400 34.53500

