158

Mg 46.85000 16.68300 28.49600
C  44.98300 16.40900 31.46800
C  49.25300 18.44700 30.37100
C  48.46900 17.38500 25.66400
C  44.15900 15.37900 26.74900
N  47.04500 17.42000 30.66300
C  46.21600 17.03600 31.65300
C  46.87100 17.31900 32.97000
C  47.97300 18.30300 32.63500
C  48.16600 18.08000 31.11900
C  47.70800 19.73400 33.00200
C  47.32400 16.09200 33.75400
C  47.56700 16.33100 35.22600
H  47.16600 17.63100 35.90400
N  48.76800 17.61600 28.10100
C  49.60000 18.23600 28.99700
C  50.78000 18.71200 28.24600
C  50.44500 18.53800 26.88600
C  49.24500 17.79500 26.81800
C  51.96700 19.30600 28.92100
C  51.22700 19.06300 25.60900
O  50.81600 19.04100 24.48200
C  52.43000 19.86400 25.75700
N  46.41600 16.38200 26.52000
C  47.21200 16.78800 25.50400
C  46.55400 16.54900 24.10600
C  45.30800 15.66400 24.52300
C  45.25800 15.81600 26.04100
C  46.15200 17.71000 23.32600
C  45.32600 14.13700 24.05300
C  44.57300 14.03800 22.68200
N  44.89800 16.09400 28.97100
C  43.96900 15.49300 28.14700
C  42.84500 15.05200 28.97500
C  43.24900 15.34600 30.27300
C  44.45000 16.03900 30.21700
C  41.59200 14.43000 28.49500
C  42.91800 15.25800 31.67400
O  41.94400 14.78000 32.26300
C  43.93000 15.98500 32.41700
C  43.24200 17.12300 32.99700
O  43.20500 18.23400 32.45200
O  42.63000 16.89300 34.19100
C  42.28200 17.98700 35.02000
H  50.10100 18.90700 30.88400
H  48.83500 17.54100 24.64700
H  43.41500 14.81200 26.18500
H  46.20500 17.93200 33.57600
H  48.96600 18.06300 33.01400
H  47.24100 20.18100 32.12500
H  48.58800 20.25000 33.38700
H  46.98800 19.80700 33.81700
H  48.27700 15.82300 33.29800
H  46.70600 15.21500 33.56400
H  48.61000 16.10500 35.44400
H  46.84400 15.68800 35.72900
H  52.82100 19.54800 28.28800
H  52.23200 18.52000 29.62900
H  51.70100 20.12300 29.59200
H  52.17800 20.75700 26.32900
H  52.78600 20.28300 24.81500
H  53.20500 19.22500 26.17900
H  47.19800 15.96400 23.44800
H  44.35000 16.11400 24.26400
H  45.15600 17.53200 22.92000
H  46.85100 17.78100 22.49300
H  46.30500 18.49500 24.06600
H  44.72300 13.50100 24.70200
H  46.28900 13.65000 23.89700
H  45.17200 13.46800 21.97200
H  44.24200 15.02800 22.36900
H  43.77500 13.32600 22.89500
H  41.37000 13.55100 29.10000
H  41.53700 14.23600 27.42400
H  40.75900 15.10200 28.69700
H  44.29900 15.41000 33.26700
H  42.01300 18.89100 34.47500
H  43.01800 18.23900 35.78300
H  41.35800 17.68000 35.51000
Mg 16.94700 51.67300 26.51600
C  18.91900 50.27200 29.16500
C  14.63000 52.45300 28.85500
C  15.25200 53.01400 24.08700
C  19.55400 50.64300 24.34600
N  16.84000 51.41500 28.75700
C  17.78800 50.89700 29.67600
C  17.21700 50.80900 31.08000
C  15.75600 51.43700 30.89400
C  15.71800 51.77600 29.39800
C  14.55700 50.49000 31.25700
C  18.09300 51.43500 32.14000
C  18.09000 50.77200 33.49700
H  17.23300 51.28800 34.67500
N  15.18100 52.54700 26.49200
C  14.33000 52.82800 27.59200
C  13.17000 53.47600 27.15700
C  13.22600 53.69600 25.74800
C  14.63200 53.10700 25.39700
C  12.06900 53.88900 28.09100
C  12.34600 54.31900 24.69900
O  12.71700 54.52700 23.54700
C  10.93100 54.57200 25.23100
N  17.32700 51.71600 24.52600
C  16.44400 52.39600 23.73000
C  16.91200 52.28800 22.25600
C  18.26800 51.66100 22.38600
C  18.41000 51.31300 23.83900
C  15.94100 51.44000 21.48100
C  19.51000 52.37000 21.68100
C  20.24800 53.44300 22.45300
N  18.73600 50.53000 26.62200
C  19.74500 50.29400 25.69100
C  20.83800 49.70800 26.29700
C  20.53600 49.59700 27.57600
C  19.28200 50.16100 27.80600
C  22.07500 49.22300 25.59000
C  21.05200 49.07700 28.82800
O  22.01600 48.39300 29.02600
C  20.06200 49.62900 29.96800
C  19.69300 48.51600 30.88800
O  19.23000 47.48300 30.50700
O  20.23400 48.75200 32.11500
C  20.18900 47.66900 33.04200
H  13.94200 52.71800 29.66000
H  14.70500 53.39400 23.22200
H  20.33400 50.29500 23.66500
H  17.02200 49.76700 31.33500
H  15.72900 52.34700 31.49300
H  13.78400 51.10100 31.72200
H  14.86800 49.75000 31.99500
H  14.19700 49.83600 30.46200
H  17.66700 52.40200 32.40700
H  19.12500 51.57600 31.82100
H  19.13400 50.82200 33.80700
H  17.84400 49.72500 33.32000
H  12.42000 53.93700 29.12200
H  11.32900 53.09800 27.97000
H  11.65100 54.87900 27.90500
H  10.27400 54.60900 24.36200
H  10.88700 55.54500 25.72000
H  10.54400 53.86800 25.96700
H  16.93800 53.25900 21.76100
H  18.27800 50.69900 21.87300
H  15.78700 51.96000 20.53600
H  14.98700 51.25400 21.97400
H  16.40800 50.50200 21.18000
H  19.17200 52.90300 20.79200
H  20.26500 51.65200 21.36300
H  20.09200 54.43400 22.02500
H  21.30900 53.22800 22.32900
H  19.98100 53.45200 23.51000
H  21.85300 48.37800 24.93800
H  22.82200 48.76900 26.24100
H  22.43100 50.05400 24.98000
H  20.52300 50.41600 30.56500
H  21.14100 47.68800 33.57300
H  20.02600 46.68600 32.60000
H  19.42500 47.85000 33.79800

