158

Mg 47.83500 34.57900 27.44200
C  46.38100 33.09100 30.24800
C  47.94700 37.56100 29.11400
C  49.13100 36.10500 24.60300
C  47.59800 31.62700 25.66000
N  47.15000 35.16400 29.44600
C  46.73700 34.40900 30.48100
C  46.86100 35.16300 31.75200
C  46.93000 36.68100 31.30500
C  47.35000 36.48200 29.81300
C  45.58300 37.44000 31.69400
C  48.13300 34.63100 32.48700
C  48.69400 35.49600 33.60000
H  47.62800 36.00100 34.53200
N  48.46100 36.51600 26.97800
C  48.53000 37.58200 27.80500
C  49.12600 38.73600 27.28300
C  49.74500 38.32600 26.05200
C  49.09300 36.93900 25.77900
C  49.16700 40.11600 27.95400
C  50.55400 39.13400 25.05900
O  50.77900 38.75600 23.89800
C  50.96800 40.57800 25.40000
N  48.25400 33.97100 25.36400
C  48.85900 34.73700 24.43400
C  49.14700 33.96700 23.13700
C  48.73400 32.49800 23.52800
C  48.13100 32.68100 24.93500
C  48.54400 34.71800 21.86400
C  49.81800 31.35300 23.32100
C  51.19200 31.53900 24.05200
N  47.06300 32.76200 27.76500
C  47.12800 31.59300 27.00900
C  46.63100 30.46800 27.78800
C  46.29500 31.02100 28.98400
C  46.59100 32.40400 29.01400
C  46.44900 29.06000 27.28900
C  45.81800 30.68500 30.29900
O  45.54000 29.58100 30.74200
C  45.59700 32.05200 31.11400
C  45.82400 31.79900 32.54600
O  46.87600 31.60400 33.10100
O  44.62200 31.66400 33.12700
C  44.65500 31.46500 34.55700
H  48.02000 38.43100 29.77100
H  49.62200 36.62600 23.77800
H  47.56100 30.62200 25.23400
H  45.95400 34.87100 32.28000
H  47.72500 37.24200 31.79400
H  44.87500 37.55300 30.87300
H  45.77500 38.43900 32.08700
H  45.13800 36.97700 32.57500
H  48.98900 34.41000 31.85000
H  47.73300 33.77400 33.03000
H  49.23700 36.34300 33.18100
H  49.17500 34.81300 34.30100
H  49.25700 40.95000 27.25800
H  50.04600 40.06100 28.59700
H  48.37300 40.30200 28.67700
H  51.39300 40.56200 26.40400
H  50.19100 41.34200 25.39900
H  51.72200 40.85400 24.66300
H  50.23200 34.06400 23.10900
H  47.88800 32.25300 22.88600
H  49.39300 35.26700 21.45700
H  47.62000 35.21100 22.16400
H  48.21200 33.99100 21.12400
H  50.08200 31.27800 22.26600
H  49.32400 30.41600 23.57900
H  51.21500 30.55100 24.51200
H  51.16200 32.31700 24.81400
H  52.03400 31.59600 23.36200
H  47.13300 28.89700 26.45700
H  45.47400 28.84200 26.85300
H  46.54500 28.36700 28.12500
H  44.53500 32.29600 31.07900
H  44.99200 32.31800 35.14500
H  45.17100 30.56300 34.88600
H  43.62100 31.34400 34.88100
Mg 36.57100 49.02800 24.27100
C  36.75300 47.27200 27.45900
C  35.41600 51.77500 26.01200
C  35.93200 50.43400 21.29900
C  37.55900 46.09700 22.69700
N  35.97100 49.35400 26.44900
C  36.36300 48.60500 27.58900
C  36.17700 49.39600 28.86200
C  35.44100 50.76400 28.35300
C  35.67300 50.65900 26.80300
C  33.93000 50.80500 28.64700
C  37.45000 49.58500 29.74900
C  37.32300 49.00700 31.12700
H  35.89300 48.92500 31.79500
N  35.87300 50.83200 23.76200
C  35.48200 51.87000 24.62200
C  35.08600 53.04000 23.84700
C  35.15800 52.62900 22.43100
C  35.71400 51.25300 22.43000
C  34.73200 54.41400 24.46400
C  34.90500 53.49800 21.20200
O  34.98300 53.05400 20.08600
C  34.34000 54.96800 21.29500
N  36.54400 48.29500 22.25500
C  36.34400 49.10400 21.14200
C  36.72900 48.42000 19.83100
C  37.35400 47.10300 20.33200
C  37.25000 47.18100 21.87100
C  35.54600 48.25200 18.90300
C  38.74000 46.82600 19.82300
C  40.03200 47.31700 20.62600
N  37.01600 47.09800 24.87300
C  37.36900 45.99800 24.09800
C  37.65000 44.84500 24.95800
C  37.48000 45.31200 26.26200
C  36.97100 46.68600 26.17900
C  38.16400 43.49900 24.60900
C  37.57900 44.95800 27.65700
O  37.94600 43.94200 28.23600
C  37.04900 46.28000 28.47000
C  35.84600 45.77600 29.16600
O  34.66300 45.88900 28.90200
O  36.29900 45.10900 30.34700
C  35.19100 44.77000 31.28500
H  35.09300 52.59500 26.65700
H  35.71700 50.91500 20.34200
H  38.08800 45.25300 22.25100
H  35.44800 48.85900 29.46900
H  35.93800 51.69600 28.62200
H  33.65300 50.16500 29.48400
H  33.36300 50.66800 27.72600
H  33.70000 51.83500 28.91600
H  37.76400 50.61500 29.91300
H  38.20800 49.12800 29.11100
H  37.88300 49.65600 31.80000
H  37.81400 48.03500 31.16700
H  35.24400 54.49000 25.42300
H  33.65200 54.56600 24.46300
H  35.27400 55.22400 23.97600
H  33.99800 55.19900 20.28600
H  35.11700 55.59500 21.73300
H  33.45800 54.87800 21.92900
H  37.43200 49.06700 19.30600
H  36.74900 46.28500 19.94000
H  35.62100 47.29100 18.39400
H  35.59400 49.11600 18.23900
H  34.58100 48.31100 19.40500
H  38.85200 47.31900 18.85700
H  38.85300 45.78100 19.53500
H  40.60600 47.94800 19.94700
H  40.56200 46.41600 20.93600
H  39.95800 48.00500 21.46900
H  37.40000 42.75200 24.39200
H  38.79800 43.11900 25.40900
H  38.76400 43.65500 23.71300
H  37.73500 46.54000 29.27600
H  34.79100 43.77600 31.08900
H  34.39000 45.50800 31.30400
H  35.61500 44.89200 32.28300

