158

Mg 24.58100 -5.34600 45.51300
C  26.60100 -2.97500 43.80300
C  21.90200 -4.32300 43.28000
C  22.98500 -8.29500 46.04000
C  27.38700 -6.31900 47.31400
N  24.26600 -3.75100 43.82200
C  25.30800 -2.96700 43.23600
C  24.72900 -2.01800 42.15700
C  23.18300 -2.35900 42.24900
C  23.05300 -3.53000 43.26500
C  22.24900 -1.15600 42.64800
C  25.38000 -2.35300 40.74500
C  25.70700 -1.12400 39.95000
H  25.08400 -0.90400 38.60900
N  22.72900 -6.17600 44.78400
C  21.72400 -5.53600 43.93500
C  20.58200 -6.40400 43.85800
C  20.87300 -7.56400 44.65200
C  22.25000 -7.39700 45.16400
C  19.37900 -6.11900 43.17900
C  19.91900 -8.73400 44.91600
O  18.82300 -8.77500 44.33800
C  20.18800 -9.93400 45.78500
N  25.10900 -7.07900 46.47500
C  24.22800 -8.13700 46.61800
C  24.78100 -9.11500 47.61100
C  26.19800 -8.51000 47.96000
C  26.26500 -7.18100 47.25800
C  23.83800 -9.16600 48.91700
C  27.40900 -9.48900 47.56300
C  28.25200 -10.18400 48.66900
N  26.59100 -4.67200 45.72000
C  27.65400 -5.13200 46.54500
C  28.83800 -4.39000 46.30600
C  28.44900 -3.50500 45.26100
C  27.14800 -3.78000 44.86800
C  30.03900 -4.58800 47.04600
C  28.99000 -2.46000 44.33800
O  30.12500 -2.05000 44.21700
C  27.74900 -2.03000 43.39100
C  27.58800 -0.53600 43.58300
O  27.53800 0.11400 44.64300
O  27.69200 0.03500 42.29100
C  27.38900 1.43900 42.27200
H  21.08300 -4.03800 42.61600
H  22.48100 -9.22100 46.32500
H  28.24000 -6.71200 47.87000
H  24.75600 -0.93800 42.30600
H  22.76500 -2.79700 41.34200
H  21.36000 -1.27000 42.02700
H  22.77400 -0.21900 42.46500
H  21.92800 -1.20100 43.68800
H  24.73000 -2.87300 40.04100
H  26.27400 -2.96900 40.83200
H  26.78100 -0.96800 39.84700
H  25.51800 -0.18500 40.47000
H  19.30200 -6.84300 42.36800
H  19.52300 -5.09700 42.82900
H  18.48700 -6.16900 43.80400
H  21.08300 -10.48100 45.48700
H  19.25700 -10.49400 45.87100
H  20.42400 -9.58600 46.79100
H  24.87200 -10.14000 47.25000
H  26.30500 -8.20900 49.00300
H  23.61000 -10.19800 49.18100
H  22.88500 -8.66300 48.75400
H  24.39600 -8.82600 49.78900
H  28.09100 -9.01800 46.85600
H  26.87600 -10.31300 47.08900
H  29.25000 -9.75200 48.61200
H  28.39400 -11.26500 48.66400
H  27.75200 -9.89400 49.59300
H  30.82500 -3.91200 46.70800
H  30.42500 -5.60600 47.00700
H  29.81800 -4.41200 48.09900
H  28.02800 -2.19400 42.35000
H  28.26600 2.07300 42.40000
H  26.49000 1.72500 42.81900
H  26.98400 1.76300 41.31300
Mg -9.77100 38.71700 41.17500
C  -9.12700 35.28900 40.68500
C  -6.68600 39.44900 39.91100
C  -10.83300 41.90700 40.73000
C  -13.13700 37.82200 42.20500
N  -8.07700 37.46900 40.47400
C  -7.92000 36.05100 40.33000
C  -6.57500 35.58900 39.78500
C  -5.82000 36.98700 39.71000
C  -6.89200 38.00700 40.08800
C  -4.56000 37.14300 40.61500
C  -6.75600 34.85900 38.48900
C  -5.46700 34.12300 38.09700
H  -4.79300 34.59600 36.73200
N  -8.86100 40.36400 40.48700
C  -7.60700 40.51700 40.10000
C  -7.32500 41.87500 39.66000
C  -8.57100 42.57000 39.67400
C  -9.48500 41.59600 40.29900
C  -5.97200 42.22700 39.16100
C  -8.86800 43.95600 39.07900
O  -7.97400 44.77600 38.68000
C  -10.24900 44.56400 39.10500
N  -11.90100 39.66900 41.23300
C  -11.86100 41.05700 41.14500
C  -13.16900 41.58300 41.86300
C  -13.90000 40.32900 42.32700
C  -13.02300 39.19100 41.82500
C  -12.95800 42.65300 43.01200
C  -15.37800 40.12300 41.80100
C  -16.50300 39.79000 42.81900
N  -10.88300 37.00900 41.46700
C  -12.22800 36.80000 41.81400
C  -12.48800 35.37000 41.98700
C  -11.26000 34.76900 41.53900
C  -10.35600 35.82200 41.12000
C  -13.78700 34.71500 42.56800
C  -10.71700 33.49900 41.39600
O  -11.16700 32.41300 41.70200
C  -9.35300 33.78500 40.71400
C  -8.34000 32.94500 41.36500
O  -7.64000 32.07200 40.82000
O  -8.18000 33.34600 42.66900
C  -7.09200 32.65000 43.39000
H  -5.70800 39.56600 39.43900
H  -11.17100 42.94500 40.73800
H  -14.05700 37.58400 42.74300
H  -6.23500 34.90800 40.56500
H  -5.51400 37.16100 38.67800
H  -4.04700 36.24600 40.96300
H  -4.66600 37.80400 41.47500
H  -3.84800 37.63700 39.95400
H  -7.06400 35.49700 37.66100
H  -7.56500 34.13300 38.56600
H  -5.76100 33.09200 37.90200
H  -4.78500 34.11900 38.94700
H  -5.37900 41.87300 40.00400
H  -5.74600 43.29200 39.10900
H  -5.71200 41.77000 38.20600
H  -10.95700 43.88500 38.62900
H  -10.19700 45.50100 38.55000
H  -10.72100 44.83000 40.05000
H  -13.81100 42.13800 41.17900
H  -13.82100 40.31800 43.41400
H  -11.90700 42.76700 43.27600
H  -13.58500 42.51900 43.89300
H  -13.39500 43.55700 42.58600
H  -15.41100 39.32000 41.06500
H  -15.69600 40.99200 41.22600
H  -16.84000 38.77400 42.61400
H  -17.37800 40.43700 42.87900
H  -16.07500 39.82300 43.82100
H  -14.71800 34.80400 42.00800
H  -13.97500 35.08300 43.57600
H  -13.69400 33.62900 42.54800
H  -9.39300 33.38800 39.69900
H  -7.26800 31.57700 43.32000
H  -7.13500 32.97500 44.42900
H  -6.15500 32.91000 42.89700

