158

Mg 47.54700 34.83400 27.92100
C  45.47300 33.51300 30.40600
C  48.34300 37.41900 30.08500
C  49.21400 36.27600 25.46800
C  46.50100 32.24700 25.86900
N  47.00000 35.34000 30.00600
C  46.24200 34.66800 30.85400
C  46.57100 35.04400 32.26300
C  47.00700 36.59700 32.04700
C  47.48500 36.43000 30.62500
C  45.84800 37.71900 32.04900
C  47.76900 34.19400 32.84900
C  47.97000 34.33200 34.34100
H  47.13400 35.35700 35.11000
N  48.62100 36.60900 27.78200
C  48.86100 37.53900 28.75700
C  49.71500 38.57300 28.31400
C  50.05800 38.22200 26.92100
C  49.34200 36.98400 26.68100
C  50.12300 39.75800 29.10800
C  50.91100 38.97100 25.93500
O  51.05000 38.55300 24.76300
C  51.62300 40.28800 26.29500
N  47.75700 34.39800 25.89900
C  48.53500 35.11000 25.07600
C  48.48100 34.52000 23.63400
C  47.82300 33.13900 23.84600
C  47.37400 33.21700 25.30400
C  47.77900 35.42200 22.57300
C  48.58400 31.82000 23.52500
C  50.11400 31.80600 23.63500
N  46.24900 33.26000 28.04700
C  45.93600 32.25200 27.09800
C  44.97300 31.28100 27.69300
C  44.73000 31.73700 28.96800
C  45.48500 32.96100 29.08400
C  44.37600 30.00200 26.98000
C  43.97600 31.56400 30.18600
O  43.17300 30.73000 30.54700
C  44.38000 32.70100 31.08100
C  44.71400 32.21500 32.40600
O  45.65800 31.41700 32.59700
O  43.84300 32.73700 33.31500
C  44.03600 32.32100 34.75000
H  48.57600 38.15800 30.85400
H  49.76300 36.64700 24.60100
H  46.20600 31.42500 25.21300
H  45.74000 34.88100 32.95000
H  47.76800 36.94800 32.74400
H  44.92700 37.20700 32.32900
H  45.63800 38.25400 31.12300
H  46.06100 38.43700 32.84000
H  48.68000 34.53800 32.35900
H  47.67300 33.14200 32.57800
H  49.00700 34.56100 34.58700
H  47.71500 33.35800 34.75700
H  50.70100 39.34600 29.93500
H  49.29700 40.25600 29.61400
H  50.79000 40.43900 28.58000
H  52.35300 39.99500 27.04900
H  50.96200 41.09700 26.60500
H  52.13100 40.56700 25.37200
H  49.46400 34.30200 23.21700
H  46.88500 33.02800 23.30300
H  47.65200 36.41600 23.00300
H  46.76500 35.08900 22.35300
H  48.39300 35.63100 21.69700
H  48.55600 31.75300 22.43700
H  48.15000 30.91900 23.95900
H  50.49000 31.86900 22.61400
H  50.43100 30.82400 23.98700
H  50.47800 32.49000 24.40100
H  44.83400 30.05800 25.99200
H  43.29100 29.97900 27.07400
H  44.76900 29.14100 27.52100
H  43.41800 33.21000 31.02400
H  43.16900 31.82800 35.18800
H  44.24800 33.22500 35.32100
H  44.87400 31.62500 34.76800
Mg 27.47400 50.69800 26.91100
C  25.47400 51.70400 29.63200
C  30.02400 49.81600 29.03100
C  29.49300 50.01300 24.26100
C  24.92300 51.81700 24.78600
N  27.61400 50.74500 29.05700
C  26.71700 51.01500 30.02200
C  27.15600 50.74700 31.43500
C  28.67000 50.31100 31.21100
C  28.80100 50.21900 29.60600
C  29.69900 51.17200 31.82100
C  26.30800 49.59600 32.01800
C  25.24300 49.96400 33.05600
H  25.15400 49.11000 34.37300
N  29.45100 49.87900 26.66500
C  30.34200 49.62100 27.66600
C  31.60100 49.11300 27.14800
C  31.52900 49.47400 25.72600
C  30.11800 49.89900 25.45800
C  32.72400 48.40600 28.01400
C  32.70400 49.57900 24.75500
O  32.53000 50.06500 23.67300
C  34.08200 49.12700 25.09900
N  27.29200 51.04300 24.82400
C  28.16800 50.45400 23.91400
C  27.59200 50.44700 22.51100
C  26.06000 50.79700 22.75400
C  26.11600 51.35000 24.17500
C  28.33700 51.35100 21.42100
C  25.01900 49.66400 22.56300
C  23.64700 50.01900 21.94500
N  25.58900 51.54000 27.02700
C  24.68600 52.01300 26.11300
C  23.55600 52.63600 26.76100
C  23.83900 52.57400 28.14600
C  25.03500 51.88500 28.26200
C  22.44000 53.44000 26.16400
C  23.29700 52.84600 29.48900
O  22.22600 53.36100 29.75700
C  24.27800 52.33700 30.46500
C  24.78400 53.47500 31.29300
O  25.51600 54.40900 30.84000
O  24.30600 53.38100 32.57300
C  24.76100 54.48400 33.44200
H  30.82400 49.47000 29.68900
H  30.00900 49.77000 23.33000
H  24.09800 51.93900 24.08100
H  27.06600 51.71200 31.93300
H  28.96600 49.31100 31.52600
H  30.74100 50.87800 31.94900
H  29.30600 51.40200 32.81100
H  29.62500 52.12800 31.30300
H  27.00000 48.94900 32.55700
H  25.81800 49.13800 31.15900
H  24.32000 49.87500 32.48300
H  25.37100 51.03200 33.23000
H  32.25400 48.00000 28.90900
H  33.44700 49.15400 28.34000
H  33.12200 47.65600 27.33100
H  34.71600 49.21100 24.21600
H  34.10100 48.07200 25.37300
H  34.56900 49.74000 25.85700
H  27.50000 49.39600 22.23700
H  25.72800 51.64400 22.15300
H  29.15800 51.91800 21.86100
H  27.69800 52.03600 20.86300
H  28.76800 50.76400 20.61000
H  24.90800 49.13200 23.50800
H  25.43500 48.90100 21.90400
H  22.90300 49.32300 22.33200
H  23.74000 49.91500 20.86400
H  23.30900 51.03600 22.14600
H  21.47300 53.08500 26.52100
H  22.38600 53.35000 25.07900
H  22.58400 54.49500 26.39700
H  23.91900 51.53800 31.11300
H  25.83200 54.60900 33.60200
H  24.39400 54.48300 34.46900
H  24.46700 55.45400 33.04200

