158

Mg 47.04800 25.79600 29.37200
C  48.32000 27.87900 32.02900
C  45.78700 23.77600 32.02200
C  46.50100 23.33300 27.22800
C  48.65400 27.73100 27.11000
N  46.76400 25.94300 31.72900
C  47.54600 26.81400 32.53700
C  47.18300 26.56100 34.04900
C  46.63500 25.07300 34.05000
C  46.44000 24.84600 32.53300
C  47.63900 24.10400 34.80400
C  46.21400 27.57600 34.70700
C  46.61000 28.17200 36.15400
H  45.48900 28.17400 37.20600
N  45.95700 23.90100 29.54400
C  45.63600 23.20500 30.73800
C  44.92500 21.97100 30.29200
C  44.95500 21.94800 28.86300
C  45.84800 23.06800 28.48900
C  44.29600 21.05100 31.33000
C  44.31400 21.01900 27.82500
O  44.53900 21.21400 26.64500
C  43.55300 19.70500 28.28300
N  47.60300 25.51800 27.49800
C  47.22400 24.43000 26.81400
C  47.77400 24.51700 25.36200
C  48.09200 26.06000 25.19300
C  48.14000 26.45500 26.72000
C  49.02100 23.57700 25.27100
C  47.09300 26.88500 24.41400
C  47.27400 26.85900 22.89500
N  48.15000 27.53700 29.46800
C  48.81900 28.26100 28.37900
C  49.55300 29.34600 28.97200
C  49.34600 29.23000 30.37100
C  48.51000 28.11100 30.63400
C  50.37600 30.37000 28.29500
C  49.72700 29.89100 31.65300
O  50.44900 30.83200 31.86000
C  48.93700 29.07400 32.79800
C  49.93500 28.70800 33.85600
O  50.97600 27.95400 33.72600
O  49.68200 29.36000 35.07000
C  50.70100 29.32300 36.12200
H  45.30300 23.24400 32.84400
H  46.33200 22.55000 26.48500
H  49.10700 28.31100 26.30300
H  48.13400 26.68100 34.56800
H  45.63600 25.09400 34.48600
H  47.23300 23.91900 35.79800
H  48.64500 24.52500 34.81200
H  47.71600 23.15300 34.27800
H  45.15800 27.31000 34.65500
H  46.16800 28.41300 34.01000
H  46.84800 29.22700 36.01400
H  47.44300 27.52700 36.43200
H  44.24900 20.03700 30.93300
H  43.25900 21.31400 31.53900
H  44.91300 21.05700 32.22800
H  44.22900 19.10100 28.88800
H  43.51200 19.23800 27.30000
H  42.59100 20.07300 28.64000
H  46.93400 24.42600 24.67300
H  49.08800 26.18400 24.76800
H  49.86100 24.20700 24.97700
H  48.83000 22.81300 24.51800
H  49.24500 22.97300 26.15000
H  47.29800 27.87800 24.81700
H  46.06700 26.65000 24.69600
H  46.43000 26.87200 22.20500
H  47.90100 26.02100 22.59000
H  47.78800 27.74300 22.51900
H  51.28700 30.45600 28.88800
H  49.91200 31.35300 28.21000
H  50.61700 30.08900 27.27000
H  48.28000 29.80800 33.26400
H  50.24200 28.58300 36.77800
H  50.97500 30.29000 36.54500
H  51.63200 28.85500 35.80000
Mg 49.28900 35.55800 27.96900
C  47.07200 34.35700 30.32200
C  49.75100 38.42600 30.11600
C  51.12800 37.22300 25.62400
C  48.70900 32.99200 25.76800
N  48.50400 36.29100 30.01400
C  47.62600 35.53800 30.76200
C  47.36900 36.30900 32.07600
C  48.13400 37.72200 31.86600
C  48.81900 37.48200 30.51300
C  47.12600 38.87200 31.72100
C  47.72500 35.61900 33.39000
C  49.02500 34.76500 33.54100
H  50.28100 35.40700 34.10700
N  50.21300 37.57000 27.81600
C  50.34300 38.49800 28.80400
C  51.12300 39.65900 28.30800
C  51.49000 39.35100 26.94200
C  50.91600 37.99700 26.72200
C  51.36600 40.92700 29.22300
C  52.25600 40.16600 25.95700
O  52.64000 39.75100 24.86900
C  52.79700 41.48600 26.43700
N  49.86400 35.13700 26.00000
C  50.72700 35.89100 25.30500
C  51.21500 35.08400 24.07600
C  50.45200 33.72700 24.17600
C  49.60600 33.93800 25.36000
C  51.02500 35.84400 22.66200
C  51.36700 32.48700 24.16200
C  50.87500 31.40900 23.12400
N  48.18300 33.95700 28.02900
C  48.02800 33.00500 27.02800
C  46.85400 32.16200 27.51700
C  46.50000 32.59100 28.85100
C  47.33300 33.68600 29.05600
C  46.20500 31.01000 26.77500
C  45.58100 32.41000 29.88000
O  44.61800 31.62100 29.95600
C  45.85800 33.55600 30.93300
C  46.30500 32.76900 32.10100
O  47.36000 32.18400 32.21900
O  45.35300 32.83300 33.05400
C  45.59800 32.11300 34.29600
H  50.00100 39.26900 30.76400
H  51.80700 37.56500 24.84000
H  48.45300 32.13900 25.13700
H  46.29700 36.47400 31.97000
H  48.93200 37.97300 32.56400
H  46.82500 39.25200 32.69700
H  46.24200 38.72200 31.10100
H  47.65600 39.68000 31.21700
H  46.83100 35.02100 33.56700
H  47.85700 36.42200 34.11500
H  49.21100 34.39400 32.53300
H  48.76800 33.93700 34.20200
H  52.37700 41.03000 29.61600
H  50.65500 40.93600 30.05000
H  51.16100 41.81900 28.63200
H  52.15600 42.33700 26.66700
H  53.43400 41.90000 25.65500
H  53.44200 41.19700 27.26700
H  52.27400 34.84900 24.18200
H  49.86600 33.78000 23.25800
H  50.44700 36.76600 22.72000
H  50.64700 35.13300 21.92800
H  52.02800 36.05500 22.29200
H  51.29800 31.93500 25.09900
H  52.43500 32.69900 24.10800
H  51.78700 31.13600 22.59200
H  49.96600 31.66900 22.58200
H  50.61500 30.47000 23.61400
H  45.50400 30.48100 27.42100
H  46.97500 30.29000 26.49900
H  45.61800 31.25700 25.89000
H  44.88300 34.01100 31.10900
H  45.67000 31.03600 34.14500
H  44.81700 32.43800 34.98400
H  46.59200 32.29500 34.70400

