158

Mg 48.45600 35.86400 27.45400
C  46.20900 34.18600 29.51900
C  49.07200 38.00300 29.97100
C  50.29500 37.81900 25.28200
C  47.68500 33.61400 24.86700
N  47.85500 36.01100 29.47500
C  46.98600 35.20500 30.12000
C  47.07200 35.38900 31.64100
C  47.48500 36.87900 31.63700
C  48.23500 36.96600 30.29100
C  46.31600 37.83800 31.80000
C  48.16300 34.38600 32.25200
C  48.16100 34.29700 33.80500
H  47.18600 35.21800 34.62600
N  49.56000 37.69600 27.61600
C  49.72400 38.41400 28.76200
C  50.49200 39.60300 28.48400
C  50.76000 39.66800 27.10000
C  50.19500 38.40500 26.59300
C  50.72900 40.69900 29.52200
C  51.43500 40.66200 26.22800
O  51.56000 40.59500 25.00900
C  51.93300 41.91600 26.92500
N  48.84700 35.80700 25.37500
C  49.70700 36.67300 24.70300
C  49.92600 36.29900 23.20600
C  49.26000 34.84800 23.17400
C  48.54600 34.71200 24.55500
C  49.16400 37.32300 22.30300
C  50.29600 33.65000 22.88700
C  49.82000 32.73400 21.69600
N  47.20900 34.21200 27.20000
C  47.03300 33.34300 26.14300
C  46.05900 32.24800 26.49800
C  45.64400 32.63000 27.80000
C  46.41200 33.80100 28.16900
C  45.55800 31.09500 25.71900
C  44.74200 32.20200 29.00900
O  44.01600 31.22900 29.19200
C  44.99200 33.33700 30.04100
C  45.04400 32.66000 31.44700
O  46.03000 32.08500 31.85400
O  43.88400 32.93700 32.13300
C  43.95600 32.77800 33.55100
H  49.23900 38.68900 30.80400
H  50.83400 38.38200 24.51800
H  47.53500 32.82900 24.12200
H  46.09600 35.27100 32.11300
H  48.26200 37.14300 32.35300
H  45.38300 37.32600 32.03200
H  46.28300 38.40700 30.87000
H  46.52700 38.63400 32.51400
H  49.11000 34.88300 32.04100
H  48.17400 33.44000 31.71100
H  49.15800 34.44700 34.22000
H  47.80900 33.28000 33.98200
H  51.79500 40.92500 29.53900
H  50.39900 40.21100 30.44000
H  50.05600 41.52400 29.29000
H  52.23300 42.71700 26.25000
H  52.70400 41.66700 27.65400
H  51.07600 42.27200 27.49800
H  50.95900 36.18200 22.87800
H  48.50800 34.81200 22.38600
H  48.42500 36.86900 21.64300
H  49.97400 37.68500 21.66900
H  48.71900 38.11100 22.91100
H  50.43500 33.01900 23.76500
H  51.32200 33.97100 22.70500
H  48.73200 32.71900 21.64900
H  50.29000 31.76700 21.87700
H  50.22500 33.08400 20.74600
H  44.83600 30.49800 26.27600
H  46.36600 30.45700 25.36300
H  45.12600 31.44100 24.78000
H  44.17900 34.06000 30.10800
H  43.84000 31.70200 33.68000
H  43.21300 33.28800 34.16500
H  44.91000 33.10500 33.96300
Mg 36.10000 50.30500 25.64400
C  35.96700 48.33200 28.55400
C  34.42300 52.72900 27.59800
C  36.00200 52.07900 22.93800
C  37.19400 47.40900 23.85600
N  35.19600 50.45100 27.83000
C  35.46200 49.59100 28.82500
C  35.00800 50.15800 30.13700
C  34.15300 51.37200 29.74400
C  34.52500 51.47200 28.23700
C  32.59800 51.24800 30.13800
C  36.19900 50.63500 30.99600
C  36.46700 49.75300 32.25800
H  35.16800 49.38300 33.05500
N  35.31800 52.19000 25.28100
C  34.75900 53.05200 26.21500
C  34.65000 54.34500 25.62200
C  35.08400 54.24100 24.21300
C  35.48600 52.80600 24.07000
C  34.20300 55.52800 26.42500
C  35.08100 55.28100 23.09900
O  35.54300 54.97200 21.97900
C  34.60300 56.69500 23.38800
N  36.30600 49.76600 23.61600
C  36.32800 50.74200 22.73200
C  36.91100 50.25600 21.40400
C  37.46200 48.85600 21.73200
C  36.91900 48.58300 23.16400
C  35.99900 50.34400 20.16100
C  38.95000 48.62200 21.58900
C  39.39000 47.92800 20.31700
N  36.53500 48.29400 26.02900
C  36.97000 47.22900 25.24300
C  37.26900 46.07300 26.06200
C  36.81300 46.45500 27.33800
C  36.46100 47.82800 27.31900
C  37.77400 44.67000 25.64200
C  36.63500 46.02200 28.70700
O  36.74200 44.86500 29.07100
C  36.15300 47.21200 29.56800
C  34.96500 46.75700 30.30800
O  33.81000 46.79600 29.88100
O  35.33900 46.24100 31.51300
C  34.36200 45.33400 32.14500
H  34.02700 53.54400 28.20800
H  36.23300 52.65400 22.03800
H  37.73300 46.65500 23.27900
H  34.31000 49.49400 30.64600
H  34.63000 52.28400 30.10200
H  32.25100 50.22200 30.25900
H  32.01600 51.65500 29.31100
H  32.37400 51.91100 30.97400
H  36.15600 51.65600 31.37700
H  37.07300 50.53500 30.35200
H  37.19800 50.23800 32.90600
H  36.98900 48.92900 31.77200
H  33.60500 55.15600 27.25700
H  33.46000 56.09600 25.86500
H  35.04300 56.12100 26.78600
H  35.31300 57.24800 24.00300
H  33.60800 56.69600 23.83400
H  34.47000 57.23100 22.44800
H  37.74000 50.94700 21.25200
H  36.95100 48.10400 21.13100
H  36.48100 51.08300 19.52100
H  35.06900 50.71700 20.59000
H  35.96900 49.40400 19.61200
H  39.27800 47.98400 22.40900
H  39.48800 49.52900 21.86300
H  39.28200 48.69700 19.55200
H  38.84100 46.99500 20.19200
H  40.43000 47.61200 20.40300
H  38.50100 44.35600 26.39100
H  38.25700 44.71200 24.66600
H  37.03700 43.86800 25.65200
H  36.91900 47.38500 30.32400
H  34.92700 44.76100 32.88000
H  33.98100 44.60600 31.42800
H  33.51200 45.85100 32.58900

