158

Mg 17.61800 -1.91300 27.09200
C  16.64600 0.11900 29.73500
C  19.30200 -3.83900 29.28500
C  18.67700 -3.62500 24.50800
C  16.01300 0.30000 24.85900
N  18.27900 -1.52500 29.30700
C  17.42200 -0.95100 30.18000
C  17.85600 -1.32400 31.68100
C  18.95700 -2.40400 31.45000
C  18.92800 -2.58300 29.91900
C  20.45500 -2.13200 31.95200
C  16.62900 -1.57400 32.58200
C  16.46300 -0.70500 33.80300
H  17.77300 -0.49500 34.55000
N  18.78900 -3.55800 26.94500
C  19.36600 -4.27500 27.93900
C  19.97800 -5.46500 27.46000
C  19.76300 -5.47800 26.07500
C  19.09400 -4.16500 25.77300
C  20.64900 -6.49800 28.33400
C  19.98000 -6.55500 25.01100
O  19.45400 -6.55800 23.90800
C  20.72800 -7.80700 25.21100
N  17.36400 -1.67800 24.96400
C  17.92000 -2.53300 24.11800
C  17.79300 -2.06900 22.58300
C  16.73600 -0.88200 22.76800
C  16.67100 -0.75600 24.26800
C  19.18700 -1.71900 22.03500
C  15.30900 -0.83700 22.10100
C  15.18800 0.25600 21.05900
N  16.54100 -0.11200 27.21800
C  15.95400 0.66500 26.22600
C  15.15400 1.67500 26.82400
C  15.41200 1.54200 28.21400
C  16.32900 0.49400 28.37600
C  14.17700 2.67500 26.12800
C  15.07500 2.04000 29.45300
O  14.44800 3.02700 29.76600
C  15.94100 1.17400 30.55600
C  16.83900 2.00900 31.45400
O  17.99200 2.29900 31.16400
O  16.14400 2.51500 32.57100
C  17.06800 3.23100 33.45500
H  19.76200 -4.63100 29.87900
H  19.02000 -4.19200 23.64100
H  15.62600 0.97200 24.09000
H  18.35900 -0.46600 32.12600
H  18.65400 -3.29900 31.99300
H  20.48100 -1.14400 32.41100
H  21.18700 -2.06600 31.14700
H  20.78200 -2.87000 32.68500
H  16.70900 -2.60100 32.93800
H  15.74600 -1.43700 31.95600
H  15.72300 -1.18200 34.44500
H  16.04100 0.29000 33.66100
H  21.19500 -7.23200 27.74100
H  19.85800 -6.99100 28.89800
H  21.32400 -6.12700 29.10500
H  21.64700 -7.65600 25.77800
H  21.08400 -8.16100 24.24400
H  20.05800 -8.46200 25.76800
H  17.36400 -2.91100 22.03900
H  17.27100 0.03500 22.52000
H  19.23300 -0.69300 21.67000
H  19.43500 -2.29500 21.14300
H  20.00000 -1.86800 22.74600
H  14.51400 -0.57100 22.79700
H  15.11200 -1.79200 21.61300
H  16.09400 0.83500 20.87300
H  14.35300 0.94000 21.21200
H  15.07300 -0.24700 20.09800
H  14.61000 3.04100 25.19700
H  13.73400 3.40900 26.80100
H  13.34000 2.04500 25.82600
H  15.18400 0.67300 31.15900
H  17.65600 3.95000 32.88500
H  17.85000 2.56900 33.82800
H  16.60000 3.70600 34.31700
Mg -9.59100 18.00100 42.53100
C  -6.13600 17.45800 42.55700
C  -8.91300 21.44600 41.87200
C  -12.84900 18.40100 41.69900
C  -10.06200 14.46500 42.67800
N  -7.78000 19.29700 42.33000
C  -6.48500 18.84600 42.42800
C  -5.44800 20.00100 42.15500
C  -6.40400 21.31400 42.29200
C  -7.79100 20.68700 42.19600
C  -6.13900 22.24500 43.46900
C  -4.71500 19.84500 40.72200
C  -5.64900 19.18700 39.69700
H  -5.04100 19.16700 38.30600
N  -10.74100 19.74200 42.02200
C  -10.30400 20.98300 41.72100
C  -11.41900 21.79400 41.34400
C  -12.60600 20.97000 41.45600
C  -12.11600 19.64200 41.70100
C  -11.33300 23.25300 40.94800
C  -14.06200 21.43600 41.24800
O  -14.30200 22.63100 40.91900
C  -15.27000 20.60200 41.35500
N  -11.18900 16.59200 42.16500
C  -12.42600 17.09000 41.89900
C  -13.46000 15.92500 41.91300
C  -12.56000 14.67100 42.29100
C  -11.14800 15.23300 42.31700
C  -14.67100 16.22000 42.76800
C  -12.74300 13.50800 41.29500
C  -14.06700 12.68200 41.46200
N  -8.39200 16.27000 42.70600
C  -8.69200 14.91600 42.79800
C  -7.44100 14.15700 42.95200
C  -6.46400 15.07700 42.77300
C  -7.06500 16.38600 42.68200
C  -7.28200 12.72900 43.05600
C  -5.05200 15.22600 42.81800
O  -4.13600 14.47100 43.05500
C  -4.78300 16.73900 42.59700
C  -3.74300 17.19200 43.56100
O  -2.58300 17.27800 43.35600
O  -4.37300 17.54200 44.70700
C  -3.53400 18.25100 45.68900
H  -8.89300 22.52700 41.71900
H  -13.85500 18.46900 41.27800
H  -10.18500 13.39400 42.84600
H  -4.70900 20.06400 42.95300
H  -6.19200 21.84800 41.36600
H  -5.30000 21.82700 44.02600
H  -7.11000 22.42100 43.93200
H  -5.69900 23.17500 43.10900
H  -3.79200 19.28300 40.86400
H  -4.50500 20.86800 40.41200
H  -6.56500 19.72000 39.44100
H  -5.98900 18.17400 39.91400
H  -12.15800 23.42900 40.25800
H  -10.41100 23.50200 40.42200
H  -11.29900 23.92400 41.80700
H  -15.08500 19.80200 42.07200
H  -15.50500 20.08100 40.42700
H  -16.15300 21.20900 41.55400
H  -13.87200 15.83700 40.90800
H  -12.79800 14.31400 43.29400
H  -14.63600 17.24500 43.13500
H  -14.80700 15.47800 43.55500
H  -15.58100 16.06700 42.18700
H  -11.91300 12.81500 41.43000
H  -12.76400 13.89900 40.27800
H  -14.34100 13.02900 42.45800
H  -13.71300 11.65100 41.46900
H  -14.86900 12.93900 40.77000
H  -8.23600 12.28400 42.77200
H  -6.97900 12.47300 44.07200
H  -6.46200 12.50900 42.37300
H  -4.27700 16.85200 41.63800
H  -2.62800 17.69500 45.93200
H  -4.05700 18.31300 46.64300
H  -3.35300 19.30000 45.45400

