158

Mg 44.12400 3.42200 47.30000
C  41.57700 5.68700 46.48500
C  41.66500 0.83100 47.22400
C  46.62200 1.10600 47.26200
C  46.43900 5.99800 47.07300
N  41.92800 3.19500 46.65800
C  41.11900 4.32400 46.44300
C  39.67200 3.88400 46.33400
C  39.67700 2.45600 46.85000
C  41.16800 2.07200 46.91500
C  38.92200 2.17000 48.14200
C  39.13200 3.98000 44.86500
C  38.11300 5.08200 44.38500
H  38.53900 5.83100 43.16300
N  44.20200 1.26500 47.28000
C  43.03800 0.49000 47.41500
C  43.46500 -0.85900 47.67400
C  44.90400 -0.81900 47.70400
C  45.29300 0.53500 47.39900
C  42.57500 -2.08500 47.91300
C  45.78000 -1.98600 48.11900
O  45.25500 -3.05000 48.35300
C  47.25700 -2.00000 48.16500
N  46.20700 3.50300 46.97500
C  47.00800 2.40300 47.11600
C  48.53700 2.84700 47.10000
C  48.45700 4.39900 47.23600
C  46.94400 4.67200 47.09700
C  49.36600 2.08500 48.23700
C  49.42000 5.11600 46.16900
C  50.85900 5.48000 46.68500
N  44.06500 5.41000 46.89500
C  45.09800 6.34400 46.79900
C  44.54200 7.61300 46.53800
C  43.14300 7.46800 46.51900
C  42.89400 6.10400 46.65100
C  45.29400 8.91900 46.41100
C  41.83000 8.18100 46.36700
O  41.56000 9.33900 46.16600
C  40.81200 6.96900 46.33900
C  39.85800 7.13300 47.48500
O  40.00200 6.65600 48.61900
O  38.76200 7.83100 47.08000
C  37.68000 8.12700 48.05700
H  40.88600 0.07400 47.33100
H  47.38800 0.33300 47.35100
H  47.17400 6.80000 47.17000
H  39.01000 4.57100 46.86200
H  39.24900 1.68400 46.21100
H  38.58700 3.10300 48.59700
H  39.61500 1.64100 48.79600
H  38.01900 1.58800 47.95900
H  38.66600 3.02300 44.62900
H  39.88900 4.15900 44.10100
H  37.85200 5.72600 45.22500
H  37.18400 4.53200 44.23200
H  42.57700 -2.29400 48.98200
H  42.82700 -2.99300 47.36400
H  41.51900 -1.95800 47.67200
H  47.61000 -1.82000 47.14900
H  47.54800 -2.93900 48.63500
H  47.67300 -1.23000 48.81500
H  48.96200 2.51200 46.15400
H  48.62300 4.80800 48.23300
H  48.69500 1.66700 48.98800
H  50.08600 2.79700 48.64100
H  50.01400 1.32500 47.80200
H  48.82800 5.97000 45.83900
H  49.59400 4.45600 45.31800
H  51.57900 5.07900 45.97200
H  51.04900 4.98800 47.63900
H  50.98600 6.55900 46.78200
H  46.23800 8.67000 45.92700
H  45.55700 9.26100 47.41200
H  44.77000 9.63500 45.77800
H  40.35600 7.14100 45.36400
H  38.01500 8.11400 49.09400
H  36.80700 7.49900 47.88200
H  37.49800 9.19800 47.95900
Mg 40.46700 8.31600 29.03800
C  42.15900 10.17700 31.53100
C  38.48800 6.94800 31.37000
C  39.04200 6.52400 26.54300
C  43.06200 9.18700 26.68100
N  40.32000 8.54900 31.12200
C  41.07600 9.35400 31.92000
C  40.45900 9.43600 33.33500
C  39.53300 8.18800 33.33700
C  39.47200 7.86500 31.86400
C  39.98100 6.93100 34.19000
C  39.99400 10.80400 33.87300
C  39.39700 10.66900 35.27100
H  39.92000 11.69400 36.27000
N  38.91100 6.94200 28.98000
C  38.25000 6.49500 30.05700
C  37.16100 5.67300 29.64700
C  37.20000 5.62100 28.22100
C  38.41800 6.39900 27.82200
C  36.18600 5.05600 30.66100
C  36.31600 5.04300 27.19700
O  36.49700 5.29500 26.01400
C  35.09100 4.17700 27.65300
N  40.98500 7.99300 26.82300
C  40.23000 7.15900 26.06700
C  40.78800 7.04100 24.63200
C  41.90400 8.10000 24.73400
C  42.06700 8.43600 26.18500
C  41.32800 5.66100 24.21600
C  41.61700 9.25400 23.71200
C  40.90300 10.53100 24.22200
N  42.19000 9.38400 29.05100
C  43.19700 9.63200 28.03600
C  44.18700 10.59900 28.64800
C  43.80100 10.77000 30.01000
C  42.65400 10.06300 30.20400
C  45.28600 11.20500 27.88300
C  44.22900 11.39200 31.28200
O  45.08800 12.21400 31.52200
C  43.12800 11.08000 32.27700
C  43.81900 10.29600 33.43500
O  44.43400 9.21500 33.36300
O  43.35200 10.79200 34.58100
C  43.49400 9.99500 35.75800
H  37.87000 6.46200 32.12800
H  38.80600 5.80400 25.75700
H  43.82400 9.49700 25.96300
H  41.27800 8.96500 33.87800
H  38.49000 8.46700 33.48700
H  40.48000 6.32200 33.43600
H  39.14600 6.43800 34.68800
H  40.69800 7.08700 34.99700
H  39.20000 11.16200 33.21700
H  40.78500 11.55300 33.90200
H  39.40300 9.63000 35.60000
H  38.34100 10.88900 35.11600
H  36.01100 5.81400 31.42400
H  36.60300 4.15800 31.11900
H  35.24600 4.72300 30.22300
H  35.52000 3.24000 28.00800
H  34.55700 3.90100 26.74300
H  34.39300 4.69600 28.30900
H  39.93900 7.27200 23.98800
H  42.85500 7.65500 24.44400
H  41.03500 5.64300 23.16600
H  40.70000 4.88900 24.66200
H  42.39000 5.43300 24.12600
H  40.97700 8.90300 22.90200
H  42.57200 9.38800 23.20500
H  40.71200 10.54700 25.29500
H  39.90200 10.66400 23.81200
H  41.53900 11.40400 24.07300
H  45.24200 10.93700 26.82700
H  46.16200 10.66800 28.24700
H  45.21800 12.28700 27.99900
H  42.70100 12.02900 32.60000
H  43.43700 10.75600 36.53700
H  44.45000 9.47400 35.80500
H  42.69300 9.30400 36.02000

