158

Mg 48.90700 34.49200 27.15200
C  46.90400 33.42000 29.87500
C  49.69800 37.22700 29.12000
C  50.79000 35.73400 24.66800
C  47.70700 31.89700 25.27000
N  48.44200 35.14100 29.35700
C  47.74700 34.46100 30.25600
C  47.84000 35.14400 31.60500
C  48.39900 36.58000 31.25100
C  48.84600 36.39000 29.79200
C  47.42400 37.78400 31.24300
C  48.86300 34.41500 32.56300
C  48.50600 34.27300 34.05300
H  48.99700 35.48000 34.95800
N  50.10900 36.29100 26.86200
C  50.37100 37.21500 27.84400
C  51.22400 38.19900 27.22000
C  51.53800 37.84200 25.91000
C  50.83600 36.58600 25.74800
C  51.71500 39.41100 27.88500
C  52.40400 38.57900 24.83100
O  52.63600 38.07900 23.75600
C  53.06000 39.87400 25.12200
N  49.06900 33.97200 25.14100
C  49.97500 34.59000 24.33600
C  50.14900 33.79200 22.99200
C  49.27800 32.48600 23.24200
C  48.58400 32.77900 24.60900
C  49.77500 34.66200 21.77700
C  50.14200 31.17400 23.18800
C  50.46100 30.65200 21.71000
N  47.52800 33.01300 27.40800
C  47.12200 31.99700 26.55800
C  46.15700 31.12600 27.26000
C  45.93500 31.73300 28.48600
C  46.87100 32.80700 28.59600
C  45.58400 29.82500 26.58500
C  45.21000 31.62300 29.79600
O  44.43800 30.82300 30.29900
C  45.76000 32.75700 30.70600
C  46.33300 32.04600 31.86800
O  47.22600 31.23100 31.79300
O  45.76600 32.40500 33.02500
C  46.25200 31.60400 34.14400
H  50.02800 38.06800 29.73400
H  51.53500 35.96100 23.90300
H  47.48300 31.04400 24.62600
H  46.91800 35.25300 32.17500
H  49.32000 36.81700 31.78500
H  46.98800 37.95700 30.26000
H  47.97300 38.69300 31.49000
H  46.68900 37.58700 32.02300
H  49.90200 34.72200 32.44600
H  48.82600 33.37100 32.25000
H  49.00200 33.37900 34.43200
H  47.42600 34.14800 33.98000
H  51.39000 40.29900 27.34200
H  52.80400 39.37300 27.91100
H  51.36600 39.53600 28.91000
H  53.78900 39.74100 25.92300
H  52.36000 40.68400 25.32300
H  53.52600 40.27500 24.22300
H  51.19400 33.50800 22.87300
H  48.50200 32.25000 22.51400
H  48.78500 34.36900 21.42800
H  50.47800 34.39800 20.98700
H  49.92700 35.74000 21.83700
H  49.83500 30.40600 23.89800
H  51.13600 31.54700 23.43600
H  49.74900 31.10500 21.02200
H  50.42700 29.56400 21.77100
H  51.49500 30.88500 21.45500
H  46.39000 29.15400 26.29100
H  44.98400 30.10900 25.72100
H  44.99600 29.26100 27.30900
H  44.89500 33.36000 30.98100
H  47.30000 31.78900 34.37700
H  46.02900 30.54300 34.02800
H  45.69100 31.96700 35.00500
Mg 6.61800 53.26000 41.21900
C  5.81800 49.75200 40.69300
C  9.57300 52.66800 39.72900
C  6.97800 56.68600 41.13200
C  3.36200 53.65700 42.38000
N  7.42600 51.48400 40.01900
C  7.04100 50.16200 40.09000
C  8.16000 49.19100 39.50800
C  9.37200 50.18300 39.37900
C  8.71700 51.53400 39.61200
C  10.44100 49.77500 40.38600
C  7.73100 48.56400 38.09700
C  6.85600 49.42200 37.14600
H  6.48900 48.73000 35.78400
N  8.08700 54.53600 40.52100
C  9.29400 54.03600 39.96200
C  10.10900 55.21100 39.76600
C  9.34600 56.41800 40.04200
C  8.02400 55.96000 40.53500
C  11.49800 55.15400 39.21900
C  9.86100 57.82900 40.00200
O  10.97700 58.03500 39.57700
C  9.09800 59.03400 40.41100
N  5.35300 54.92500 41.56900
C  5.68700 56.23300 41.55800
C  4.58000 57.19000 41.99300
C  3.46100 56.22500 42.39000
C  4.07700 54.83200 42.07900
C  5.05100 58.15800 43.09600
C  2.12100 56.38400 41.59900
C  0.82900 56.44800 42.41800
N  4.87500 51.94400 41.59200
C  3.66300 52.28200 42.17200
C  2.88000 51.08000 42.32300
C  3.72800 49.99800 41.81100
C  4.87100 50.63100 41.32600
C  1.44900 50.86600 42.72300
C  3.83400 48.51200 41.65500
O  3.06300 47.57200 41.94400
C  5.19500 48.29600 40.90200
C  5.03700 47.62100 39.61800
O  4.24900 47.94300 38.77900
O  5.67800 46.31100 39.65200
C  5.28600 45.31500 38.64900
H  10.57900 52.54000 39.32400
H  6.96700 57.76400 40.95800
H  2.35800 53.83700 42.76800
H  8.20700 48.34300 40.19100
H  9.86300 50.09800 38.40900
H  10.23400 48.97800 41.10000
H  10.77600 50.65700 40.93200
H  11.29800 49.47200 39.78300
H  7.27300 47.58800 38.25800
H  8.53800 48.46900 37.37000
H  7.45100 50.30900 36.93000
H  5.92500 49.64700 37.66500
H  11.90000 54.14100 39.22700
H  12.18300 55.70700 39.86200
H  11.57600 55.54200 38.20400
H  9.76400 59.89700 40.42500
H  8.85100 58.82300 41.45200
H  8.28600 59.22000 39.70900
H  4.39500 57.75100 41.07700
H  3.27800 56.34700 43.45800
H  5.21400 59.09700 42.56700
H  5.97000 57.69500 43.45700
H  4.34000 58.33100 43.90400
H  2.01700 55.61600 40.83200
H  2.18300 57.31200 41.03000
H  0.05900 55.83800 41.94600
H  0.33700 57.41900 42.37400
H  0.98600 55.98500 43.39200
H  1.31100 51.49500 43.60200
H  1.23000 49.83700 43.00900
H  0.75500 51.23400 41.96700
H  5.76000 47.64900 41.57300
H  5.65400 45.72700 37.70900
H  4.20400 45.21900 38.74300
H  5.88800 44.42500 38.83100

