158

Mg 1.73000 -3.21200 44.76500
C  5.03700 -2.53400 44.09900
C  0.71600 -0.57500 42.76800
C  -1.58800 -4.45500 44.76000
C  2.74700 -6.28300 46.02900
N  2.76500 -1.85600 43.45100
C  4.15300 -1.66200 43.48600
C  4.54900 -0.34400 42.75900
C  3.09900 0.30300 42.53300
C  2.16000 -0.76800 42.93100
C  2.94500 1.67400 43.20900
C  5.17500 -0.70000 41.43300
C  6.27300 0.43600 41.03300
H  6.39300 0.91400 39.58200
N  -0.22700 -2.57200 43.94600
C  -0.38700 -1.43900 43.09400
C  -1.81900 -1.26400 42.82500
C  -2.52000 -2.31500 43.49000
C  -1.46700 -3.18800 44.16200
C  -2.34600 -0.12900 41.96700
C  -3.97500 -2.34600 43.52800
O  -4.68100 -1.60700 42.81600
C  -4.66200 -3.27600 44.41200
N  0.73800 -5.07500 45.34400
C  -0.60900 -5.31700 45.33800
C  -0.81200 -6.89300 45.69300
C  0.51200 -7.28300 46.40200
C  1.36400 -6.16800 45.88400
C  -2.06000 -7.32600 46.47500
C  1.05400 -8.65300 45.91100
C  1.90100 -9.49000 46.84700
N  3.54400 -4.21600 45.17500
C  3.79700 -5.38100 45.79600
C  5.16600 -5.51900 46.01600
C  5.77600 -4.41800 45.43300
C  4.70700 -3.71800 44.80300
C  5.94700 -6.79200 46.60400
C  7.02600 -3.72800 45.12700
O  8.19700 -3.96800 45.34900
C  6.58700 -2.52400 44.12900
C  7.13400 -1.31100 44.70400
O  6.90500 -0.80800 45.78300
O  8.10600 -0.74900 43.83600
C  8.62600 0.56800 44.20600
H  0.48600 0.29000 42.14200
H  -2.57200 -4.89700 44.58700
H  3.16200 -7.17100 46.51200
H  5.26800 0.22500 43.34900
H  2.86000 0.41400 41.47500
H  2.84700 2.31800 42.33500
H  3.83600 1.90500 43.79300
H  2.12000 1.77400 43.91400
H  4.44500 -0.89300 40.64800
H  5.67500 -1.66300 41.53800
H  7.29700 0.09900 41.19300
H  6.01500 1.29400 41.65500
H  -3.23400 0.41700 42.28600
H  -2.47000 -0.53200 40.96100
H  -1.62200 0.68300 41.89900
H  -4.80800 -4.27000 43.99000
H  -5.64700 -2.85600 44.61900
H  -4.25000 -3.32600 45.42000
H  -0.72800 -7.39600 44.72900
H  0.61600 -7.10300 47.47200
H  -2.74200 -7.94600 45.89200
H  -2.60600 -6.41000 46.70000
H  -1.86600 -7.91200 47.37400
H  1.59700 -8.52200 44.97500
H  0.22800 -9.30300 45.62300
H  2.89400 -9.68100 46.44100
H  1.47900 -10.49400 46.88500
H  2.02600 -9.00500 47.81500
H  6.99500 -6.74500 46.30700
H  5.50700 -7.64400 46.08600
H  5.95200 -6.95600 47.68100
H  7.07000 -2.74200 43.17600
H  9.25400 0.85600 43.36300
H  9.23300 0.53200 45.11000
H  7.81200 1.23900 44.48300
Mg -0.80300 33.68800 27.18500
C  -2.78200 31.91200 29.42600
C  0.49100 35.40900 29.80900
C  0.61200 35.82200 24.88000
C  -2.33700 32.00900 24.53400
N  -1.14600 33.62800 29.34400
C  -1.84700 32.73100 30.06500
C  -1.59400 32.83500 31.55700
C  -0.60000 34.06000 31.68800
C  -0.36400 34.37700 30.21800
C  -1.11800 35.21500 32.57200
C  -1.05000 31.58000 32.21300
C  -1.79800 30.96200 33.40400
H  -1.02800 30.89900 34.74100
N  0.44700 35.29800 27.35000
C  0.85400 35.84200 28.52500
C  1.76600 36.95100 28.18700
C  1.87100 37.08900 26.79300
C  0.98700 36.04500 26.24900
C  2.42600 37.77900 29.24900
C  2.60800 38.06600 25.95000
O  2.81700 37.90800 24.74900
C  3.16400 39.36200 26.55900
N  -0.86700 33.84300 25.04000
C  -0.30900 34.87700 24.31000
C  -0.80100 34.85200 22.81400
C  -1.45300 33.44900 22.74200
C  -1.61100 33.11500 24.22800
C  -1.73400 35.96600 22.50200
C  -0.55600 32.42700 21.95100
C  0.48600 31.44900 22.71600
N  -2.16000 32.19500 26.97500
C  -2.66500 31.50500 25.85200
C  -3.59400 30.50700 26.26600
C  -3.66200 30.67200 27.67700
C  -2.87800 31.71500 28.00800
C  -4.40700 29.59500 25.39000
C  -4.27100 30.23000 28.83800
O  -5.15900 29.40900 28.94900
C  -3.67100 30.95300 30.07400
C  -4.81400 31.65600 30.71700
O  -5.44700 32.59100 30.24600
O  -5.10700 31.06600 31.92400
C  -6.25900 31.47800 32.74500
H  0.90000 36.02200 30.61500
H  1.03900 36.58300 24.22300
H  -2.69300 31.30100 23.78200
H  -2.55500 33.16400 31.95200
H  0.35600 33.72500 32.09100
H  -2.00400 35.06200 33.18800
H  -1.30600 36.01300 31.85400
H  -0.36400 35.34800 33.34800
H  0.00600 31.75600 32.41700
H  -0.98200 30.78400 31.47200
H  -1.89300 29.89100 33.22500
H  -2.79400 31.39700 33.48800
H  3.50500 37.71500 29.10900
H  2.26400 37.38300 30.25100
H  1.99600 38.77900 29.30600
H  2.27700 39.66100 27.11800
H  3.48500 39.98700 25.72600
H  3.92900 39.03900 27.26500
H  0.07000 34.93400 22.16400
H  -2.42200 33.49500 22.24500
H  -1.63200 36.69000 23.31100
H  -2.78100 35.66300 22.48800
H  -1.50700 36.29200 21.48700
H  -0.06200 32.89600 21.10000
H  -1.31300 31.77000 21.52200
H  0.12200 30.42500 22.62700
H  0.47700 31.59900 23.79600
H  1.46800 31.66800 22.29600
H  -5.40500 29.59700 25.83000
H  -3.97600 28.64000 25.08800
H  -4.60900 30.17600 24.49100
H  -3.13500 30.25700 30.71900
H  -6.00100 32.40400 33.25800
H  -6.52000 30.66600 33.42400
H  -7.11100 31.70100 32.10300

