158

Mg 2.01400 8.46800 27.25800
C  2.50400 10.55500 30.19300
C  1.92100 5.83900 29.62300
C  1.90800 6.37400 24.78400
C  2.64300 11.12600 25.26200
N  2.03400 8.23200 29.68700
C  2.13500 9.29400 30.60100
C  1.84800 8.80500 32.03200
C  1.76300 7.20000 31.83900
C  1.88600 7.06400 30.34300
C  2.92700 6.45700 32.62500
C  0.49900 9.39000 32.62600
C  0.27700 9.00500 34.05900
H  1.38800 8.48800 35.00600
N  1.93400 6.47500 27.18500
C  1.90400 5.55900 28.23200
C  1.71500 4.23300 27.75300
C  1.63900 4.34200 26.29400
C  1.89800 5.75200 26.02100
C  1.47600 2.99900 28.57500
C  1.44000 3.30100 25.20000
O  1.31000 3.58800 24.01700
C  1.21800 1.84700 25.56100
N  2.42200 8.67900 25.36000
C  2.20300 7.69300 24.47900
C  2.06900 8.24000 23.08500
C  1.96400 9.79300 23.24100
C  2.37200 9.85500 24.72200
C  3.37200 7.88300 22.27600
C  0.64600 10.46300 22.82600
C  0.81800 11.56900 21.78200
N  2.47500 10.45300 27.60300
C  2.77900 11.40100 26.62600
C  3.01900 12.63900 27.35100
C  3.13600 12.30600 28.69600
C  2.70400 10.94300 28.83900
C  3.12400 13.96200 26.76400
C  3.38200 12.94200 29.96200
O  3.55400 14.13400 30.30700
C  2.85900 11.75600 31.00700
C  3.97700 11.40700 31.97700
O  5.05300 10.84500 31.75600
O  3.58700 11.91300 33.18400
C  4.56000 11.66200 34.28200
H  1.63600 5.07300 30.34800
H  2.03800 5.81200 23.85700
H  2.64400 11.91000 24.50300
H  2.69400 9.09500 32.65500
H  0.82200 6.75000 32.15500
H  2.65500 5.75300 33.41100
H  3.60900 7.13500 33.13800
H  3.59800 5.96700 31.91900
H  -0.26200 9.00800 31.94600
H  0.24700 10.44700 32.54500
H  -0.54800 8.29600 34.12600
H  -0.13200 9.86800 34.58500
H  0.39500 2.86000 28.58500
H  1.75200 3.00600 29.62900
H  1.92100 2.09000 28.17000
H  0.78300 1.37500 24.67900
H  0.67500 1.70900 26.49600
H  2.19500 1.37700 25.66900
H  1.12200 7.87600 22.68700
H  2.74300 10.32300 22.69400
H  3.98600 8.78100 22.21200
H  3.05900 7.55800 21.28400
H  3.97300 7.12800 22.78200
H  0.10400 10.77500 23.71900
H  0.05800 9.70200 22.31300
H  1.71900 11.35900 21.20500
H  0.78800 12.56900 22.21600
H  0.00100 11.54300 21.06000
H  2.10100 14.25200 26.52300
H  3.62200 13.82200 25.80500
H  3.63900 14.66000 27.42400
H  1.94000 12.16700 31.42600
H  4.39400 12.26500 35.17500
H  5.56700 11.98400 34.01500
H  4.59700 10.57800 34.39600
Mg 40.95600 8.81400 29.38900
C  42.78500 10.22600 32.11800
C  38.91500 7.23600 31.69000
C  39.28800 7.43200 26.90900
C  43.56900 9.70700 27.25200
N  40.74300 8.96000 31.65900
C  41.65800 9.47900 32.55400
C  41.37700 9.03300 33.95300
C  40.35400 7.85300 33.70100
C  39.98700 8.01000 32.27100
C  40.73800 6.40300 34.15500
C  40.85800 10.16700 34.91400
C  40.47500 9.63200 36.27500
H  41.24600 10.29200 37.50100
N  39.21100 7.71900 29.27900
C  38.50300 7.19700 30.32900
C  37.37100 6.34400 29.83800
C  37.35700 6.61300 28.40700
C  38.66900 7.20300 28.11300
C  36.58300 5.48900 30.75700
C  36.31900 6.34700 27.42900
O  36.51300 6.38900 26.23200
C  34.94400 6.05800 27.79200
N  41.44400 8.53400 27.39800
C  40.50800 8.01600 26.53000
C  40.95800 8.23600 25.02000
C  42.38100 8.94400 25.17500
C  42.48300 9.13100 26.68900
C  41.08400 6.99600 24.12900
C  42.52100 10.33700 24.37100
C  41.84000 11.50400 24.96300
N  42.75100 9.82400 29.57200
C  43.75900 10.08100 28.60000
C  44.84900 10.83700 29.21700
C  44.49000 11.00400 30.57500
C  43.24200 10.33200 30.75300
C  46.10200 11.37800 28.55400
C  44.95900 11.49700 31.91200
O  45.94700 12.16200 32.21000
C  43.88300 11.00100 32.97100
C  44.63000 10.02900 33.94900
O  44.92100 8.90400 33.78100
O  44.85300 10.72600 35.13100
C  45.66900 10.03100 36.12400
H  38.31300 6.71300 32.43500
H  38.72200 7.26800 25.99000
H  44.39700 10.02400 26.61500
H  42.29200 8.69200 34.43800
H  39.40500 8.06800 34.19300
H  41.74700 6.55900 34.53800
H  40.75900 5.56300 33.46000
H  40.29100 6.16800 35.12000
H  40.02800 10.57200 34.33600
H  41.68400 10.87600 34.94900
H  40.69500 8.57000 36.38900
H  39.42200 9.90900 36.32600
H  36.93200 5.30100 31.77300
H  36.38500 4.49000 30.36900
H  35.61500 5.98600 30.81900
H  34.96500 5.34700 28.61700
H  34.51000 5.66800 26.87100
H  34.40800 6.99900 27.91500
H  40.22400 8.89400 24.55300
H  43.20400 8.26500 24.95100
H  42.04500 6.85400 23.63700
H  40.38000 7.23400 23.33100
H  40.80900 6.10000 24.68500
H  42.19000 10.29000 23.33300
H  43.59100 10.51600 24.26400
H  42.42100 12.38400 25.23700
H  41.19700 11.18200 25.78200
H  41.05400 11.82300 24.27900
H  45.90900 11.59300 27.50300
H  46.83400 10.59600 28.75900
H  46.46100 12.26000 29.08500
H  43.59200 11.91900 33.48200
H  45.24200 9.11900 36.54400
H  46.08100 10.55800 36.98500
H  46.56400 9.69500 35.60000

