158

Mg 1.19600 7.96500 24.64400
C  1.49200 9.69400 27.80100
C  1.56400 5.01300 26.34900
C  1.01400 6.47300 21.75800
C  1.76300 11.11300 23.02100
N  1.53100 7.50100 26.89200
C  1.47200 8.30800 28.00000
C  1.48200 7.48500 29.32100
C  1.83900 5.97800 28.76800
C  1.70600 6.15200 27.18000
C  3.30700 5.57800 29.03500
C  0.04800 7.58200 29.92600
C  -0.03000 7.33100 31.47100
H  1.10200 6.61500 32.20400
N  1.17700 6.03000 24.09000
C  1.31400 4.92600 24.91500
C  1.01800 3.65900 24.23100
C  0.93100 4.09100 22.83000
C  1.04300 5.60200 22.82900
C  0.94200 2.31300 24.82500
C  0.69300 3.22300 21.63100
O  0.38700 3.71800 20.58400
C  0.70100 1.77500 21.62200
N  1.48800 8.70900 22.70100
C  1.17900 7.81800 21.74000
C  1.16200 8.51300 20.32300
C  1.56200 9.99900 20.68300
C  1.59800 9.94400 22.23600
C  2.06800 7.96100 19.20400
C  0.82000 11.23400 20.05200
C  -0.65200 11.37700 20.38800
N  1.49800 10.02500 25.21400
C  1.66700 11.12000 24.39900
C  1.76300 12.24600 25.18300
C  1.72400 11.79200 26.49900
C  1.58200 10.38100 26.48800
C  1.94500 13.63900 24.65800
C  1.83700 12.09400 27.95400
O  2.00800 13.15000 28.53600
C  1.54100 10.79900 28.80500
C  2.66900 10.78500 29.78300
O  3.84100 10.38100 29.56300
O  2.26100 11.25500 30.96300
C  3.33100 11.46000 31.98000
H  1.67000 4.05100 26.85500
H  0.88700 6.00000 20.78200
H  2.09500 12.06000 22.59000
H  2.29000 7.64400 30.03600
H  1.21100 5.16900 29.14100
H  3.82600 6.26700 29.70200
H  3.94300 5.39500 28.16900
H  3.16200 4.61300 29.52000
H  -0.59500 6.90400 29.36300
H  -0.26300 8.62500 29.87400
H  -0.90500 6.71000 31.66000
H  -0.27000 8.17700 32.11400
H  0.90800 2.18100 25.90600
H  1.77400 1.75100 24.40100
H  0.02500 1.90100 24.40300
H  1.58000 1.33200 22.08900
H  0.63600 1.43500 20.58800
H  -0.28300 1.49100 21.99400
H  0.15300 8.39600 19.92800
H  2.57200 10.19100 20.32000
H  2.44800 8.72900 18.53100
H  1.39900 7.34900 18.60000
H  2.92000 7.44500 19.64700
H  0.89700 11.14100 18.96800
H  1.49700 12.02500 20.37200
H  -0.61100 12.24200 21.05000
H  -0.93800 10.56200 21.05200
H  -1.32800 11.56200 19.55400
H  1.74400 14.34300 25.46600
H  1.36700 13.87100 23.76400
H  3.00400 13.70800 24.40700
H  0.55400 10.90000 29.25800
H  4.07700 12.13800 31.56500
H  3.84800 10.51900 32.17100
H  2.92500 11.81800 32.92700
Mg 36.34400 48.99900 24.55300
C  36.40600 47.22100 27.58000
C  35.09500 51.66600 26.30000
C  35.32800 50.46900 21.60200
C  37.15900 46.08900 23.00000
N  35.67200 49.32800 26.70800
C  36.01000 48.55100 27.78900
C  35.77600 49.28100 29.14800
C  35.49300 50.75500 28.66400
C  35.38200 50.59000 27.15000
C  34.22500 51.30700 29.31200
C  36.81800 49.03900 30.30300
C  36.47600 48.65900 31.71100
H  35.06900 48.79800 32.16900
N  35.51200 50.85200 24.00000
C  35.15500 51.85600 24.91700
C  34.66700 52.99600 24.14400
C  34.63700 52.64500 22.76400
C  35.13200 51.25200 22.74300
C  34.15900 54.19800 24.72000
C  34.05200 53.43900 21.54900
O  34.16100 53.11600 20.35300
C  33.66800 54.89400 21.74700
N  36.33000 48.36300 22.53400
C  35.82400 49.16700 21.51100
C  35.89000 48.30800 20.14700
C  36.78400 47.04600 20.56000
C  36.65400 47.10100 22.20500
C  34.53700 47.88700 19.65000
C  38.32600 47.04400 20.13700
C  39.28700 47.79500 21.06700
N  36.86500 47.13600 25.10100
C  37.14800 46.02000 24.34400
C  37.61900 44.95000 25.18600
C  37.26300 45.36000 26.50900
C  36.82300 46.66300 26.34200
C  38.09500 43.58600 24.76300
C  37.23500 44.98900 27.90200
O  37.50800 43.93200 28.43700
C  36.64200 46.10100 28.59800
C  35.31100 45.77500 29.21300
O  34.22900 46.21100 28.85500
O  35.54400 45.08400 30.35800
C  34.41100 44.70000 31.18600
H  34.93900 52.63300 26.78200
H  35.00600 50.86700 20.63800
H  37.54800 45.21200 22.47800
H  34.85500 48.77500 29.44100
H  36.29600 51.43300 28.95300
H  33.86300 50.73900 30.16900
H  33.44200 51.34200 28.55500
H  34.39500 52.27200 29.79000
H  37.20700 50.05600 30.35500
H  37.66600 48.44300 29.96700
H  37.07900 49.25400 32.39700
H  36.75000 47.60400 31.71200
H  34.80700 55.00000 24.36600
H  34.12300 54.11200 25.80600
H  33.13000 54.40200 24.42500
H  33.17500 55.29200 20.86000
H  34.52100 55.47300 22.10100
H  32.86300 55.02200 22.47000
H  36.16800 48.95000 19.31100
H  36.35400 46.10500 20.21700
H  33.88100 47.62200 20.48000
H  34.60200 46.92300 19.14400
H  34.08200 48.54900 18.91400
H  38.43000 47.65000 19.23700
H  38.70500 46.04500 19.92000
H  39.73300 47.16800 21.84000
H  38.90900 48.69700 21.54800
H  40.11200 48.00400 20.38600
H  38.69800 43.56000 23.85500
H  37.20200 43.03600 24.46500
H  38.68200 43.21800 25.60500
H  37.36000 46.33000 29.38600
H  33.99900 43.82600 30.68200
H  33.60600 45.43300 31.13500
H  34.64800 44.67000 32.25000

