158

Mg 9.31000 2.92700 27.76000
C  10.63800 1.59100 30.58000
C  7.21100 4.93100 29.75200
C  7.54200 3.95900 25.02300
C  10.86400 0.58000 25.83300
N  9.05400 3.17500 29.93600
C  9.70200 2.53000 30.90200
C  9.30300 3.12400 32.23800
C  8.10500 4.05800 31.90000
C  8.13000 4.07900 30.38600
C  6.69500 3.70800 32.56900
C  10.49600 3.83300 32.90600
C  10.96400 3.42900 34.28700
H  9.93200 3.18600 35.44500
N  7.66400 4.35900 27.37700
C  6.98400 5.04800 28.36900
C  5.96500 5.92000 27.71600
C  6.10000 5.69000 26.33800
C  7.11000 4.62500 26.19700
C  5.27000 7.09500 28.50600
C  5.41700 6.32400 25.11100
O  5.66200 6.08700 23.93200
C  4.26700 7.25000 25.46500
N  9.29000 2.42400 25.67400
C  8.45400 2.99100 24.72000
C  8.75500 2.37900 23.34800
C  9.90000 1.25800 23.60800
C  10.07000 1.41600 25.12000
C  7.53700 2.01300 22.58200
C  11.13500 1.41800 22.77000
C  11.32700 0.16600 21.92800
N  10.57300 1.40700 28.07900
C  11.21900 0.50600 27.17800
C  12.13600 -0.29600 27.90100
C  11.96800 0.09000 29.24900
C  10.96400 1.06400 29.30400
C  13.13400 -1.25100 27.36300
C  12.36000 -0.17800 30.58100
O  13.11400 -0.97700 31.00600
C  11.59100 0.81200 31.45600
C  10.87200 0.05000 32.66200
O  9.81400 -0.51300 32.64200
O  11.67400 0.12200 33.81300
C  11.37700 -0.68100 35.00000
H  6.78400 5.65800 30.44700
H  7.21500 4.51700 24.14300
H  11.33700 -0.19000 25.22000
H  8.96000 2.35000 32.92400
H  8.29900 5.04800 32.31400
H  6.50300 4.59000 33.18000
H  6.90700 2.89100 33.25900
H  5.94200 3.36700 31.85800
H  10.22200 4.88200 33.02100
H  11.35100 3.81800 32.23000
H  11.62000 4.21900 34.65200
H  11.59100 2.56900 34.05300
H  5.65000 8.06500 28.18600
H  5.45100 7.19400 29.57600
H  4.23600 7.10000 28.16000
H  3.47300 6.68700 25.95500
H  3.72500 7.61200 24.59200
H  4.58400 8.14400 26.00100
H  9.23400 3.21500 22.83900
H  9.35700 0.34200 23.37700
H  7.34300 1.05200 22.10500
H  7.54700 2.69900 21.73500
H  6.67500 2.22500 23.21400
H  12.04500 1.47800 23.36700
H  10.97500 2.28900 22.13400
H  11.19600 0.38500 20.86800
H  10.75400 -0.72600 22.18300
H  12.36100 -0.17600 21.96900
H  13.27900 -1.08400 26.29500
H  12.77700 -2.28000 27.39000
H  14.07300 -1.14700 27.90700
H  12.34200 1.49800 31.84700
H  11.53100 -0.03600 35.86600
H  12.12600 -1.45800 35.15300
H  10.33400 -0.98700 35.09000
Mg 6.85000 57.41200 41.86200
C  5.77900 54.08000 41.92900
C  9.83000 56.30600 40.51700
C  7.75400 60.66200 41.71000
C  3.66000 58.39200 43.02400
N  7.51600 55.35500 40.87900
C  7.02400 54.13000 41.24200
C  7.86600 53.02100 40.63700
C  9.25000 53.80500 40.63900
C  8.82800 55.26000 40.63400
C  10.11100 53.55400 41.86900
C  7.44900 52.60600 39.26900
C  7.47000 51.10900 38.86600
H  6.52200 50.56600 37.77300
N  8.53300 58.35800 41.13700
C  9.69300 57.76300 40.68500
C  10.65400 58.77200 40.41900
C  10.12500 60.03700 40.87100
C  8.74400 59.78100 41.19600
C  12.06900 58.49500 39.90400
C  10.79400 61.41700 40.71500
O  11.97800 61.48100 40.35200
C  10.09400 62.71100 40.95100
N  5.72300 59.26700 41.99800
C  6.42900 60.41900 42.13200
C  5.50000 61.54100 42.56400
C  4.17000 60.85600 42.98100
C  4.54700 59.41000 42.62800
C  6.13700 62.44200 43.67100
C  2.98600 61.37200 42.11500
C  1.65400 61.39900 42.95300
N  5.07900 56.46300 42.36700
C  3.90900 56.98300 42.92500
C  2.99100 55.92700 43.24600
C  3.77900 54.73300 43.05200
C  4.96400 55.13200 42.35900
C  1.59700 56.07800 43.72600
C  3.75800 53.33200 43.22100
O  2.86100 52.60500 43.68500
C  5.13900 52.84600 42.61400
C  4.88000 51.72700 41.71100
O  4.23700 51.78700 40.68300
O  5.19300 50.49700 42.14600
C  4.61200 49.29100 41.58600
H  10.85000 55.98400 40.29800
H  8.06500 61.70900 41.72000
H  2.71700 58.56400 43.54800
H  7.80900 52.15200 41.29300
H  9.88700 53.57900 39.78300
H  9.63600 52.95600 42.64600
H  10.28500 54.47400 42.42800
H  11.10000 53.11700 41.72800
H  7.92400 53.15200 38.45300
H  6.40200 52.87600 39.13700
H  7.21600 50.59400 39.79300
H  8.49000 50.86300 38.57100
H  12.27600 57.42900 39.99900
H  12.81300 58.92700 40.57400
H  12.26500 58.82000 38.88100
H  10.01900 62.94500 42.01300
H  9.16800 62.75600 40.37700
H  10.70900 63.54700 40.61600
H  5.27700 62.18000 41.71000
H  4.00400 60.97500 44.05200
H  6.91900 61.98100 44.27400
H  5.39600 63.01700 44.22600
H  6.71600 63.21700 43.16900
H  2.87100 60.74900 41.22800
H  3.08400 62.38400 41.72400
H  1.70900 62.17500 43.71600
H  1.54100 60.50100 43.56000
H  0.66600 61.40600 42.49100
H  1.69600 55.75800 44.76300
H  0.93500 55.51800 43.06600
H  1.26100 57.11500 43.72600
H  5.67700 52.45500 43.47700
H  5.08100 48.41100 42.02600
H  4.91500 49.34700 40.54000
H  3.52600 49.23700 41.65100

