158

Mg 0.56100 7.42800 28.04900
C  1.06900 9.90200 30.26400
C  0.60500 5.14300 30.67200
C  0.54600 4.90600 25.74400
C  0.70000 9.76400 25.41600
N  0.75900 7.53600 30.23200
C  0.80200 8.69600 30.97000
C  0.77200 8.41300 32.46100
C  1.09600 6.88000 32.51500
C  0.71000 6.47600 31.09200
C  2.56900 6.54900 32.82100
C  -0.73700 8.78700 32.94900
C  -1.02400 8.94400 34.47300
H  0.10700 8.81800 35.48600
N  0.49400 5.37900 28.20300
C  0.47700 4.58800 29.32500
C  0.32500 3.18900 29.05300
C  0.15700 3.10800 27.59700
C  0.41600 4.46800 27.09800
C  0.42200 2.06400 30.08000
C  -0.17000 1.93300 26.70100
O  -0.18600 2.01500 25.48600
C  -0.36200 0.57000 27.37300
N  0.65700 7.35600 25.92300
C  0.68100 6.20500 25.21800
C  0.74700 6.39800 23.69400
C  0.60800 7.95300 23.61500
C  0.55800 8.37400 25.06600
C  2.03400 5.80000 23.08600
C  -0.61000 8.37100 22.64000
C  -0.40100 9.60700 21.68600
N  0.86000 9.44900 27.83200
C  0.86700 10.25000 26.74800
C  1.15900 11.64900 27.16900
C  1.27400 11.54900 28.54300
C  1.05600 10.19000 28.87900
C  1.15500 12.87600 26.27800
C  1.63000 12.18800 29.72100
O  2.08700 13.32100 29.91700
C  1.53600 11.21700 30.84400
C  2.85800 11.22300 31.56800
O  3.94500 10.98400 31.09900
O  2.55700 11.48800 32.89000
C  3.55000 11.30200 33.95500
H  0.51300 4.44400 31.50600
H  0.58700 4.08500 25.02500
H  0.90400 10.51000 24.64600
H  1.46300 9.00800 33.05900
H  0.43600 6.39900 33.23700
H  3.06900 5.79000 32.21900
H  2.58000 6.15300 33.83600
H  3.24200 7.38600 32.63600
H  -1.35900 8.00600 32.51200
H  -1.08000 9.76700 32.61500
H  -1.64000 8.11300 34.81800
H  -1.54400 9.89600 34.58000
H  1.13700 1.33500 29.70000
H  -0.56700 1.67500 30.32000
H  0.92100 2.53100 30.92900
H  -0.69500 -0.21100 26.69000
H  -1.20800 0.82100 28.01300
H  0.44700 0.25500 28.03300
H  -0.07700 5.87200 23.21100
H  1.53600 8.25000 23.12700
H  1.93500 4.71500 23.11400
H  2.85600 6.18700 23.68800
H  2.13100 6.18200 22.06900
H  -1.45400 8.69600 23.24800
H  -0.79300 7.56300 21.93200
H  -0.24800 9.26700 20.66100
H  0.47200 10.19800 21.96000
H  -1.29900 10.22100 21.75700
H  1.54000 12.53400 25.31700
H  1.84000 13.65000 26.62400
H  0.15100 13.29500 26.21500
H  0.66600 11.60800 31.37200
H  3.48900 10.29500 34.36800
H  3.28400 11.94300 34.79500
H  4.50800 11.69900 33.62000
Mg 46.99300 25.07200 27.59500
C  47.99500 27.27100 30.21600
C  45.82100 23.02500 30.07000
C  46.47500 22.85200 25.17500
C  48.63600 27.10700 25.38800
N  46.92700 25.17400 29.91700
C  47.31400 26.15700 30.72300
C  47.01700 25.96700 32.20900
C  46.31100 24.58300 32.09100
C  46.33900 24.18300 30.60200
C  47.07600 23.54200 32.92900
C  46.07100 27.13100 32.74800
C  46.43700 27.71300 34.15400
H  45.37700 27.70400 35.31500
N  46.15200 23.23700 27.65200
C  45.72300 22.57700 28.74900
C  45.16000 21.30100 28.32900
C  45.46900 21.17900 26.92700
C  46.10100 22.44600 26.49100
C  44.49300 20.36500 29.24000
C  45.15800 20.08100 25.93800
O  45.45000 20.15200 24.74600
C  44.34000 18.89300 26.42400
N  47.42400 24.95300 25.48800
C  46.99400 24.00500 24.68300
C  47.57500 24.10000 23.26400
C  48.07600 25.68800 23.30400
C  48.04800 26.01200 24.84900
C  48.69000 22.99900 23.15400
C  47.16200 26.74700 22.46700
C  47.88200 27.88700 21.77200
N  48.18700 26.75700 27.71000
C  48.74900 27.52500 26.75300
C  49.22200 28.81300 27.19800
C  48.98100 28.70700 28.59500
C  48.38200 27.43400 28.83000
C  49.75800 29.88700 26.38600
C  49.13100 29.38600 29.83900
O  49.64000 30.49500 30.06200
C  48.48500 28.52900 30.90600
C  49.47300 28.30800 31.99600
O  50.47900 27.61400 31.95100
O  49.08700 29.04800 33.10200
C  49.91600 28.91400 34.28500
H  45.40500 22.44100 30.89400
H  46.31900 22.18700 24.32300
H  49.14200 27.81700 24.73100
H  47.97500 25.92600 32.72700
H  45.29300 24.70900 32.46000
H  46.68300 22.54000 32.75700
H  46.79300 23.80200 33.95000
H  48.13200 23.62100 32.67200
H  45.05500 26.73600 32.75300
H  46.15200 27.87700 31.95700
H  46.67700 28.74900 33.91400
H  47.27200 27.14400 34.56400
H  43.59700 19.92300 28.80300
H  44.08600 20.83800 30.13300
H  45.19600 19.63300 29.63800
H  44.64100 18.61900 27.43500
H  44.75800 18.20900 25.68500
H  43.30100 19.13200 26.20000
H  46.71600 23.92700 22.61600
H  49.08400 25.58600 22.90400
H  48.43900 22.19900 22.45700
H  48.97000 22.52200 24.09300
H  49.61600 23.43900 22.78200
H  46.39900 27.05400 23.18200
H  46.62000 26.20800 21.69000
H  48.00300 28.65000 22.54000
H  47.37000 28.25000 20.88100
H  48.88000 27.58300 21.45700
H  50.44300 29.40600 25.68700
H  50.30900 30.63800 26.95200
H  48.99900 30.31100 25.73000
H  47.76300 29.18200 31.39500
H  50.11100 29.94400 34.58400
H  50.86400 28.38100 34.21200
H  49.38000 28.32800 35.03200

