158

Mg 0.86000 7.79800 27.09400
C  1.26200 9.81300 29.84000
C  1.04400 4.97700 29.16100
C  0.90300 5.91900 24.29600
C  0.72200 10.64700 25.08000
N  1.09600 7.49800 29.26600
C  1.07900 8.47300 30.20200
C  1.15800 7.87700 31.64100
C  1.24600 6.35900 31.43600
C  1.08600 6.23500 29.87100
C  2.44900 5.54200 32.02800
C  -0.14000 8.33200 32.36800
C  -0.03600 8.38500 33.92800
H  1.12700 7.70900 34.67200
N  1.12000 5.70000 26.80300
C  1.12200 4.72300 27.73200
C  0.89600 3.43500 27.01000
C  0.94700 3.66600 25.56500
C  0.98100 5.18200 25.52400
C  0.79500 2.07600 27.73200
C  1.05600 2.72800 24.39400
O  1.16300 3.08400 23.22700
C  1.17000 1.30000 24.70100
N  0.88600 8.22000 24.98200
C  0.88200 7.26000 24.05000
C  0.67500 7.77100 22.62600
C  0.57900 9.27500 22.83900
C  0.72100 9.45800 24.42500
C  1.70800 7.20800 21.66200
C  -0.69000 9.87400 22.23200
C  -1.88800 9.83700 23.13300
N  0.94500 9.87200 27.34600
C  0.88200 10.94800 26.46500
C  1.23000 12.17000 27.08600
C  1.34100 11.80900 28.45600
C  1.28300 10.38300 28.53000
C  1.44800 13.50700 26.46600
C  1.65200 12.28000 29.79600
O  1.98900 13.40800 30.06600
C  1.58200 11.02300 30.75500
C  2.76800 10.98000 31.68400
O  3.89600 10.59300 31.39800
O  2.40900 11.36900 32.94800
C  3.32000 11.43500 34.06500
H  0.98700 4.05100 29.73700
H  0.77200 5.42100 23.33300
H  0.60100 11.55400 24.48400
H  2.11800 8.26500 31.98100
H  0.37900 5.85100 31.85900
H  3.15200 6.24600 32.47400
H  3.00000 4.98700 31.26900
H  2.09000 4.82400 32.76500
H  -1.00400 7.79300 31.98000
H  -0.34400 9.33900 32.00300
H  -0.99000 7.96000 34.24000
H  -0.11700 9.44100 34.18400
H  1.67800 1.44700 27.83600
H  -0.05400 1.50300 27.35700
H  0.60100 2.27100 28.78700
H  1.86000 1.14000 25.52900
H  1.45700 0.74800 23.80600
H  0.15800 0.94100 24.89300
H  -0.36100 7.55400 22.36400
H  1.38200 9.91500 22.47100
H  2.47400 7.93500 21.39100
H  1.15400 6.83800 20.80000
H  2.18700 6.31000 22.05200
H  -1.02000 9.40600 21.30400
H  -0.58100 10.94000 22.03200
H  -2.28600 10.82000 23.38600
H  -1.75400 9.20100 24.00900
H  -2.58700 9.38300 22.43100
H  2.27600 13.92700 27.03700
H  0.54300 14.11300 26.50700
H  1.76700 13.28800 25.44800
H  0.75100 11.38100 31.36300
H  4.31300 11.37200 33.62100
H  3.15500 10.63800 34.79000
H  3.27400 12.38600 34.59600
Mg 48.65400 46.77200 42.44500
C  45.41000 46.82800 41.16600
C  48.97600 43.49900 41.06900
C  51.92100 46.84600 42.95900
C  48.48000 50.21000 42.94300
N  47.44500 45.47600 41.12500
C  46.11800 45.65400 40.82600
C  45.52500 44.45900 40.13100
C  46.49100 43.30900 40.37600
C  47.74700 44.12800 40.90700
C  45.98200 42.23700 41.38500
C  45.34200 44.83700 38.65800
C  43.90700 44.56900 38.05400
H  43.96600 43.66800 36.76600
N  50.24100 45.39300 42.11100
C  50.17300 44.09600 41.57100
C  51.52000 43.49000 41.46200
C  52.46500 44.42100 42.04700
C  51.55600 45.62300 42.33900
C  51.76200 42.05000 40.90400
C  53.93900 44.21500 42.21000
O  54.46800 43.11900 41.93000
C  54.80600 45.31700 42.72200
N  50.02700 48.39400 42.95900
C  51.31100 48.08000 43.20100
C  52.05100 49.30200 43.75300
C  51.03500 50.48800 43.34200
C  49.74800 49.69600 43.15800
C  52.36700 49.03400 45.22300
C  51.40600 51.28100 42.05000
C  52.68800 52.24300 42.24400
N  47.18000 48.19000 42.33700
C  47.27700 49.55000 42.62000
C  45.89400 50.04500 42.46300
C  45.13500 49.01700 41.91300
C  45.98600 47.91700 41.81100
C  45.57100 51.39500 42.99200
C  43.78900 48.66600 41.49900
O  42.73500 49.35800 41.39600
C  43.90900 47.16900 41.09500
C  43.15100 46.38600 42.07300
O  43.61700 45.88100 43.06500
O  41.84400 46.15500 41.55700
C  41.02600 45.14800 42.19100
H  49.06400 42.47000 40.71600
H  52.96900 46.83800 43.26700
H  48.33400 51.29000 42.88100
H  44.53400 44.18800 40.49700
H  46.70900 42.81700 39.42800
H  46.11500 42.62200 42.39600
H  46.61400 41.38300 41.14300
H  44.96400 41.99500 41.08000
H  46.01400 44.25900 38.02300
H  45.58300 45.88800 38.50200
H  43.44300 45.54600 37.91900
H  43.24700 44.03800 38.74000
H  52.45500 41.49800 41.53900
H  52.19100 42.15500 39.90700
H  50.85200 41.45200 40.86600
H  54.50900 46.23800 42.22000
H  55.84900 45.06000 42.53500
H  54.72100 45.50100 43.79200
H  52.90200 49.45800 43.09100
H  50.93500 51.13200 44.21500
H  51.90200 49.67600 45.97100
H  53.42800 49.19900 45.40700
H  52.02700 48.01200 45.39000
H  50.62400 52.01000 41.83900
H  51.45200 50.64300 41.16800
H  53.35900 52.06700 41.40400
H  53.04700 52.13000 43.26700
H  52.39400 53.28000 42.08600
H  46.22000 51.74500 43.79400
H  44.55800 51.53800 43.36800
H  45.75100 52.09800 42.17900
H  43.33600 47.03000 40.17800
H  40.41500 45.63200 42.95200
H  41.57100 44.43600 42.81200
H  40.41800 44.78600 41.36200

