158

Mg -1.84200 18.23100 27.02100
C  -2.34200 16.08900 29.66100
C  -2.83900 20.88900 28.82300
C  -1.62600 20.07000 24.17600
C  -1.71200 15.30900 25.01700
N  -2.35400 18.45900 29.01100
C  -2.37900 17.46500 29.97700
C  -2.69400 18.03300 31.36600
C  -3.16300 19.49600 31.07800
C  -2.80100 19.65900 29.56600
C  -4.65000 19.95300 31.49400
C  -1.51400 17.85400 32.34300
C  -1.87800 17.37400 33.74400
H  -0.78400 17.39400 34.81900
N  -2.09000 20.22500 26.56300
C  -2.43000 21.20700 27.44600
C  -2.32000 22.52500 26.79700
C  -1.83300 22.24900 25.46800
C  -1.82500 20.81400 25.38200
C  -2.40900 23.85800 27.48700
C  -1.36400 23.22800 24.37300
O  -1.00000 22.89400 23.29900
C  -1.30900 24.67000 24.73700
N  -1.69400 17.76200 24.95200
C  -1.58900 18.73200 23.97400
C  -1.36300 18.06300 22.53800
C  -1.06600 16.56200 22.95900
C  -1.58500 16.49900 24.37300
C  -2.46300 18.34700 21.44300
C  0.46400 16.03200 22.83400
C  1.59900 16.95700 23.50600
N  -1.97100 16.12200 27.24200
C  -1.84500 15.09500 26.35200
C  -1.80700 13.79700 27.06800
C  -2.04500 14.15300 28.39800
C  -2.15400 15.54300 28.40600
C  -1.58000 12.40900 26.43000
C  -2.17200 13.67300 29.71600
O  -2.17100 12.50400 30.12200
C  -2.33600 14.86100 30.63800
C  -1.24300 14.69200 31.60400
O  -0.15400 15.07500 31.33000
O  -1.66600 14.04000 32.73800
C  -0.46700 13.59500 33.52700
H  -3.03000 21.77300 29.43600
H  -1.48000 20.57800 23.22100
H  -1.51700 14.43200 24.39600
H  -3.49900 17.41100 31.75600
H  -2.58500 20.25200 31.60800
H  -5.11400 19.12700 32.03300
H  -5.22300 20.40400 30.68400
H  -4.56900 20.66100 32.31900
H  -1.01500 18.80300 32.53600
H  -0.74000 17.24400 31.87700
H  -2.19000 16.33100 33.69000
H  -2.77300 17.83600 34.16000
H  -2.58700 23.75500 28.55800
H  -3.19800 24.46000 27.03900
H  -1.54200 24.50900 27.37500
H  -0.55600 24.67700 25.52500
H  -2.33400 24.83800 25.06600
H  -1.09700 25.29800 23.87100
H  -0.47900 18.49200 22.06700
H  -1.67500 15.99600 22.25500
H  -3.30800 17.66200 21.50300
H  -2.09900 18.39800 20.41700
H  -2.83100 19.32300 21.76100
H  0.64700 15.95200 21.76300
H  0.50200 15.15400 23.47900
H  1.19500 17.94400 23.73200
H  2.55200 16.95900 22.97800
H  1.77900 16.55000 24.50100
H  -2.52000 12.04400 26.01700
H  -1.25900 11.62800 27.12000
H  -0.82900 12.52900 25.64900
H  -3.30900 14.71400 31.10600
H  -0.45900 14.14100 34.47000
H  0.51700 13.73100 33.07700
H  -0.61500 12.52900 33.70300
Mg 35.70600 48.80000 25.45400
C  36.03500 47.27700 28.57900
C  34.37300 51.56600 27.04200
C  35.09800 50.33300 22.37600
C  36.47000 45.83900 23.89000
N  35.14900 49.22400 27.54800
C  35.59600 48.56500 28.63100
C  35.30900 49.34000 29.90500
C  34.67000 50.70700 29.38600
C  34.67400 50.50400 27.86000
C  33.24800 51.06900 29.90300
C  36.60800 49.50800 30.74900
C  36.51600 49.48500 32.29100
H  35.24600 49.85300 32.99800
N  34.89200 50.68900 24.82600
C  34.33000 51.66400 25.67100
C  33.85800 52.73500 24.91700
C  34.04500 52.34800 23.50100
C  34.74500 51.11500 23.54800
C  33.31300 54.09300 25.53200
C  33.77400 53.25200 22.27700
O  33.99500 52.95200 21.12300
C  33.16400 54.55700 22.47600
N  35.60900 48.17600 23.42800
C  35.61400 49.02900 22.34100
C  36.04300 48.28700 21.04200
C  36.50200 46.93500 21.67000
C  36.13700 46.94400 23.08900
C  35.02200 48.16200 19.93400
C  37.98000 46.63500 21.50000
C  38.53600 46.67800 20.12200
N  36.14900 46.88900 26.08500
C  36.44900 45.79100 25.31800
C  36.77300 44.60200 26.26300
C  36.62900 45.19800 27.60600
C  36.29000 46.55300 27.41600
C  37.37800 43.29200 25.92600
C  36.76600 44.96600 29.02200
O  36.98200 43.96500 29.65400
C  36.25100 46.25100 29.73600
C  34.95600 45.90200 30.39000
O  33.87200 45.63300 29.87900
O  35.08900 46.15200 31.75900
C  33.84500 45.87500 32.51500
H  34.12600 52.48200 27.58300
H  34.83100 50.67700 21.37400
H  36.63700 44.85500 23.44500
H  34.53200 48.74500 30.38400
H  35.31900 51.52300 29.70300
H  33.06700 50.54800 30.84300
H  32.48500 50.79500 29.17400
H  33.28600 52.11600 30.20500
H  37.06700 50.45200 30.45800
H  37.30200 48.76600 30.35400
H  37.37200 50.13100 32.48800
H  36.72700 48.46500 32.61200
H  34.03700 54.86100 25.26000
H  33.31700 54.05400 26.62200
H  32.38000 54.45800 25.10400
H  32.96200 55.14400 21.57900
H  33.90100 55.04200 23.11600
H  32.23500 54.34300 23.00400
H  36.91500 48.83600 20.68600
H  35.96300 46.04700 21.34200
H  35.65100 48.47200 19.10000
H  34.08800 48.65100 20.20900
H  34.85300 47.10500 19.72800
H  38.10000 45.60100 21.82500
H  38.44500 47.32100 22.20800
H  38.71500 45.70100 19.67200
H  39.57100 47.01800 20.16100
H  37.95300 47.27400 19.42000
H  38.19700 43.14300 26.62900
H  37.92200 43.46100 24.99700
H  36.62600 42.50600 25.86200
H  36.99300 46.57000 30.46800
H  33.93000 44.79700 32.65300
H  32.94300 46.26400 32.04400
H  33.90600 46.37900 33.48000

