158

Mg 45.01300 4.77500 48.41200
C  42.76100 7.40100 47.77400
C  42.39500 2.52200 47.77800
C  47.24400 2.27600 48.06400
C  47.53700 7.16000 48.31800
N  42.75200 4.99800 47.80100
C  42.13000 6.16900 47.58000
C  40.69300 5.89600 47.16300
C  40.53700 4.34100 47.36300
C  41.98100 3.89900 47.60200
C  39.65100 3.94600 48.55300
C  40.48900 6.31100 45.64100
C  39.32700 7.13300 45.32700
H  38.82200 7.02800 43.89100
N  44.86400 2.69200 48.19600
C  43.70700 1.97900 48.03700
C  44.01100 0.61400 47.94000
C  45.46800 0.44900 48.00700
C  45.91500 1.85200 48.12100
C  43.00500 -0.45700 47.75300
C  46.21700 -0.88000 47.93800
O  45.65400 -2.00200 47.77800
C  47.71700 -0.83000 48.14400
N  47.08000 4.75100 48.38100
C  47.76800 3.55500 48.08100
C  49.31000 3.87200 47.91700
C  49.41400 5.30200 48.35700
C  47.91900 5.80600 48.37300
C  50.15400 2.83700 48.72800
C  50.43300 6.21200 47.52500
C  51.20300 7.27200 48.31400
N  45.21300 6.82200 48.10600
C  46.20700 7.67100 48.21300
C  45.76200 9.03700 48.07300
C  44.43500 8.94800 47.93200
C  44.09600 7.61800 47.93600
C  46.63600 10.21600 48.13500
C  43.24300 9.79600 47.75700
O  43.12400 10.99200 47.81100
C  42.13900 8.83500 47.54600
C  41.13600 9.09400 48.63200
O  41.23000 8.65400 49.77000
O  40.17800 9.97300 48.20000
C  39.22700 10.37700 49.20900
H  41.62800 1.76500 47.60000
H  48.02700 1.59700 47.72100
H  48.22800 7.97500 48.54500
H  40.00800 6.34400 47.88300
H  40.15000 3.78200 46.51100
H  38.88800 4.71400 48.68000
H  40.26300 3.91800 49.45400
H  39.01900 3.08500 48.33400
H  40.49900 5.43000 44.99900
H  41.30400 7.00100 45.42100
H  39.70400 8.14800 45.45700
H  38.45900 6.99300 45.97100
H  43.39100 -1.30000 48.32600
H  42.91700 -0.71100 46.69600
H  42.02400 -0.22800 48.16700
H  47.95500 -1.88900 48.23700
H  48.08300 -0.28200 49.01300
H  48.16300 -0.53500 47.19400
H  49.60500 3.78300 46.87200
H  49.76000 5.26500 49.39000
H  50.92300 2.37100 48.11100
H  49.54700 2.08000 49.22300
H  50.63300 3.32400 49.57800
H  49.80600 6.73100 46.80100
H  51.05600 5.50600 46.97400
H  50.97000 8.27000 47.94200
H  52.28200 7.15100 48.21200
H  51.13900 7.24800 49.40200
H  46.36200 10.59900 49.11800
H  46.47800 10.89200 47.29500
H  47.69800 9.98900 48.22300
H  41.66500 8.99400 46.57700
H  39.34600 11.40600 49.54800
H  39.18900 9.74500 50.09700
H  38.25200 10.36300 48.72100
Mg 40.57300 9.22500 29.77600
C  42.56800 10.56200 32.41600
C  38.23300 8.41100 32.15700
C  39.01100 7.42700 27.32600
C  43.20700 9.73800 27.55000
N  40.52400 9.39500 32.06100
C  41.38300 10.06600 32.86600
C  40.86400 10.03400 34.34200
C  39.49000 9.24600 34.24200
C  39.37700 9.01900 32.71500
C  39.35600 7.93400 34.95100
C  40.92300 11.47700 34.94700
C  40.08200 11.66300 36.31300
H  40.85400 12.12200 37.53600
N  38.79300 8.27300 29.71200
C  37.91300 8.03200 30.83200
C  36.65800 7.53100 30.28200
C  36.87200 7.23200 28.88600
C  38.32400 7.58500 28.56200
C  35.38700 7.29000 31.17000
C  35.82200 6.85200 27.82800
O  35.98600 6.80200 26.63500
C  34.45200 6.76300 28.25000
N  41.06400 8.55100 27.75300
C  40.29900 7.82600 26.93100
C  40.78300 7.87900 25.45600
C  41.90300 9.04100 25.52000
C  42.10500 9.08200 27.02100
C  41.24000 6.47700 24.87700
C  41.61500 10.39500 24.88100
C  42.84700 11.24300 24.42200
N  42.50200 10.00700 29.94000
C  43.41000 10.24400 28.90300
C  44.62500 10.88800 29.50900
C  44.29800 11.09900 30.86100
C  43.01100 10.49100 31.06700
C  45.78300 11.29100 28.66500
C  44.74000 11.70100 32.07000
O  45.81300 12.25600 32.32000
C  43.62800 11.24500 33.17600
C  44.33200 10.39100 34.16400
O  44.78500 9.29000 33.92600
O  44.37700 11.05700 35.32400
C  44.94900 10.46000 36.56100
H  37.51900 8.16900 32.94800
H  38.54700 6.82200 26.54400
H  43.98700 9.99900 26.83200
H  41.61000 9.43200 34.86200
H  38.60500 9.80700 34.54200
H  38.47900 8.09700 35.57700
H  40.25200 7.80500 35.55800
H  39.15200 7.00000 34.42700
H  40.36700 12.04400 34.20000
H  41.94100 11.76800 35.20300
H  39.68600 10.68300 36.58200
H  39.19600 12.27100 36.12700
H  34.36200 7.47200 30.84800
H  35.57400 7.97900 31.99300
H  35.51100 6.34100 31.69100
H  33.75700 6.54800 27.43800
H  34.20300 7.73400 28.67700
H  34.28300 6.04700 29.05500
H  39.91800 8.19700 24.87500
H  42.82700 8.64500 25.10000
H  42.23800 6.54400 24.44300
H  40.72300 6.04500 24.02100
H  41.19900 5.84100 25.76100
H  41.12500 11.05300 25.59900
H  41.01800 10.34700 23.97000
H  43.74700 10.62900 24.44500
H  42.89200 12.07200 25.12700
H  42.79700 11.75700 23.46200
H  46.38400 10.41600 28.41800
H  46.37300 11.98900 29.25900
H  45.49700 11.86400 27.78300
H  43.30700 12.17500 33.64600
H  45.87100 10.91400 36.92500
H  44.97300 9.37600 36.67200
H  44.27700 10.82400 37.33800

