158

Mg 1.10700 7.56300 25.69600
C  1.83500 9.25900 28.59500
C  1.42700 4.56000 27.46500
C  0.58800 5.99300 22.78500
C  1.59400 10.64700 23.88300
N  1.96100 6.90700 27.70200
C  1.87600 7.89700 28.77900
C  1.90000 7.12600 30.11300
C  1.96800 5.64300 29.80400
C  1.80300 5.67700 28.20100
C  3.30200 4.96100 30.11800
C  0.66400 7.56900 30.99700
C  1.07100 7.97400 32.42300
H  2.37900 7.45400 33.13900
N  0.87700 5.51600 25.24000
C  1.02800 4.44900 26.06100
C  0.86200 3.22300 25.35100
C  0.65000 3.60700 23.95700
C  0.69700 5.13100 23.95500
C  0.91000 1.81800 25.95900
C  0.48500 2.75500 22.67900
O  0.30200 3.16100 21.57500
C  0.49400 1.26000 22.81800
N  1.16500 8.24800 23.67200
C  0.79600 7.38600 22.67700
C  0.91700 8.04600 21.36000
C  0.82400 9.52100 21.75100
C  1.22700 9.49400 23.21900
C  2.20700 7.59300 20.56600
C  -0.63400 10.16200 21.58500
C  -0.71600 11.59800 21.02100
N  1.59000 9.54300 26.08100
C  1.76400 10.74700 25.27400
C  1.83100 11.88100 26.14300
C  1.79100 11.36800 27.48100
C  1.75300 9.97700 27.38600
C  1.86600 13.34900 25.65300
C  1.96700 11.75600 28.91500
O  2.06300 12.82100 29.47500
C  1.97600 10.39300 29.70600
C  3.27300 10.40500 30.52200
O  4.46300 10.16100 30.23500
O  2.91100 10.91100 31.73900
C  3.86800 10.96900 32.81000
H  1.46900 3.63100 28.03900
H  0.33800 5.51300 21.83600
H  1.65200 11.61200 23.37500
H  2.83700 7.41700 30.58800
H  1.14100 5.03500 30.17100
H  3.91600 5.63700 30.71400
H  3.87200 4.79700 29.20400
H  3.13800 4.02200 30.64700
H  -0.01600 6.72000 30.93500
H  0.17600 8.41700 30.51600
H  0.19200 7.73100 33.02100
H  1.17300 9.05900 32.39800
H  -0.01000 1.23800 25.88400
H  1.11000 1.78900 27.03000
H  1.69800 1.20300 25.52400
H  1.46600 0.76900 22.88000
H  0.14900 0.77300 21.90600
H  -0.24400 1.03800 23.58800
H  0.02500 7.78600 20.79100
H  1.51000 10.10500 21.13800
H  2.27900 6.51900 20.40000
H  3.12400 8.03400 20.95600
H  1.94500 8.03900 19.60700
H  -1.04100 10.26900 22.59000
H  -1.33600 9.52900 21.04100
H  -1.24600 11.72300 20.07700
H  0.27300 12.05500 21.00500
H  -1.28700 12.18800 21.73800
H  1.58100 14.01500 26.46700
H  1.02900 13.28500 24.95700
H  2.77900 13.69600 25.16900
H  1.12600 10.41100 30.38800
H  3.30000 10.38400 33.53300
H  3.99500 11.96100 33.24200
H  4.84900 10.60100 32.51000
Mg 46.20900 24.76900 28.53000
C  46.39700 27.21900 31.10900
C  45.06300 22.51500 30.85500
C  46.21700 22.52600 26.13000
C  48.00900 26.95500 26.48000
N  45.58600 24.93100 30.70300
C  45.83100 25.99600 31.58200
C  45.45500 25.58700 33.00500
C  45.28300 24.01300 32.88400
C  45.37000 23.78400 31.37100
C  46.29500 23.20700 33.73800
C  44.31200 26.42600 33.57500
C  44.71100 27.09100 34.86900
H  45.11700 26.28900 36.20100
N  45.63200 22.90000 28.48900
C  45.12800 22.13900 29.53000
C  44.75200 20.85200 28.96200
C  45.02500 20.82600 27.55800
C  45.64700 22.10000 27.34900
C  44.13200 19.71400 29.77000
C  44.75500 19.82800 26.52100
O  45.03100 19.95500 25.33600
C  43.87700 18.58600 26.87500
N  46.95800 24.79000 26.60500
C  46.84700 23.68500 25.77800
C  47.31500 23.99800 24.27900
C  47.98500 25.41800 24.42600
C  47.56600 25.80700 25.88000
C  48.20000 23.01600 23.46200
C  47.58800 26.49900 23.39200
C  46.08000 26.95400 23.21100
N  47.04600 26.74100 28.67400
C  47.73600 27.45300 27.75500
C  48.13700 28.72600 28.31600
C  47.65500 28.62400 29.63400
C  46.98400 27.40900 29.84300
C  49.04300 29.76700 27.72800
C  47.62900 29.34800 30.92700
O  48.02100 30.45500 31.17400
C  46.86300 28.42200 31.95900
C  47.93200 28.00000 32.86700
O  48.62300 26.94500 32.78100
O  47.94800 28.71600 34.06200
C  48.95400 28.31000 35.06600
H  44.68300 21.97100 31.72300
H  46.17400 21.85700 25.26800
H  48.56200 27.51200 25.72100
H  46.32500 25.69800 33.65400
H  44.29900 23.76200 33.27700
H  47.19100 23.75400 34.03200
H  46.62600 22.54700 32.93600
H  45.84900 22.72200 34.60600
H  43.48700 25.78400 33.88200
H  44.07300 27.20300 32.84800
H  43.84500 27.67400 35.17900
H  45.62400 27.67800 34.76400
H  44.60500 18.73500 29.69200
H  43.05800 19.71300 29.58300
H  44.33800 19.92900 30.81800
H  44.41100 17.91300 27.54600
H  43.59800 18.20200 25.89400
H  42.99000 18.92200 27.41200
H  46.33400 24.12600 23.82000
H  49.06300 25.28400 24.33300
H  49.00500 23.58500 22.99800
H  47.66200 22.36500 22.77300
H  48.78700 22.37500 24.12100
H  47.90000 25.98800 22.48100
H  48.20200 27.38700 23.54000
H  45.64600 26.50600 22.31700
H  46.03800 28.03100 23.04600
H  45.40500 26.64900 24.01000
H  49.95500 29.27000 27.39800
H  49.36400 30.42400 28.53600
H  48.54300 30.25500 26.89100
H  46.06700 28.87300 32.55300
H  48.38600 27.56900 35.62800
H  49.03900 29.24800 35.61500
H  49.88600 27.94200 34.63600

