158

Mg 54.44200 24.07600 44.50300
C  51.88100 26.26900 43.98700
C  52.53400 21.52600 43.32700
C  57.25000 21.96100 44.42100
C  56.57000 26.82100 45.46900
N  52.56700 23.94600 43.72700
C  51.64000 24.93100 43.51800
C  50.35500 24.49700 42.84900
C  50.45100 22.96500 43.11900
C  51.95200 22.77800 43.44600
C  49.53500 22.39500 44.24800
C  50.18200 24.81200 41.31900
C  48.68500 24.79600 40.76400
H  48.51500 24.15500 39.41600
N  54.82700 22.08800 43.90100
C  53.89900 21.19500 43.49100
C  54.48700 19.86500 43.33000
C  55.85100 20.06000 43.45300
C  56.06200 21.41100 43.88600
C  53.62400 18.58100 43.01700
C  56.91100 19.02300 43.29700
O  56.59200 17.85300 43.15200
C  58.37700 19.25800 43.35100
N  56.63000 24.39100 44.74600
C  57.50500 23.32100 44.83100
C  58.88600 23.85100 45.38800
C  58.66700 25.33800 45.66500
C  57.23200 25.59200 45.16900
C  59.38200 23.01500 46.60600
C  59.67900 26.40500 45.05100
C  60.46300 27.24700 46.07900
N  54.25300 26.14700 44.71000
C  55.17700 27.09600 45.22500
C  54.40900 28.29400 45.44300
C  53.12300 28.09900 44.97900
C  53.09600 26.75300 44.53600
C  54.99700 29.52000 46.14900
C  51.78600 28.67200 44.75200
O  51.29300 29.81100 44.95200
C  50.96500 27.50300 44.02600
C  50.66800 28.18400 42.72600
O  51.53800 28.59200 41.96400
O  49.35200 27.93100 42.36500
C  48.90900 28.54100 41.16900
H  51.79900 20.76000 43.07100
H  58.07900 21.27700 44.61400
H  57.18500 27.62300 45.88300
H  49.46900 24.71100 43.44700
H  50.30700 22.40100 42.19800
H  50.04200 22.34600 45.21200
H  49.21100 21.38800 43.98400
H  48.62100 22.99000 44.26700
H  50.65900 23.98900 40.78700
H  50.73200 25.71800 41.06700
H  48.31700 25.80500 40.57500
H  47.95000 24.34400 41.42900
H  53.71800 18.32100 41.96200
H  52.55500 18.71300 43.18400
H  53.89900 17.70200 43.60100
H  58.50200 20.06700 42.63200
H  58.85100 18.31700 43.07200
H  58.70100 19.52600 44.35700
H  59.52300 23.73300 44.51200
H  58.70300 25.47300 46.74600
H  58.57800 22.35000 46.92200
H  59.64600 23.65400 47.44900
H  60.28100 22.48300 46.29400
H  59.19400 27.10300 44.36900
H  60.52600 25.84500 44.65300
H  60.18500 26.94900 47.09000
H  60.31200 28.30100 45.84600
H  61.54600 27.30500 45.96700
H  54.41600 29.80400 47.02600
H  55.15500 30.39400 45.51700
H  55.98200 29.26500 46.54200
H  50.02500 27.31100 44.54200
H  48.79300 29.59900 41.40700
H  47.90000 28.17800 40.97200
H  49.57100 28.29200 40.34000
Mg 35.73000 47.89200 25.87100
C  36.21600 46.00200 28.77800
C  34.61100 50.47100 27.68900
C  34.84600 49.30800 22.88100
C  36.74900 44.96000 24.09600
N  35.41600 48.14300 27.97300
C  35.83200 47.32600 29.01700
C  35.62000 47.98600 30.34300
C  34.84700 49.30300 29.99300
C  34.92900 49.31400 28.45000
C  33.41000 49.36100 30.63600
C  37.02500 48.24600 31.00700
C  37.03000 48.69100 32.48400
H  35.66900 48.65100 33.17600
N  34.71600 49.60000 25.36300
C  34.48800 50.58400 26.29500
C  34.11100 51.73200 25.55800
C  33.99500 51.43300 24.19200
C  34.43200 50.01400 24.06400
C  33.86000 53.10800 26.21100
C  33.53600 52.26800 23.00200
O  33.52600 51.83900 21.88000
C  33.27200 53.68400 23.20200
N  35.90600 47.27900 23.85000
C  35.49600 48.07800 22.78800
C  35.63500 47.38200 21.49000
C  36.38900 46.06000 21.84600
C  36.40800 46.10200 23.36000
C  34.28100 47.21600 20.67500
C  37.86100 46.13600 21.36000
C  38.58900 44.83300 21.04500
N  36.27700 45.79900 26.25800
C  36.67800 44.76700 25.45800
C  37.14400 43.64700 26.22600
C  36.86300 44.05600 27.51400
C  36.42400 45.43800 27.48500
C  37.80800 42.28600 25.80500
C  36.86000 43.64200 28.91100
O  37.25600 42.63400 29.46900
C  36.45000 44.94300 29.69500
C  35.24600 44.63200 30.44400
O  34.17500 44.39500 29.97300
O  35.52700 44.67100 31.77000
C  34.51300 44.44400 32.76600
H  34.32500 51.35500 28.26300
H  34.62200 49.69800 21.88600
H  37.18400 44.06100 23.65400
H  35.03000 47.21100 30.83300
H  35.38900 50.16500 30.38200
H  33.12700 48.41200 31.09200
H  32.63700 49.60000 29.90600
H  33.44500 50.08900 31.44600
H  37.44400 49.10500 30.48300
H  37.66900 47.37800 30.86300
H  37.53300 49.64800 32.62000
H  37.58900 47.91100 33.00200
H  33.01600 53.53000 25.66500
H  34.71100 53.78000 26.09300
H  33.60700 53.00100 27.26500
H  34.07000 54.12900 23.79600
H  32.25900 53.77000 23.59500
H  33.09900 54.16200 22.23800
H  36.18000 48.08400 20.85900
H  35.91500 45.14200 21.50000
H  33.59800 47.94000 21.11900
H  33.95700 46.17700 20.61900
H  34.30600 47.62200 19.66400
H  38.54900 46.50000 22.12300
H  38.00800 46.75400 20.47400
H  37.93500 44.02100 20.72900
H  39.14000 44.56700 21.94700
H  39.18900 45.24200 20.23200
H  38.14500 42.25500 24.76900
H  37.11400 41.44700 25.85700
H  38.69800 42.20300 26.42700
H  37.23400 45.12000 30.43100
H  33.55700 44.81800 32.39800
H  34.72600 45.06100 33.63800
H  34.52700 43.38000 33.00200

