158

Mg 17.57000 -1.23700 28.63900
C  16.27600 0.66300 31.13000
C  19.20800 -3.14300 30.79500
C  19.05500 -2.74000 26.01700
C  16.07800 1.08100 26.35300
N  17.84800 -1.10200 30.76500
C  17.11600 -0.39500 31.57800
C  17.40900 -0.80600 33.03600
C  18.46000 -1.89600 32.89400
C  18.59500 -2.04000 31.38900
C  19.77400 -1.54400 33.54200
C  16.10600 -1.16200 33.79300
C  15.99300 -0.77200 35.23200
H  17.31300 -0.29400 36.00300
N  18.86000 -2.79500 28.41400
C  19.38500 -3.48500 29.49500
C  20.15200 -4.61100 29.04800
C  20.15200 -4.52600 27.60400
C  19.31700 -3.27300 27.29400
C  20.65300 -5.69300 29.95000
C  20.78800 -5.48200 26.58300
O  20.68300 -5.27900 25.38200
C  21.47500 -6.73000 27.07900
N  17.38800 -1.05800 26.37400
C  18.15800 -1.79200 25.60100
C  18.06200 -1.26800 24.17300
C  17.01000 -0.08200 24.21700
C  16.72500 -0.00600 25.73100
C  19.43100 -0.89400 23.50700
C  15.66700 -0.26000 23.37900
C  14.34000 -0.84100 23.98800
N  16.33600 0.49300 28.64900
C  15.83000 1.36700 27.71600
C  15.01400 2.45000 28.30000
C  15.16300 2.18300 29.70900
C  15.96000 1.02300 29.82900
C  14.26300 3.46700 27.55300
C  14.82900 2.69000 31.01000
O  14.10900 3.55300 31.39700
C  15.58900 1.74600 31.91700
C  16.46100 2.60100 32.78600
O  17.57900 3.01100 32.41900
O  15.85400 2.91800 33.96300
C  16.52800 3.88800 34.73300
H  19.69800 -3.67400 31.61400
H  19.47700 -3.19900 25.12000
H  15.70200 1.74300 25.57100
H  17.79900 0.07900 33.53800
H  18.28100 -2.85500 33.38100
H  20.01100 -2.19300 34.38600
H  19.66700 -0.56200 34.00200
H  20.53900 -1.49400 32.76700
H  16.06800 -2.23800 33.62000
H  15.26900 -0.71200 33.26100
H  15.63800 -1.71200 35.65400
H  15.26300 0.02000 35.39800
H  20.25300 -6.66100 29.64800
H  20.51300 -5.46400 31.00600
H  21.74200 -5.73500 29.96800
H  22.21100 -6.33100 27.77800
H  21.94300 -7.16200 26.19300
H  20.68300 -7.36300 27.48000
H  17.53900 -2.06000 23.63600
H  17.42400 0.86300 23.86500
H  20.28700 -1.03000 24.16800
H  19.38800 0.11700 23.10100
H  19.56700 -1.63600 22.72000
H  15.91900 -1.01100 22.63000
H  15.44200 0.73200 22.98700
H  13.55700 -0.08400 23.95600
H  14.42100 -1.10900 25.04200
H  13.95000 -1.66800 23.39400
H  13.63100 3.90600 28.32500
H  13.67700 2.97300 26.77800
H  14.97400 4.17300 27.12400
H  14.81600 1.32200 32.55700
H  16.72700 4.72100 34.05800
H  17.51200 3.56100 35.06700
H  15.89000 4.40100 35.45300
Mg 26.53200 50.07100 26.37300
C  24.41700 51.47200 28.72500
C  28.71600 49.13400 28.73300
C  28.58300 48.78200 23.87200
C  24.35900 51.33000 23.88600
N  26.58600 50.28200 28.46800
C  25.54800 50.75400 29.22800
C  25.82300 50.45600 30.81100
C  27.26800 49.86600 30.74300
C  27.52200 49.68800 29.21700
C  28.34500 50.85300 31.31600
C  24.72200 49.69500 31.49200
C  24.22400 50.13400 32.89700
H  25.12800 50.79200 33.98300
N  28.29000 49.06000 26.33400
C  29.11600 48.82300 27.40400
C  30.24800 48.10100 27.03600
C  30.15800 47.87900 25.62100
C  28.89300 48.53700 25.20000
C  31.31800 47.59100 28.01500
C  31.09300 47.01600 24.75900
O  30.82700 46.63500 23.66100
C  32.46800 46.77600 25.28500
N  26.59300 50.22700 24.13500
C  27.43900 49.49600 23.38900
C  27.16200 49.61900 21.89600
C  25.70300 50.29300 21.86500
C  25.51100 50.67000 23.35000
C  28.29700 50.34000 21.13400
C  24.62700 49.37100 21.22000
C  24.12500 48.15300 21.96500
N  24.69700 51.15000 26.26900
C  23.96000 51.57600 25.22900
C  22.80800 52.29900 25.71700
C  22.97400 52.32700 27.07000
C  24.14500 51.61100 27.38200
C  21.80900 53.03300 24.90500
C  22.36800 52.79800 28.29800
O  21.43300 53.54000 28.55400
C  23.29000 52.23900 29.42300
C  23.68600 53.42000 30.24600
O  24.21200 54.46600 29.87500
O  23.06600 53.36600 31.45400
C  23.19600 54.45200 32.46600
H  29.23500 48.80200 29.63500
H  29.31300 48.35500 23.18100
H  23.55700 51.50500 23.16600
H  25.77100 51.40300 31.34800
H  27.32700 48.88400 31.21200
H  29.15300 50.92700 30.58900
H  28.65400 50.28700 32.19500
H  28.00300 51.85100 31.59000
H  25.03500 48.65600 31.60000
H  23.91100 49.61800 30.76800
H  24.09100 49.16500 33.37800
H  23.31400 50.70500 32.71400
H  31.49400 46.53000 27.84000
H  30.84200 47.75500 28.98200
H  32.23100 48.18000 27.92500
H  32.84300 47.65900 25.80200
H  33.22900 46.57200 24.53100
H  32.54300 45.92800 25.96700
H  27.17600 48.62000 21.46000
H  25.64200 51.25000 21.34800
H  28.17500 51.40800 20.95300
H  28.57700 49.81400 20.22200
H  29.25800 50.33800 21.64900
H  25.07800 49.17800 20.24600
H  23.69400 49.84500 20.91500
H  23.08500 48.39400 22.18600
H  24.77500 48.19900 22.83900
H  24.27400 47.25400 21.36700
H  21.85600 54.07700 25.21600
H  20.80600 52.62000 25.01300
H  22.16700 52.98900 23.87700
H  22.75100 51.50000 30.01800
H  23.70000 55.31500 32.02900
H  23.78100 54.11800 33.32200
H  22.19900 54.75900 32.78200

