158

Mg 26.50400 1.04600 29.70300
C  28.44600 0.84700 32.44800
C  23.73900 1.77000 31.79600
C  24.42800 0.93500 27.09600
C  29.06800 -0.02600 27.73300
N  26.18700 1.41800 31.89000
C  27.14200 1.24700 32.83600
C  26.62600 1.56700 34.25100
C  25.11200 1.64500 34.01500
C  24.95100 1.55600 32.46000
C  24.26800 0.61800 34.83300
C  27.30300 2.90800 34.73400
C  28.08800 2.98900 36.08800
H  27.44100 3.85300 37.12800
N  24.43600 1.33400 29.45300
C  23.54300 1.80400 30.40800
C  22.21700 1.88100 29.74500
C  22.41900 1.65700 28.38900
C  23.84400 1.28800 28.25900
C  20.96200 2.12600 30.50200
C  21.41200 1.75700 27.29100
O  21.63100 1.73600 26.06700
C  19.89700 1.89600 27.61600
N  26.69800 0.50600 27.70900
C  25.74000 0.56100 26.81200
C  26.18600 0.16700 25.38700
C  27.69300 0.02500 25.57200
C  27.82100 0.15700 27.10400
C  25.40100 -1.04900 24.85800
C  28.44200 1.07200 24.92400
C  28.71300 2.45700 25.63500
N  28.43100 0.68900 29.96600
C  29.43900 0.23500 29.06500
C  30.68900 0.06700 29.73700
C  30.35200 0.18300 31.14100
C  28.97800 0.63100 31.16800
C  32.00200 -0.36600 29.06800
C  30.79300 0.06300 32.50300
O  31.90800 -0.15200 32.87300
C  29.56700 0.51200 33.39400
C  29.33900 -0.56800 34.39600
O  28.56400 -1.46700 34.31000
O  30.19400 -0.39200 35.44900
C  30.03800 -1.19400 36.73400
H  22.97000 2.12000 32.48700
H  23.95600 1.00400 26.11400
H  29.95200 -0.29600 27.15200
H  26.91200 0.66200 34.78600
H  24.75200 2.62600 34.32400
H  23.49100 1.20300 35.32500
H  24.79900 0.01100 35.56700
H  23.70300 -0.00500 34.14000
H  26.61800 3.74900 34.62000
H  28.05100 3.21900 34.00400
H  29.09800 3.32200 35.85100
H  27.97600 1.97300 36.46800
H  20.40900 3.01200 30.19100
H  21.18300 2.19000 31.56700
H  20.42000 1.19800 30.32300
H  19.32200 1.81100 26.69400
H  19.85300 2.86900 28.10500
H  19.63700 1.23500 28.44300
H  25.85900 1.05900 24.85300
H  28.07600 -0.94300 25.24900
H  26.08600 -1.74900 24.38000
H  24.65400 -0.80200 24.10300
H  25.08400 -1.58300 25.75400
H  28.16000 1.21100 23.88000
H  29.46300 0.71900 24.77900
H  28.17700 2.61200 26.57100
H  28.43600 3.26000 24.95200
H  29.78200 2.57400 25.81400
H  32.04200 0.03400 28.05500
H  32.03500 -1.45500 29.02800
H  32.85000 0.05400 29.60900
H  29.84300 1.40200 33.95900
H  30.42600 -2.20500 36.61500
H  29.00400 -1.11200 37.06900
H  30.68400 -0.82800 37.53200
Mg 36.27100 2.51400 30.12500
C  33.86900 3.46000 32.68400
C  38.68000 2.77100 32.40100
C  38.46400 1.92900 27.62200
C  33.54500 2.87200 27.88000
N  36.15000 2.92000 32.35500
C  35.16700 3.20200 33.18900
C  35.54100 3.06300 34.58600
C  37.08700 3.14200 34.50600
C  37.35300 2.94500 32.96200
C  37.82400 4.37600 35.10100
C  34.90200 1.78900 35.22200
C  34.57600 1.84200 36.68700
H  35.05100 3.00400 37.52100
N  38.24500 2.21800 30.08600
C  39.09700 2.36900 31.12500
C  40.38100 1.93400 30.78600
C  40.35600 1.66200 29.34300
C  38.96300 1.97400 28.93100
C  41.50500 1.70000 31.73200
C  41.52000 1.24500 28.37400
O  41.26800 0.84400 27.23800
C  42.88200 1.19700 28.89100
N  35.99600 2.19700 27.99900
C  37.04700 1.95500 27.17100
C  36.54400 1.70100 25.83500
C  34.93800 2.07500 25.86800
C  34.80100 2.40500 27.32100
C  37.40600 2.36800 24.82000
C  33.93300 0.99800 25.54300
C  32.74900 1.46700 24.71300
N  34.18000 3.14900 30.16000
C  33.26400 3.22600 29.17200
C  31.97000 3.77200 29.66900
C  32.19000 3.85400 31.05300
C  33.49500 3.45200 31.30200
C  30.66900 3.87800 28.94400
C  31.56300 4.06100 32.41300
O  30.42200 4.39800 32.64000
C  32.67200 3.78200 33.45400
C  32.75000 4.90000 34.39000
O  33.17300 5.99100 34.04200
O  32.29600 4.56100 35.63400
C  31.81600 5.65000 36.44300
H  39.48800 2.92500 33.12000
H  39.20900 1.94900 26.82400
H  32.67700 2.99900 27.23100
H  35.22200 3.96700 35.10500
H  37.49900 2.28500 35.03800
H  37.15300 5.23500 35.13700
H  38.74100 4.64300 34.57500
H  38.16000 4.17900 36.11900
H  35.68000 1.03300 35.11600
H  34.04300 1.43200 34.65400
H  34.98100 0.93200 37.12900
H  33.53600 1.61300 36.91900
H  42.39000 2.28800 31.49200
H  41.72300 0.63400 31.80000
H  41.29700 2.00500 32.75800
H  42.94900 0.77300 29.89300
H  43.29000 2.19600 29.04500
H  43.47200 0.68200 28.13200
H  36.68100 0.62500 25.73300
H  34.82100 2.94900 25.22700
H  36.94200 3.11000 24.17100
H  37.87000 1.55400 24.26300
H  38.15400 3.01000 25.28500
H  33.58600 0.54200 26.47100
H  34.41900 0.22900 24.94300
H  32.95800 2.29400 24.03500
H  31.89200 1.71400 25.34000
H  32.56200 0.64300 24.02500
H  29.99500 4.45300 29.58000
H  30.31900 2.88000 28.68100
H  30.91200 4.55300 28.12400
H  32.38100 2.87900 33.99200
H  32.67700 5.98000 37.02400
H  30.96500 5.29700 37.02500
H  31.51500 6.54800 35.90300

