158

Mg 16.52200 51.97300 25.97800
C  18.59300 50.66600 28.69200
C  14.31900 52.97900 28.27100
C  14.70700 53.04000 23.39500
C  18.88900 50.43700 23.71500
N  16.59800 51.91400 28.26100
C  17.48000 51.43200 29.19400
C  17.00700 51.59700 30.59200
C  15.56800 52.10500 30.43300
C  15.43000 52.34000 28.87400
C  14.47800 51.05700 31.01500
C  17.83100 52.61900 31.42800
C  17.81800 52.54600 32.95700
H  16.70900 51.74200 33.56600
N  14.77300 52.89100 25.84300
C  14.06300 53.35400 26.90700
C  13.01300 54.19000 26.43100
C  13.08800 54.16800 24.99300
C  14.23100 53.31700 24.69100
C  11.96000 54.82600 27.31600
C  12.26200 54.93200 23.93800
O  12.51600 55.07300 22.74600
C  11.12300 55.78500 24.39600
N  16.71200 51.65800 23.79700
C  15.88200 52.31300 23.01600
C  16.47600 52.24100 21.55500
C  17.71000 51.29800 21.59700
C  17.81100 51.13200 23.10000
C  15.50400 52.01700 20.42100
C  19.05700 51.89800 21.00600
C  19.87500 50.86100 20.26500
N  18.35900 50.73100 26.05500
C  19.08900 50.20200 25.06600
C  20.29200 49.55100 25.63100
C  20.10700 49.70800 27.04500
C  18.99100 50.46500 27.26600
C  21.39300 48.89200 24.87000
C  20.66400 49.34000 28.34200
O  21.76700 48.89700 28.64800
C  19.72100 49.91500 29.47100
C  19.26500 48.76000 30.28300
O  18.86000 47.64400 29.96300
O  19.42100 49.16500 31.55200
C  19.47600 48.20200 32.59500
H  13.56900 53.12600 29.05100
H  14.19100 53.43500 22.51800
H  19.75200 50.06100 23.16200
H  17.09400 50.60500 31.03400
H  15.42200 53.06300 30.93300
H  15.04500 50.28400 31.53400
H  13.84000 50.57500 30.27400
H  13.85400 51.46000 31.81300
H  17.55200 53.65200 31.22000
H  18.80900 52.41200 30.99400
H  17.88900 53.57000 33.32200
H  18.74300 52.02100 33.19400
H  11.95000 54.48700 28.35200
H  10.93800 54.72300 26.95000
H  12.14500 55.89700 27.23900
H  10.25800 55.12700 24.48200
H  10.88300 56.46000 23.57400
H  11.23800 56.33000 25.33300
H  16.76400 53.27100 21.34500
H  17.46900 50.34000 21.13600
H  14.86200 52.89600 20.48200
H  14.95100 51.08400 20.53400
H  16.02600 51.90700 19.47100
H  19.58200 52.09900 21.94000
H  18.88200 52.86000 20.52400
H  19.28500 49.94500 20.21900
H  20.85200 50.73200 20.73100
H  20.18400 51.27800 19.30700
H  21.68200 49.61100 24.10300
H  21.10800 47.95100 24.39900
H  22.19000 48.73400 25.59600
H  20.32200 50.60500 30.06300
H  19.61100 47.19400 32.20300
H  18.56300 48.25500 33.18800
H  20.25900 48.43400 33.31600
Mg -5.44900 25.81500 25.69000
C  -4.09500 27.00800 28.66600
C  -7.01900 23.32800 27.57000
C  -6.41800 24.36400 22.88200
C  -3.07600 27.71400 23.97300
N  -5.56200 25.26500 27.88800
C  -4.95000 25.93000 28.93600
C  -5.41200 25.39600 30.29400
C  -6.01100 23.94400 29.91300
C  -6.22800 24.15900 28.38000
C  -5.18400 22.74600 30.41200
C  -6.42300 26.23800 31.07000
C  -6.12300 26.59700 32.52300
H  -5.30600 25.54300 33.35500
N  -6.72000 24.17200 25.31200
C  -7.30400 23.32000 26.17500
C  -8.12300 22.34700 25.44500
C  -8.03600 22.69200 24.05900
C  -6.99300 23.79300 24.06300
C  -8.93600 21.20500 26.07200
C  -8.80900 22.16500 22.81000
O  -8.54700 22.50400 21.66500
C  -9.83200 21.18100 22.91600
N  -4.73200 25.87700 23.73500
C  -5.40300 25.27200 22.79600
C  -4.79000 25.63700 21.40300
C  -3.85700 26.81300 21.72600
C  -3.87100 26.87300 23.22000
C  -4.08600 24.40800 20.72100
C  -4.29700 28.23000 21.15800
C  -3.33400 28.98200 20.20700
N  -3.88800 27.15700 26.14300
C  -3.02400 27.82600 25.31400
C  -2.38900 28.82100 26.17600
C  -2.79400 28.56300 27.47200
C  -3.67300 27.52700 27.41400
C  -1.57000 29.98800 25.73300
C  -2.60100 28.92600 28.83800
O  -1.85100 29.75800 29.39000
C  -3.31400 27.85400 29.66100
C  -2.51700 27.09800 30.63300
O  -1.90500 26.05100 30.40300
O  -2.47900 27.82500 31.78700
C  -1.39200 27.52700 32.69100
H  -7.51300 22.53200 28.13000
H  -6.74600 23.85900 21.97100
H  -2.57000 28.43300 23.32600
H  -4.51900 25.19600 30.88700
H  -6.98700 23.77200 30.36700
H  -5.08500 21.97300 29.64900
H  -5.64300 22.27100 31.27900
H  -4.18200 23.05100 30.71400
H  -7.38900 25.73400 31.06300
H  -6.63200 27.17900 30.56200
H  -7.14800 26.67100 32.88600
H  -5.58300 27.53100 32.67600
H  -8.37600 20.72000 26.87200
H  -9.26800 20.38900 25.43100
H  -9.76100 21.74000 26.54300
H  -9.43600 20.18000 23.08900
H  -10.41200 21.16600 21.99300
H  -10.56100 21.35900 23.70700
H  -5.54500 25.92600 20.67200
H  -2.88000 26.54500 21.32300
H  -4.27400 23.51200 21.31300
H  -3.03700 24.47900 20.43200
H  -4.67300 24.23300 19.82000
H  -4.49200 28.88100 22.01100
H  -5.23700 28.07900 20.62800
H  -2.37900 28.47700 20.06100
H  -3.19900 30.00500 20.55700
H  -3.69500 28.90100 19.18200
H  -0.54300 29.63500 25.63900
H  -1.72000 30.85300 26.37900
H  -1.88900 30.21100 24.71500
H  -4.09400 28.37300 30.21900
H  -0.45500 27.43300 32.14200
H  -1.59100 26.65300 33.31100
H  -1.34100 28.39100 33.35300

