158

Mg 47.59700 34.85700 27.67500
C  45.56800 33.52400 30.30100
C  48.18500 37.53700 29.77000
C  48.79600 36.61400 24.98400
C  46.34400 32.41500 25.58200
N  46.93300 35.44800 29.81400
C  46.21900 34.71600 30.65400
C  46.50800 35.19600 32.09000
C  46.94900 36.68400 31.87200
C  47.43600 36.55300 30.40800
C  45.79500 37.68600 32.05700
C  47.68700 34.35300 32.76300
C  47.52600 34.26500 34.33900
H  46.60200 35.29700 34.97500
N  48.48200 36.75600 27.43400
C  48.59300 37.70200 28.42800
C  49.33200 38.88500 27.87400
C  49.62200 38.50800 26.50300
C  48.94600 37.25500 26.22000
C  49.62800 40.17900 28.55800
C  50.33900 39.34500 25.47000
O  50.48800 38.97400 24.33800
C  50.68200 40.81100 25.67000
N  47.58500 34.51100 25.56900
C  48.03100 35.42700 24.70000
C  47.95200 34.91600 23.25800
C  47.18100 33.53400 23.45200
C  46.97100 33.47300 24.94600
C  47.31900 35.83400 22.22900
C  48.14200 32.38500 22.87400
C  49.43000 32.25300 23.53000
N  46.43500 33.15600 27.91000
C  46.12100 32.22400 27.01100
C  45.56900 31.06800 27.67600
C  45.24300 31.54800 28.93500
C  45.87900 32.80500 29.08400
C  45.13400 29.82800 26.99100
C  44.55000 31.23700 30.14500
O  43.96400 30.18700 30.47700
C  44.61400 32.56800 31.01800
C  44.89800 32.18200 32.42400
O  45.81100 31.50000 32.88500
O  43.74700 32.55700 33.14000
C  43.56200 32.06300 34.44600
H  48.42600 38.35400 30.45300
H  48.94200 37.22000 24.08700
H  45.85800 31.82800 24.80000
H  45.57300 35.21000 32.65100
H  47.86000 36.84100 32.44800
H  45.36400 37.86000 31.07200
H  46.09400 38.70000 32.32200
H  45.05000 37.33000 32.76900
H  48.65000 34.70700 32.39400
H  47.66900 33.34800 32.34100
H  48.52300 34.48600 34.72000
H  47.18000 33.28200 34.65900
H  50.68700 40.42900 28.63600
H  49.31100 40.11800 29.59900
H  49.04300 40.94500 28.04800
H  50.01700 41.49400 26.19900
H  51.03400 41.26800 24.74500
H  51.59400 40.68400 26.25200
H  48.97500 34.75900 22.91600
H  46.18800 33.31100 23.06300
H  47.87400 36.10100 21.32900
H  47.06000 36.78900 22.68600
H  46.36700 35.41900 21.90100
H  48.29700 32.49500 21.80100
H  47.56600 31.46800 22.99800
H  49.63200 31.26900 23.95400
H  49.42600 32.89800 24.40900
H  50.24700 32.41700 22.82800
H  45.77300 28.98300 27.24900
H  45.27300 29.95000 25.91700
H  44.05800 29.66500 27.04400
H  43.68100 33.12300 30.92900
H  44.37600 31.41900 34.77900
H  42.65300 31.49600 34.64700
H  43.33800 32.77800 35.23700
Mg -11.26100 39.95200 41.75000
C  -10.29000 36.76400 40.87800
C  -8.23000 41.13400 40.88700
C  -12.55600 43.02100 41.77100
C  -14.60200 38.59300 42.22700
N  -9.59100 39.09300 40.76500
C  -9.33800 37.77400 40.54900
C  -7.97500 37.59400 39.91500
C  -7.25700 38.91700 40.25500
C  -8.46700 39.77400 40.62200
C  -6.03800 38.94000 41.20500
C  -8.11000 37.11700 38.44200
C  -7.12000 36.06000 38.04800
H  -5.93600 36.52300 37.16700
N  -10.46600 41.85400 41.49600
C  -9.17900 42.13200 41.18600
C  -9.00700 43.52800 41.16300
C  -10.34500 44.08300 41.23700
C  -11.20200 42.94500 41.50600
C  -7.59600 44.13800 41.00800
C  -10.61800 45.59600 41.19900
O  -9.73000 46.41600 40.97100
C  -11.95500 46.17400 41.38100
N  -13.31300 40.75800 41.94200
C  -13.52300 42.04600 41.92600
C  -15.00300 42.39500 42.25700
C  -15.60200 40.99100 42.55500
C  -14.43900 40.04600 42.23000
C  -15.21100 43.42100 43.31900
C  -16.93700 40.72300 41.90500
C  -17.96900 40.03100 42.89900
N  -12.29300 38.04400 41.65400
C  -13.61200 37.62600 41.91400
C  -13.67600 36.19200 41.90800
C  -12.38400 35.79100 41.45400
C  -11.60100 36.95600 41.34900
C  -14.87700 35.36100 42.27300
C  -11.52400 34.68800 41.12500
O  -11.70700 33.49100 41.24300
C  -10.14700 35.26700 40.64300
C  -8.98200 34.63200 41.43200
O  -8.71000 34.98900 42.54700
O  -8.50400 33.57400 40.76800
C  -7.67400 32.67500 41.60200
H  -7.21200 41.50200 40.74000
H  -12.99400 44.01900 41.69500
H  -15.57100 38.23500 42.58000
H  -7.47700 36.84200 40.52600
H  -6.94200 39.29600 39.28200
H  -6.37800 39.53000 42.05600
H  -5.17900 39.43500 40.75200
H  -5.77800 37.90500 41.42700
H  -8.03900 38.03100 37.85200
H  -9.11400 36.70100 38.35700
H  -7.61600 35.33500 37.40300
H  -6.70600 35.45300 38.85400
H  -7.50300 45.22200 40.94000
H  -7.07700 43.75700 40.12900
H  -6.95300 43.87300 41.84800
H  -12.61200 45.66600 40.67500
H  -11.85800 47.22300 41.10100
H  -12.21300 46.07700 42.43500
H  -15.43700 42.80200 41.34400
H  -15.81300 40.81000 43.60900
H  -15.50800 44.34500 42.82100
H  -14.23800 43.69600 43.72500
H  -15.96000 43.14800 44.06200
H  -16.78200 40.08400 41.03500
H  -17.41200 41.68200 41.70100
H  -18.63000 40.75300 43.37700
H  -17.51900 39.37200 43.64200
H  -18.69100 39.52900 42.25500
H  -15.59700 35.96000 42.83100
H  -14.54600 34.51900 42.88000
H  -15.49100 35.08800 41.41500
H  -9.99600 35.08600 39.57900
H  -7.40300 31.95800 40.82700
H  -8.20900 32.09400 42.35300
H  -6.80200 33.19000 42.00300

