158

Mg 41.70100 40.69200 26.35100
C  40.95200 43.10300 28.89600
C  42.11400 38.33700 29.00100
C  42.68600 38.46600 24.14000
C  41.66800 43.16600 24.03300
N  41.42300 40.71000 28.77500
C  41.13300 41.78200 29.52500
C  40.97900 41.37200 30.98500
C  41.39200 39.81600 30.98000
C  41.69100 39.57300 29.49600
C  42.61200 39.41100 31.88200
C  39.54800 41.69000 31.41500
C  39.25700 42.74800 32.53700
H  38.49400 42.38500 33.89200
N  42.26900 38.66700 26.51800
C  42.48000 37.93300 27.66600
C  43.02800 36.63100 27.32500
C  43.20000 36.66000 25.91500
C  42.69800 37.95800 25.43500
C  43.34100 35.61400 28.29700
C  43.96300 35.65300 25.07500
O  44.10800 35.83000 23.85900
C  44.58300 34.33100 25.61700
N  42.21800 40.83100 24.40800
C  42.43700 39.74600 23.64800
C  42.45900 40.13600 22.02400
C  41.84800 41.51600 22.10900
C  41.97600 41.88400 23.55800
C  43.85400 39.94900 21.41800
C  40.39600 41.52300 21.55100
C  39.29200 40.80900 22.41200
N  41.29600 42.69200 26.39300
C  41.35700 43.59800 25.35400
C  41.14800 44.89600 25.84700
C  40.92100 44.71800 27.24800
C  41.04100 43.39300 27.51600
C  40.98300 46.19000 25.00000
C  40.54500 45.48300 28.43000
O  40.21700 46.67600 28.55500
C  40.59400 44.50100 29.55300
C  41.63200 45.07900 30.53800
O  42.75600 45.44000 30.25900
O  41.02900 45.17900 31.79500
C  41.82500 45.70800 32.85100
H  42.01800 37.65100 29.84500
H  43.00400 37.79100 23.34200
H  41.37200 43.85400 23.23900
H  41.59700 41.96400 31.66000
H  40.55300 39.13400 31.11300
H  43.42400 38.93800 31.33100
H  42.20000 38.69000 32.58800
H  42.95000 40.34400 32.33300
H  39.12600 40.76100 31.79900
H  38.92800 41.88300 30.54000
H  38.63100 43.55100 32.14700
H  40.22000 43.06800 32.93600
H  44.41400 35.47200 28.42600
H  42.84400 34.68900 28.00500
H  42.98800 35.96000 29.26900
H  44.88100 33.67400 24.80000
H  43.80000 33.87400 26.22200
H  45.44900 34.69600 26.17000
H  41.74800 39.52100 21.47200
H  42.37200 42.21300 21.45400
H  44.50600 39.99500 22.29000
H  44.12400 40.72100 20.69700
H  43.77800 39.08000 20.76500
H  40.41100 40.94300 20.62800
H  40.10200 42.54100 21.29500
H  39.49900 39.74800 22.55200
H  38.39900 40.94700 21.80300
H  39.08200 41.35400 23.33300
H  40.92400 47.11500 25.57300
H  40.07500 46.19300 24.39700
H  41.70000 46.23000 24.18000
H  39.61600 44.43900 30.03100
H  42.51300 46.47700 32.49900
H  42.40300 44.92900 33.34700
H  41.10700 46.20400 33.50400
Mg 5.96400 54.82500 42.01200
C  5.80300 51.26800 41.57500
C  9.01400 54.76900 40.47700
C  5.76000 58.12800 41.82300
C  2.74900 54.63700 43.42700
N  7.08300 53.19900 40.91200
C  6.92900 51.78000 40.96600
C  8.12500 51.04900 40.33500
C  9.17800 52.23900 40.18700
C  8.43100 53.48500 40.61600
C  10.49700 51.97700 40.93100
C  7.84700 50.30000 39.04200
C  6.91000 50.96900 38.06400
H  7.02100 50.51600 36.58500
N  7.18900 56.31000 41.22800
C  8.45000 56.06100 40.67500
C  8.98800 57.38700 40.30100
C  8.04800 58.40300 40.64700
C  6.92800 57.60200 41.23300
C  10.28800 57.52900 39.62600
C  8.30800 59.88200 40.50200
O  9.43200 60.29100 40.19400
C  7.25900 60.96300 40.81500
N  4.44200 56.12100 42.50500
C  4.68200 57.49900 42.49800
C  3.64900 58.33300 43.28600
C  2.69300 57.17900 43.76900
C  3.32200 55.86700 43.15300
C  4.20200 59.27300 44.38700
C  1.12700 57.31100 43.57600
C  0.34300 56.76900 42.33800
N  4.54800 53.28000 42.49800
C  3.30000 53.38200 43.10500
C  2.91400 52.10400 43.46700
C  3.74600 51.15300 42.80600
C  4.74700 51.97900 42.22000
C  1.77800 51.74800 44.35900
C  4.17200 49.76400 42.65500
O  3.74000 48.68900 43.01800
C  5.41600 49.80300 41.78300
C  5.20800 49.05900 40.46200
O  4.30100 49.40400 39.68200
O  5.98800 47.91400 40.29300
C  5.83600 47.10900 39.07200
H  10.07500 54.63600 40.25500
H  5.69700 59.21800 41.83900
H  1.88600 54.71900 44.09100
H  8.45400 50.34000 41.09500
H  9.32700 52.35700 39.11300
H  11.36200 51.96000 40.26800
H  10.56500 50.99100 41.39000
H  10.65400 52.66700 41.76000
H  7.54500 49.29100 39.32200
H  8.79800 50.08700 38.55400
H  6.99800 52.05600 38.08500
H  5.95400 50.63300 38.46400
H  10.21600 57.87600 38.59500
H  10.80900 56.57300 39.58700
H  10.90600 58.19400 40.23000
H  6.46200 60.74200 40.10400
H  7.66800 61.96400 40.67300
H  7.05500 60.88200 41.88300
H  3.15500 59.05300 42.63400
H  2.89200 57.04100 44.83200
H  5.28600 59.16800 44.40700
H  3.81000 58.90100 45.33300
H  3.92300 60.30400 44.16700
H  0.98100 58.38700 43.47400
H  0.64600 56.98800 44.50000
H  -0.43400 56.10200 42.71000
H  1.02400 56.28000 41.64100
H  -0.17100 57.54500 41.77100
H  1.86400 52.39200 45.23400
H  1.86900 50.72900 44.73700
H  0.87500 51.89700 43.76700
H  6.20900 49.31500 42.35000
H  6.65600 46.39300 39.13000
H  5.83700 47.76400 38.20100
H  4.88000 46.58500 39.05200

