158

Mg 24.09200 -5.38100 46.40500
C  26.00100 -2.88200 44.64600
C  21.43200 -4.30100 44.61400
C  22.62500 -8.30000 47.18300
C  27.14100 -6.74000 47.42400
N  23.82500 -3.85500 44.68400
C  24.67800 -2.85500 44.31400
C  23.98700 -1.87500 43.36500
C  22.46200 -2.09100 43.76900
C  22.55900 -3.54000 44.34100
C  21.91900 -1.07700 44.76300
C  24.28700 -2.24100 41.84400
C  24.93100 -1.17500 40.96900
H  24.54300 -1.35900 39.44800
N  22.31700 -6.17200 46.11100
C  21.36100 -5.51600 45.38600
C  20.18200 -6.27500 45.54400
C  20.40500 -7.40600 46.33200
C  21.81200 -7.40500 46.57800
C  18.87100 -5.77900 44.83000
C  19.35900 -8.48500 46.77600
O  18.19700 -8.38900 46.38500
C  19.67200 -9.65400 47.62800
N  24.79600 -7.18500 47.33800
C  23.95100 -8.22100 47.56700
C  24.68900 -9.40100 48.28400
C  26.16200 -9.00100 48.25200
C  26.04100 -7.53800 47.62700
C  24.29600 -9.74700 49.73600
C  27.14800 -9.95200 47.55100
C  27.34900 -9.75100 46.00200
N  26.16300 -4.83500 46.22800
C  27.24700 -5.47000 46.81900
C  28.41800 -4.72300 46.54100
C  28.01400 -3.65400 45.62000
C  26.64800 -3.79700 45.50400
C  29.89400 -4.94200 47.02700
C  28.47800 -2.56300 44.75300
O  29.58500 -2.19700 44.44300
C  27.19300 -2.08500 44.10000
C  27.13900 -0.70900 44.46900
O  26.75000 -0.18700 45.50600
O  27.57500 0.04300 43.38400
C  27.85900 1.47000 43.80100
H  20.49000 -3.97700 44.16600
H  22.23800 -9.30200 47.37700
H  28.10800 -7.16100 47.70800
H  24.33200 -0.85700 43.54400
H  21.82500 -2.03900 42.88600
H  20.94600 -0.70900 44.43600
H  22.60100 -0.22900 44.82000
H  21.73000 -1.52200 45.74000
H  23.35500 -2.56500 41.38200
H  25.00500 -3.06000 41.79800
H  26.01600 -1.20400 41.06700
H  24.58100 -0.20400 41.31800
H  18.75500 -4.71500 45.03500
H  17.96700 -6.26100 45.20100
H  19.06400 -5.84400 43.75900
H  18.87200 -10.36300 47.84200
H  20.14500 -9.25300 48.52400
H  20.37700 -10.19600 46.99700
H  24.58900 -10.31900 47.70600
H  26.65800 -8.78000 49.19700
H  23.81500 -10.72500 49.71900
H  23.59400 -8.98700 50.08000
H  25.13200 -9.62100 50.42300
H  26.76100 -10.95800 47.71500
H  28.11600 -9.86300 48.04200
H  27.02200 -10.71100 45.60200
H  28.39500 -9.55500 45.76900
H  26.63900 -9.03400 45.58900
H  30.15400 -3.94500 47.38100
H  30.51700 -5.21500 46.17500
H  29.92100 -5.66200 47.84400
H  27.26700 -2.27500 43.03000
H  26.89900 1.97100 43.92200
H  28.30600 2.07200 43.00900
H  28.51000 1.51500 44.67300
Mg -5.44100 24.62800 25.82600
C  -4.02000 26.05900 28.66400
C  -7.18600 22.52500 27.75900
C  -6.04000 22.85800 23.05300
C  -3.23900 26.82400 23.85600
N  -5.44600 24.23400 28.01400
C  -4.93300 25.02100 28.98000
C  -5.51500 24.69500 30.38400
C  -6.43400 23.40800 30.05800
C  -6.35500 23.34500 28.52400
C  -6.00900 22.06000 30.59900
C  -6.29700 25.84900 31.02900
C  -6.00200 26.08300 32.54600
H  -5.17800 25.02300 33.35000
N  -6.72600 23.01500 25.45100
C  -7.42400 22.33500 26.41300
C  -8.23000 21.32900 25.71000
C  -7.86000 21.41800 24.26300
C  -6.77500 22.42400 24.17600
C  -9.19200 20.43200 26.43300
C  -8.33400 20.64300 23.13500
O  -7.86500 20.77400 22.01500
C  -9.35100 19.63700 23.33000
N  -4.82300 24.90200 23.67600
C  -5.15900 23.90100 22.80400
C  -4.42100 24.10500 21.45800
C  -3.49300 25.33700 21.76900
C  -3.88200 25.75400 23.15400
C  -3.47900 22.97700 20.98000
C  -3.56400 26.45500 20.62500
C  -2.20300 27.12500 20.35000
N  -3.98700 26.10900 26.15300
C  -3.33000 26.97800 25.23800
C  -2.68600 28.03800 25.98200
C  -2.93900 27.67500 27.27900
C  -3.67300 26.46400 27.35100
C  -1.87400 29.17500 25.51500
C  -2.59700 28.06800 28.59800
O  -1.88000 28.96400 29.06600
C  -3.36600 27.12100 29.63800
C  -2.29600 26.48800 30.51000
O  -1.59000 25.55400 30.25300
O  -2.20100 27.23900 31.61300
C  -1.00600 26.95200 32.48200
H  -7.87200 22.01400 28.43800
H  -6.14000 22.15800 22.22100
H  -2.64700 27.49800 23.23300
H  -4.69200 24.42500 31.04700
H  -7.41300 23.63300 30.48100
H  -5.51500 21.29200 30.00500
H  -6.95300 21.67600 30.98500
H  -5.41800 22.19500 31.50500
H  -7.37400 25.68300 30.99900
H  -6.12800 26.77300 30.47600
H  -6.89600 26.25700 33.14500
H  -5.59600 27.09000 32.64300
H  -10.13100 20.29300 25.89800
H  -9.43800 20.91400 27.38000
H  -8.73900 19.45800 26.61800
H  -9.31000 19.02000 22.43300
H  -10.29700 20.17700 23.28000
H  -9.27300 19.04300 24.24100
H  -5.18100 24.29900 20.70100
H  -2.42300 25.12700 21.79500
H  -3.44800 22.30600 21.83800
H  -2.44200 23.18700 20.71800
H  -3.83200 22.45900 20.08700
H  -4.18700 27.26200 21.01100
H  -4.12200 26.11200 19.75400
H  -1.94100 27.26600 19.30200
H  -1.29900 26.59200 20.64500
H  -2.05700 28.12500 20.75900
H  -0.85000 28.83200 25.37100
H  -1.88400 29.97300 26.25800
H  -2.29800 29.52100 24.57200
H  -4.01700 27.69800 30.29500
H  -0.12000 26.66800 31.91500
H  -1.19200 26.16700 33.21600
H  -0.68200 27.90500 32.90000

