158

Mg 48.13900 34.74200 27.26200
C  46.35900 33.19100 29.80200
C  48.40500 37.58100 29.21000
C  49.53700 36.40500 24.55600
C  47.52700 32.05900 25.08200
N  47.57800 35.23200 29.26400
C  46.92500 34.38400 30.16500
C  47.02500 34.95200 31.57100
C  47.24500 36.53100 31.33600
C  47.74100 36.48700 29.82100
C  45.98100 37.37800 31.50200
C  48.21400 34.24000 32.34200
C  48.07400 34.06800 33.91100
H  48.82000 35.09700 34.76300
N  48.75600 36.77500 26.87600
C  48.77400 37.76500 27.83200
C  49.39800 39.02700 27.24600
C  49.92600 38.57100 25.99300
C  49.41100 37.20000 25.73100
C  49.52000 40.26900 28.12000
C  50.81300 39.35700 25.01400
O  51.30500 38.91300 23.96700
C  51.06300 40.84300 25.30700
N  48.58800 34.19000 25.09900
C  49.11200 35.09400 24.23200
C  49.16900 34.51600 22.83600
C  48.58800 33.08400 23.13800
C  48.15000 33.09100 24.50500
C  48.28200 35.40200 21.85400
C  49.41500 31.91900 22.63300
C  49.68700 31.87300 21.10500
N  47.10000 32.91300 27.36500
C  46.98100 31.96500 26.39500
C  46.17800 30.91200 26.94200
C  45.85700 31.30800 28.27400
C  46.50800 32.52600 28.50500
C  45.73100 29.69900 26.22500
C  45.14400 31.01500 29.56500
O  44.61500 29.95900 29.92700
C  45.29800 32.28500 30.48100
C  45.43100 31.95900 31.90100
O  46.32100 31.29900 32.44400
O  44.35900 32.48900 32.53100
C  44.31600 32.32900 33.99800
H  48.51600 38.40500 29.91800
H  49.98700 36.88300 23.68400
H  47.27200 31.22300 24.42700
H  46.06300 34.79700 32.05900
H  48.00600 36.73600 32.08900
H  46.12700 37.99800 32.38700
H  45.08500 36.75900 31.51400
H  45.90000 38.02600 30.62900
H  49.09200 34.81100 32.04100
H  48.38300 33.23500 31.95700
H  48.49000 33.14500 34.31300
H  47.01100 34.15600 34.13600
H  49.52000 41.16700 27.50200
H  50.48000 40.23300 28.63500
H  48.66000 40.34900 28.78500
H  51.57900 41.23400 24.43000
H  51.64900 40.87600 26.22500
H  50.13700 41.37600 25.52100
H  50.18000 34.53300 22.42900
H  47.67100 33.09600 22.54800
H  47.38400 34.83200 21.61700
H  48.82400 35.55000 20.92000
H  48.06700 36.33100 22.38300
H  48.94500 30.99800 22.97800
H  50.35900 31.96200 23.17600
H  49.29100 32.75600 20.60300
H  49.38900 30.93400 20.63700
H  50.77100 31.94600 21.01700
H  45.38100 29.00500 26.98900
H  46.54500 29.16400 25.73600
H  44.95400 29.91000 25.49100
H  44.32000 32.76300 30.41700
H  43.38700 32.74600 34.38500
H  45.05000 32.91700 34.54900
H  44.42700 31.27400 34.25000
Mg 26.80300 49.81000 26.31600
C  24.71400 50.94100 28.93300
C  29.07400 48.78800 28.76100
C  28.85600 49.15800 23.88300
C  24.47700 51.24500 23.98600
N  26.85600 49.66400 28.56100
C  25.85200 50.17400 29.39600
C  26.13500 50.00800 30.80200
C  27.68900 49.55700 30.77400
C  27.88800 49.30600 29.30600
C  28.72100 50.64200 31.43200
C  25.05500 49.02300 31.36400
C  24.62500 49.24800 32.86700
H  25.57400 49.75300 33.94100
N  28.56400 48.90800 26.36100
C  29.35700 48.56600 27.40600
C  30.62500 47.97000 26.91400
C  30.58600 48.05000 25.46900
C  29.30700 48.72600 25.18700
C  31.60800 47.19000 27.78300
C  31.60500 47.52600 24.40000
O  31.46700 47.66200 23.20400
C  32.87600 46.77300 24.89100
N  26.71500 50.22400 24.26300
C  27.67400 49.87100 23.41300
C  27.41500 50.11800 21.97200
C  25.98400 50.50600 21.97100
C  25.62800 50.66800 23.48600
C  28.45400 50.93500 21.21500
C  25.05700 49.59300 21.09600
C  24.57000 48.29900 21.76400
N  25.02400 51.02200 26.41200
C  24.21800 51.46600 25.39200
C  23.06900 52.17400 25.99500
C  23.24200 51.90400 27.38300
C  24.41000 51.23800 27.57600
C  22.06500 52.98400 25.24300
C  22.68100 52.26200 28.64900
O  21.63900 52.92800 29.00600
C  23.57700 51.60800 29.80100
C  24.08400 52.67400 30.73300
O  24.94900 53.50000 30.48200
O  23.33100 52.56800 31.83500
C  23.74700 53.45800 32.94000
H  29.85000 48.61900 29.51000
H  29.48900 49.01200 23.00500
H  23.73300 51.69400 23.32500
H  26.08300 51.01000 31.22900
H  27.89200 48.60500 31.26600
H  28.35200 51.64000 31.66900
H  29.43200 50.83700 30.62900
H  29.30600 50.22800 32.25300
H  25.54300 48.04800 31.33400
H  24.15600 48.81600 30.78400
H  24.46400 48.24700 33.26700
H  23.64100 49.71400 32.82100
H  31.57400 46.15200 27.45500
H  31.33000 47.22100 28.83700
H  32.60400 47.63200 27.77600
H  33.67400 46.97900 24.17800
H  32.76500 45.70300 25.06600
H  33.22900 47.20900 25.82600
H  27.47800 49.16400 21.44800
H  25.92500 51.50200 21.53200
H  29.13800 50.31200 20.63800
H  29.04900 51.69900 21.71400
H  27.85000 51.45600 20.47300
H  25.64800 49.43100 20.19400
H  24.14300 50.06200 20.73100
H  23.48100 48.33900 21.74100
H  24.89400 48.13800 22.79200
H  24.89100 47.47700 21.12300
H  21.58300 53.73800 25.86600
H  21.22400 52.33500 24.99900
H  22.44700 53.37000 24.29800
H  23.00900 50.87800 30.37900
H  23.86600 54.48400 32.59200
H  24.66700 53.10100 33.40200
H  22.99900 53.52400 33.73100

