158

Mg 26.80200 50.34000 27.07400
C  24.73900 51.82200 29.69000
C  29.02400 49.66200 29.51300
C  28.72900 49.15600 24.65600
C  24.51400 51.69100 24.73700
N  26.90200 50.85600 29.37300
C  25.92100 51.29200 30.23000
C  26.27800 51.00900 31.69900
C  27.71900 50.33900 31.58800
C  27.91600 50.30700 30.06500
C  28.88500 51.06000 32.29900
C  25.20200 50.19100 32.56100
C  25.55000 49.23400 33.72800
H  24.91200 49.55100 35.16000
N  28.55900 49.44400 27.07400
C  29.36100 49.22300 28.20900
C  30.61400 48.59100 27.80300
C  30.54100 48.54000 26.39200
C  29.23600 49.01400 25.97800
C  31.76700 48.29800 28.74400
C  31.70600 48.07600 25.43800
O  31.56600 48.01000 24.21400
C  33.11100 47.89000 25.87900
N  26.67700 50.42800 24.98100
C  27.50500 49.73300 24.21600
C  26.93900 49.70900 22.77200
C  25.46400 50.30400 22.93800
C  25.58500 50.87800 24.25700
C  27.80500 50.52900 21.82900
C  24.33700 49.21000 22.77500
C  23.10700 49.58200 21.91800
N  25.07400 51.57000 27.10600
C  24.23600 51.97800 26.07100
C  23.13200 52.81900 26.63700
C  23.30400 52.70100 28.00900
C  24.47800 52.00300 28.31100
C  21.94300 53.49400 25.89900
C  22.63200 53.06800 29.29200
O  21.59800 53.67800 29.62200
C  23.59400 52.43200 30.46200
C  24.06900 53.65600 31.19900
O  25.15400 54.24500 31.05800
O  23.15400 53.83900 32.23000
C  23.54600 54.86400 33.19800
H  29.82200 49.29100 30.15900
H  29.24600 48.62200 23.85600
H  23.84900 52.04700 23.94700
H  26.36800 52.02500 32.08200
H  27.75800 49.27100 31.80200
H  28.48200 51.76100 33.03000
H  29.42800 51.58900 31.51500
H  29.47200 50.33700 32.86500
H  24.67400 49.59500 31.81600
H  24.43800 50.90100 32.87700
H  26.61100 49.36300 33.94500
H  25.29600 48.20100 33.49100
H  31.80000 47.25300 29.05100
H  31.84500 48.98700 29.58500
H  32.78200 48.34700 28.35200
H  33.34700 48.87000 26.29300
H  33.77800 47.69600 25.03900
H  33.15400 47.08000 26.60800
H  26.73100 48.72000 22.36400
H  25.22400 51.05400 22.18400
H  28.74500 50.58100 22.37800
H  27.44400 51.54300 21.66300
H  27.81700 50.05300 20.84800
H  23.96700 49.08300 23.79200
H  24.70700 48.23100 22.47000
H  23.09600 48.98600 21.00600
H  22.98700 50.60700 21.56700
H  22.26100 49.27000 22.53200
H  21.93700 53.40700 24.81200
H  21.64900 54.52500 26.09800
H  21.11100 52.89500 26.26800
H  23.15000 51.66400 31.09600
H  23.82800 55.81800 32.75200
H  24.30500 54.42300 33.84400
H  22.79000 55.00500 33.97100
Mg 16.60000 52.78300 26.99800
C  18.44700 51.22600 29.57600
C  14.21500 53.78000 29.30500
C  14.73600 54.15100 24.59100
C  18.79000 51.29800 24.68700
N  16.39900 52.43200 29.12900
C  17.38100 51.95400 29.99400
C  17.05700 52.29700 31.43600
C  15.61800 53.00900 31.33600
C  15.35100 53.09400 29.80900
C  14.41000 52.25500 32.03400
C  18.20300 53.29500 31.98200
C  18.22600 53.33400 33.54500
H  17.17400 52.59100 34.31600
N  14.70700 53.83200 26.94300
C  13.87100 54.11000 27.97300
C  12.70300 54.83700 27.48900
C  12.83500 55.02800 26.09800
C  14.11800 54.30300 25.82100
C  11.55800 55.03900 28.39900
C  11.93700 55.79200 25.18500
O  12.11300 55.82600 23.97400
C  10.77700 56.60600 25.82200
N  16.69800 52.70800 24.91500
C  15.89900 53.49600 24.14800
C  16.26800 53.22100 22.66700
C  17.64200 52.49800 22.71300
C  17.76100 52.20000 24.22000
C  15.19800 52.21500 22.11800
C  18.85800 53.30500 22.29500
C  20.09000 52.64400 21.62300
N  18.29100 51.47900 27.03300
C  19.08600 51.02800 26.06100
C  20.24800 50.41000 26.62700
C  20.03900 50.35000 28.01200
C  18.78600 51.04800 28.24500
C  21.33200 49.71300 25.86000
C  20.51900 49.95600 29.33700
O  21.48900 49.31300 29.72700
C  19.45900 50.47700 30.37800
C  18.94800 49.38600 31.29600
O  18.08500 48.60800 30.99700
O  19.69700 49.25000 32.48200
C  19.06700 48.50300 33.58700
H  13.46100 54.10700 30.02500
H  14.11500 54.58700 23.80600
H  19.47000 50.76900 24.01600
H  17.00700 51.47800 32.15400
H  15.50200 54.04800 31.64500
H  13.87300 51.49000 31.47400
H  13.75600 53.00100 32.48600
H  14.83900 51.71300 32.87800
H  17.99100 54.29500 31.60500
H  19.22400 53.01300 31.72400
H  18.33200 54.39200 33.78700
H  19.13600 52.83000 33.87000
H  11.64000 55.98500 28.93400
H  11.56000 54.37300 29.26200
H  10.59200 55.01300 27.89400
H  10.05700 55.93300 26.28700
H  10.42700 57.32000 25.07600
H  11.21800 57.21600 26.61000
H  16.26800 54.15000 22.09800
H  17.70100 51.57400 22.13700
H  14.65900 51.77000 22.95400
H  15.60500 51.44300 21.46400
H  14.49600 52.80000 21.52500
H  19.15100 53.82800 23.20600
H  18.53300 54.16700 21.71300
H  19.92300 51.59400 21.38100
H  20.93900 52.56500 22.30300
H  20.37400 53.13000 20.69000
H  21.51900 50.10700 24.86100
H  21.05400 48.66800 25.72400
H  22.26800 49.74100 26.41800
H  20.08400 51.12400 30.99400
H  19.13600 47.42400 33.44800
H  18.03800 48.83300 33.72700
H  19.70700 48.75700 34.43200

