158

Mg 40.47600 9.26300 28.55700
C  42.29000 10.81200 31.35700
C  38.47600 7.77400 30.93900
C  38.82000 8.19500 26.08200
C  42.96600 10.67300 26.48700
N  40.37300 9.29900 30.85800
C  41.15900 10.05400 31.76700
C  40.64900 9.82000 33.22300
C  39.44900 8.88900 32.97900
C  39.44800 8.52900 31.49500
C  39.40900 7.50000 33.76500
C  40.37300 11.10300 34.04400
C  39.25700 11.10000 35.16100
H  39.65700 11.83600 36.47500
N  38.96800 8.03300 28.48400
C  38.18000 7.52000 29.58500
C  37.08000 6.70600 28.96700
C  37.14700 6.88800 27.56200
C  38.35500 7.62400 27.30800
C  36.08700 5.88700 29.81100
C  36.20800 6.30300 26.51600
O  36.56400 6.28800 25.36100
C  34.83600 5.59300 26.86600
N  40.91600 9.32900 26.59200
C  39.90600 8.99600 25.76100
C  40.29300 9.27800 24.27500
C  41.64400 9.96700 24.37400
C  41.88200 9.95100 25.89200
C  40.22900 8.09000 23.29100
C  41.79600 11.21400 23.51700
C  41.33800 12.61900 24.12000
N  42.25500 10.49200 28.80100
C  43.15000 10.91000 27.84800
C  44.30800 11.53000 28.41600
C  44.01200 11.47600 29.80100
C  42.70500 10.87300 29.98800
C  45.57100 11.94800 27.69900
C  44.55800 11.80300 31.09700
O  45.54200 12.51400 31.33600
C  43.47700 11.40900 32.16900
C  44.04000 10.46700 33.21900
O  44.55400 9.42300 32.86500
O  43.73600 10.90700 34.50800
C  43.86200 9.96000 35.61800
H  37.70100 7.42000 31.62300
H  38.30500 7.81800 25.19500
H  43.68900 10.86900 25.69200
H  41.40500 9.25900 33.77100
H  38.54900 9.50100 33.04800
H  38.35800 7.36700 34.02400
H  40.04000 7.64600 34.64100
H  39.74900 6.68800 33.12200
H  40.36100 11.88800 33.28800
H  41.32300 11.43000 34.46900
H  38.84200 10.15700 35.51600
H  38.37100 11.64400 34.83300
H  35.08500 6.14700 29.47000
H  36.16500 6.06000 30.88400
H  36.22900 4.81600 29.66600
H  35.09400 4.71400 27.45600
H  34.38800 5.17300 25.96500
H  34.25700 6.35400 27.39000
H  39.58100 10.05300 23.99000
H  42.39000 9.24000 24.05100
H  39.95300 7.13300 23.73300
H  41.19700 7.95400 22.80900
H  39.50000 8.34000 22.52000
H  41.27500 11.01000 22.58200
H  42.85000 11.27100 23.24300
H  41.18100 12.57400 25.19800
H  40.41100 12.82600 23.58500
H  42.02400 13.44600 23.93200
H  45.25900 12.84500 27.16400
H  45.86200 11.15800 27.00600
H  46.40200 12.15000 28.37500
H  43.20500 12.23300 32.82800
H  44.47000 9.08100 35.40100
H  42.84300 9.69700 35.90100
H  44.33600 10.37600 36.50800
Mg -2.19000 35.25900 26.74100
C  -3.74100 33.36800 29.22900
C  -0.63700 37.19300 29.13200
C  -0.87200 37.00200 24.32500
C  -4.18600 33.51000 24.31400
N  -2.22300 35.37500 28.93800
C  -2.95300 34.46500 29.70600
C  -2.69100 34.66500 31.20400
C  -1.83800 36.02900 31.10800
C  -1.60500 36.30200 29.63300
C  -2.30700 37.29600 31.90100
C  -1.95300 33.44400 31.85400
C  -2.58900 32.76900 33.07400
H  -1.73100 32.49600 34.35200
N  -0.83500 36.87400 26.73400
C  -0.27700 37.40800 27.77500
C  0.71300 38.39100 27.35300
C  0.62600 38.43200 25.95300
C  -0.37900 37.41400 25.58900
C  1.54800 39.27700 28.39900
C  1.34500 39.25900 24.88500
O  1.05400 39.29000 23.70700
C  2.42500 40.19200 25.32900
N  -2.63800 35.40000 24.65600
C  -1.89000 36.18500 23.85800
C  -2.47500 36.33200 22.50200
C  -3.28700 35.00300 22.44500
C  -3.53300 34.68200 23.91500
C  -3.27700 37.66400 22.31100
C  -2.68800 33.78300 21.71800
C  -1.24600 33.33500 22.21600
N  -3.60200 33.74900 26.76800
C  -4.21700 33.06100 25.70200
C  -4.90000 31.93500 26.21000
C  -4.73500 31.98200 27.63600
C  -3.93100 33.08200 27.91600
C  -5.73500 31.02000 25.38200
C  -5.16800 31.35300 28.83200
O  -5.83300 30.32400 28.97000
C  -4.57500 32.30600 29.96300
C  -5.74100 32.85700 30.76500
O  -6.55300 33.66300 30.33200
O  -5.75700 32.33500 31.99400
C  -6.79200 32.66200 33.00800
H  -0.03600 37.71900 29.87700
H  -0.52400 37.66500 23.53000
H  -4.50700 32.79500 23.55300
H  -3.69800 34.77000 31.60600
H  -0.77200 35.95600 31.31900
H  -1.52300 37.47800 32.63600
H  -3.29200 37.14100 32.34200
H  -2.31400 38.15200 31.22700
H  -0.99700 33.82800 32.20700
H  -1.85400 32.65000 31.11300
H  -2.94200 31.77800 32.79300
H  -3.51500 33.17200 33.48300
H  1.27800 40.30700 28.16400
H  2.61200 39.11100 28.23200
H  1.32200 39.06900 29.44500
H  2.98900 40.61400 24.49600
H  3.08000 39.69400 26.04300
H  1.85800 40.97400 25.83400
H  -1.64000 36.23500 21.80800
H  -4.26400 35.24200 22.02400
H  -3.35400 38.26000 23.22000
H  -4.31400 37.47800 22.03100
H  -2.72200 38.25900 21.58600
H  -2.57900 34.08000 20.67500
H  -3.45800 33.01600 21.62800
H  -0.70200 33.99200 22.89400
H  -0.66800 33.03400 21.34200
H  -1.39000 32.42600 22.80000
H  -6.03400 30.11100 25.90300
H  -5.23500 30.73600 24.45600
H  -6.69800 31.50000 25.20600
H  -3.94600 31.68400 30.59900
H  -7.22900 31.76300 33.44400
H  -7.67000 33.10700 32.54000
H  -6.30300 33.25800 33.77800

