158

Mg 16.33600 -1.95200 28.42400
C  15.39700 -0.17600 31.31500
C  18.59200 -3.70300 30.48600
C  17.55100 -3.42300 25.80700
C  14.55200 0.34700 26.42200
N  16.92000 -1.98000 30.68600
C  16.46500 -1.08200 31.59500
C  17.25200 -1.25800 32.90500
C  18.26000 -2.44600 32.60600
C  17.91100 -2.73300 31.22800
C  19.76100 -2.13000 32.88600
C  16.21400 -1.61300 34.05000
C  16.43800 -0.83100 35.30700
H  17.87100 -0.29200 35.73700
N  17.74100 -3.40300 28.20800
C  18.51700 -3.98400 29.13200
C  19.19400 -5.10500 28.52400
C  18.84800 -5.13900 27.14500
C  17.98800 -3.96300 26.99200
C  19.99000 -6.07200 29.46500
C  19.33200 -6.08800 26.04600
O  19.06500 -5.92000 24.87500
C  20.22000 -7.11800 26.41500
N  16.15300 -1.56700 26.40000
C  16.72400 -2.35600 25.49000
C  16.63900 -1.68200 24.13600
C  15.69600 -0.47900 24.29800
C  15.36200 -0.57300 25.79700
C  18.08400 -1.34700 23.63000
C  14.49400 -0.53300 23.37000
C  14.87500 -0.61000 21.87900
N  15.16900 -0.28500 28.73300
C  14.38600 0.43300 27.80300
C  13.49800 1.26200 28.55200
C  13.91300 1.13600 29.92000
C  14.89000 0.12500 29.96800
C  12.52500 2.19600 27.91400
C  13.69000 1.63100 31.30800
O  13.00400 2.51700 31.73100
C  14.75300 0.88200 32.17400
C  15.68900 1.90200 32.69900
O  16.62500 2.42100 32.13800
O  15.33000 2.22600 34.00100
C  15.89400 3.49900 34.59000
H  19.16500 -4.35100 31.15400
H  17.94000 -3.97100 24.94700
H  13.98700 1.01900 25.77200
H  17.69300 -0.30900 33.21100
H  18.02100 -3.36800 33.13500
H  20.31100 -2.90000 33.42600
H  19.73300 -1.24200 33.51800
H  20.31700 -1.99200 31.95900
H  16.32000 -2.65300 34.36100
H  15.19700 -1.39900 33.72400
H  16.00800 -1.47200 36.07600
H  15.85700 0.08000 35.16200
H  20.63000 -6.78200 28.94100
H  19.25000 -6.69200 29.97100
H  20.66400 -5.48700 30.09000
H  19.71800 -7.91100 26.97000
H  20.98800 -6.60400 26.99300
H  20.73300 -7.53000 25.54600
H  16.22400 -2.33300 23.36600
H  16.26100 0.43100 24.09900
H  18.70000 -1.16300 24.51000
H  18.13000 -0.51000 22.93300
H  18.52200 -2.16500 23.05700
H  13.94000 0.39700 23.49400
H  13.96300 -1.42700 23.69700
H  15.92000 -0.34700 21.71500
H  14.32400 0.04500 21.20400
H  14.82000 -1.61300 21.45500
H  12.27900 1.80400 26.92800
H  13.04700 3.15300 27.88500
H  11.59700 2.28800 28.48000
H  14.26900 0.43000 33.04000
H  15.75000 4.26000 33.82300
H  16.95800 3.51400 34.82600
H  15.41200 3.64900 35.55600
Mg 42.04100 41.97800 27.42100
C  40.80600 44.04600 30.09300
C  43.00800 39.76200 29.90400
C  43.39000 40.14500 25.01100
C  41.24100 44.49700 25.18500
N  41.95600 41.96100 29.76900
C  41.36700 42.89700 30.59100
C  41.57000 42.55000 32.06100
C  42.40100 41.22900 31.97000
C  42.45100 40.90100 30.46600
C  43.77700 41.32200 32.69200
C  40.24800 42.41000 32.90300
C  40.16700 43.15000 34.24700
H  39.65800 42.24100 35.36200
N  42.97400 40.14800 27.45700
C  43.28300 39.41600 28.58100
C  43.97700 38.24800 28.12500
C  43.86200 38.18900 26.72800
C  43.44500 39.58400 26.34600
C  44.54300 37.25900 29.13200
C  44.07100 37.01600 25.85600
O  43.97000 37.08400 24.63600
C  44.49200 35.57700 26.28600
N  42.29200 42.29500 25.38900
C  42.86900 41.31800 24.60300
C  42.80500 41.75300 23.16200
C  41.87600 42.97800 23.12500
C  41.76300 43.30900 24.64600
C  44.18100 41.97200 22.47600
C  40.47100 42.76400 22.46400
C  39.43400 41.83000 23.05300
N  41.28900 43.94200 27.57700
C  41.01100 44.82700 26.55200
C  40.48800 46.04000 27.11700
C  40.33900 45.74000 28.48800
C  40.85600 44.45900 28.73300
C  39.98200 47.21300 26.45600
C  39.93400 46.32400 29.72400
O  39.49300 47.47000 29.99300
C  40.34300 45.27300 30.83100
C  41.39100 45.91100 31.60900
O  42.54200 46.03400 31.31000
O  40.88700 46.18300 32.88800
C  41.86100 46.90600 33.83600
H  43.46000 39.20100 30.72400
H  43.65500 39.46000 24.20300
H  41.04800 45.26400 24.43300
H  42.18900 43.37300 32.41900
H  41.87300 40.45700 32.52900
H  44.61100 41.18100 32.00500
H  43.79800 40.58500 33.49500
H  43.77100 42.32700 33.11400
H  39.98700 41.35600 32.99000
H  39.41700 42.82000 32.32800
H  39.71800 44.14200 34.20800
H  41.25300 43.22400 34.31600
H  45.08200 37.82400 29.89200
H  45.22500 36.51300 28.72500
H  43.68300 36.73300 29.54700
H  43.80500 35.36800 27.10600
H  45.54300 35.59800 26.57500
H  44.44200 34.93600 25.40500
H  42.37300 40.93700 22.58200
H  42.32800 43.90700 22.78000
H  44.93400 41.77500 23.23900
H  44.42700 42.95700 22.08000
H  44.31000 41.16700 21.75300
H  40.72500 42.32400 21.49900
H  39.87400 43.67300 22.38700
H  38.98100 41.16200 22.32000
H  38.60900 42.42400 23.44700
H  39.86600 41.25500 23.87200
H  38.92100 47.18900 26.20800
H  40.58900 47.56600 25.62300
H  40.22300 48.09400 27.05000
H  39.51000 45.03100 31.49200
H  41.31200 47.77600 34.19800
H  42.79100 47.18800 33.34100
H  42.09100 46.23500 34.66300

