158

Mg 47.06600 24.45400 27.58200
C  47.91100 26.94500 29.98000
C  45.98200 22.47100 30.05200
C  45.97000 22.34700 25.16200
C  48.39900 26.56400 25.19200
N  46.83800 24.75000 29.77500
C  47.29300 25.82000 30.51100
C  47.15600 25.45200 31.97200
C  46.58700 23.99800 31.99200
C  46.58400 23.65400 30.49400
C  47.40400 23.02100 32.86000
C  46.21700 26.50400 32.71000
C  45.72600 26.30800 34.10000
H  46.14800 27.39900 35.20200
N  46.11200 22.64400 27.60800
C  45.80100 21.98300 28.75000
C  45.25300 20.68600 28.39100
C  45.13700 20.64100 27.00300
C  45.78900 21.92300 26.49400
C  44.87400 19.73800 29.49000
C  44.54300 19.61900 26.14700
O  44.54100 19.68000 24.91300
C  43.96600 18.46300 26.79300
N  47.29800 24.30600 25.47400
C  46.69200 23.40400 24.66300
C  47.01600 23.73200 23.17600
C  47.51200 25.20300 23.13700
C  47.78500 25.34200 24.71300
C  47.91100 22.61700 22.66100
C  46.47300 26.26100 22.77600
C  46.04000 26.31600 21.33400
N  48.03200 26.32300 27.53000
C  48.53900 27.00900 26.44900
C  48.96600 28.34900 26.85100
C  48.82400 28.36500 28.28500
C  48.15900 27.11600 28.65500
C  49.55300 29.30100 25.98400
C  48.95500 29.17000 29.48400
O  49.33300 30.34100 29.58800
C  48.43900 28.26400 30.63800
C  49.61500 28.03100 31.59900
O  50.67700 27.48000 31.33400
O  49.34800 28.60900 32.79700
C  50.12300 28.01000 33.89100
H  45.56000 21.86500 30.85700
H  45.41300 21.75300 24.43400
H  48.61400 27.26800 24.38500
H  48.16000 25.49900 32.39400
H  45.53000 24.07700 32.24500
H  47.50200 22.03100 32.41500
H  46.90500 22.91800 33.82400
H  48.39400 23.42600 33.06900
H  45.32200 26.53100 32.08900
H  46.52400 27.55000 32.74500
H  46.11400 25.37600 34.50900
H  44.63700 26.35200 34.07100
H  44.99500 18.72000 29.12000
H  43.92700 19.99700 29.96500
H  45.50200 19.93700 30.35800
H  43.19500 18.83600 27.46800
H  44.76200 17.90500 27.28600
H  43.47800 17.80900 26.07000
H  46.09600 23.60400 22.60600
H  48.37600 25.26700 22.47500
H  48.66700 23.02000 21.98600
H  47.34400 21.85800 22.12200
H  48.55400 22.16100 23.41400
H  47.03600 27.17900 22.94200
H  45.58200 26.20800 23.40100
H  44.96200 26.18300 21.24900
H  46.55000 25.56100 20.73600
H  46.04000 27.33700 20.95200
H  49.15900 29.36200 24.97000
H  50.59300 28.99800 25.86300
H  49.42200 30.26200 26.48300
H  47.67700 28.81100 31.19400
H  50.95900 28.70800 33.94400
H  50.28300 26.96900 33.61300
H  49.53700 27.99900 34.81000
Mg 47.86700 34.26100 25.47200
C  46.23200 32.75100 28.26200
C  48.24200 37.13000 27.21000
C  49.39000 35.45000 22.77600
C  47.21200 31.18600 23.73600
N  47.26900 34.84300 27.57000
C  46.71900 34.08200 28.50700
C  46.86400 34.81000 29.89700
C  47.28400 36.29500 29.51000
C  47.60600 36.12300 27.95600
C  46.35100 37.45300 29.93400
C  48.11500 34.19400 30.75200
C  47.81900 34.15800 32.30700
H  47.01700 35.29900 32.94800
N  48.69700 36.05100 25.04200
C  48.71200 37.14400 25.87300
C  49.45700 38.20600 25.20700
C  49.78100 37.79000 23.92900
C  49.30800 36.35700 23.85700
C  49.69800 39.59400 25.78200
C  50.50900 38.47300 22.87600
O  50.72400 37.93500 21.77400
C  50.78300 39.96100 22.87200
N  48.32600 33.36200 23.52300
C  48.98500 34.12400 22.64500
C  49.17100 33.31600 21.33100
C  48.59900 31.93300 21.69700
C  47.97800 32.11800 23.04600
C  48.54000 33.88500 20.06000
C  49.61200 30.74400 21.49800
C  50.59800 30.57200 22.68900
N  46.88600 32.41500 25.86900
C  46.66300 31.21900 25.06500
C  45.89800 30.24700 25.79700
C  45.66500 30.82400 27.05500
C  46.34700 32.09800 27.00700
C  45.47700 28.93600 25.35900
C  45.18300 30.57600 28.40700
O  44.72000 29.63600 29.01400
C  45.40000 31.92300 29.10900
C  45.79000 31.65500 30.54000
O  46.87500 31.30600 30.98800
O  44.65300 31.92800 31.29800
C  44.70100 31.78300 32.73700
H  48.29600 38.02200 27.83700
H  50.05500 35.72500 21.95500
H  46.84300 30.30600 23.20400
H  45.92300 34.90100 30.43900
H  48.22000 36.59300 29.98200
H  46.92400 38.28500 30.34200
H  45.54700 37.11500 30.58800
H  45.76300 37.82600 29.09500
H  49.04300 34.74100 30.58700
H  48.17700 33.14000 30.47900
H  48.84000 34.16200 32.69000
H  47.32800 33.20600 32.50800
H  49.43900 39.53600 26.83900
H  48.94900 40.29100 25.40600
H  50.71100 39.99300 25.83300
H  51.29100 40.17900 21.93200
H  51.45000 40.19900 23.70000
H  49.80900 40.43900 22.97400
H  50.25000 33.29000 21.18200
H  47.75900 31.61000 21.08200
H  47.96700 34.79000 20.26000
H  47.84400 33.16800 19.62400
H  49.34600 34.18200 19.39000
H  50.25800 30.93100 20.64100
H  48.98400 29.86900 21.32600
H  50.69600 29.51200 22.92600
H  50.33800 31.12600 23.59100
H  51.58600 30.92500 22.39300
H  46.16600 28.51700 24.62600
H  44.44000 28.94900 25.02500
H  45.52100 28.25300 26.20700
H  44.41200 32.37600 29.18400
H  45.28500 30.90500 33.01200
H  43.69700 31.65600 33.14300
H  45.05300 32.71400 33.18000

