158

Mg 17.61500 -1.71000 27.01400
C  16.89700 0.45800 29.73000
C  19.64000 -3.62200 29.00700
C  18.73000 -3.44100 24.31600
C  15.66500 0.32300 24.99700
N  18.12400 -1.54200 29.09800
C  17.67200 -0.65400 30.11000
C  18.08900 -1.09900 31.55100
C  19.08500 -2.30000 31.12800
C  18.93600 -2.55900 29.61700
C  20.61300 -2.18500 31.56300
C  16.90000 -1.44600 32.40100
C  17.00900 -1.24600 33.91600
H  18.18800 -0.54900 34.56900
N  18.90700 -3.35300 26.73500
C  19.64700 -4.03600 27.66700
C  20.34600 -5.15800 27.11100
C  20.10600 -5.13700 25.69300
C  19.26400 -3.92900 25.54300
C  21.16800 -6.20000 27.91000
C  20.64200 -6.13300 24.65800
O  20.37400 -6.04100 23.43200
C  21.51300 -7.35100 24.93300
N  17.29900 -1.46000 24.95400
C  17.92000 -2.27000 24.08000
C  17.49500 -1.82200 22.61000
C  16.34700 -0.83500 22.86300
C  16.37300 -0.60300 24.33800
C  18.68100 -1.28000 21.80200
C  14.91300 -1.27200 22.44000
C  14.12500 -2.25000 23.34000
N  16.40700 -0.02900 27.29900
C  15.65700 0.64300 26.37700
C  15.07100 1.76100 27.05900
C  15.53600 1.73400 28.37000
C  16.31300 0.60900 28.43200
C  14.11100 2.73300 26.49700
C  15.39300 2.38900 29.64300
O  14.65000 3.33100 29.96800
C  16.22300 1.51800 30.63000
C  17.21400 2.33700 31.44100
O  18.32800 2.71200 31.15800
O  16.54200 2.77300 32.60700
C  17.24100 3.62600 33.57400
H  20.10100 -4.27100 29.75500
H  19.09500 -3.90400 23.39600
H  15.09700 1.03300 24.39300
H  18.70800 -0.31500 31.98700
H  18.79600 -3.23000 31.61600
H  20.94000 -1.25300 32.02300
H  21.24800 -2.43700 30.71300
H  20.88700 -2.94100 32.29900
H  16.83100 -2.52300 32.24400
H  16.02300 -0.94200 31.99600
H  16.87300 -2.28300 34.22300
H  16.13600 -0.69200 34.26100
H  22.20100 -6.25700 27.56900
H  20.61600 -7.11900 27.71600
H  21.35900 -5.98300 28.96100
H  22.37800 -7.15000 25.56600
H  21.97300 -7.81000 24.05800
H  20.94600 -8.08000 25.51200
H  17.04800 -2.69900 22.14000
H  16.50400 0.12200 22.36600
H  18.37400 -0.82000 20.86200
H  19.35800 -2.12700 21.69200
H  19.20800 -0.45700 22.28400
H  15.06800 -1.81000 21.50400
H  14.37300 -0.37000 22.15300
H  13.31000 -1.68600 23.79300
H  14.71300 -2.69000 24.14600
H  13.67000 -3.00400 22.69700
H  13.65200 2.55400 25.52500
H  14.69300 3.65500 26.48200
H  13.35600 2.99600 27.23900
H  15.53500 1.06400 31.34300
H  16.85600 4.64500 33.55000
H  18.27200 3.78800 33.25900
H  17.16000 3.26100 34.59800
Mg 36.48500 49.27900 24.91900
C  36.15200 47.45500 27.79000
C  35.30300 52.09000 26.40200
C  36.32600 50.73500 21.86400
C  37.35200 46.20000 23.26600
N  35.61100 49.66400 26.88800
C  35.86700 48.83700 27.99300
C  35.41800 49.54200 29.26200
C  35.18800 51.06300 28.78000
C  35.45200 50.95200 27.23000
C  33.73500 51.77800 29.13400
C  36.36900 49.38800 30.56300
C  35.77700 48.87400 31.93500
H  34.26400 49.03700 32.18000
N  35.83600 51.12900 24.23800
C  35.46500 52.16500 24.99900
C  35.17400 53.31200 24.25200
C  35.36200 52.97100 22.85900
C  35.86800 51.62200 22.94200
C  34.60400 54.59700 24.92400
C  35.25100 53.80300 21.67000
O  35.40900 53.38400 20.51600
C  34.95800 55.26300 21.75200
N  37.03600 48.62000 22.83400
C  36.70800 49.41100 21.83800
C  37.08500 48.74900 20.52400
C  37.75400 47.41000 21.01300
C  37.40400 47.34300 22.45800
C  35.89900 48.58100 19.62100
C  39.30900 47.36900 20.73200
C  40.27500 48.01600 21.68900
N  36.79400 47.29100 25.41000
C  37.17200 46.15700 24.65100
C  37.28400 44.96600 25.54800
C  36.76000 45.41100 26.78700
C  36.56800 46.85400 26.63700
C  37.63800 43.53100 25.13400
C  36.41800 45.08600 28.15100
O  36.51000 44.03000 28.79100
C  36.08900 46.42300 28.88900
C  34.85200 46.27400 29.75500
O  33.75700 46.66600 29.55200
O  35.18800 45.46400 30.79300
C  34.07700 45.05900 31.61900
H  35.14900 53.02600 26.94400
H  36.11700 51.16500 20.88200
H  37.72100 45.29300 22.78200
H  34.45100 49.15000 29.58000
H  35.98000 51.71500 29.14800
H  33.12800 51.84700 28.23100
H  33.78900 52.71900 29.68300
H  33.32500 51.03000 29.81300
H  36.88400 50.30400 30.85400
H  37.15500 48.72100 30.20700
H  36.33800 49.28600 32.77400
H  35.97700 47.80400 31.88900
H  33.97000 55.22400 24.29700
H  35.36100 55.21100 25.41200
H  33.86400 54.32500 25.67700
H  33.90500 55.19100 22.02500
H  35.05900 55.78000 20.79800
H  35.52600 55.79900 22.51100
H  37.85900 49.37600 20.08100
H  37.45700 46.47000 20.54700
H  35.05900 49.24400 19.82900
H  35.48600 47.57200 19.61800
H  36.10600 48.83100 18.58000
H  39.40000 47.70400 19.69900
H  39.48900 46.29500 20.76700
H  39.83700 48.72100 22.39600
H  41.11600 48.48100 21.17400
H  40.64600 47.13000 22.20500
H  38.69200 43.27400 25.03400
H  37.19300 43.28600 24.17000
H  37.21800 42.86100 25.88400
H  36.84800 46.71100 29.61600
H  33.09500 44.98700 31.15200
H  34.09400 45.73000 32.47800
H  34.33300 44.06500 31.98500

