158

Mg 17.09100 -2.32600 27.17900
C  16.17700 -0.36700 29.85900
C  18.94200 -4.26200 29.31600
C  18.36000 -3.90400 24.48500
C  15.73100 0.02300 25.00100
N  17.43800 -2.34200 29.44600
C  16.97100 -1.45100 30.31400
C  17.35000 -1.84700 31.69100
C  18.51000 -2.97400 31.49900
C  18.28900 -3.22200 30.02700
C  19.96600 -2.58000 31.98200
C  16.20600 -2.30700 32.59500
C  16.19800 -1.66000 33.99400
H  17.40300 -1.05600 34.63900
N  18.29800 -3.93400 26.92500
C  18.99400 -4.61300 27.93100
C  19.83100 -5.70200 27.31000
C  19.56700 -5.62700 25.89400
C  18.69300 -4.47000 25.71100
C  20.62900 -6.66100 28.09900
C  20.17600 -6.54200 24.76100
O  19.99300 -6.29300 23.54600
C  21.08700 -7.73700 25.15200
N  16.85500 -2.11200 25.03400
C  17.59100 -2.82000 24.14300
C  17.74300 -2.14100 22.79000
C  16.55900 -1.09600 22.87700
C  16.31800 -1.04300 24.37800
C  19.13800 -1.50100 22.44800
C  15.24700 -1.46600 22.14600
C  14.93100 -0.49200 21.02100
N  15.93600 -0.59400 27.27800
C  15.52600 0.31900 26.36100
C  14.86000 1.41800 27.00900
C  15.10100 1.23900 28.35600
C  15.74100 -0.04400 28.47600
C  14.23900 2.64700 26.30400
C  14.89400 1.83200 29.68300
O  14.25200 2.82000 29.99000
C  15.52600 0.81700 30.64100
C  16.41800 1.52900 31.56500
O  17.62200 1.64000 31.32500
O  15.81000 2.06000 32.65000
C  16.72300 2.96800 33.44300
H  19.56800 -4.84600 29.99400
H  18.78300 -4.36100 23.58800
H  15.37700 0.76700 24.28400
H  17.80000 -0.91600 32.03700
H  18.23800 -3.86800 32.06000
H  19.97400 -1.56900 32.38900
H  20.73600 -2.83200 31.25400
H  20.07000 -3.16600 32.89600
H  16.22900 -3.38100 32.78300
H  15.30400 -1.98900 32.07300
H  15.94100 -2.43600 34.71500
H  15.36600 -0.96000 34.06000
H  20.82200 -6.25800 29.09300
H  21.56200 -6.92600 27.60200
H  20.00900 -7.55100 28.20700
H  20.37500 -8.33200 25.72400
H  22.00300 -7.51600 25.70000
H  21.43800 -8.30200 24.28800
H  17.44400 -2.98000 22.16200
H  16.92400 -0.12800 22.53400
H  20.03500 -2.05100 22.73100
H  19.30800 -0.55000 22.95300
H  19.07200 -1.58700 21.36300
H  14.37800 -1.57000 22.79600
H  15.37700 -2.45800 21.71300
H  13.98000 -0.01800 21.26300
H  14.70700 -1.13400 20.16900
H  15.69200 0.26200 20.82000
H  13.23500 2.35100 25.99900
H  14.85100 2.91600 25.44300
H  14.07300 3.43700 27.03600
H  14.84600 0.37400 31.36700
H  16.22600 3.14600 34.39700
H  16.71800 3.88800 32.85900
H  17.74800 2.61400 33.55600
Mg 46.32900 24.67900 29.23300
C  47.10800 27.06500 31.62300
C  45.68800 22.41300 31.78800
C  45.72500 22.38900 26.93600
C  47.29700 26.90600 26.72600
N  46.54900 24.76700 31.44200
C  46.76100 25.84400 32.16200
C  46.39700 25.60400 33.62400
C  45.97700 24.06600 33.64500
C  45.97300 23.75300 32.21400
C  46.85200 23.16200 34.44700
C  45.28000 26.55500 34.03600
C  45.51500 27.34800 35.33200
H  44.40700 27.22400 36.34500
N  45.80600 22.55700 29.32100
C  45.63600 21.81100 30.46800
C  45.22700 20.45000 30.10000
C  45.28200 20.38500 28.67600
C  45.64200 21.78200 28.21000
C  44.94900 19.47300 31.13100
C  44.87400 19.21600 27.77600
O  44.91000 19.33800 26.50500
C  44.48300 17.89800 28.35300
N  46.64400 24.66500 27.14900
C  46.22200 23.61300 26.39200
C  46.51400 23.79300 24.84900
C  46.70200 25.35900 24.79300
C  46.94200 25.64500 26.30500
C  47.75400 22.98500 24.45200
C  45.58000 26.21600 24.11800
C  44.20500 25.90900 24.69000
N  47.09800 26.69200 29.14700
C  47.36900 27.44500 28.02100
C  47.80100 28.71100 28.51400
C  47.68600 28.67100 29.91300
C  47.26800 27.37500 30.25100
C  48.40900 29.77700 27.65000
C  47.88100 29.39200 31.18600
O  48.24300 30.54100 31.36800
C  47.49900 28.42300 32.30200
C  48.68800 28.17900 33.14500
O  49.78400 27.83300 32.70000
O  48.39500 28.46300 34.48000
C  49.34900 28.07600 35.48800
H  45.48800 21.82000 32.68200
H  45.21100 21.88400 26.11600
H  47.74300 27.57000 25.98300
H  47.34600 25.67500 34.15500
H  44.97300 23.80400 33.97800
H  47.76400 23.05700 33.86000
H  46.34400 22.22000 34.65400
H  47.14000 23.61600 35.39600
H  44.33200 26.03100 34.15800
H  45.05800 27.28200 33.25500
H  45.58100 28.40800 35.08800
H  46.45000 26.99000 35.76300
H  45.56100 18.62000 30.84000
H  43.87800 19.32400 31.27100
H  45.35500 19.87000 32.06100
H  45.31900 17.61000 28.99100
H  44.29200 17.11900 27.61600
H  43.57200 17.98400 28.94600
H  45.56700 23.56600 24.35900
H  47.66700 25.51700 24.31300
H  47.65200 22.25300 23.65100
H  48.01900 22.43200 25.35300
H  48.59100 23.60300 24.12700
H  45.54100 25.95800 23.06000
H  45.74600 27.28500 24.25200
H  43.68800 25.22500 24.01700
H  43.58200 26.76500 24.95100
H  44.27000 25.33700 25.61500
H  47.80200 30.00900 26.77500
H  49.43000 29.52500 27.36100
H  48.39700 30.70700 28.21800
H  46.66600 28.86800 32.84600
H  48.87600 27.37200 36.17400
H  49.35500 28.91800 36.18000
H  50.34800 27.84500 35.12000

