158

Mg 17.42600 -0.68600 27.71900
C  16.18800 1.12900 30.34800
C  19.67400 -2.25900 29.77700
C  18.81200 -2.09200 25.01600
C  15.52300 1.43400 25.58300
N  17.87700 -0.58300 29.73800
C  17.08200 0.06500 30.64800
C  17.53500 -0.25200 32.05200
C  18.84600 -1.04900 31.88700
C  18.82600 -1.34600 30.35800
C  20.22700 -0.22800 32.24800
C  16.42000 -0.86800 33.04500
C  16.71000 -0.95800 34.57700
H  17.98900 -0.19900 35.13600
N  18.93500 -2.07900 27.41800
C  19.71400 -2.69800 28.38300
C  20.50500 -3.72100 27.84500
C  20.24100 -3.70900 26.43400
C  19.28900 -2.67100 26.26700
C  21.49800 -4.63500 28.64800
C  20.77300 -4.58900 25.29700
O  20.34200 -4.50000 24.14000
C  21.65700 -5.74300 25.56500
N  17.30600 -0.28400 25.59500
C  18.02100 -0.96100 24.67800
C  17.82200 -0.32100 23.22700
C  16.56200 0.54900 23.44100
C  16.49900 0.59500 24.97400
C  19.11100 0.34000 22.68600
C  15.27200 -0.06600 22.74900
C  14.22000 0.75300 21.99700
N  16.03600 0.90400 27.83700
C  15.32300 1.69300 26.95500
C  14.51200 2.68500 27.66500
C  14.86500 2.43200 28.99800
C  15.80600 1.43700 29.01200
C  13.63000 3.76100 27.04700
C  14.64600 2.90700 30.34800
O  13.90700 3.79800 30.72400
C  15.50100 2.06000 31.29700
C  16.34700 2.97500 32.10400
O  17.28000 3.60500 31.65500
O  15.61100 3.17000 33.29100
C  16.22900 4.09800 34.17600
H  20.24000 -2.75300 30.57000
H  19.14100 -2.50000 24.05900
H  14.82600 2.03700 24.99800
H  17.84800 0.73100 32.40200
H  18.84400 -1.95700 32.49200
H  20.95400 -0.35400 31.44500
H  20.72100 -0.59600 33.14700
H  20.09000 0.80900 32.55800
H  16.04900 -1.81500 32.65200
H  15.54600 -0.22000 32.97300
H  16.72000 -1.99100 34.92400
H  15.90200 -0.50400 35.15000
H  21.25500 -4.74200 29.70500
H  22.54500 -4.44400 28.41200
H  21.35800 -5.65700 28.29800
H  22.44900 -5.67100 26.31000
H  22.18300 -6.05500 24.66200
H  20.97500 -6.49800 25.95600
H  17.66400 -1.10000 22.48100
H  16.69800 1.59900 23.17900
H  18.93000 1.37800 22.40800
H  19.44700 -0.20200 21.80200
H  19.93000 0.40600 23.40200
H  14.62000 -0.45400 23.53200
H  15.59300 -0.81900 22.03000
H  13.93000 0.35800 21.02400
H  14.52600 1.77300 21.76200
H  13.38400 0.82800 22.69200
H  12.71800 3.76300 27.64300
H  13.28900 3.37200 26.08800
H  14.07300 4.74900 26.92700
H  14.83700 1.38400 31.83700
H  16.91500 3.47500 34.75100
H  15.52900 4.64500 34.80600
H  16.69200 4.95200 33.68100
Mg -11.77000 38.74700 40.77200
C  -9.90200 35.81900 39.98200
C  -9.12400 40.57400 39.30000
C  -13.71500 41.47800 40.61500
C  -14.40300 36.64900 41.44400
N  -9.72900 38.29700 39.72200
C  -9.23000 37.01600 39.48100
C  -7.97800 37.03700 38.61100
C  -7.66300 38.58900 38.59600
C  -8.88300 39.22300 39.31300
C  -6.33500 38.99300 39.24600
C  -8.22600 36.38500 37.23900
C  -6.96800 35.62800 36.74400
H  -6.39600 36.02300 35.40000
N  -11.38300 40.81400 40.34600
C  -10.22300 41.39900 39.81800
C  -10.47200 42.85500 39.84800
C  -11.80400 43.07200 39.98600
C  -12.38700 41.75700 40.30100
C  -9.32800 43.71200 39.36300
C  -12.53900 44.42600 39.96800
O  -11.78400 45.39600 40.02600
C  -14.02200 44.67800 40.08500
N  -13.72500 39.04500 40.92300
C  -14.27700 40.27700 41.04800
C  -15.84200 40.16600 41.22000
C  -16.05900 38.59800 41.20700
C  -14.61600 38.03400 41.27300
C  -16.56900 40.82900 42.44200
C  -16.75300 38.09400 39.88800
C  -17.59900 36.80200 40.06700
N  -12.11700 36.67900 40.90700
C  -13.19700 35.96200 41.27400
C  -12.92000 34.57800 41.32700
C  -11.66700 34.46500 40.85600
C  -11.19300 35.74700 40.59900
C  -13.93300 33.48900 41.57900
C  -10.59400 33.55300 40.59500
O  -10.56400 32.35200 40.68900
C  -9.38600 34.35700 39.98200
C  -8.32300 34.09500 40.92000
O  -7.54400 33.14900 40.74500
O  -8.07500 35.17800 41.79600
C  -6.89700 35.11500 42.73800
H  -8.47700 41.20200 38.68400
H  -14.45000 42.28500 40.62500
H  -15.27100 36.03600 41.69500
H  -7.27100 36.51300 39.25500
H  -7.57800 38.91000 37.55800
H  -5.58900 39.55200 38.68300
H  -5.83100 38.13400 39.69000
H  -6.55700 39.75400 39.99400
H  -8.60200 37.13100 36.53900
H  -9.07900 35.70800 37.29100
H  -7.19400 34.56500 36.66100
H  -6.13000 35.65300 37.44100
H  -8.32700 43.35900 39.61200
H  -9.36100 44.73400 39.74000
H  -9.36900 43.76400 38.27500
H  -14.27700 45.69500 39.78700
H  -14.33600 44.45800 41.10500
H  -14.68800 44.13400 39.41400
H  -16.28300 40.66900 40.36000
H  -16.67900 38.23000 42.02500
H  -17.22300 41.64200 42.12500
H  -15.80900 41.24600 43.10300
H  -17.15900 40.08800 42.98300
H  -15.93100 37.91500 39.19400
H  -17.42900 38.82400 39.44300
H  -17.89400 36.63700 41.10300
H  -17.03800 35.99600 39.59400
H  -18.59900 36.84300 39.63700
H  -14.72300 33.55300 40.83000
H  -14.24900 33.58500 42.61800
H  -13.60200 32.46400 41.41100
H  -9.05500 33.92900 39.03600
H  -6.33000 34.20500 42.54400
H  -7.22700 35.29400 43.76100
H  -6.21700 35.89600 42.39700

