158

Mg 1.76800 8.14900 25.71100
C  2.59500 10.10700 28.49300
C  1.94400 5.38100 27.73600
C  1.13100 6.22500 22.99400
C  2.31100 10.93300 23.69300
N  2.42800 7.76800 27.90800
C  2.42100 8.74600 28.84800
C  2.42700 8.11300 30.27500
C  2.49000 6.57700 29.99100
C  2.25800 6.56300 28.45300
C  3.74600 5.78700 30.42000
C  1.14100 8.71100 30.98900
C  1.14600 8.88800 32.50200
H  2.24500 8.23400 33.30500
N  1.53100 6.12900 25.41200
C  1.62000 5.17400 26.37300
C  1.34500 3.93400 25.80300
C  1.04200 4.07700 24.42500
C  1.22800 5.51900 24.22100
C  1.12000 2.62700 26.69900
C  0.61600 2.95400 23.36200
O  0.31400 3.14900 22.23100
C  0.57100 1.56200 23.81600
N  1.89500 8.50900 23.58900
C  1.36300 7.56300 22.68400
C  1.16700 8.18600 21.27400
C  1.47600 9.71500 21.50700
C  1.97800 9.78300 22.97700
C  2.02800 7.51700 20.24600
C  0.45600 10.74200 21.04500
C  -0.85000 10.79300 21.88300
N  2.28600 10.12300 25.96800
C  2.35100 11.11100 25.07900
C  2.47200 12.33100 25.79900
C  2.57700 12.02900 27.09900
C  2.44600 10.63800 27.18800
C  2.58000 13.71900 25.12100
C  2.74700 12.54200 28.45100
O  2.83400 13.67700 28.81800
C  2.65800 11.33700 29.38500
C  3.70900 11.25600 30.33400
O  4.92700 11.07900 30.10100
O  3.12100 11.49200 31.57400
C  4.11400 11.66900 32.58700
H  2.06400 4.47900 28.34000
H  0.77700 5.69700 22.10600
H  2.40200 11.90500 23.20300
H  3.30800 8.30900 30.88600
H  1.64500 6.04400 30.42700
H  4.16200 5.16300 29.62900
H  3.37200 5.16900 31.23600
H  4.51100 6.46900 30.79400
H  0.30400 8.07800 30.69500
H  0.71500 9.63600 30.60100
H  0.18900 8.46800 32.81100
H  1.15500 9.96900 32.64000
H  0.31800 1.94300 26.42200
H  0.89600 2.96100 27.71100
H  2.06100 2.07800 26.65800
H  1.37700 1.24000 24.47500
H  0.38800 0.84400 23.01700
H  -0.29000 1.53400 24.48500
H  0.11100 8.11300 21.01300
H  2.34200 9.82700 20.85500
H  1.51900 6.63300 19.86300
H  2.96600 7.19200 20.69700
H  2.22100 8.16500 19.39000
H  0.20900 10.45400 20.02300
H  0.93600 11.72100 21.04200
H  -0.85300 10.03900 22.67000
H  -1.62200 10.63100 21.13000
H  -1.04300 11.78100 22.30100
H  2.81000 13.61700 24.06000
H  3.44900 14.27500 25.47400
H  1.70800 14.32200 25.37200
H  1.70300 11.47900 29.89100
H  4.76400 12.49800 32.31000
H  4.72400 10.78100 32.75200
H  3.49600 11.92100 33.45000
Mg -10.28100 40.36500 42.35900
C  -9.03700 37.05200 41.43500
C  -7.52900 41.64900 40.87300
C  -11.80600 43.19700 42.43000
C  -13.39500 38.62100 42.93400
N  -8.58200 39.33100 41.15300
C  -8.20500 38.04300 40.96700
C  -6.91000 37.83900 40.26900
C  -6.32700 39.39400 40.29100
C  -7.56900 40.23800 40.76300
C  -5.12600 39.68200 41.26400
C  -7.09100 37.23100 38.82500
C  -6.30600 35.98800 38.44100
H  -5.29500 36.29500 37.26700
N  -9.70500 42.24300 41.82700
C  -8.51700 42.55500 41.25400
C  -8.39600 43.95900 41.22000
C  -9.64600 44.51000 41.61700
C  -10.46400 43.33000 41.94200
C  -7.10500 44.66600 40.80100
C  -10.02200 45.95700 41.75100
O  -9.28200 46.86000 41.30500
C  -11.27200 46.36900 42.47200
N  -12.29400 40.85300 42.58700
C  -12.66400 42.12900 42.68600
C  -14.08000 42.29200 43.01300
C  -14.70700 40.78100 43.05500
C  -13.40000 40.01200 42.76100
C  -14.56700 43.13500 44.29100
C  -15.76100 40.55100 41.98400
C  -16.97000 39.64600 42.43200
N  -11.08100 38.32500 42.45600
C  -12.31000 37.82700 42.79900
C  -12.22600 36.38600 42.90700
C  -10.97900 36.03000 42.38000
C  -10.31500 37.28600 42.11200
C  -13.40300 35.44600 43.29800
C  -10.10800 34.92600 41.96100
O  -10.24600 33.73800 41.96500
C  -8.81800 35.56000 41.37100
C  -7.62000 35.11200 42.18500
O  -7.21300 35.62600 43.19400
O  -7.15900 33.96400 41.62200
C  -5.94200 33.41800 42.18700
H  -6.57700 42.06300 40.53400
H  -12.39800 44.08300 42.67000
H  -14.37300 38.23600 43.23100
H  -6.14000 37.32000 40.83900
H  -5.99400 39.77800 39.32600
H  -4.88400 38.78200 41.83000
H  -5.22400 40.57600 41.88100
H  -4.29500 39.92700 40.60300
H  -6.93500 38.00900 38.07700
H  -8.13100 36.94100 38.67600
H  -6.99200 35.17500 38.20700
H  -5.87400 35.66500 39.38800
H  -7.03600 44.40100 39.74600
H  -6.26100 44.29800 41.38600
H  -7.09600 45.75000 40.91600
H  -11.41300 45.84100 43.41600
H  -11.97000 46.04500 41.70100
H  -11.30900 47.45400 42.37000
H  -14.49600 42.81900 42.15500
H  -15.08900 40.50000 44.03600
H  -14.74300 42.42100 45.09400
H  -15.46600 43.73600 44.15500
H  -13.81400 43.80800 44.70300
H  -15.35700 40.03400 41.11400
H  -16.24700 41.49400 41.73200
H  -17.90200 40.21000 42.39900
H  -16.80700 39.22400 43.42300
H  -17.04200 38.77800 41.77600
H  -14.29600 35.87000 42.83800
H  -13.46900 35.55600 44.38100
H  -13.20300 34.40300 43.05300
H  -8.76700 35.21600 40.33800
H  -5.93900 32.37400 41.87500
H  -5.81000 33.44400 43.26900
H  -5.03600 33.89500 41.81400

