158

Mg 16.96200 -1.42500 27.47900
C  15.93100 0.64800 30.14100
C  19.31100 -2.79100 29.70200
C  18.42700 -2.89800 24.95700
C  14.68200 0.13700 25.48300
N  17.55600 -1.10700 29.75500
C  16.93200 -0.23000 30.61200
C  17.45500 -0.46700 32.04300
C  18.72200 -1.29100 31.76400
C  18.57800 -1.78200 30.31200
C  20.14900 -0.76000 32.09700
C  16.35900 -1.03900 32.98000
C  16.39500 -0.71900 34.45800
H  17.60500 -0.00600 34.99800
N  18.49900 -2.84900 27.36600
C  19.30100 -3.28300 28.40400
C  20.09300 -4.40100 27.89500
C  19.91400 -4.40900 26.46600
C  18.95500 -3.34200 26.16500
C  20.86800 -5.29900 28.86500
C  20.49300 -5.33000 25.46600
O  20.15400 -5.17900 24.32300
C  21.58000 -6.26500 25.78700
N  16.55000 -1.50200 25.50000
C  17.32700 -2.10600 24.61300
C  16.83100 -1.94500 23.12600
C  15.53800 -1.03600 23.33400
C  15.54600 -0.79300 24.86400
C  17.95100 -1.47600 22.16300
C  14.24500 -1.76300 22.89600
C  13.43900 -1.11500 21.80500
N  15.61700 0.12500 27.73600
C  14.73000 0.65200 26.80300
C  13.90200 1.61000 27.40600
C  14.23400 1.55800 28.78400
C  15.34200 0.70900 28.90800
C  12.91800 2.49400 26.70800
C  13.92300 2.13400 30.10400
O  13.02700 2.89600 30.56300
C  15.08600 1.51100 30.96900
C  15.78200 2.59100 31.66300
O  16.66700 3.29300 31.31100
O  15.11100 2.64700 32.81900
C  15.32200 3.91000 33.56100
H  19.97300 -3.35200 30.36500
H  18.92600 -3.33000 24.08800
H  14.07800 0.68700 24.75800
H  17.73400 0.49500 32.47200
H  18.57600 -2.22500 32.30500
H  20.76000 -0.53300 31.22300
H  20.73800 -1.56300 32.54100
H  20.09200 0.15800 32.68300
H  16.52000 -2.11000 32.85000
H  15.41000 -0.71200 32.55500
H  16.12600 -1.58600 35.06100
H  15.57100 -0.01800 34.59100
H  21.87300 -4.97700 29.13800
H  20.95200 -6.29200 28.42200
H  20.34000 -5.41500 29.81100
H  21.27400 -7.12700 26.38000
H  22.22500 -5.61200 26.37500
H  22.01000 -6.43700 24.80100
H  16.54000 -2.97300 22.90900
H  15.61200 -0.05300 22.87000
H  18.91000 -1.19900 22.60000
H  17.48800 -0.56300 21.78900
H  18.12600 -2.08700 21.27800
H  13.62000 -1.79200 23.78800
H  14.51900 -2.79400 22.67200
H  14.09500 -0.33400 21.42000
H  12.51900 -0.71600 22.23200
H  13.25600 -1.89900 21.07100
H  12.58200 3.38000 27.24800
H  12.01500 1.95000 26.43200
H  13.39200 2.83200 25.78600
H  14.41000 0.97000 31.63100
H  14.37700 4.25600 33.98000
H  15.63600 4.77000 32.96900
H  16.05900 3.75200 34.34900
Mg 36.40500 49.05900 25.18000
C  36.53000 47.00800 28.16100
C  35.17400 51.57100 27.06500
C  35.77000 50.60900 22.34500
C  37.64100 46.20700 23.46600
N  35.53800 49.14200 27.30600
C  35.96100 48.30100 28.35700
C  35.83200 48.97800 29.72000
C  35.20200 50.32800 29.32700
C  35.28300 50.37100 27.82800
C  33.65300 50.48900 29.66200
C  37.16100 49.11800 30.59100
C  37.07200 48.54900 32.04800
H  36.67600 49.40800 33.12800
N  35.62300 50.90500 24.72100
C  35.19700 51.83400 25.63700
C  35.00300 53.07600 25.02900
C  35.25200 52.82900 23.63000
C  35.51900 51.38300 23.51300
C  34.75200 54.42700 25.77000
C  35.11000 53.82800 22.48900
O  35.28400 53.60300 21.27300
C  34.84800 55.17300 22.87100
N  36.77600 48.51700 23.23500
C  36.37800 49.34200 22.24700
C  36.65300 48.62000 20.88100
C  37.63100 47.38600 21.25700
C  37.41300 47.39600 22.80900
C  35.25700 48.26000 20.27600
C  39.11500 47.36700 20.84400
C  39.50400 46.57800 19.56800
N  36.92600 46.95600 25.61000
C  37.43300 45.91800 24.83600
C  37.62700 44.73700 25.63000
C  37.36700 45.18900 26.93400
C  36.93100 46.48700 26.88000
C  38.05900 43.43500 25.05800
C  37.51700 44.79500 28.31600
O  37.99600 43.80000 28.87200
C  36.89400 45.95700 29.15100
C  35.69200 45.47900 30.03600
O  34.55200 45.51900 29.64200
O  36.13500 45.04000 31.26400
C  35.03800 44.75800 32.29200
H  34.89400 52.41000 27.70500
H  35.35500 50.99100 21.41000
H  37.88100 45.38100 22.79400
H  35.06400 48.34600 30.16600
H  35.68100 51.21200 29.74600
H  33.14500 51.06500 28.88900
H  33.54100 50.94900 30.64300
H  33.01900 49.60200 29.66100
H  37.38600 50.17100 30.75700
H  38.00500 48.61500 30.11800
H  38.00200 48.04700 32.31600
H  36.35600 47.72800 32.06800
H  35.38400 55.26300 25.47000
H  35.15800 54.31300 26.77500
H  33.70700 54.70100 25.91000
H  35.70600 55.55900 23.42200
H  33.86800 55.37400 23.30500
H  34.90900 55.76100 21.95500
H  37.11400 49.36400 20.23200
H  37.11800 46.49500 20.89600
H  34.46700 48.79200 20.80700
H  34.96600 47.21100 20.33600
H  35.13000 48.59100 19.24600
H  39.76100 47.21300 21.70800
H  39.24600 48.41000 20.55600
H  39.24900 47.20200 18.71100
H  38.96200 45.65500 19.36300
H  40.57100 46.37000 19.65100
H  37.22400 42.89300 24.61600
H  38.58300 42.89300 25.84500
H  38.75300 43.68100 24.25300
H  37.62600 46.40700 29.82300
H  34.00100 44.76700 31.95600
H  35.05700 45.55100 33.03900
H  35.33000 43.91100 32.91200

