158

Mg 16.80700 -2.04000 27.54900
C  16.03600 0.29300 30.00300
C  18.32100 -3.99400 30.02500
C  18.35500 -3.78000 25.18900
C  15.98800 0.38300 25.09400
N  17.19600 -1.83600 29.75600
C  16.63100 -0.88700 30.57700
C  16.83600 -1.19400 32.08600
C  17.59600 -2.57900 32.01100
C  17.80000 -2.81300 30.49400
C  18.91100 -2.59600 32.81200
C  15.52400 -1.31000 32.87800
C  15.33600 -0.29000 34.01700
H  16.61400 0.09100 34.78500
N  17.82100 -3.78500 27.56200
C  18.29600 -4.48400 28.66800
C  19.09700 -5.62100 28.30000
C  19.29200 -5.52800 26.85000
C  18.51800 -4.29300 26.51800
C  19.64200 -6.61300 29.33200
C  20.06300 -6.41400 25.99800
O  20.15600 -6.11500 24.81000
C  20.69300 -7.66300 26.45900
N  17.05400 -1.73700 25.43700
C  17.77800 -2.57500 24.74400
C  17.87000 -2.20400 23.24000
C  17.05600 -0.93100 23.16300
C  16.59500 -0.75700 24.61700
C  19.32100 -2.02600 22.69800
C  15.88300 -0.95000 22.11400
C  15.99700 0.13000 21.03100
N  16.06400 -0.11700 27.52000
C  15.68800 0.74700 26.50000
C  15.11900 1.99400 27.03100
C  15.13500 1.78200 28.40000
C  15.80700 0.57900 28.66000
C  14.81100 3.24400 26.35100
C  14.83400 2.47000 29.70400
O  14.25600 3.56800 29.92700
C  15.45300 1.49200 30.77900
C  16.57000 2.34000 31.48900
O  17.76900 2.36800 31.10900
O  16.09500 2.92400 32.61000
C  16.86300 4.06100 33.06300
H  18.77900 -4.63300 30.78300
H  18.91800 -4.41700 24.50300
H  15.81400 1.22300 24.41900
H  17.52100 -0.41000 32.40800
H  16.90900 -3.30100 32.45300
H  18.93600 -1.68300 33.40600
H  19.73900 -2.60000 32.10300
H  18.88200 -3.48800 33.43800
H  15.42300 -2.21800 33.47200
H  14.70100 -1.14600 32.18300
H  14.67700 -0.75700 34.74800
H  14.81800 0.56000 33.57200
H  20.72700 -6.57400 29.23600
H  19.28500 -7.58400 28.98900
H  19.35300 -6.54600 30.38000
H  20.05300 -8.28700 27.08400
H  21.54200 -7.41300 27.09600
H  21.20200 -8.01200 25.56000
H  17.52700 -3.02000 22.60300
H  17.75600 -0.11500 22.98300
H  19.50000 -1.24000 21.96400
H  19.58700 -3.00900 22.30900
H  19.92200 -1.86100 23.59200
H  14.89200 -0.80300 22.54500
H  15.93300 -1.93800 21.65700
H  16.22600 1.03600 21.59400
H  15.03400 0.29300 20.54800
H  16.76100 -0.04900 20.27400
H  15.35800 3.24800 25.40800
H  15.09900 4.06000 27.01400
H  13.75900 3.22900 26.06800
H  14.76000 1.19600 31.56700
H  17.10400 4.72300 32.23100
H  17.80200 3.84400 33.57200
H  16.27700 4.59800 33.80800
Mg 35.68700 49.15100 24.85100
C  35.68200 47.26500 27.72200
C  34.19600 51.78100 26.79000
C  35.40100 51.04200 22.04200
C  36.70200 46.47900 23.08000
N  34.95100 49.41100 27.00300
C  35.23500 48.55100 28.00500
C  35.00700 49.15500 29.40100
C  34.27300 50.50800 29.02900
C  34.49700 50.54800 27.49900
C  32.77000 50.66000 29.44700
C  36.30300 49.16700 30.22700
C  36.10100 48.75900 31.70600
H  34.79900 49.07200 32.37500
N  34.76300 51.10000 24.41100
C  34.35500 52.00700 25.34900
C  33.91000 53.14100 24.65200
C  34.25100 53.00500 23.30100
C  34.86600 51.71100 23.20400
C  33.48700 54.47300 25.34700
C  34.11000 54.06300 22.16200
O  34.71500 53.94700 21.09900
C  33.19900 55.18600 22.32800
N  35.94900 48.74400 22.77800
C  35.83100 49.74500 21.82700
C  36.18300 49.14500 20.48200
C  36.90800 47.80800 20.88400
C  36.50300 47.65700 22.35000
C  35.01700 48.83000 19.42600
C  38.40600 47.69600 20.56800
C  38.91200 46.30000 20.06700
N  36.20500 47.30900 25.23700
C  36.56100 46.29400 24.44000
C  36.77800 45.03600 25.26500
C  36.47000 45.45100 26.56000
C  36.09000 46.82200 26.45700
C  37.14200 43.60600 24.86700
C  36.32900 44.88100 27.84100
O  36.62100 43.78400 28.25800
C  35.81300 46.04800 28.69600
C  34.55400 45.49400 29.28100
O  33.63100 44.96200 28.69500
O  34.69300 45.61500 30.59700
C  33.67300 45.17900 31.52700
H  33.69300 52.51400 27.42400
H  35.43500 51.54500 21.07400
H  37.13500 45.66800 22.49100
H  34.21300 48.60800 29.90800
H  34.82800 51.35800 29.42700
H  32.53000 50.27100 30.43600
H  32.19200 50.33000 28.58300
H  32.71900 51.74100 29.31900
H  36.74100 50.15700 30.10500
H  36.94400 48.45500 29.70700
H  36.91500 49.26100 32.22800
H  36.28200 47.69800 31.87400
H  33.46100 54.40500 26.43500
H  32.56600 54.93700 24.99400
H  34.23700 55.24400 25.16900
H  33.39600 55.89600 23.13200
H  32.19700 54.80400 22.52300
H  33.08900 55.72400 21.38700
H  36.94700 49.73500 19.97700
H  36.40700 46.97700 20.38700
H  35.15900 49.47200 18.55700
H  34.09000 49.17900 19.88300
H  34.91500 47.75900 19.25100
H  38.82000 47.89000 21.55700
H  38.74300 48.44600 19.85300
H  39.71600 45.97600 20.72800
H  39.41900 46.35200 19.10400
H  38.19800 45.48300 20.17300
H  37.12000 43.51900 23.78100
H  36.41200 42.94300 25.33200
H  38.06500 43.34400 25.38400
H  36.55900 46.22000 29.47200
H  33.86600 44.19700 31.95900
H  32.72600 45.07300 30.99700
H  33.60100 45.84000 32.39100

