158

Mg 41.90800 41.36600 26.26200
C  41.06500 43.97300 28.52700
C  42.72600 39.37100 28.92000
C  42.97400 39.10700 24.01000
C  41.39700 43.75900 23.67500
N  41.92400 41.68700 28.39200
C  41.47400 42.80100 29.09000
C  41.37900 42.49700 30.58700
C  41.99800 41.14600 30.69100
C  42.28500 40.69100 29.21800
C  43.11400 40.90900 31.70300
C  39.89300 42.60300 31.09600
C  39.51500 41.95100 32.46800
H  38.72200 42.84100 33.46100
N  42.77900 39.51400 26.46200
C  42.95400 38.80000 27.60500
C  43.35700 37.47400 27.30100
C  43.29200 37.31700 25.87400
C  42.97300 38.67400 25.40500
C  43.67400 36.43500 28.39600
C  43.43800 36.04500 24.99600
O  43.28900 35.97900 23.80000
C  43.85600 34.69000 25.67400
N  42.22700 41.46100 24.18000
C  42.65800 40.37900 23.43900
C  42.33500 40.52700 21.87600
C  41.84100 42.02800 21.81800
C  41.78100 42.43500 23.29700
C  43.55700 40.34000 20.92900
C  40.48700 42.20200 21.13500
C  39.25700 42.08500 21.96700
N  41.32000 43.42500 26.11100
C  41.20000 44.26600 24.97400
C  40.84200 45.60400 25.38500
C  40.88100 45.54600 26.76100
C  41.11100 44.18300 27.12800
C  40.54900 46.79000 24.52500
C  40.58800 46.37300 27.97800
O  40.31500 47.52200 28.16800
C  40.69400 45.32300 29.14400
C  41.70500 45.76200 30.19900
O  42.88900 45.76200 30.09000
O  41.11100 45.92400 31.40200
C  41.93200 46.27600 32.66800
H  42.94100 38.77900 29.81200
H  43.07300 38.35800 23.22100
H  41.24200 44.51100 22.89800
H  41.95900 43.22300 31.15600
H  41.16900 40.47300 30.91000
H  43.18700 41.81400 32.30600
H  44.04000 40.77400 31.14500
H  42.90800 40.15100 32.45800
H  39.25400 42.17000 30.32700
H  39.74500 43.68000 31.16800
H  40.44200 41.71400 32.99100
H  39.07600 40.96700 32.30400
H  43.20500 36.71700 29.33900
H  44.72400 36.61900 28.62300
H  43.43000 35.45900 27.97800
H  43.06100 34.42600 26.37200
H  44.78000 34.90000 26.21200
H  43.95900 33.89900 24.93100
H  41.54800 39.85300 21.53700
H  42.55900 42.62200 21.25400
H  44.26000 40.88800 21.55700
H  43.55000 40.76900 19.92700
H  43.75500 39.27300 21.02300
H  40.34100 41.51800 20.30000
H  40.57100 43.22500 20.76800
H  39.26200 41.28700 22.71100
H  38.44000 41.86000 21.28200
H  38.96100 43.04100 22.39800
H  39.48500 46.92200 24.33100
H  41.10700 46.68600 23.59400
H  41.01900 47.63500 25.02900
H  39.67600 45.26400 29.52900
H  41.87500 47.31600 32.98900
H  42.97100 46.05900 32.42200
H  41.56800 45.56500 33.40900
Mg 0.08200 43.52400 26.63400
C  2.16100 42.73900 29.29500
C  -2.66400 42.50100 28.55800
C  -1.92400 44.03600 24.01100
C  2.84000 44.19900 24.61300
N  -0.20400 42.75800 28.70200
C  0.77500 42.68500 29.60400
C  0.23900 42.50300 30.98700
C  -1.29200 42.07800 30.70500
C  -1.41900 42.43100 29.24500
C  -1.71000 40.62000 30.94300
C  0.48100 43.79700 31.85700
C  1.22800 43.52700 33.17300
H  0.97500 42.26800 33.98000
N  -1.99600 43.30300 26.30000
C  -2.94300 42.82900 27.17200
C  -4.21900 42.77400 26.56700
C  -3.96000 43.15900 25.20700
C  -2.56100 43.48700 25.11700
C  -5.54300 42.47900 27.31300
C  -4.89800 43.26600 24.06100
O  -4.74600 43.76500 22.96900
C  -6.32300 42.65200 24.23700
N  0.49600 44.01900 24.52700
C  -0.57200 44.39700 23.83600
C  -0.14000 45.09200 22.56500
C  1.38600 45.42000 22.87000
C  1.61200 44.49100 24.02700
C  -0.31500 44.43500 21.25600
C  1.52100 47.00000 23.17600
C  1.68000 47.96800 22.06500
N  2.03800 43.49300 26.83000
C  3.08300 43.70900 25.93000
C  4.35400 43.67900 26.59800
C  4.03600 43.12100 27.86400
C  2.63000 43.07500 28.00700
C  5.65500 43.82600 25.92600
C  4.59500 42.70500 29.15000
O  5.80300 42.50500 29.39700
C  3.38200 42.58900 30.17700
C  3.50400 41.22800 30.75100
O  3.35600 40.22200 30.10900
O  3.95800 41.26600 32.03400
C  4.39700 39.99000 32.50700
H  -3.39600 41.97500 29.17400
H  -2.54800 44.08700 23.11700
H  3.72400 44.42700 24.01300
H  0.71000 41.61400 31.40700
H  -1.92400 42.69800 31.34200
H  -2.47100 40.56200 31.72100
H  -0.91000 40.04200 31.40800
H  -2.10000 40.09600 30.07100
H  -0.50600 44.19000 32.10100
H  1.06300 44.55100 31.32700
H  0.93200 44.30100 33.88100
H  2.28500 43.61400 32.92200
H  -5.98800 41.50500 27.10900
H  -6.38400 43.12300 27.05500
H  -5.33700 42.54800 28.38100
H  -6.84200 43.33500 24.90900
H  -6.28200 41.66500 24.69800
H  -6.68900 42.57000 23.21300
H  -0.74400 45.99900 22.52800
H  1.97000 45.16700 21.98400
H  -1.01100 45.03700 20.67100
H  -0.75700 43.43900 21.25600
H  0.57600 44.17500 20.68600
H  2.41200 47.11900 23.79300
H  0.64800 47.24500 23.78200
H  0.97600 48.77900 22.25300
H  1.31900 47.54400 21.12900
H  2.66600 48.41700 21.94300
H  5.83500 44.86500 25.65000
H  5.61300 43.20600 25.03000
H  6.44000 43.46900 26.59400
H  3.39100 43.40900 30.89500
H  3.61700 39.24900 32.68000
H  4.93900 40.09800 33.44700
H  5.11200 39.64800 31.75900

