158

Mg 42.22400 41.43200 26.51500
C  41.37900 43.82400 29.06000
C  43.02300 39.21900 29.00900
C  43.33200 39.45000 24.17900
C  41.77000 44.04400 24.12100
N  42.11600 41.51000 28.74700
C  41.76300 42.55000 29.58600
C  41.92200 42.15000 31.06900
C  42.41000 40.70100 30.97800
C  42.62500 40.48700 29.45100
C  43.67000 40.19100 31.75900
C  40.65300 42.37900 31.97000
C  40.87400 41.95400 33.44100
H  40.40800 43.00500 34.52200
N  43.09800 39.56800 26.60600
C  43.24600 38.77700 27.67900
C  43.55000 37.44500 27.33200
C  43.70900 37.43300 25.87600
C  43.39400 38.88400 25.51100
C  43.73200 36.27300 28.36800
C  43.90800 36.27600 24.83900
O  44.07500 36.49300 23.70600
C  43.97000 34.84500 25.36200
N  42.40500 41.66600 24.38200
C  42.90900 40.64800 23.63100
C  42.77400 40.98300 22.11500
C  42.17500 42.42900 22.16600
C  42.16800 42.80700 23.65100
C  44.08700 40.86500 21.32100
C  40.74200 42.52600 21.66900
C  39.62900 41.62600 22.24200
N  41.74100 43.44400 26.52800
C  41.57400 44.36100 25.46000
C  41.19600 45.67700 26.03100
C  41.10900 45.48800 27.38700
C  41.44400 44.13800 27.67000
C  40.94500 46.95900 25.31100
C  40.84000 46.18800 28.64000
O  40.53500 47.29700 28.91000
C  41.00100 45.11400 29.76900
C  42.04300 45.66200 30.61800
O  43.21500 45.88300 30.28000
O  41.54100 45.72900 31.89100
C  42.49500 46.33900 32.78300
H  43.30200 38.50300 29.78500
H  43.61000 38.69800 23.43700
H  41.51400 44.78000 23.35700
H  42.66200 42.79100 31.55000
H  41.65300 39.93200 31.13200
H  43.29300 39.44600 32.45800
H  44.03800 41.03100 32.34800
H  44.49400 39.81400 31.15300
H  39.83700 41.75200 31.61000
H  40.35700 43.42600 31.91300
H  41.93600 41.75000 33.57900
H  40.39000 40.99300 33.61800
H  44.25400 35.42300 27.92700
H  42.78000 35.85800 28.69800
H  44.34800 36.62200 29.19600
H  43.17500 34.62000 26.07400
H  44.98100 34.71000 25.74500
H  43.99600 34.09500 24.57200
H  42.17000 40.18800 21.67800
H  42.84200 42.97100 21.49500
H  44.90000 40.54100 21.97000
H  44.27700 41.67700 20.61800
H  43.87900 40.02500 20.65800
H  40.82900 42.29200 20.60800
H  40.42500 43.56600 21.75600
H  39.99000 41.16600 23.16200
H  39.24100 40.87900 21.54900
H  38.90800 42.38100 22.55300
H  40.01300 47.40200 25.66000
H  40.94000 46.69700 24.25300
H  41.80100 47.59700 25.53100
H  40.05000 45.02000 30.29300
H  42.59000 47.39500 32.53000
H  43.50900 45.95400 32.67400
H  42.14300 46.21600 33.80700
Mg -10.92900 16.44500 42.94100
C  -7.46500 17.40000 42.88400
C  -11.65000 19.90100 42.45100
C  -14.03500 15.64000 42.69000
C  -9.86700 13.16600 42.66700
N  -9.65600 18.48600 42.56700
C  -8.27600 18.56000 42.73800
C  -7.86300 20.01000 42.49300
C  -9.17200 20.80800 42.59000
C  -10.24500 19.73700 42.45100
C  -9.25000 21.53800 43.99100
C  -7.00200 20.18400 41.20200
C  -5.56700 20.68700 41.22400
H  -4.64400 20.06300 40.20100
N  -12.61500 17.54800 42.75200
C  -12.72900 18.96000 42.57600
C  -14.10300 19.32300 42.39400
C  -14.84400 18.13400 42.69100
C  -13.85400 17.03700 42.78200
C  -14.66900 20.72700 42.05400
C  -16.38900 18.03800 42.70500
O  -17.07600 18.97600 42.31100
C  -17.01400 16.80200 43.33700
N  -11.83200 14.65200 42.69600
C  -13.17200 14.55200 42.66000
C  -13.62500 13.09000 42.91600
C  -12.27600 12.32500 42.57100
C  -11.21300 13.40900 42.64100
C  -14.35500 12.92700 44.29500
C  -12.38300 11.58400 41.13400
C  -12.86700 10.11500 41.08300
N  -9.09800 15.49500 42.74400
C  -8.84400 14.16100 42.74700
C  -7.41400 13.89300 42.83300
C  -6.82600 15.15500 42.97500
C  -7.91200 16.09300 42.87300
C  -6.84000 12.51200 42.74900
C  -5.56600 15.79400 43.14300
O  -4.38000 15.40100 43.29500
C  -5.94300 17.30400 43.25100
C  -5.69200 17.64000 44.63500
O  -5.94400 16.96100 45.61000
O  -5.12600 18.85600 44.64100
C  -4.88500 19.48200 46.01100
H  -11.93000 20.92300 42.18700
H  -15.04400 15.22200 42.67800
H  -9.62800 12.10700 42.79000
H  -7.20900 20.14000 43.35500
H  -9.27900 21.60100 41.84900
H  -8.31200 21.74900 44.50600
H  -9.76500 20.92200 44.72800
H  -9.90400 22.40400 43.88800
H  -7.57100 20.87100 40.57600
H  -7.04400 19.21400 40.70600
H  -5.05400 20.45100 42.15700
H  -5.50500 21.77300 41.15800
H  -14.83200 20.84800 40.98300
H  -13.98000 21.54000 42.28100
H  -15.56900 21.09500 42.54600
H  -18.03600 17.00200 43.66000
H  -16.35400 16.38100 44.09500
H  -17.03600 16.10000 42.50300
H  -14.42300 12.99000 42.18000
H  -12.02700 11.59800 43.34300
H  -14.36200 13.91800 44.74900
H  -13.83700 12.25300 44.97700
H  -15.41200 12.67000 44.23400
H  -11.59100 11.88300 40.44800
H  -13.27800 12.00100 40.67300
H  -12.13900 9.36900 40.76500
H  -13.76100 10.14400 40.46000
H  -13.27200 9.93400 42.07800
H  -7.54000 11.77600 42.35400
H  -6.61200 12.05200 43.71000
H  -5.88900 12.44300 42.22100
H  -5.32600 17.90500 42.58400
H  -3.99600 20.04800 45.73400
H  -4.57000 18.71700 46.72000
H  -5.71500 20.10800 46.34100

