158

Mg -9.97300 40.25700 42.59400
C  -9.05000 37.03600 41.71600
C  -7.18200 41.53900 41.14900
C  -11.52700 43.13800 42.31800
C  -13.21400 38.78300 43.31500
N  -8.27800 39.30700 41.61600
C  -8.07600 38.02300 41.33000
C  -6.66400 37.78400 40.70200
C  -6.08700 39.25500 40.69300
C  -7.20000 40.10300 41.20400
C  -4.78600 39.41700 41.42700
C  -6.73100 37.20100 39.18900
C  -5.61800 36.24300 38.74600
H  -4.56100 36.67500 37.67400
N  -9.35600 42.08500 42.05700
C  -8.13200 42.43000 41.57100
C  -8.02900 43.86600 41.48600
C  -9.28400 44.40400 41.69500
C  -10.13100 43.19400 42.05100
C  -6.75700 44.54100 40.96700
C  -9.62100 45.88100 41.64500
O  -8.80500 46.72600 41.29600
C  -10.91700 46.51300 42.03900
N  -12.05000 40.88700 42.96500
C  -12.40800 42.13500 42.63400
C  -13.91800 42.43100 42.70300
C  -14.50900 41.03200 43.21300
C  -13.20000 40.18000 43.13300
C  -14.31600 43.53200 43.72600
C  -15.59600 40.45700 42.33700
C  -16.85000 39.90800 43.06200
N  -10.98600 38.25700 42.68500
C  -12.28200 37.83400 42.90800
C  -12.38200 36.34400 42.92600
C  -11.09800 36.03400 42.49500
C  -10.31000 37.17500 42.30800
C  -13.54100 35.48400 43.27300
C  -10.18400 34.95300 42.17800
O  -10.35900 33.74100 42.25800
C  -8.95500 35.56100 41.58100
C  -7.83300 35.01000 42.29200
O  -7.52800 35.24500 43.44700
O  -7.24500 34.18000 41.39800
C  -6.25500 33.34700 41.99700
H  -6.29400 41.84900 40.59500
H  -12.04700 44.07000 42.08700
H  -14.21200 38.49300 43.65000
H  -5.96500 37.15600 41.25500
H  -5.79800 39.60600 39.70300
H  -4.12300 38.57400 41.23100
H  -4.98100 39.46900 42.49800
H  -4.24800 40.26100 40.99500
H  -6.68300 37.99300 38.44200
H  -7.62200 36.63300 38.92000
H  -6.18000 35.38000 38.39000
H  -5.03800 36.04600 39.64700
H  -6.88200 44.72100 39.90000
H  -5.98000 43.78900 41.10300
H  -6.51300 45.46400 41.49400
H  -11.64500 46.07100 41.35900
H  -10.87900 47.58000 41.82000
H  -11.12700 46.32400 43.09200
H  -14.20900 42.64200 41.67400
H  -14.79500 41.07000 44.26400
H  -14.77900 43.02900 44.57500
H  -15.06700 44.21200 43.32200
H  -13.45600 44.10500 44.07100
H  -15.31000 39.65800 41.65400
H  -15.93500 41.33400 41.78600
H  -16.97100 38.84700 42.84200
H  -17.69000 40.49500 42.69000
H  -16.87700 40.13900 44.12700
H  -14.32200 36.04800 43.78200
H  -13.27600 34.63200 43.89900
H  -14.00600 35.11100 42.36000
H  -8.88900 35.24100 40.54200
H  -6.39800 33.00800 43.02300
H  -5.28000 33.78800 41.79400
H  -6.25200 32.45600 41.36800
Mg -4.75800 24.93400 26.06600
C  -3.18400 26.60800 28.66600
C  -6.24000 22.95000 28.21500
C  -5.56200 23.11800 23.39300
C  -2.98100 27.04100 23.85600
N  -4.73900 24.84700 28.25800
C  -3.97100 25.58100 29.09500
C  -4.36600 25.30300 30.56300
C  -5.07400 23.94200 30.39200
C  -5.42800 23.90600 28.88600
C  -4.19100 22.75000 30.78000
C  -5.14700 26.48500 31.16900
C  -6.13500 26.12600 32.30100
H  -5.68000 25.11800 33.37900
N  -5.69900 23.26300 25.85900
C  -6.20800 22.52700 26.88100
C  -6.87000 21.29800 26.40800
C  -6.70500 21.37700 24.98500
C  -5.96800 22.66600 24.69400
C  -7.65800 20.36600 27.30300
C  -7.11700 20.34100 23.88100
O  -6.91100 20.49200 22.70000
C  -7.77400 19.06500 24.27800
N  -4.52000 25.15000 23.88900
C  -4.93400 24.25900 22.94900
C  -4.76200 24.87300 21.49500
C  -3.90100 26.12000 21.78100
C  -3.78200 26.10500 23.26800
C  -4.29600 23.95100 20.34000
C  -4.47700 27.52900 21.25500
C  -3.44700 28.40100 20.51800
N  -3.32300 26.50400 26.15300
C  -2.68500 27.25900 25.22400
C  -1.76900 28.25300 25.89500
C  -1.90800 27.99100 27.19500
C  -2.86800 26.89900 27.31700
C  -0.95500 29.24300 25.13800
C  -1.49300 28.46500 28.52400
O  -0.72300 29.34800 28.87800
C  -2.32400 27.55000 29.46400
C  -1.42100 26.91200 30.43200
O  -0.30800 26.46500 30.13900
O  -1.89800 26.93000 31.77100
C  -1.13000 26.05800 32.64600
H  -6.94700 22.41500 28.85200
H  -5.76000 22.55300 22.47900
H  -2.52600 27.69500 23.10900
H  -3.46100 25.16600 31.15400
H  -6.00200 23.87000 30.95800
H  -4.32700 21.93100 30.07400
H  -4.46000 22.38800 31.77200
H  -3.12400 22.96100 30.70300
H  -5.68000 26.98600 30.36100
H  -4.43400 27.20100 31.57800
H  -7.06500 25.80400 31.83200
H  -6.35100 27.07100 32.79800
H  -8.68300 20.52600 26.96800
H  -7.68300 20.56900 28.37300
H  -7.30800 19.34700 27.14100
H  -8.69400 19.18300 24.85200
H  -6.96500 18.61300 24.85200
H  -8.09400 18.41600 23.46300
H  -5.73700 25.21800 21.14900
H  -2.93900 25.98000 21.28700
H  -4.28300 22.89200 20.59900
H  -3.27400 24.24500 20.10100
H  -4.90100 23.98400 19.43400
H  -4.75500 28.11400 22.13200
H  -5.27100 27.26700 20.55600
H  -2.63500 27.73600 20.22300
H  -3.15200 29.26300 21.11600
H  -3.92000 28.76900 19.60800
H  -0.92000 28.85600 24.12000
H  0.03800 29.44300 25.54200
H  -1.49200 30.18800 25.06800
H  -3.02700 28.20200 29.98300
H  -0.09800 26.40700 32.69100
H  -1.09300 25.09000 32.14700
H  -1.48400 25.98800 33.67500

