158

Mg 9.40800 48.71800 26.02400
C  7.28500 48.61500 28.73900
C  11.93500 49.68100 27.98900
C  11.27300 48.68800 23.22500
C  6.60000 47.57100 24.09500
N  9.58700 49.14100 28.14700
C  8.59100 49.03100 29.12700
C  9.08900 49.40300 30.54100
C  10.64500 49.76900 30.21800
C  10.79900 49.41700 28.71900
C  10.93000 51.23700 30.53900
C  8.97400 48.21600 31.55900
C  9.61100 48.41000 32.94100
H  8.65400 48.56300 34.14300
N  11.33300 49.22600 25.62000
C  12.23400 49.45300 26.59800
C  13.53700 49.49100 25.99400
C  13.42100 49.19800 24.57700
C  11.96600 49.06600 24.38900
C  14.78400 49.82300 26.79500
C  14.50000 49.09700 23.53700
O  14.16100 48.92400 22.36800
C  15.94200 49.02200 23.82800
N  8.93700 48.33800 24.02500
C  9.93000 48.36400 22.98200
C  9.39900 47.97400 21.60900
C  8.02000 47.34900 22.02300
C  7.86800 47.67300 23.49500
C  9.42900 49.06100 20.56800
C  8.10500 45.83000 21.79900
C  8.71700 44.90400 22.83200
N  7.32700 48.18400 26.26700
C  6.36400 47.81800 25.41000
C  5.04700 47.74300 26.11000
C  5.35400 48.06200 27.45300
C  6.72400 48.35900 27.48100
C  3.80600 47.15700 25.60500
C  4.83200 48.23800 28.85700
O  3.74800 48.00500 29.39000
C  6.08100 48.40800 29.68100
C  6.15800 47.19900 30.46700
O  6.95800 46.35400 30.24200
O  5.40100 47.24200 31.66000
C  5.85200 46.28600 32.68600
H  12.79700 49.87100 28.63200
H  11.94900 48.48400 22.39200
H  5.72500 47.17400 23.57500
H  8.52900 50.22300 30.99000
H  11.18300 49.01000 30.78600
H  11.71600 51.47300 29.82300
H  11.27900 51.30900 31.56900
H  10.06400 51.89200 30.44500
H  9.29600 47.25800 31.14900
H  7.89800 48.18000 31.72900
H  10.07100 49.39300 32.83500
H  10.33900 47.60900 33.06600
H  14.51000 50.33400 27.71800
H  15.51200 50.46300 26.29600
H  15.29000 48.87200 26.95900
H  16.16800 48.25800 24.57200
H  16.32000 50.01900 24.05300
H  16.35100 48.55100 22.93400
H  10.17400 47.30700 21.23300
H  7.24600 47.81800 21.41500
H  9.88500 49.95400 20.99500
H  8.42000 49.31900 20.24800
H  10.07300 48.85200 19.71400
H  8.68900 45.55900 20.91900
H  7.09800 45.53700 21.50100
H  7.90200 44.26800 23.17700
H  9.09800 45.36800 23.74100
H  9.34500 44.16600 22.33200
H  3.70700 46.11500 25.91100
H  3.81100 47.23600 24.51800
H  2.97300 47.72600 26.01700
H  5.93500 49.27700 30.32200
H  6.92100 46.47900 32.76900
H  5.55700 45.25900 32.47200
H  5.42600 46.62100 33.63200
Mg -11.65500 37.46300 41.77400
C  -9.24000 35.07900 40.71500
C  -9.69200 39.82000 40.20300
C  -14.15500 39.50300 42.10900
C  -13.58000 34.74100 42.83500
N  -9.64700 37.41400 40.49100
C  -8.92000 36.36900 40.25800
C  -7.64700 36.74400 39.50900
C  -7.59800 38.27300 39.56700
C  -8.99800 38.55200 40.19700
C  -6.37300 38.88600 40.35000
C  -7.39800 36.11700 38.10600
C  -5.96200 35.75800 37.62800
H  -5.25100 36.73700 36.67000
N  -11.90600 39.44300 41.28300
C  -10.99800 40.24200 40.66800
C  -11.58800 41.54200 40.51600
C  -12.86200 41.52500 41.13100
C  -13.01000 40.11500 41.56300
C  -10.95800 42.69100 39.87400
C  -13.73500 42.67800 41.41900
O  -13.42900 43.77300 40.88400
C  -14.95500 42.74100 42.29800
N  -13.63900 37.14500 42.30700
C  -14.43100 38.20200 42.53800
C  -15.82400 37.77200 42.92000
C  -15.71600 36.18500 43.08800
C  -14.19400 35.99700 42.66900
C  -16.39200 38.44000 44.16000
C  -16.65800 35.35200 42.11000
C  -18.06300 35.18800 42.72700
N  -11.43700 35.37400 41.88700
C  -12.31400 34.38000 42.42900
C  -11.67500 33.07600 42.38700
C  -10.46300 33.28700 41.68900
C  -10.38000 34.65000 41.37100
C  -12.13500 31.88200 42.98600
C  -9.21200 32.67000 41.22000
O  -8.82900 31.51700 41.33200
C  -8.33900 33.81300 40.71000
C  -7.01000 33.90600 41.49800
O  -5.97600 33.28800 41.21800
O  -7.04400 34.86600 42.51300
C  -5.75700 35.23400 43.16300
H  -9.13000 40.66700 39.80300
H  -15.02900 40.15300 42.19700
H  -14.22000 33.94100 43.21100
H  -6.86200 36.47900 40.21700
H  -7.48600 38.73300 38.58500
H  -5.56000 39.08400 39.65100
H  -6.02400 38.32500 41.21700
H  -6.76600 39.83600 40.71300
H  -7.74200 36.67900 37.23700
H  -7.90700 35.15600 38.03900
H  -5.92400 34.76300 37.18500
H  -5.30600 35.68300 38.49500
H  -9.98300 42.44500 39.45400
H  -10.80200 43.46300 40.62700
H  -11.60800 43.06000 39.08000
H  -14.89500 42.11400 43.18700
H  -15.78600 42.39400 41.68400
H  -15.20400 43.77400 42.54100
H  -16.51900 38.09800 42.14600
H  -15.85500 35.90500 44.13200
H  -16.86900 39.40000 43.96300
H  -15.50300 38.55100 44.78100
H  -17.15700 37.89400 44.71200
H  -16.35900 34.34200 41.82800
H  -16.69300 35.89400 41.16500
H  -18.12500 35.74800 43.66000
H  -18.27300 34.15000 42.98400
H  -18.79400 35.48500 41.97500
H  -12.25300 32.06100 44.05500
H  -11.58000 30.95400 42.84700
H  -13.10200 31.68300 42.52300
H  -8.00600 33.65900 39.68400
H  -5.00000 35.56300 42.45000
H  -5.44800 34.34500 43.71300
H  -5.89100 36.02600 43.89900

