158

Mg -1.88400 17.66600 27.56100
C  -2.70300 15.34100 30.01900
C  -2.54600 20.17700 29.88000
C  -1.78500 19.90400 25.01600
C  -1.61600 15.05000 25.30200
N  -2.38000 17.70500 29.80800
C  -2.78700 16.63700 30.59300
C  -3.04500 17.09900 32.03800
C  -3.13800 18.64300 31.86500
C  -2.55400 18.88600 30.42500
C  -4.54900 19.20200 32.09100
C  -1.86600 16.60300 32.97800
C  -1.50500 17.39100 34.27100
H  -1.15400 16.63600 35.49000
N  -2.13100 19.72500 27.48200
C  -2.47500 20.55800 28.50100
C  -2.51400 21.94400 27.96700
C  -2.21000 21.89000 26.57000
C  -2.02500 20.46800 26.31000
C  -2.81800 23.17500 28.92300
C  -2.01700 22.97900 25.57500
O  -1.82600 22.78300 24.39800
C  -2.17400 24.34800 26.06600
N  -1.69700 17.49100 25.51400
C  -1.73700 18.55600 24.63800
C  -1.60300 18.11700 23.14800
C  -1.30600 16.57400 23.29100
C  -1.60100 16.37500 24.74700
C  -2.87300 18.46100 22.17700
C  0.17100 16.21400 22.91200
C  1.31500 16.94500 23.61400
N  -2.08300 15.58300 27.55200
C  -1.93100 14.61000 26.61000
C  -2.28900 13.26000 27.14800
C  -2.56800 13.59100 28.51100
C  -2.40600 14.97600 28.72200
C  -2.26700 11.97100 26.37200
C  -3.03200 13.04300 29.75300
O  -3.38400 11.91800 30.03500
C  -2.98400 14.07400 30.78800
C  -1.84800 13.56100 31.67500
O  -0.65500 13.85500 31.63200
O  -2.42900 12.68900 32.60300
C  -1.51300 12.35500 33.75400
H  -2.81300 21.02600 30.51200
H  -1.93600 20.52800 24.13300
H  -1.51800 14.31600 24.49900
H  -3.94800 16.66000 32.46100
H  -2.50400 19.15200 32.59000
H  -5.29600 18.43700 32.30500
H  -4.78300 19.69000 31.14500
H  -4.41500 19.92800 32.89300
H  -1.01700 16.44400 32.31400
H  -2.26800 15.69400 33.42600
H  -2.35800 18.05000 34.43500
H  -0.64700 18.01200 34.01500
H  -1.97500 23.86400 28.97600
H  -3.22300 22.96500 29.91300
H  -3.73500 23.53400 28.45600
H  -1.54900 24.60700 26.92000
H  -3.20000 24.65900 26.26200
H  -1.86900 25.00800 25.25300
H  -0.73500 18.64800 22.75900
H  -1.85000 15.92900 22.60200
H  -2.54200 19.06700 21.33200
H  -3.58100 19.07600 22.73200
H  -3.34100 17.52100 21.88600
H  0.31500 16.22900 21.83100
H  0.41100 15.19200 23.20800
H  1.89400 17.51400 22.88700
H  1.97800 16.26000 24.14300
H  1.07700 17.65100 24.41000
H  -1.54600 12.05800 25.55900
H  -3.28300 11.81200 26.01100
H  -1.94300 11.25600 27.12900
H  -3.89300 13.98400 31.38400
H  -1.79500 11.45700 34.30300
H  -1.63000 13.19100 34.44300
H  -0.47800 12.29400 33.42000
Mg -5.84800 25.32900 26.44300
C  -4.80200 26.72500 29.66300
C  -7.68200 22.97500 28.27600
C  -6.52400 23.98500 23.57100
C  -3.52400 27.54600 25.10300
N  -6.18800 24.96200 28.66500
C  -5.72200 25.67200 29.80200
C  -6.29800 25.10000 31.04900
C  -6.92400 23.70500 30.54400
C  -6.93100 23.91400 29.07100
C  -6.09800 22.43500 30.99300
C  -7.03900 26.02100 31.96200
C  -6.91500 25.88800 33.54800
H  -6.19900 24.60100 34.05500
N  -6.88500 23.75400 26.00000
C  -7.70300 22.95000 26.87100
C  -8.46400 22.05600 26.07000
C  -8.22100 22.34600 24.74700
C  -7.17900 23.39800 24.68600
C  -9.30700 20.94700 26.71000
C  -8.79800 21.73200 23.49000
O  -8.43800 22.07300 22.38400
C  -9.87200 20.72900 23.59800
N  -5.10600 25.70400 24.66900
C  -5.60900 25.06600 23.58800
C  -5.00000 25.61600 22.24200
C  -4.04900 26.73700 22.83100
C  -4.16200 26.62300 24.31600
C  -4.21800 24.63400 21.34000
C  -4.17200 28.19300 22.20200
C  -3.24100 28.45600 20.99100
N  -4.49600 26.93200 27.18100
C  -3.65700 27.71200 26.46200
C  -2.92000 28.69200 27.32600
C  -3.39000 28.30900 28.58900
C  -4.29000 27.26400 28.49000
C  -2.04400 29.78600 26.88400
C  -3.31900 28.72200 29.99200
O  -2.83100 29.67200 30.55800
C  -4.24800 27.70000 30.70600
C  -3.48700 26.89000 31.64000
O  -2.81300 25.92700 31.35800
O  -3.58300 27.44600 32.93500
C  -2.75500 26.94400 33.95400
H  -8.24800 22.31700 28.93900
H  -6.75000 23.53300 22.60300
H  -2.77300 28.17500 24.62100
H  -5.34700 24.85400 31.52200
H  -7.90800 23.56000 30.98900
H  -5.19800 22.71900 31.53800
H  -5.67400 21.95000 30.11400
H  -6.83800 21.85700 31.54500
H  -8.11500 25.86300 31.88300
H  -6.87900 27.03800 31.60300
H  -7.93100 26.05000 33.90800
H  -6.40900 26.77400 33.93100
H  -10.34500 20.89900 26.37800
H  -9.44700 21.16000 27.76900
H  -8.80400 20.00000 26.51300
H  -9.36000 19.79900 23.84300
H  -10.34300 20.55800 22.63000
H  -10.65500 21.12300 24.24600
H  -5.73400 26.11500 21.60900
H  -3.06200 26.34300 22.59200
H  -3.78300 23.79100 21.87700
H  -3.41000 25.19100 20.86600
H  -4.84400 24.26500 20.52700
H  -3.97300 28.95100 22.96100
H  -5.22200 28.36400 21.96700
H  -2.41000 29.12200 21.22600
H  -3.65600 28.89800 20.08500
H  -2.81500 27.47600 20.77500
H  -1.08500 29.53800 26.42700
H  -1.87000 30.37200 27.78600
H  -2.56200 30.45400 26.19600
H  -5.08800 28.10100 31.27300
H  -3.33000 26.25300 34.57100
H  -2.45300 27.75300 34.61900
H  -1.89000 26.40900 33.56300

