158

Mg 3.04300 -0.99900 43.68100
C  6.45500 -0.18900 42.98000
C  2.16400 1.50300 41.55400
C  -0.18600 -2.16900 43.83800
C  4.19500 -3.72100 45.52000
N  4.19500 0.32700 42.23800
C  5.54300 0.50300 42.13500
C  5.84700 1.61400 41.14700
C  4.50300 2.32500 40.94100
C  3.53600 1.42400 41.71200
C  4.43000 3.84000 41.26800
C  6.58000 1.20500 39.78400
C  7.66300 2.15900 39.38100
H  7.46800 2.83500 38.04500
N  1.25100 -0.37300 42.93500
C  1.10900 0.72300 42.08400
C  -0.32900 1.02000 41.93700
C  -1.05400 0.01400 42.71000
C  -0.01100 -0.94000 43.18700
C  -0.90000 2.16600 41.12900
C  -2.64300 -0.06300 42.91900
O  -3.23300 0.83900 42.32400
C  -3.36900 -1.08800 43.86700
N  2.12600 -2.75600 44.42700
C  0.78100 -2.99900 44.47100
C  0.54400 -4.47900 44.85900
C  1.83400 -4.75800 45.66600
C  2.79300 -3.71000 45.16800
C  -0.88200 -4.75300 45.53900
C  2.43000 -6.23500 45.52600
C  1.73600 -7.32800 44.72200
N  4.85900 -1.75900 44.23600
C  5.20600 -2.87900 45.04200
C  6.67200 -2.90100 45.29700
C  7.07900 -1.78200 44.51100
C  6.00900 -1.21700 43.85000
C  7.46600 -3.86700 46.04600
C  8.30100 -1.09700 44.15600
O  9.47200 -1.38600 44.37500
C  7.97000 0.02400 43.23900
C  8.27600 1.25400 43.93500
O  7.61500 1.60600 44.90100
O  9.22900 1.95400 43.28800
C  9.56500 3.27100 43.81500
H  1.92600 2.36000 40.92100
H  -1.23300 -2.44900 43.97100
H  4.47400 -4.46200 46.27200
H  6.44500 2.28600 41.76300
H  4.07600 2.28500 39.93900
H  5.38000 4.37200 41.30300
H  3.90200 3.92200 42.21800
H  3.94100 4.42500 40.48900
H  5.89700 1.01600 38.95600
H  7.05000 0.22700 39.89600
H  8.55700 1.54300 39.28400
H  7.88400 2.96700 40.07800
H  -0.21200 2.73600 40.50500
H  -1.42800 2.81100 41.83100
H  -1.51100 1.74000 40.33300
H  -4.41800 -0.84600 44.03900
H  -2.91200 -1.07300 44.85700
H  -3.26400 -2.10100 43.47800
H  0.56100 -5.10300 43.96600
H  1.55200 -4.57200 46.70300
H  -0.80500 -5.18800 46.53500
H  -1.34900 -5.55300 44.96500
H  -1.49600 -3.85600 45.61600
H  2.49100 -6.66100 46.52700
H  3.38900 -6.22800 45.00900
H  1.97900 -8.29900 45.15300
H  2.05300 -7.41700 43.68300
H  0.67100 -7.15400 44.56500
H  6.84500 -4.61600 46.53700
H  8.13300 -3.36000 46.74300
H  8.00300 -4.36600 45.23900
H  8.53100 -0.01100 42.30500
H  9.16200 4.09400 43.22500
H  10.63900 3.30300 43.63300
H  9.36200 3.30900 44.88500
Mg 26.05800 50.40000 27.29600
C  24.03300 51.43300 29.91200
C  28.66600 49.79300 29.61700
C  28.09200 49.75600 24.83700
C  23.68900 51.72400 25.07900
N  26.23200 50.41900 29.46500
C  25.22500 50.89400 30.35600
C  25.63600 50.53000 31.81100
C  27.19100 50.23500 31.67900
C  27.39300 50.12700 30.17200
C  28.17700 51.25900 32.20200
C  24.83600 49.34400 32.35800
C  24.55100 49.14000 33.84600
H  25.17000 50.09500 34.91600
N  28.09000 49.70300 27.21800
C  28.97300 49.53300 28.26800
C  30.24500 49.13800 27.68900
C  30.09600 49.08200 26.30100
C  28.69600 49.47000 26.06400
C  31.46500 48.93900 28.58000
C  31.12500 48.86300 25.20200
O  30.79900 48.76800 24.02300
C  32.60900 48.74500 25.49700
N  25.97800 50.81000 25.19900
C  26.90000 50.36000 24.35000
C  26.34000 50.22600 22.92800
C  24.84700 50.64500 23.08300
C  24.82700 51.07000 24.56900
C  27.12200 51.05900 21.80600
C  23.74000 49.58100 22.79900
C  22.44400 50.14000 22.09700
N  24.34000 51.53000 27.38500
C  23.49000 52.04900 26.43700
C  22.32000 52.65400 27.08200
C  22.49700 52.37500 28.44000
C  23.72900 51.76300 28.56200
C  21.17000 53.26800 26.39500
C  21.86700 52.48400 29.71600
O  20.76900 52.90200 30.11800
C  22.89400 51.89300 30.73800
C  23.30200 52.91700 31.75300
O  24.23000 53.67500 31.62500
O  22.62900 52.74200 32.95100
C  23.04900 53.55400 34.10900
H  29.47000 49.80400 30.35600
H  28.67500 49.46000 23.96300
H  22.83500 51.71800 24.39800
H  25.41200 51.45700 32.33700
H  27.52000 49.32300 32.17700
H  28.88100 50.76800 32.87400
H  27.62600 52.04100 32.72500
H  28.68700 51.67200 31.33200
H  25.38100 48.46700 32.00800
H  23.93200 49.21700 31.76200
H  25.15500 48.25100 34.03000
H  23.52800 48.84300 34.07700
H  31.50600 49.82600 29.21200
H  32.42800 48.94300 28.07000
H  31.37400 47.95900 29.04800
H  33.15000 48.60100 24.56100
H  32.76400 47.98600 26.26400
H  32.96700 49.72300 25.81700
H  26.31400 49.16700 22.67100
H  24.65100 51.56800 22.53600
H  27.77100 51.65500 22.44900
H  26.51400 51.79600 21.28100
H  27.70700 50.41900 21.14600
H  23.45000 49.09300 23.73000
H  24.18700 48.89900 22.07600
H  22.40000 49.75100 21.08000
H  22.57400 51.21800 22.00000
H  21.54000 49.91000 22.66000
H  21.21200 52.92400 25.36100
H  21.33400 54.33900 26.51000
H  20.21100 53.08100 26.87800
H  22.47100 51.01200 31.22200
H  23.28700 54.59700 33.90100
H  23.95700 53.05100 34.44200
H  22.26300 53.46400 34.85900

