158

Mg 47.48300 16.80300 28.31300
C  45.25600 16.35700 31.06500
C  49.53600 18.52200 30.22700
C  49.25500 17.49500 25.54100
C  45.34200 14.85800 26.42200
N  47.27200 17.46300 30.39700
C  46.38100 17.08400 31.36500
C  46.91500 17.50800 32.77400
C  48.23400 18.27100 32.41100
C  48.41400 18.12200 30.94600
C  48.15000 19.81300 32.80500
C  47.03900 16.34100 33.85000
C  46.57300 16.53000 35.30500
H  46.23600 17.86900 35.86200
N  49.29300 17.77700 27.93900
C  49.97200 18.43700 28.86800
C  51.09700 19.06000 28.28600
C  51.09100 18.75100 26.87600
C  49.85300 17.99400 26.68900
C  52.09700 19.79900 29.14900
C  52.02600 19.07500 25.85900
O  51.93900 18.68000 24.71400
C  53.25400 19.89000 26.27500
N  47.27800 16.25200 26.28200
C  48.16000 16.60900 25.34900
C  47.68600 16.20900 23.99400
C  46.47800 15.28200 24.22500
C  46.39500 15.36000 25.74100
C  47.29000 17.42800 23.13100
C  46.66400 13.78000 23.70000
C  45.43700 12.99900 23.18700
N  45.67100 15.91900 28.55600
C  44.87400 15.21000 27.70100
C  43.60900 14.76100 28.30400
C  43.76200 15.25700 29.57600
C  44.95000 15.91300 29.70700
C  42.48000 13.92700 27.69900
C  43.07900 15.16800 30.84400
O  42.06900 14.58000 31.18100
C  44.09200 15.84700 31.89500
C  43.22700 16.80600 32.60700
O  42.78800 17.87100 32.19600
O  42.92300 16.32600 33.87200
C  42.04100 17.14100 34.76300
H  50.25100 18.96800 30.92200
H  49.70100 17.76500 24.58200
H  44.50600 14.31300 25.97700
H  46.17500 18.18200 33.20600
H  49.01000 17.71100 32.93300
H  48.65900 20.39800 32.03900
H  48.91400 19.94900 33.57000
H  47.17200 20.19400 33.09800
H  48.07800 16.05600 33.68400
H  46.41900 15.51700 33.49500
H  47.18400 16.07400 36.08400
H  45.68300 15.90200 35.30600
H  52.29000 19.26500 30.07900
H  51.78800 20.81800 29.38600
H  53.10400 19.66500 28.75400
H  53.57300 20.38300 25.35700
H  54.04400 19.29100 26.72700
H  52.90100 20.75400 26.83900
H  48.46500 15.63600 23.49200
H  45.54000 15.70800 23.86800
H  47.04100 18.29100 23.74700
H  46.43900 17.17800 22.49700
H  48.09700 17.54900 22.40800
H  47.04400 13.07900 24.44300
H  47.36000 13.78200 22.86100
H  45.66600 12.72300 22.15800
H  44.54100 13.61900 23.20700
H  45.24200 12.08600 23.75000
H  42.82400 13.40800 26.80500
H  41.61000 14.49600 27.37300
H  42.04700 13.26600 28.45000
H  44.54900 15.22600 32.66600
H  41.08400 16.69400 35.03300
H  41.88600 18.14000 34.35600
H  42.58300 17.24400 35.70200
Mg 47.68800 35.21400 28.16400
C  45.82000 33.37800 30.41200
C  47.70400 37.84100 30.47700
C  49.09300 37.22000 25.77000
C  47.72200 32.45700 25.97200
N  47.00000 35.52300 30.30600
C  46.25900 34.56200 31.00700
C  46.26800 34.88000 32.47100
C  46.48000 36.43100 32.36200
C  47.07100 36.69000 30.93300
C  45.12200 37.08200 32.52400
C  47.61900 34.29400 33.04500
C  48.09500 34.71700 34.41400
H  47.21000 35.44400 35.40000
N  48.38200 37.21100 28.14800
C  48.29900 38.09600 29.17200
C  48.86000 39.33400 28.71400
C  49.34100 39.19900 27.39100
C  48.92000 37.83800 27.06000
C  48.85600 40.60700 29.59600
C  50.21800 40.10000 26.52600
O  50.48200 39.87800 25.32300
C  50.77400 41.35200 27.12500
N  48.28000 34.85000 26.20200
C  48.85500 35.84100 25.40200
C  49.36300 35.28400 24.13800
C  48.94300 33.77200 24.23300
C  48.30900 33.63200 25.61100
C  48.68500 36.05100 22.95400
C  49.95900 32.78200 23.75600
C  50.02000 32.55100 22.19900
N  46.80800 33.36900 28.03000
C  46.88700 32.33700 27.11600
C  46.21200 31.15600 27.52300
C  45.65300 31.57700 28.77900
C  46.14400 32.90000 29.07900
C  45.98000 29.86800 26.76800
C  44.80000 31.21600 29.88600
O  44.18000 30.16800 30.08600
C  44.80600 32.38700 30.96500
C  44.99700 31.72900 32.27800
O  45.89000 30.94900 32.52200
O  44.07000 32.18900 33.16900
C  44.14500 31.63700 34.54000
H  47.87900 38.61900 31.22300
H  49.60300 37.80000 24.99800
H  48.07000 31.56500 25.44900
H  45.35500 34.57200 32.98100
H  47.16100 36.88100 33.08500
H  44.81000 37.64700 31.64600
H  44.99600 37.72800 33.39300
H  44.34200 36.32300 32.45600
H  48.33100 34.67300 32.31100
H  47.55000 33.20700 33.09700
H  48.97300 35.33700 34.22800
H  48.51900 33.84600 34.91400
H  49.74100 40.73100 30.22200
H  47.96600 40.71900 30.21400
H  48.78500 41.49400 28.96700
H  50.88300 41.30300 28.20900
H  50.15600 42.17000 26.75500
H  51.78100 41.50700 26.73900
H  50.44300 35.40000 24.05400
H  48.00600 33.65000 23.69000
H  48.03700 35.41400 22.35200
H  49.60600 36.25300 22.40700
H  48.09700 36.91700 23.25700
H  49.93200 31.79000 24.20900
H  50.96400 33.14500 23.97400
H  50.84200 33.10900 21.74900
H  49.11700 32.73300 21.61600
H  50.15000 31.47200 22.11900
H  46.96000 29.52100 26.44000
H  45.29300 30.14000 25.96600
H  45.50200 29.13700 27.42000
H  43.85900 32.92600 30.95200
H  44.01800 32.49500 35.20000
H  45.17100 31.31500 34.71600
H  43.37800 30.88300 34.71700

