158

Mg -1.93100 17.51100 27.32100
C  -2.10300 15.47900 30.18000
C  -2.39700 20.24500 29.34200
C  -2.00300 19.36200 24.52200
C  -2.09900 14.61600 25.42200
N  -2.21300 17.79800 29.49500
C  -2.14800 16.83800 30.41600
C  -2.27500 17.46000 31.82000
C  -2.78300 18.94300 31.52200
C  -2.38400 19.04200 30.00400
C  -4.28900 19.15800 31.82400
C  -0.93900 17.45200 32.63300
C  -1.12500 16.83900 34.07200
H  -0.07500 17.16700 35.19100
N  -1.94800 19.47900 26.98500
C  -2.12900 20.43100 27.96600
C  -2.20200 21.69400 27.34200
C  -2.02300 21.52600 25.96800
C  -2.02700 20.02400 25.73400
C  -2.21300 23.01300 28.08100
C  -1.83300 22.54000 24.88200
O  -1.67500 22.22400 23.70400
C  -1.72100 23.98500 25.18600
N  -1.93200 17.02700 25.23000
C  -1.95700 18.00800 24.29600
C  -1.86000 17.30200 22.85800
C  -1.64300 15.82900 23.12700
C  -1.93300 15.78700 24.68300
C  -2.94900 17.60100 21.85100
C  -0.25600 15.20400 22.80400
C  1.08100 15.92900 23.08600
N  -2.19600 15.44500 27.71900
C  -2.27000 14.42400 26.80800
C  -2.25000 13.16900 27.51900
C  -2.17900 13.52100 28.87000
C  -2.10000 14.93500 28.91200
C  -2.23100 11.79100 26.93500
C  -2.11000 13.04300 30.22600
O  -2.14000 11.90800 30.69400
C  -2.12500 14.31800 31.12200
C  -0.86900 14.16000 31.90700
O  0.22400 14.55400 31.46800
O  -1.00500 13.56000 33.13900
C  0.18900 13.35500 33.94000
H  -2.42200 21.05900 30.07000
H  -1.96600 19.91100 23.57900
H  -1.93600 13.74700 24.78100
H  -2.97600 16.83800 32.37600
H  -2.19100 19.68900 32.05300
H  -4.59400 18.44800 32.59300
H  -4.79000 19.13300 30.85700
H  -4.35100 20.16000 32.25000
H  -0.46400 18.41900 32.79900
H  -0.17300 16.93800 32.05200
H  -1.26400 15.75800 34.07200
H  -2.00900 17.26100 34.55000
H  -3.10100 23.54500 27.74100
H  -1.35700 23.60800 27.76200
H  -2.13000 23.01800 29.16700
H  -0.79600 24.10700 25.74900
H  -2.56500 24.30700 25.79600
H  -1.67000 24.46300 24.20700
H  -0.91400 17.67200 22.46300
H  -2.37400 15.21500 22.60100
H  -3.68800 18.27800 22.28000
H  -3.56200 16.71200 21.70100
H  -2.59600 18.07400 20.93400
H  -0.25500 14.92800 21.75000
H  -0.28500 14.25600 23.34100
H  1.77500 15.25200 23.58300
H  1.02200 16.86400 23.64400
H  1.63400 16.05600 22.15500
H  -1.45800 11.72100 26.16900
H  -3.20200 11.47500 26.55500
H  -1.84900 11.13700 27.71900
H  -2.93300 14.36900 31.85200
H  -0.20300 12.71500 34.73100
H  0.69100 14.26200 34.27700
H  0.88700 12.77700 33.33600
Mg 25.42300 1.28300 29.83500
C  27.56100 1.39900 32.66800
C  22.81600 1.36000 32.07700
C  23.30900 1.08900 27.28800
C  28.14900 1.01700 27.76800
N  25.18000 1.26900 32.16600
C  26.20100 1.46600 33.10800
C  25.71400 1.67500 34.53500
C  24.18700 1.54600 34.35000
C  24.01900 1.44400 32.75500
C  23.61300 0.36700 35.19400
C  26.14000 3.08600 35.03500
C  26.85800 3.22000 36.38100
H  26.27400 4.20400 37.36300
N  23.29300 1.13600 29.73200
C  22.42500 1.23300 30.74600
C  21.15900 1.23200 30.22700
C  21.19700 0.99600 28.86100
C  22.65400 1.02500 28.57000
C  19.94700 1.42100 30.98000
C  20.08500 0.85700 27.77100
O  20.39000 0.61200 26.59900
C  18.66800 0.98100 28.07800
N  25.62800 1.02000 27.81700
C  24.67300 1.12900 26.86700
C  25.17500 1.24400 25.42200
C  26.69700 1.29500 25.69500
C  26.83100 1.14000 27.20700
C  24.69900 0.28900 24.33600
C  27.30600 2.50000 25.01100
C  26.90700 3.85000 25.67400
N  27.44200 1.09000 30.12700
C  28.40600 0.92200 29.14300
C  29.67600 0.83300 29.78400
C  29.41000 1.02000 31.20200
C  28.05100 1.16800 31.34200
C  30.93400 0.61900 29.03500
C  30.03200 1.12200 32.45000
O  31.23600 1.21200 32.67200
C  28.85000 1.57600 33.49400
C  28.96200 0.51000 34.65100
O  28.74500 -0.69500 34.55700
O  29.32700 1.16500 35.79300
C  29.90800 0.45200 36.95800
H  21.95900 1.52100 32.73400
H  22.70000 1.21100 26.39000
H  29.03400 0.98500 27.12900
H  26.10100 0.90700 35.20500
H  23.57200 2.42800 34.53200
H  22.84200 -0.14500 34.61800
H  23.04900 0.81900 36.01000
H  24.34900 -0.31700 35.61700
H  25.25000 3.71400 34.99700
H  26.87700 3.46800 34.32700
H  27.79600 3.66100 36.04300
H  27.01600 2.23700 36.82500
H  19.47000 2.31600 30.58100
H  20.10100 1.57800 32.04800
H  19.30300 0.54200 30.99200
H  18.37500 0.20000 28.78000
H  18.13200 0.84500 27.13900
H  18.36400 1.93800 28.50300
H  24.94400 2.26800 25.12900
H  27.20800 0.46300 25.20900
H  24.12300 0.77500 23.54800
H  24.02300 -0.46600 24.73900
H  25.60500 -0.13700 23.90500
H  26.89900 2.50500 24.00000
H  28.39200 2.41800 25.07000
H  26.39900 3.58000 26.60000
H  26.13000 4.33800 25.08500
H  27.73800 4.54500 25.79800
H  31.07400 1.39100 28.27900
H  30.89900 -0.33100 28.50100
H  31.83200 0.64100 29.65100
H  29.16400 2.51300 33.95500
H  30.39700 -0.51900 36.88700
H  29.16100 0.41200 37.75100
H  30.69400 1.08400 37.37100

