158

Mg 46.58000 16.39100 28.34400
C  44.34100 16.18600 30.95100
C  48.71200 18.08700 30.46500
C  48.62900 16.78600 25.74300
C  44.34200 14.67400 26.21000
N  46.42300 17.26900 30.46500
C  45.46200 16.97700 31.33100
C  45.78500 17.42500 32.73100
C  47.23100 18.03000 32.55000
C  47.51000 17.79100 31.06700
C  47.38700 19.58400 32.95200
C  45.73000 16.29700 33.78900
C  46.25300 16.73900 35.15200
H  46.11200 18.18500 35.65200
N  48.42200 17.15600 28.09900
C  49.16900 17.76300 29.09600
C  50.54500 18.13900 28.57400
C  50.51600 17.84600 27.21400
C  49.13600 17.25400 26.95800
C  51.73300 18.49000 29.43600
C  51.54300 18.04400 26.17600
O  51.36000 17.60200 25.06500
C  52.89200 18.59300 26.42200
N  46.28200 16.04200 26.22300
C  47.37000 16.22400 25.45500
C  47.01400 15.92600 24.01200
C  45.76700 15.06300 24.13000
C  45.43800 15.23200 25.58300
C  46.78000 17.23900 23.25500
C  45.98000 13.59500 23.60200
C  46.45400 12.61200 24.66200
N  44.66500 15.75400 28.47800
C  43.89200 14.99700 27.53300
C  42.62700 14.57800 28.14400
C  42.78500 15.05100 29.50300
C  44.03300 15.69000 29.63400
C  41.35000 13.95600 27.49700
C  42.05800 15.18700 30.82300
O  40.89700 14.92600 31.12200
C  43.11900 15.76800 31.78900
C  42.51600 17.00700 32.40300
O  42.46400 18.14100 31.82100
O  42.21500 16.72300 33.69300
C  41.70100 17.85000 34.54300
H  49.48700 18.47800 31.12800
H  49.19500 16.91100 24.81700
H  43.61400 14.07800 25.65600
H  45.12800 18.20000 33.12700
H  47.98900 17.42200 33.04400
H  46.69700 19.95600 33.71000
H  47.34200 20.20500 32.05700
H  48.39200 19.70700 33.35600
H  46.32900 15.45500 33.44200
H  44.75500 15.82800 33.92500
H  47.31600 16.54600 35.29400
H  45.85800 16.01300 35.86300
H  52.54500 17.78400 29.26100
H  51.48600 18.65500 30.48500
H  52.09200 19.45400 29.07700
H  52.90600 19.56200 26.92000
H  53.42000 18.59700 25.46900
H  53.39300 17.89600 27.09300
H  47.88200 15.41300 23.59900
H  44.98700 15.51200 23.51500
H  47.71400 17.79900 23.22200
H  45.97800 17.79500 23.74200
H  46.57100 16.92200 22.23300
H  46.62700 13.56300 22.72600
H  45.06100 13.17700 23.19100
H  47.50800 12.35200 24.56600
H  45.95200 11.66500 24.46700
H  46.18900 12.94900 25.66400
H  41.24100 14.14100 26.42900
H  40.52800 14.33700 28.10400
H  41.43700 12.87000 27.53800
H  43.23700 14.99000 32.54400
H  40.66700 18.07800 34.28300
H  42.22200 18.80600 34.59400
H  41.97600 17.51700 35.54400
Mg 27.12200 50.06900 26.83100
C  24.86900 51.15100 29.32900
C  29.29600 49.12000 29.13500
C  29.15000 49.55700 24.29300
C  24.68100 51.44200 24.52200
N  27.17400 50.19400 28.99700
C  26.07900 50.54400 29.79500
C  26.38900 50.20900 31.34200
C  27.88000 49.82000 31.24500
C  28.13900 49.59800 29.70800
C  28.82400 50.95400 31.77700
C  25.40200 49.05100 31.89700
C  24.68500 49.34300 33.27200
H  25.40200 50.36800 34.25300
N  29.01400 49.47200 26.67600
C  29.75200 49.08300 27.75900
C  31.03900 48.60200 27.23900
C  31.01800 48.82300 25.88600
C  29.71400 49.30300 25.56100
C  32.23300 48.20600 28.15500
C  32.18200 48.57100 24.78200
O  32.03100 48.82900 23.59600
C  33.48600 48.10500 25.23600
N  26.90200 50.49100 24.69700
C  27.90700 50.05200 23.90600
C  27.49300 50.19700 22.44700
C  26.15200 50.95400 22.53100
C  25.87000 50.87900 24.01600
C  28.45200 50.82800 21.45500
C  24.93600 50.48900 21.57600
C  24.92200 51.19600 20.20100
N  25.24800 51.24100 26.85500
C  24.40600 51.64200 25.84300
C  23.28800 52.30800 26.37700
C  23.38800 52.07800 27.77900
C  24.62800 51.42000 27.94600
C  22.11500 52.91500 25.61000
C  22.73900 52.30600 29.16000
O  21.75300 52.85000 29.45400
C  23.63700 51.52400 30.14000
C  23.92300 52.51800 31.26400
O  24.88100 53.24300 31.36300
O  22.86500 52.53500 32.19300
C  22.96500 53.56700 33.22300
H  30.09200 48.79000 29.80600
H  29.77500 49.34900 23.42200
H  24.12000 52.11900 23.87500
H  26.30500 51.11900 31.93700
H  28.10300 48.93000 31.83400
H  29.56800 51.30100 31.06000
H  29.32900 50.55500 32.65700
H  28.24400 51.80100 32.14200
H  25.98300 48.13000 31.94600
H  24.56300 48.95700 31.20700
H  24.54700 48.45200 33.88600
H  23.73700 49.73500 32.90500
H  32.24200 48.40600 29.22600
H  33.06300 48.86200 27.89400
H  32.51500 47.16600 27.98800
H  34.05700 47.78400 24.36500
H  33.53200 47.22600 25.88000
H  33.97000 48.93800 25.74700
H  27.29900 49.18800 22.08300
H  26.29700 52.00600 22.28600
H  29.50000 50.83000 21.75500
H  28.12800 51.84600 21.23600
H  28.52000 50.29200 20.50800
H  23.97600 50.76900 22.00800
H  24.92700 49.41100 21.41600
H  25.71900 51.92700 20.07100
H  23.92300 51.59700 20.03000
H  25.04300 50.51900 19.35600
H  21.55900 52.34400 24.86700
H  22.52000 53.73900 25.02300
H  21.31600 53.11600 26.32300
H  23.10700 50.63700 30.48900
H  21.99200 53.62100 33.71100
H  23.13600 54.58400 32.87100
H  23.65600 53.35200 34.03800

