158

Mg 25.38300 2.44400 29.58400
C  27.44600 2.26200 32.24000
C  22.68800 2.92400 31.81300
C  23.15000 2.07700 27.04000
C  27.86100 1.04400 27.53200
N  25.09300 2.48600 31.75900
C  26.10500 2.60800 32.56100
C  25.69100 3.01300 34.00800
C  24.13000 3.07300 33.88400
C  23.94700 2.78300 32.39300
C  23.51900 1.98100 34.72500
C  26.39400 4.32800 34.50700
C  27.28500 4.19500 35.80700
H  26.91300 5.11900 36.91800
N  23.21100 2.61600 29.44600
C  22.25600 2.78400 30.47900
C  20.96900 2.97800 29.89600
C  21.04500 2.66500 28.54600
C  22.48300 2.40500 28.23500
C  19.78500 3.36700 30.76200
C  19.94400 2.60000 27.41200
O  20.10200 2.30100 26.24900
C  18.62200 3.00200 27.87200
N  25.48700 1.60400 27.53300
C  24.46200 1.82500 26.66500
C  24.90200 1.52500 25.17700
C  26.40400 1.18400 25.39000
C  26.60300 1.27400 26.90600
C  24.04000 0.45400 24.47900
C  27.46600 1.86400 24.54800
C  27.85000 3.27500 25.11100
N  27.32600 1.75800 29.79000
C  28.19500 1.26700 28.87000
C  29.49500 1.09700 29.53700
C  29.23600 1.50500 30.88700
C  27.89800 1.83700 30.97900
C  30.70700 0.44600 29.00700
C  29.78400 1.69000 32.25100
O  30.93400 1.41100 32.67700
C  28.63600 2.09700 33.16100
C  28.50300 1.06800 34.27100
O  27.79800 0.06700 34.26000
O  29.35400 1.37600 35.33800
C  29.25900 0.43700 36.43600
H  21.89400 3.10100 32.54200
H  22.44700 1.98800 26.20900
H  28.61900 0.72500 26.81300
H  25.84100 2.28300 34.80300
H  23.64100 4.01200 34.14700
H  24.07500 1.29000 35.35800
H  22.87400 1.33900 34.12600
H  22.86700 2.60000 35.34100
H  25.67300 5.12400 34.69000
H  27.20500 4.57800 33.82300
H  28.29200 4.34100 35.41600
H  27.16200 3.19100 36.21100
H  19.11400 4.07200 30.27100
H  20.07900 3.69100 31.76000
H  19.17500 2.46600 30.83300
H  17.78700 2.90700 27.17700
H  18.62400 4.01800 28.26700
H  18.46600 2.38100 28.75400
H  24.74400 2.47600 24.66900
H  26.46200 0.13200 25.11100
H  23.41300 0.89000 23.70100
H  23.30500 -0.01900 25.13000
H  24.63100 -0.30400 23.96400
H  27.08500 2.08800 23.55100
H  28.38600 1.28100 24.52600
H  27.52100 3.63100 26.08700
H  27.46200 4.00100 24.39700
H  28.94000 3.25300 25.08000
H  30.75600 -0.48000 29.58000
H  31.56300 1.01900 29.36400
H  30.68600 0.30600 27.92600
H  28.93000 2.98800 33.71600
H  30.28400 0.34700 36.79600
H  29.05700 -0.62200 36.28000
H  28.65600 0.75000 37.28800
Mg 49.25400 34.74000 26.54000
C  46.91000 33.84700 29.15800
C  50.10200 37.57900 28.50100
C  50.63500 36.02400 23.90100
C  47.68700 32.19000 24.65600
N  48.61900 35.60000 28.55600
C  47.80000 34.92700 29.43700
C  47.74300 35.67800 30.76700
C  48.39400 37.07700 30.40600
C  49.13400 36.71300 29.10600
C  47.43100 38.24100 30.22800
C  48.34600 35.07600 32.03900
C  47.59000 35.16900 33.37400
H  47.95300 36.24800 34.37400
N  50.35900 36.52200 26.29700
C  50.69300 37.51000 27.17400
C  51.49900 38.54000 26.53400
C  51.57800 38.16900 25.13800
C  50.83300 36.86100 25.06800
C  52.01800 39.73100 27.23000
C  52.33700 38.92500 23.96400
O  52.37300 38.43400 22.83500
C  52.87700 40.29100 24.04900
N  49.11300 34.21800 24.55200
C  49.93100 34.84600 23.72700
C  50.06900 33.99500 22.43400
C  49.22200 32.73900 22.73600
C  48.53900 33.09100 24.01800
C  49.61500 34.76200 21.10500
C  49.98600 31.38600 22.85300
C  50.03400 30.59800 21.51000
N  47.80900 33.09300 26.93400
C  47.24900 32.22200 25.95800
C  46.27100 31.34800 26.57200
C  46.10700 31.97900 27.85700
C  47.06500 33.03300 28.01200
C  45.60000 30.12100 25.96300
C  45.33900 31.94200 29.10600
O  44.47700 31.18000 29.48200
C  45.77800 33.17200 30.02400
C  46.11800 32.62100 31.32400
O  46.91300 31.70800 31.54300
O  45.32300 33.11500 32.24800
C  45.09800 32.40400 33.51800
H  50.38000 38.48500 29.04200
H  51.33200 36.29800 23.10500
H  47.39500 31.32300 24.05900
H  46.70900 35.91000 31.02000
H  49.10900 37.39100 31.16700
H  47.30400 38.48400 29.17300
H  47.84900 39.12600 30.70700
H  46.52300 37.98800 30.77500
H  49.33900 35.50100 32.18800
H  48.49600 33.99800 31.97300
H  47.70400 34.22400 33.90600
H  46.51800 35.31400 33.24800
H  51.95800 40.64900 26.64500
H  53.00400 39.57700 27.66900
H  51.42700 39.95000 28.11900
H  53.68600 40.39800 24.77200
H  52.06600 40.99700 24.22900
H  53.22400 40.58800 23.06000
H  51.12300 33.73000 22.34600
H  48.45000 32.55000 21.98900
H  49.07100 34.08200 20.45000
H  50.55200 35.07900 20.64600
H  49.12500 35.71800 21.29100
H  49.48300 30.73400 23.56700
H  51.01500 31.63400 23.11300
H  49.46300 29.68200 21.65900
H  51.06400 30.40700 21.21200
H  49.46600 31.14700 20.75900
H  46.21300 29.22100 26.00200
H  45.35300 30.07500 24.90200
H  44.72800 29.79400 26.53100
H  44.96100 33.88100 30.15900
H  44.10300 31.97800 33.64900
H  45.18900 33.19900 34.25900
H  45.84300 31.68100 33.85400

