158

Mg -2.01700 17.26400 27.44500
C  -2.62300 14.90700 30.10500
C  -2.35100 19.75900 29.86100
C  -1.67300 19.44400 24.99300
C  -1.92400 14.60300 25.23900
N  -2.33200 17.26100 29.80600
C  -2.49100 16.21700 30.62800
C  -2.62700 16.73800 32.01300
C  -2.94600 18.31100 31.84400
C  -2.56100 18.48900 30.39100
C  -4.35500 18.82400 32.28700
C  -1.46500 16.28900 32.97300
C  -1.01200 17.17800 34.11700
H  -0.49600 16.57300 35.40400
N  -1.91500 19.31700 27.43500
C  -2.08000 20.12300 28.54400
C  -2.01300 21.48800 28.05800
C  -1.75700 21.48700 26.64700
C  -1.76300 20.07300 26.30600
C  -2.27400 22.66500 28.97200
C  -1.64700 22.58200 25.68200
O  -1.38500 22.43100 24.52900
C  -1.95900 23.95300 26.18000
N  -1.78000 17.04900 25.34800
C  -1.71700 18.11800 24.57000
C  -1.82900 17.70900 23.11700
C  -1.64100 16.20200 23.19800
C  -1.79800 15.92100 24.65000
C  -3.08100 18.27300 22.41400
C  -0.27000 15.64400 22.72900
C  0.98300 16.34000 23.34400
N  -2.26300 15.20300 27.56700
C  -2.22400 14.24900 26.57000
C  -2.42100 12.95700 27.11400
C  -2.51000 13.15300 28.53100
C  -2.46100 14.53000 28.75600
C  -2.46600 11.68900 26.34900
C  -2.76400 12.53500 29.77200
O  -3.08600 11.35600 29.95200
C  -2.77900 13.62300 30.82600
C  -1.60300 13.26800 31.71900
O  -0.42600 13.54200 31.50400
O  -1.98900 12.68300 32.89500
C  -0.98000 12.40300 33.92600
H  -2.60200 20.43900 30.67800
H  -1.63400 20.11500 24.13200
H  -1.92600 13.72000 24.59600
H  -3.51400 16.30200 32.47300
H  -2.15700 18.82000 32.39600
H  -4.39600 19.79300 32.78300
H  -4.85800 18.09600 32.92400
H  -5.01300 19.01400 31.43800
H  -0.58500 15.90400 32.45700
H  -1.85700 15.44700 33.54400
H  -1.90700 17.63500 34.53900
H  -0.59900 18.15800 33.87700
H  -1.44300 23.36900 28.93500
H  -2.33900 22.40000 30.02800
H  -3.20100 23.22000 28.82100
H  -2.96700 24.10500 26.56400
H  -1.73500 24.59100 25.32500
H  -1.25100 24.25900 26.95000
H  -0.93700 17.93700 22.53300
H  -2.44300 15.79900 22.57900
H  -3.85700 17.53500 22.20800
H  -2.80700 18.68900 21.44400
H  -3.61600 19.03200 22.98400
H  -0.19900 15.68500 21.64200
H  -0.47000 14.60100 22.97200
H  1.55500 16.87800 22.58800
H  1.67700 15.73500 23.92800
H  0.73000 17.17600 23.99600
H  -1.87800 11.66700 25.43100
H  -3.51900 11.44600 26.21000
H  -2.09200 10.92100 27.02600
H  -3.66700 13.54600 31.45300
H  -1.02200 13.18200 34.68700
H  -0.04900 12.19200 33.40000
H  -1.31500 11.45800 34.35500
Mg 41.97200 41.06500 27.78600
C  41.50200 43.61400 30.00200
C  43.40800 39.13300 30.21500
C  42.31600 38.66100 25.42200
C  41.33200 43.37400 25.14800
N  42.29000 41.27400 29.85500
C  41.88400 42.39100 30.60200
C  41.97900 42.08400 32.09400
C  42.77700 40.70400 32.17100
C  42.81600 40.31200 30.63700
C  44.16800 40.78900 32.75200
C  40.59800 41.90700 32.79300
C  40.27700 42.79100 33.99000
H  39.68500 42.16700 35.31200
N  42.64400 39.11900 27.82900
C  43.25100 38.52600 28.89200
C  43.57000 37.16900 28.55000
C  43.16200 36.97900 27.18800
C  42.67900 38.26600 26.72600
C  44.33800 36.14900 29.38600
C  43.17900 35.66200 26.29800
O  42.75500 35.70500 25.13300
C  43.76900 34.36400 26.76800
N  41.80700 41.00000 25.59400
C  41.92300 39.90100 24.88300
C  41.52600 40.01800 23.38100
C  41.17000 41.56400 23.39400
C  41.49900 42.07400 24.78800
C  42.75800 39.62700 22.50800
C  39.63600 41.92200 22.89100
C  38.58300 41.76800 24.01100
N  41.49900 43.06900 27.55800
C  41.28400 43.86300 26.46400
C  40.96600 45.23800 26.85000
C  41.02500 45.10700 28.28400
C  41.37600 43.81500 28.63300
C  40.66800 46.36600 25.96900
C  40.84000 45.86700 29.46200
O  40.57600 47.05000 29.60900
C  40.87500 44.81000 30.62500
C  41.86200 45.35600 31.59200
O  43.04300 45.21500 31.36900
O  41.32400 45.97300 32.67200
C  42.29800 46.49800 33.65900
H  43.78800 38.42400 30.95300
H  42.47800 37.84600 24.71400
H  41.06200 44.08700 24.36700
H  42.48700 42.87400 32.64700
H  42.28400 39.95900 32.79500
H  44.57600 41.71400 32.34500
H  44.92900 40.06700 32.45600
H  44.07400 40.78600 33.83800
H  40.42000 40.89300 33.15000
H  39.85200 42.12800 32.03000
H  39.62600 43.61700 33.70700
H  41.16700 43.35200 34.27500
H  44.71700 36.60500 30.30000
H  45.13100 35.79300 28.72900
H  43.68300 35.31500 29.64200
H  43.31200 34.02200 27.69700
H  44.75300 34.38800 27.23800
H  43.59100 33.53400 26.08400
H  40.60400 39.46600 23.19900
H  41.88700 42.05200 22.73400
H  43.60600 39.36000 23.13800
H  43.10800 40.52100 21.99000
H  42.41700 38.80400 21.88000
H  39.30200 41.26500 22.08700
H  39.66200 42.94600 22.51700
H  39.00700 41.94300 25.00000
H  38.39900 40.69500 24.06600
H  37.64700 42.30500 23.85500
H  39.65500 46.73100 26.13800
H  40.74400 46.08100 24.91900
H  41.41300 47.13200 26.18200
H  39.83300 44.80000 30.94400
H  41.68100 47.32100 34.02100
H  43.24000 46.80700 33.20700
H  42.47700 45.72700 34.40900

