158

Mg 24.54700 -4.37400 46.36900
C  26.56200 -2.14900 44.52400
C  21.86500 -3.59700 44.20800
C  23.10600 -7.43400 46.94800
C  27.51400 -5.54200 47.95700
N  24.21000 -2.90800 44.69800
C  25.16900 -2.10400 44.17900
C  24.62300 -1.15300 43.02400
C  23.08600 -1.36800 43.25500
C  23.00700 -2.68500 44.13900
C  22.32600 -0.25300 43.88500
C  25.12500 -1.70600 41.66800
C  25.88700 -0.65900 40.71200
H  25.40300 -0.80500 39.26500
N  22.75100 -5.24200 45.92000
C  21.80000 -4.72300 45.00200
C  20.67500 -5.71100 44.86300
C  20.95000 -6.75200 45.86300
C  22.33000 -6.49700 46.26700
C  19.54500 -5.53700 43.90500
C  19.96700 -7.84100 46.26500
O  18.81000 -7.87600 45.76200
C  20.24200 -8.93700 47.31600
N  25.29400 -6.22300 47.19000
C  24.44200 -7.28100 47.35000
C  25.14700 -8.37700 48.12500
C  26.39900 -7.66700 48.62500
C  26.45900 -6.40900 47.84200
C  24.25400 -8.94300 49.28600
C  27.74800 -8.47300 48.61400
C  28.50800 -8.39700 49.95300
N  26.56400 -3.79100 46.48200
C  27.69400 -4.35800 47.19600
C  28.81100 -3.52800 46.91600
C  28.46500 -2.74900 45.80100
C  27.08400 -2.96300 45.59900
C  30.15200 -3.61500 47.60900
C  29.00400 -1.75500 44.90900
O  30.07400 -1.17700 44.75200
C  27.78400 -1.43300 43.95000
C  27.74800 0.05800 43.91700
O  27.33400 0.79800 44.84900
O  28.24000 0.48300 42.73300
C  28.75000 1.86600 42.70600
H  21.08100 -3.48600 43.45500
H  22.71900 -8.43700 47.13900
H  28.44500 -5.90000 48.40000
H  24.99600 -0.13300 43.11700
H  22.60500 -1.57200 42.29800
H  21.56400 -0.72800 44.50300
H  21.83600 0.23600 43.04300
H  23.00500 0.34500 44.49200
H  24.28700 -2.06300 41.07000
H  25.76200 -2.56300 41.88800
H  26.93000 -0.93000 40.87500
H  25.85800 0.38700 41.01900
H  19.09700 -6.52100 43.76600
H  19.80000 -5.09800 42.94000
H  18.88600 -4.76800 44.30700
H  19.29100 -9.33700 47.66700
H  20.74200 -8.36800 48.10000
H  20.83700 -9.66200 46.76100
H  25.23800 -9.12200 47.33400
H  26.24800 -7.29000 49.63700
H  23.40700 -8.32000 49.57100
H  24.82000 -9.24700 50.16700
H  23.71900 -9.85900 49.03300
H  28.39300 -8.25300 47.76300
H  27.48600 -9.50300 48.37400
H  29.51100 -7.97600 49.88600
H  28.56000 -9.42300 50.31800
H  28.00900 -7.85200 50.75400
H  30.13700 -4.19000 48.53500
H  30.48700 -2.59700 47.80600
H  30.75000 -4.24900 46.95500
H  27.85200 -1.71200 42.89900
H  28.10600 2.59200 43.20200
H  28.66800 2.21300 41.67600
H  29.79300 1.95300 43.00900
Mg 16.94900 51.60300 26.50200
C  18.73400 50.44200 29.27400
C  14.50200 52.78700 28.58900
C  15.48300 52.73800 23.73200
C  19.69600 50.45000 24.45400
N  16.65000 51.53400 28.67100
C  17.50900 51.01200 29.61000
C  17.02300 51.35600 31.01800
C  15.52400 51.74400 30.79800
C  15.46200 51.99800 29.24700
C  14.45700 50.68200 31.37800
C  17.88200 52.48300 31.65000
C  18.16900 52.23900 33.13100
H  17.16400 51.39600 33.99800
N  15.23800 52.59600 26.21600
C  14.39800 53.05800 27.17700
C  13.40900 53.87900 26.42600
C  13.55400 53.64600 25.04700
C  14.81300 52.95700 24.92900
C  12.36000 54.65000 27.13500
C  12.64300 54.12300 23.88400
O  12.94700 53.94300 22.66200
C  11.32900 54.73100 24.01300
N  17.60400 51.72500 24.40600
C  16.77200 52.21400 23.49700
C  17.46600 52.14100 22.05200
C  18.93800 51.70000 22.35300
C  18.68100 51.19600 23.78900
C  16.74900 51.16300 21.06800
C  19.99900 52.88100 22.41000
C  21.23100 52.77700 21.49100
N  18.77700 50.57400 26.72900
C  19.78400 50.22500 25.82000
C  20.85300 49.58200 26.55900
C  20.52300 49.70500 27.88700
C  19.26000 50.25800 27.97000
C  22.19900 48.99500 25.99700
C  20.92200 49.41000 29.21000
O  21.96300 48.88100 29.62000
C  19.80800 49.93700 30.19500
C  19.33400 48.74300 31.00300
O  18.85400 47.70200 30.52500
O  19.60700 48.95700 32.33700
C  19.32300 47.82100 33.12400
H  13.73000 53.24800 29.20900
H  15.09300 52.99200 22.74400
H  20.55800 50.11200 23.87600
H  17.16700 50.48400 31.65600
H  15.25500 52.68600 31.27700
H  14.90700 49.77600 31.78200
H  13.70200 50.37100 30.65600
H  13.86100 51.11200 32.18200
H  17.44100 53.47700 31.56700
H  18.87600 52.55500 31.20900
H  18.27200 53.24200 33.54500
H  19.14900 51.81200 33.33900
H  12.27900 55.62200 26.64800
H  12.50500 54.90900 28.18400
H  11.39100 54.14900 27.13300
H  10.65400 54.11100 23.42300
H  11.35900 55.73900 23.60100
H  10.79800 54.63000 24.95900
H  17.35300 53.12400 21.59300
H  19.20900 50.81300 21.78000
H  15.83500 50.78200 21.52200
H  17.36900 50.31100 20.78900
H  16.41500 51.76100 20.22100
H  20.46800 52.80500 23.39100
H  19.45000 53.82200 22.37500
H  21.39100 53.69700 20.92900
H  21.15200 51.91100 20.83400
H  22.08000 52.69300 22.17000
H  21.90200 47.97400 25.75600
H  22.83200 48.97800 26.88400
H  22.57800 49.66100 25.22200
H  20.26300 50.64600 30.88600
H  19.89400 47.80900 34.05300
H  19.45400 46.84700 32.65400
H  18.30300 47.84500 33.50800

