158

Mg 24.37000 -4.95900 45.86400
C  26.58700 -2.50800 44.51400
C  22.00600 -3.74300 43.67500
C  22.62500 -7.81200 46.33800
C  27.24500 -6.44200 47.41900
N  24.34200 -3.31100 44.23400
C  25.34500 -2.46800 43.85500
C  24.93200 -1.60800 42.61200
C  23.37000 -1.76600 42.69200
C  23.20600 -2.99200 43.58800
C  22.56000 -0.57400 43.32500
C  25.46000 -2.18700 41.27500
C  26.17700 -1.18400 40.38600
H  25.66000 -1.05500 38.95200
N  22.51200 -5.62600 45.27600
C  21.63800 -4.92300 44.41600
C  20.36700 -5.64700 44.48300
C  20.59800 -6.82400 45.11100
C  21.99800 -6.85400 45.57300
C  19.13900 -5.12000 43.84800
C  19.43400 -7.88300 45.35700
O  18.26000 -7.65300 45.14600
C  19.73900 -9.29800 45.87200
N  24.92400 -6.84200 46.70700
C  23.91000 -7.80000 46.86700
C  24.53100 -9.05900 47.55400
C  25.90200 -8.46100 48.06000
C  26.08700 -7.19500 47.34900
C  23.71900 -9.78200 48.66000
C  27.15300 -9.41700 47.76100
C  28.28300 -9.63400 48.75700
N  26.53700 -4.53600 46.04800
C  27.52300 -5.21200 46.69500
C  28.74600 -4.45100 46.64800
C  28.43400 -3.38600 45.75900
C  27.08100 -3.50200 45.40100
C  29.99900 -4.78300 47.31000
C  28.92100 -2.26700 45.08300
O  30.05400 -1.81600 45.05300
C  27.83400 -1.63700 44.31500
C  27.57700 -0.17200 44.61200
O  26.98900 0.24900 45.57100
O  28.26000 0.63200 43.67500
C  28.13400 2.09600 43.74100
H  21.20400 -3.38200 43.02900
H  22.21800 -8.82200 46.41800
H  28.08000 -6.80500 48.02300
H  25.29000 -0.60200 42.83300
H  22.86300 -2.04800 41.77000
H  23.26600 0.17300 43.69000
H  22.05500 -0.88600 44.23900
H  21.80400 -0.23700 42.61600
H  24.65900 -2.67800 40.72200
H  26.06400 -3.04500 41.57100
H  27.25500 -1.34100 40.40200
H  26.03900 -0.16500 40.74800
H  18.52400 -5.93100 43.45800
H  19.37700 -4.43400 43.03500
H  18.59200 -4.55600 44.60300
H  20.01000 -9.25900 46.92700
H  20.67700 -9.65300 45.44600
H  18.99400 -10.07900 45.72400
H  24.76100 -9.66000 46.67500
H  25.87500 -8.34300 49.14300
H  22.82300 -10.30900 48.33300
H  23.31000 -9.03300 49.33900
H  24.30000 -10.42600 49.32000
H  27.65100 -9.20300 46.81600
H  26.65000 -10.37400 47.62200
H  29.21000 -9.46200 48.20900
H  28.13800 -10.59700 49.24600
H  28.18600 -8.81100 49.46500
H  30.27300 -5.80200 47.03400
H  29.80800 -4.68100 48.37900
H  30.82200 -4.12400 47.03200
H  28.00800 -1.66200 43.23900
H  28.17600 2.33900 42.67900
H  28.82700 2.62400 44.39600
H  27.17100 2.34000 44.19200
Mg 30.12800 57.67200 40.62100
C  27.42700 55.81900 39.31300
C  32.24900 55.69600 38.90700
C  32.64700 59.99900 40.89600
C  27.77600 60.24500 41.49800
N  29.82300 56.00300 39.25200
C  28.66600 55.33500 38.92500
C  28.84800 54.09200 37.96200
C  30.38200 53.85500 38.37300
C  30.91100 55.24100 38.86000
C  30.63900 52.64100 39.36300
C  28.51800 54.47400 36.46000
C  27.70400 53.36600 35.76000
H  26.52600 53.85000 34.84700
N  32.15300 57.74100 40.16600
C  32.83600 56.80600 39.43600
C  34.26300 57.15900 39.34300
C  34.44700 58.36900 40.07800
C  33.06500 58.77000 40.37100
C  35.40200 56.20100 38.66500
C  35.75600 59.02600 40.47800
O  36.82800 58.57600 40.12300
C  35.82100 60.16800 41.55500
N  30.19600 59.94800 40.86500
C  31.37900 60.61000 41.13000
C  31.20300 61.97000 41.88500
C  29.61000 62.08100 41.71500
C  29.08800 60.69800 41.35100
C  31.74400 62.08500 43.34000
C  29.22000 63.12800 40.63500
C  28.91100 64.54900 41.27000
N  28.07100 57.94200 40.65500
C  27.22900 59.05000 41.07900
C  25.86800 58.54300 41.07100
C  25.88600 57.30400 40.37000
C  27.23400 57.00300 40.07700
C  24.64400 59.30200 41.50300
C  25.02700 56.31800 39.73100
O  23.82300 56.17100 39.66900
C  26.08000 55.20700 39.09200
C  25.79700 53.82900 39.62200
O  26.30200 53.37000 40.63800
O  24.90100 53.15300 38.77200
C  24.56900 51.73600 39.19000
H  32.99400 55.03900 38.45300
H  33.47500 60.66900 41.13400
H  26.99600 60.94100 41.81300
H  28.28400 53.23300 38.32400
H  31.01300 53.70200 37.49800
H  30.98800 53.05800 40.30700
H  31.38700 52.05700 38.82700
H  29.72300 52.07200 39.52200
H  29.48700 54.49500 35.96000
H  28.11400 55.48600 36.43500
H  27.27600 52.69500 36.50500
H  28.26300 52.85200 34.97800
H  36.04300 55.63300 39.33900
H  36.10300 56.68700 37.98600
H  34.87300 55.47900 38.04400
H  35.51500 61.06400 41.01500
H  36.84800 60.34300 41.87600
H  35.19600 59.92500 42.41500
H  31.68500 62.75600 41.30400
H  29.26300 62.41200 42.69400
H  32.34700 61.18000 43.40900
H  30.95100 62.26500 44.06700
H  32.31600 63.01300 43.35100
H  28.26000 62.85000 40.20200
H  29.92400 63.13000 39.80200
H  27.87500 64.87500 41.17700
H  29.52400 65.29800 40.76900
H  29.12500 64.48400 42.33700
H  23.91500 58.63700 41.96700
H  24.27900 59.66800 40.54300
H  24.97500 60.08000 42.19100
H  25.82200 55.17500 38.03300
H  24.81100 51.11300 38.32900
H  23.50600 51.64000 39.41100
H  25.07800 51.48300 40.12100

