158

Mg 53.60900 23.78200 44.44800
C  50.84900 25.90000 44.05200
C  51.65300 20.98800 43.92800
C  56.35500 21.81200 44.28800
C  55.58000 26.58600 44.78200
N  51.54800 23.48900 44.00600
C  50.58900 24.52700 43.88700
C  49.18800 23.91700 43.73200
C  49.45700 22.37400 43.91700
C  50.99500 22.25000 43.99300
C  48.76600 21.81300 45.17800
C  48.46500 24.33900 42.38500
C  49.32000 24.12700 41.10200
H  48.66500 23.19900 40.00800
N  54.00300 21.66700 44.10400
C  53.07300 20.75300 43.87300
C  53.72600 19.46500 43.71100
C  55.11800 19.63000 43.76600
C  55.22300 21.08200 44.02000
C  52.93800 18.15900 43.40500
C  56.16100 18.50300 43.66200
O  55.77400 17.32900 43.63500
C  57.66000 18.77100 43.46800
N  55.63800 24.11900 44.43100
C  56.53100 23.11100 44.47000
C  57.97500 23.67100 44.42500
C  57.75300 25.25000 44.51200
C  56.23100 25.31800 44.65300
C  58.90300 23.04800 45.41700
C  58.35300 26.12200 43.35000
C  58.58800 27.64000 43.74700
N  53.34400 25.88600 44.51500
C  54.25400 26.84600 44.85500
C  53.60400 28.09300 45.07400
C  52.22400 27.79700 44.63600
C  52.12100 26.43000 44.39700
C  54.19300 29.40900 45.48600
C  50.88300 28.29900 44.40600
O  50.52900 29.48000 44.55700
C  49.92200 27.10100 44.04300
C  49.52200 27.47500 42.65000
O  50.24300 27.31300 41.65800
O  48.33600 28.06700 42.71600
C  47.63000 28.61800 41.55900
H  50.88600 20.22700 43.76700
H  57.19000 21.16400 44.56400
H  56.26300 27.38200 45.08700
H  48.66600 24.38800 44.56400
H  49.12800 21.82300 43.03600
H  48.35000 22.56000 45.85400
H  49.53100 21.23000 45.69200
H  47.97200 21.13600 44.86300
H  48.05900 25.34900 42.41800
H  47.53400 23.77600 42.32400
H  50.28200 23.64800 41.28400
H  49.57900 25.09800 40.67900
H  53.44400 17.56400 42.64400
H  51.88100 18.33200 43.20300
H  53.00400 17.38200 44.16600
H  57.95300 17.89300 42.89300
H  58.16100 18.68100 44.43200
H  57.76200 19.70800 42.92000
H  58.35200 23.55700 43.40900
H  58.12400 25.69100 45.43700
H  59.60500 23.78300 45.81200
H  59.53600 22.34200 44.87900
H  58.36400 22.50900 46.19600
H  57.66600 26.13200 42.50400
H  59.31500 25.70800 43.04900
H  59.36600 28.11300 43.14800
H  58.75700 27.71000 44.82200
H  57.69400 28.21300 43.50200
H  53.53900 30.20600 45.13000
H  55.20500 29.42200 45.08300
H  54.29100 29.44100 46.57100
H  49.14600 27.12100 44.80900
H  47.89900 27.89200 40.79100
H  48.04000 29.62300 41.46000
H  46.57400 28.40700 41.72400
Mg 29.64300 58.40600 41.79700
C  26.91400 56.60500 40.57400
C  31.67700 56.22700 40.00800
C  32.30600 60.47700 42.15400
C  27.51300 61.08300 42.62400
N  29.30000 56.60500 40.44400
C  28.09000 56.04100 40.11700
C  28.15900 54.87400 39.15200
C  29.71900 54.56100 39.31800
C  30.29000 55.87000 39.91900
C  30.09400 53.30100 40.18200
C  27.71400 55.25500 37.72400
C  26.56300 54.44400 37.12800
H  26.68600 53.75500 35.83100
N  31.72100 58.31300 41.33200
C  32.31700 57.31100 40.60000
C  33.73400 57.44700 40.73500
C  34.02600 58.72100 41.30800
C  32.67300 59.26100 41.63000
C  34.75200 56.42000 40.30600
C  35.37200 59.33200 41.66000
O  36.34900 58.64200 41.49900
C  35.62300 60.68300 42.21300
N  29.85800 60.42100 42.43800
C  31.10000 61.08000 42.52600
C  30.95900 62.56400 43.07900
C  29.40200 62.70300 43.26900
C  28.90200 61.34100 42.71900
C  31.80500 63.10500 44.31400
C  28.67800 63.90900 42.53000
C  27.86600 64.87200 43.40500
N  27.59100 58.82900 41.70100
C  26.88200 59.91400 42.03900
C  25.49200 59.65100 41.86700
C  25.41400 58.36300 41.26900
C  26.77000 57.93200 41.20600
C  24.36600 60.58200 42.24800
C  24.49500 57.35000 40.72200
O  23.27900 57.29300 40.72100
C  25.49800 56.12600 40.18000
C  25.05700 54.91600 40.94700
O  25.36600 54.71300 42.11200
O  24.18000 54.20100 40.22500
C  23.91700 52.83600 40.84800
H  32.19800 55.47000 39.41800
H  33.11700 61.20400 42.22500
H  26.81600 61.90700 42.78900
H  27.59100 54.02900 39.54400
H  30.13800 54.43700 38.32000
H  30.13700 52.41600 39.54700
H  29.25600 53.12700 40.85600
H  30.92600 53.50700 40.85500
H  28.45500 55.14400 36.93200
H  27.46000 56.31400 37.68500
H  25.66700 55.04400 36.97500
H  26.29300 53.59400 37.75400
H  35.57200 56.74800 39.66600
H  34.19000 55.54100 39.99000
H  35.27700 56.12100 41.21300
H  35.19600 61.43700 41.55200
H  36.68400 60.93300 42.21600
H  35.06300 60.74000 43.14700
H  31.18700 63.19700 42.22200
H  29.17200 62.84400 44.32500
H  32.28600 64.05000 44.06300
H  32.49200 62.34300 44.68100
H  31.20000 63.42000 45.16500
H  28.17100 63.44900 41.68200
H  29.46300 64.45100 42.00300
H  28.36600 65.10900 44.34400
H  26.91800 64.35900 43.56700
H  27.64700 65.76800 42.82400
H  24.12600 61.40300 41.57200
H  24.48800 61.00800 43.24400
H  23.48500 59.94200 42.26500
H  25.43500 55.92000 39.11200
H  23.13000 52.45300 40.19700
H  23.39400 52.88200 41.80400
H  24.79100 52.18600 40.86900

