158

Mg 1.30700 42.65000 26.80800
C  2.63600 42.44400 30.07800
C  -1.73100 41.88300 28.14700
C  0.26300 42.36600 23.78200
C  4.64000 43.24800 25.66100
N  0.50200 42.42400 28.86300
C  1.22500 42.45300 30.00900
C  0.25000 42.26400 31.21200
C  -0.96700 41.66600 30.57100
C  -0.75100 42.06900 29.13200
C  -1.21900 40.16900 30.79600
C  0.06000 43.59300 31.92500
C  0.36200 43.72100 33.47200
H  0.14500 42.60000 34.44100
N  -0.52000 42.37000 26.02400
C  -1.68300 42.04300 26.73700
C  -2.77600 41.82100 25.80700
C  -2.20200 41.95300 24.51100
C  -0.77900 42.21400 24.74300
C  -4.19700 41.63900 26.20900
C  -2.78300 41.63600 23.12800
O  -2.11100 41.63200 22.09800
C  -4.20700 41.07800 23.02700
N  2.37000 42.65300 25.03800
C  1.66100 42.57300 23.85800
C  2.58300 42.53600 22.63700
C  3.88900 43.07000 23.22900
C  3.62600 43.05900 24.76700
C  2.60600 41.13200 22.00100
C  4.55800 44.44600 22.71100
C  3.65900 45.72200 22.54600
N  3.25700 42.91100 27.65900
C  4.55800 43.13400 27.04100
C  5.55900 43.17300 28.04800
C  4.87500 42.82100 29.28200
C  3.49900 42.66000 28.94900
C  6.98800 43.60500 27.97500
C  5.03300 42.62200 30.73300
O  6.07400 42.57000 31.41000
C  3.50400 42.50700 31.31300
C  3.53600 41.25000 32.20000
O  3.45100 40.08400 31.83500
O  3.62600 41.66000 33.48700
C  3.89000 40.63400 34.52100
H  -2.64300 41.49700 28.60600
H  -0.02000 42.33200 22.72800
H  5.58800 43.50700 25.18500
H  0.69200 41.57400 31.93000
H  -1.92600 42.12600 30.81100
H  -0.45500 39.69500 31.41300
H  -1.33000 39.62900 29.85600
H  -2.10500 40.12900 31.43000
H  -0.99100 43.88100 31.89600
H  0.45400 44.40100 31.30900
H  -0.24100 44.51500 33.91200
H  1.41800 43.98600 33.42200
H  -4.44400 40.57900 26.16200
H  -4.96500 42.18300 25.65800
H  -4.18400 41.95600 27.25200
H  -4.45700 40.67900 22.04400
H  -4.85400 41.92500 23.25700
H  -4.28000 40.38800 23.86700
H  2.15000 43.25800 21.94400
H  4.52900 42.18900 23.18000
H  1.84400 40.51800 22.48100
H  3.56700 40.61900 22.04200
H  2.39100 41.32200 20.95000
H  5.27700 44.28000 21.90800
H  5.19700 44.68500 23.56100
H  3.93600 46.36300 23.38400
H  2.60000 45.50300 22.68700
H  3.84000 46.22800 21.59800
H  7.16800 44.01300 26.98100
H  7.69800 42.84400 28.29800
H  7.05600 44.55400 28.50700
H  3.35000 43.47900 31.78100
H  4.67000 39.94600 34.19600
H  2.94600 40.09200 34.57200
H  4.09000 41.06200 35.50300
Mg -5.79200 25.26100 26.71800
C  -3.84200 26.60800 29.23500
C  -7.30000 23.15400 29.01800
C  -7.20000 23.59900 24.17200
C  -3.86300 27.20800 24.34600
N  -5.34900 24.73400 28.78600
C  -4.67600 25.56800 29.64700
C  -5.05300 25.25700 31.11900
C  -5.90300 23.95300 30.99200
C  -6.25100 23.93000 29.49000
C  -5.22200 22.62600 31.42900
C  -5.83600 26.39100 31.76600
C  -5.83200 26.55400 33.31600
H  -5.81800 25.32700 34.19500
N  -7.07900 23.63500 26.59800
C  -7.70500 22.95300 27.66600
C  -8.68500 21.97300 27.08800
C  -8.70700 22.23300 25.65600
C  -7.65700 23.21300 25.44300
C  -9.50400 21.06100 27.87800
C  -9.57200 21.50300 24.53100
O  -9.51300 21.81200 23.35600
C  -10.46100 20.36200 24.83600
N  -5.52500 25.43500 24.62300
C  -6.22900 24.62700 23.75500
C  -5.73500 24.76500 22.27800
C  -4.78900 25.93200 22.37600
C  -4.75200 26.25100 23.87000
C  -5.18400 23.48900 21.53800
C  -5.14000 27.22900 21.50700
C  -4.38500 27.29500 20.14100
N  -4.14800 26.73400 26.75000
C  -3.52900 27.46900 25.75300
C  -2.55800 28.34300 26.39100
C  -2.62100 28.05100 27.78900
C  -3.59900 27.07800 27.91200
C  -1.63100 29.37400 25.67600
C  -2.13000 28.24300 29.14500
O  -1.20100 28.96600 29.55300
C  -3.03100 27.44300 30.12000
C  -2.15600 26.60100 30.94800
O  -1.58500 25.54400 30.66600
O  -1.97200 27.18300 32.17000
C  -1.13700 26.42800 33.06100
H  -7.91000 22.52100 29.66600
H  -7.56400 22.94100 23.38000
H  -3.21000 27.74200 23.65200
H  -4.10500 25.16200 31.64900
H  -6.85800 24.06200 31.50800
H  -5.01600 22.08600 30.50500
H  -5.99700 22.06400 31.95100
H  -4.37400 22.77500 32.09700
H  -6.89500 26.24100 31.55500
H  -5.49700 27.26900 31.21500
H  -6.69500 27.18200 33.54000
H  -4.97300 27.18900 33.53500
H  -10.56500 21.03600 27.63100
H  -9.50600 21.19600 28.95900
H  -8.99200 20.09800 27.85100
H  -9.77800 19.63700 25.27900
H  -10.83300 20.00800 23.87500
H  -11.36000 20.61400 25.39800
H  -6.68100 24.99000 21.78600
H  -3.81300 25.53700 22.09600
H  -4.81800 22.86500 22.35400
H  -4.27300 23.70200 20.97800
H  -5.83000 23.09100 20.75600
H  -4.90500 28.14900 22.04100
H  -6.18800 27.28300 21.21000
H  -3.64800 26.50000 20.25800
H  -3.83900 28.23800 20.09500
H  -5.02600 27.08500 19.28500
H  -2.16900 29.83200 24.84600
H  -0.73500 28.85500 25.33500
H  -1.43900 30.23300 26.31800
H  -3.65900 28.13700 30.67800
H  -1.27300 26.92000 34.02400
H  -0.05700 26.53400 32.95200
H  -1.25900 25.34500 33.06500

