158

Mg 1.13000 7.79100 26.29400
C  1.70500 9.81100 29.22900
C  1.17000 5.09500 28.32900
C  1.10200 6.00800 23.46100
C  1.39200 10.78900 24.32000
N  1.42500 7.54800 28.51900
C  1.47000 8.47500 29.53900
C  1.20700 7.79000 30.88300
C  1.47400 6.25400 30.58300
C  1.33800 6.24700 29.02700
C  2.83600 5.65200 31.08900
C  -0.21600 8.07300 31.57600
C  -0.31400 8.28200 33.07900
H  0.75700 7.67900 33.97400
N  1.15000 5.81800 25.97900
C  1.20400 4.87400 26.93200
C  1.16700 3.55500 26.33400
C  1.05600 3.77200 24.92300
C  1.05100 5.29100 24.70800
C  1.10600 2.24200 27.10400
C  0.81700 2.75700 23.81000
O  0.68300 3.05800 22.62600
C  0.91900 1.26000 24.10800
N  0.96500 8.39100 24.19700
C  1.12100 7.45000 23.27400
C  1.30600 8.08400 21.84300
C  1.22600 9.61400 22.12200
C  1.26800 9.60900 23.66100
C  2.62400 7.69500 21.11400
C  -0.03800 10.27600 21.60800
C  0.01300 11.76800 21.36200
N  1.45600 9.84800 26.65200
C  1.50900 10.91400 25.70600
C  1.69000 12.15400 26.44900
C  1.90500 11.76800 27.76800
C  1.66700 10.33400 27.91700
C  1.80700 13.49200 25.80300
C  2.15300 12.32700 29.11800
O  2.51700 13.44300 29.47500
C  1.96300 11.13900 30.08900
C  3.08400 11.14600 31.13600
O  4.28200 10.75500 30.98200
O  2.64800 11.64400 32.28100
C  3.43500 11.32700 33.46700
H  1.10000 4.27400 29.04500
H  1.07400 5.43400 22.53300
H  1.30900 11.73100 23.77500
H  1.99800 8.02400 31.59500
H  0.78200 5.66600 31.18600
H  3.36600 5.36000 30.18200
H  2.68200 4.78700 31.73400
H  3.39400 6.42600 31.61600
H  -0.83600 7.19800 31.37900
H  -0.71600 8.95300 31.17000
H  -1.23600 7.81600 33.42600
H  -0.31800 9.30900 33.44200
H  0.08700 1.89800 27.27900
H  1.53900 2.40600 28.09100
H  1.78800 1.49600 26.69700
H  1.90800 1.07700 24.52800
H  0.74500 0.60700 23.25300
H  0.13000 1.06700 24.83600
H  0.49000 7.81900 21.17100
H  2.04100 10.20800 21.70800
H  3.36000 8.48900 21.23600
H  2.39300 7.52500 20.06200
H  2.88700 6.81500 21.70000
H  -0.89700 10.14300 22.26600
H  -0.28600 9.82000 20.65000
H  0.96900 12.22400 21.61800
H  -0.77600 12.23200 21.95400
H  -0.04400 11.97900 20.29400
H  2.65000 13.60700 25.12200
H  1.97400 14.18000 26.63200
H  0.90100 13.85500 25.31800
H  1.07100 11.55100 30.56000
H  2.87600 11.77800 34.28700
H  4.42500 11.78300 33.48000
H  3.66100 10.26100 33.47900
Mg -5.06100 25.14300 26.33100
C  -4.07700 26.62500 29.29100
C  -7.24000 23.08100 28.06300
C  -6.24500 24.08400 23.39700
C  -2.90600 27.34600 24.51400
N  -5.55400 24.86200 28.46300
C  -5.03600 25.63000 29.46200
C  -5.65400 25.15000 30.81600
C  -6.39700 23.83500 30.43900
C  -6.36900 23.86600 28.89100
C  -5.75600 22.52700 31.05700
C  -6.43000 26.26400 31.51800
C  -6.08700 26.60800 32.96900
H  -5.76400 25.38400 33.94200
N  -6.45300 23.72700 25.83500
C  -7.31500 23.07500 26.65500
C  -8.27200 22.36300 25.88200
C  -8.02100 22.56500 24.53800
C  -6.94400 23.52900 24.52000
C  -9.35700 21.43400 26.45900
C  -8.57900 21.89500 23.28200
O  -8.18800 22.21900 22.14400
C  -9.69000 20.87000 23.35400
N  -4.37600 25.42200 24.20200
C  -5.19100 24.99700 23.26000
C  -4.62400 25.40400 21.92700
C  -3.64500 26.58500 22.21300
C  -3.61500 26.41600 23.70000
C  -3.84500 24.17700 21.28800
C  -4.23000 28.09700 21.84600
C  -3.31700 28.84700 20.87800
N  -3.70700 26.59200 26.77100
C  -2.91300 27.39900 25.94600
C  -2.16500 28.36400 26.78200
C  -2.58200 27.96800 28.10600
C  -3.51500 26.95000 28.01400
C  -1.16800 29.35900 26.33000
C  -2.44800 28.32500 29.56300
O  -1.74400 29.19800 30.08100
C  -3.37800 27.42100 30.31700
C  -2.53600 26.56200 31.14400
O  -1.85900 25.60900 30.77000
O  -2.56200 27.01100 32.46800
C  -1.79900 26.32800 33.42600
H  -8.03300 22.57100 28.61500
H  -6.59200 23.83800 22.39100
H  -2.31600 28.06400 23.94200
H  -4.80300 24.90900 31.45300
H  -7.44700 23.85100 30.73100
H  -5.04500 22.72100 31.86100
H  -5.18200 22.03200 30.27300
H  -6.57500 21.87900 31.36700
H  -7.48700 25.99800 31.53100
H  -6.28100 27.17700 30.94200
H  -6.95700 27.08400 33.42000
H  -5.26800 27.30900 33.12900
H  -10.27100 21.33400 25.87300
H  -9.75700 21.65100 27.45000
H  -9.01900 20.39900 26.50400
H  -10.61700 21.28900 23.74600
H  -9.36900 20.10300 24.05900
H  -9.80300 20.56700 22.31300
H  -5.46600 25.73600 21.31900
H  -2.74300 26.39000 21.63400
H  -4.47200 23.30600 21.47900
H  -2.90900 23.97500 21.81100
H  -3.72500 24.41100 20.23100
H  -4.37200 28.69500 22.74600
H  -5.18000 27.95700 21.32900
H  -3.08300 29.76300 21.42000
H  -3.85400 29.07700 19.95800
H  -2.39300 28.29200 20.71800
H  -0.25100 28.94200 25.91500
H  -0.87500 29.94200 27.20300
H  -1.64500 30.06500 25.64900
H  -4.04600 27.92800 31.01300
H  -0.80500 26.69400 33.16600
H  -1.85200 25.24900 33.28700
H  -1.86600 26.48200 34.50300

