158

Mg 44.99900 5.30900 48.26000
C  43.00400 8.19100 47.36900
C  42.19200 3.41400 47.56900
C  47.02400 2.68000 47.98400
C  47.86500 7.42900 48.14000
N  42.78700 5.83900 47.50700
C  42.18200 7.04500 47.37000
C  40.63900 6.90300 46.98400
C  40.49200 5.31500 47.11000
C  41.88900 4.78900 47.48400
C  39.38200 4.98500 48.15500
C  40.36500 7.39400 45.56200
C  38.99000 8.00800 45.24600
H  38.21300 7.49400 44.01100
N  44.64800 3.31800 47.95100
C  43.43000 2.72500 47.60500
C  43.68800 1.32700 47.30100
C  45.09900 1.06700 47.35500
C  45.66300 2.41300 47.76300
C  42.53400 0.40400 46.92400
C  45.80200 -0.26900 47.04700
O  45.13300 -1.23400 46.71100
C  47.25300 -0.47600 47.15700
N  47.18300 5.10000 48.17000
C  47.71000 3.90100 48.25300
C  49.20600 3.91400 48.21200
C  49.48200 5.44100 48.20400
C  48.10100 6.08900 48.22600
C  49.84000 3.20000 49.38900
C  50.38900 6.05300 47.10600
C  51.50600 6.99300 47.58600
N  45.38700 7.41100 48.02200
C  46.62700 8.09800 48.06300
C  46.32700 9.50900 47.92300
C  44.95000 9.53300 47.62300
C  44.39700 8.23200 47.65500
C  47.26700 10.66000 48.05800
C  43.85600 10.50100 47.41000
O  43.78600 11.70600 47.32900
C  42.57900 9.58900 47.16900
C  41.51800 9.97200 48.17300
O  41.62900 10.00600 49.40400
O  40.30400 10.23200 47.51300
C  39.08200 10.38300 48.23900
H  41.29800 2.83500 47.33000
H  47.70700 1.83000 47.92000
H  48.67800 8.13200 47.94800
H  40.07600 7.43500 47.75100
H  40.08700 4.86900 46.20200
H  39.79000 4.21800 48.81300
H  38.50800 4.50700 47.71200
H  39.01900 5.81200 48.76500
H  40.49900 6.57000 44.86100
H  41.04800 8.16300 45.19900
H  39.02500 9.09700 45.23400
H  38.35500 7.70500 46.07800
H  42.74800 -0.40800 46.22800
H  41.66400 0.98400 46.61400
H  42.21900 0.07300 47.91300
H  47.69400 0.19300 46.41700
H  47.42700 -1.51300 46.87000
H  47.57600 -0.28100 48.17900
H  49.36000 3.47700 47.22500
H  49.87600 5.67200 49.19300
H  49.68100 2.12700 49.28000
H  49.43500 3.54300 50.34100
H  50.92200 3.32900 49.36300
H  49.84500 6.50100 46.27400
H  50.84700 5.26200 46.51200
H  51.47000 8.02000 47.22300
H  52.47300 6.52400 47.40600
H  51.52200 7.12100 48.66900
H  46.73300 11.49400 48.51300
H  47.58000 10.86800 47.03500
H  48.09800 10.31800 48.67500
H  42.15000 9.73800 46.17900
H  38.23500 10.29600 47.55900
H  39.05900 11.38200 48.67500
H  38.94000 9.72300 49.09500
Mg 16.87800 52.02800 25.25900
C  18.73900 50.94600 27.99800
C  14.31600 52.91600 27.44600
C  15.33900 53.06500 22.53900
C  19.35000 50.52900 23.09300
N  16.52800 51.83100 27.51600
C  17.50300 51.51200 28.41000
C  17.01900 51.75100 29.78800
C  15.51300 52.30900 29.60600
C  15.41300 52.32400 28.10200
C  14.41200 51.31500 30.29700
C  17.88600 52.81400 30.52900
C  17.48600 53.36900 31.96700
H  16.47000 52.62500 32.86300
N  15.08500 52.89700 25.05600
C  14.17700 53.20600 26.06600
C  13.00000 53.67400 25.36500
C  13.35900 53.78200 23.98000
C  14.68500 53.21900 23.79600
C  11.68700 53.97400 26.07600
C  12.48600 54.27600 22.85300
O  12.85000 54.55300 21.72300
C  11.00300 54.56200 23.03500
N  17.36300 51.97200 23.10800
C  16.53000 52.44500 22.21800
C  17.08800 52.40700 20.78900
C  18.42500 51.75900 21.01700
C  18.43300 51.39100 22.51700
C  16.15200 51.72200 19.84100
C  19.53600 52.78700 20.70600
C  20.85600 52.19800 20.27700
N  18.63600 50.90300 25.44100
C  19.47900 50.31000 24.53800
C  20.58100 49.70800 25.24800
C  20.37600 49.91700 26.54800
C  19.13400 50.59800 26.64500
C  21.82700 49.04600 24.68300
C  20.94300 49.79100 27.90900
O  21.99300 49.33900 28.32000
C  19.91000 50.45900 28.89200
C  19.37700 49.60000 29.96800
O  18.68500 48.69000 29.71600
O  19.98400 49.88900 31.12400
C  19.38600 49.24100 32.34600
H  13.46900 53.35700 27.97500
H  14.80800 53.44400 21.66300
H  20.20400 50.27600 22.46200
H  17.00700 50.83400 30.37600
H  15.37900 53.30200 30.03400
H  13.70400 50.80700 29.64100
H  13.85700 51.91900 31.01400
H  14.85600 50.54000 30.92100
H  18.08000 53.64500 29.85100
H  18.85400 52.33600 30.67900
H  17.01500 54.34400 31.83400
H  18.35100 53.51000 32.61500
H  11.99200 54.36400 27.04700
H  11.10600 53.05600 26.16800
H  11.13800 54.82700 25.67700
H  10.96500 55.36200 23.77400
H  10.43300 53.67900 23.32600
H  10.65700 54.89700 22.05700
H  17.09300 53.45700 20.49900
H  18.56600 50.93400 20.31900
H  15.79600 50.88600 20.44300
H  16.65000 51.47700 18.90300
H  15.18200 52.21700 19.80300
H  19.72000 53.29300 21.65400
H  19.24800 53.50300 19.93600
H  21.21300 52.62400 19.33900
H  20.77200 51.11200 20.32600
H  21.58800 52.52800 21.01400
H  22.04000 49.23900 23.63200
H  21.55100 47.99600 24.59200
H  22.71700 49.12700 25.30800
H  20.26200 51.38100 29.35600
H  18.99900 48.23500 32.18500
H  18.45400 49.76800 32.55100
H  20.15800 49.21400 33.11500

