158

Mg -2.03000 17.02800 25.82800
C  -2.15000 14.75200 28.47100
C  -2.12700 19.63200 28.13500
C  -2.33200 19.11500 23.32100
C  -2.12200 14.28200 23.64100
N  -2.27700 17.16000 28.00000
C  -2.30300 16.07100 28.88200
C  -2.61300 16.53000 30.29800
C  -2.55300 18.12400 30.15000
C  -2.33500 18.37700 28.69400
C  -3.82400 18.94400 30.65000
C  -1.54200 16.09300 31.29700
C  -1.51100 16.83300 32.65800
H  -1.22400 16.06200 33.97100
N  -2.24800 19.16600 25.74700
C  -2.08800 20.01900 26.77300
C  -2.22900 21.39400 26.25500
C  -2.25600 21.31900 24.84500
C  -2.28000 19.86200 24.55000
C  -2.45200 22.62100 27.07900
C  -2.30900 22.35500 23.79000
O  -2.47000 22.12800 22.62300
C  -2.10100 23.73400 24.17300
N  -2.20500 16.76300 23.83600
C  -2.28000 17.82300 22.92000
C  -2.24700 17.27600 21.49200
C  -2.01300 15.72300 21.64200
C  -2.17000 15.54700 23.12100
C  -3.54700 17.59300 20.73600
C  -0.59300 15.23000 21.09000
C  -0.57700 14.23500 19.92800
N  -2.07100 14.94500 25.97500
C  -2.00900 14.03900 25.00700
C  -1.95800 12.74900 25.56400
C  -2.03300 12.99500 26.91200
C  -2.02300 14.36200 27.15100
C  -1.77100 11.44800 24.86800
C  -1.89600 12.38300 28.16000
O  -1.76600 11.22400 28.44700
C  -1.99100 13.45200 29.26500
C  -0.86000 13.29900 30.24100
O  0.23600 13.82900 30.11000
O  -1.26400 12.51600 31.29400
C  -0.25100 12.21900 32.26500
H  -1.85300 20.43800 28.81900
H  -2.44100 19.75900 22.44500
H  -2.18200 13.43300 22.95600
H  -3.58700 16.23900 30.69200
H  -1.69600 18.57800 30.64800
H  -4.21400 19.46900 29.77900
H  -3.57600 19.66700 31.42800
H  -4.66200 18.28300 30.87200
H  -0.58600 16.24100 30.79500
H  -1.71700 15.07300 31.64200
H  -2.43800 17.39900 32.74700
H  -0.61900 17.44000 32.50800
H  -3.44400 22.97500 26.79500
H  -1.67600 23.38600 27.04100
H  -2.49800 22.33300 28.12900
H  -1.16200 23.91700 24.69400
H  -2.91600 24.06900 24.81600
H  -2.02200 24.40300 23.31700
H  -1.44400 17.74200 20.92100
H  -2.73100 15.10300 21.10500
H  -4.35000 18.21100 21.14000
H  -4.05000 16.64500 20.54600
H  -3.19900 17.97700 19.77700
H  -0.06000 14.86900 21.97000
H  -0.10400 16.18400 20.89800
H  0.17600 13.45600 20.05000
H  -0.35500 14.69700 18.96600
H  -1.52800 13.72500 19.78100
H  -1.36900 10.70600 25.55600
H  -1.09800 11.60900 24.02500
H  -2.79900 11.17100 24.63200
H  -2.94100 13.27400 29.76800
H  -0.65900 12.05100 33.26100
H  0.54900 12.95900 32.29500
H  0.36400 11.35300 32.01900
Mg 25.58300 -6.84200 47.51900
C  26.98200 -4.08900 45.55100
C  22.79300 -6.66700 45.51100
C  24.72700 -9.67800 48.95400
C  28.88800 -7.14200 48.94100
N  25.03700 -5.65700 45.59500
C  25.69000 -4.55900 45.08000
C  24.82400 -3.86000 44.00400
C  23.42700 -4.57500 44.15500
C  23.78100 -5.75600 45.12500
C  22.30900 -3.52500 44.61500
C  25.40500 -3.84500 42.53500
C  25.87600 -2.53300 41.99100
H  25.07000 -2.07100 40.72900
N  24.00100 -8.01600 47.30700
C  22.93700 -7.78600 46.41700
C  21.98600 -8.86400 46.67200
C  22.51800 -9.77400 47.60100
C  23.81300 -9.20000 48.00500
C  20.73800 -8.89900 45.87000
C  21.90600 -11.09700 48.03800
O  20.84000 -11.44200 47.65100
C  22.66100 -12.08300 48.85200
N  26.69300 -8.28300 48.65400
C  26.02200 -9.34500 49.25100
C  26.81500 -10.04900 50.32000
C  28.19300 -9.32600 50.19400
C  27.93800 -8.20900 49.20000
C  26.17700 -10.12600 51.75800
C  29.45100 -10.11600 49.69100
C  30.75900 -9.71900 50.23100
N  27.47900 -5.80300 47.39800
C  28.66200 -6.02800 48.13100
C  29.53100 -4.92700 47.87200
C  28.98300 -4.24400 46.83100
C  27.69800 -4.70800 46.58400
C  30.83800 -4.63100 48.53300
C  29.15200 -3.14300 45.93200
O  30.13900 -2.39400 45.79200
C  27.83300 -2.92300 45.18700
C  27.08700 -1.65100 45.44600
O  27.16000 -0.72900 44.68100
O  26.47400 -1.53800 46.66700
C  25.61400 -0.41100 46.97200
H  21.93500 -6.58000 44.84100
H  24.32300 -10.55700 49.46100
H  29.84200 -7.09500 49.47100
H  24.79700 -2.86300 44.44400
H  23.22800 -4.96300 43.15600
H  21.37500 -3.70400 44.08300
H  22.68200 -2.51900 44.42700
H  22.07900 -3.58600 45.67900
H  24.67800 -4.27100 41.84400
H  26.18700 -4.59800 42.43200
H  26.93700 -2.60000 41.75000
H  25.77800 -1.80600 42.79700
H  20.90400 -9.46200 44.95100
H  20.45800 -7.87200 45.63800
H  19.86800 -9.33300 46.36500
H  23.62200 -12.25600 48.36800
H  22.16900 -13.04000 48.67700
H  22.64100 -11.96100 49.93500
H  26.88100 -11.08500 49.98900
H  28.52100 -8.82700 51.10600
H  25.30600 -9.48400 51.88700
H  26.90000 -9.77900 52.49600
H  25.93600 -11.16300 51.99200
H  29.33300 -10.03500 48.61100
H  29.29800 -11.17500 49.89800
H  31.41200 -9.34700 49.44300
H  31.20500 -10.51800 50.82400
H  30.51100 -9.02200 51.03200
H  30.92900 -3.58600 48.82900
H  31.64300 -4.75300 47.80900
H  31.09300 -5.23500 49.40400
H  28.04400 -3.03500 44.12300
H  24.65100 -0.74800 47.35400
H  25.39900 0.21100 46.10300
H  26.04800 0.29000 47.68600

