158

Mg 8.22800 3.00700 27.75500
C  9.85400 1.73900 30.39200
C  6.29300 4.92400 29.66100
C  7.09200 4.50900 24.95800
C  10.16500 0.86700 25.55800
N  7.97600 3.16300 29.81300
C  8.85700 2.71800 30.76400
C  8.52400 3.19600 32.13000
C  7.30000 4.15400 31.87900
C  7.08600 4.06500 30.32900
C  6.00300 3.98100 32.69700
C  9.76600 3.75800 32.85800
C  9.36800 4.70700 34.06800
H  9.95200 4.30000 35.44500
N  6.70400 4.41200 27.37700
C  6.02200 5.13100 28.29200
C  5.23200 6.12600 27.72700
C  5.63300 6.14400 26.30900
C  6.50700 4.95000 26.12200
C  4.19700 7.02900 28.47600
C  5.24400 7.12900 25.23300
O  5.68200 7.07600 24.08500
C  4.30100 8.27100 25.52300
N  8.40100 2.56400 25.50800
C  7.90800 3.45700 24.62900
C  8.30800 3.18800 23.23000
C  9.40700 2.07700 23.43500
C  9.28300 1.73500 24.90900
C  7.19700 2.74800 22.27100
C  10.86700 2.51200 23.11500
C  11.68500 3.32300 24.16900
N  9.64000 1.57400 27.89000
C  10.35500 0.81800 26.94600
C  11.33100 -0.01300 27.66800
C  11.11400 0.25900 28.97800
C  10.09500 1.20700 29.11900
C  12.19500 -0.96700 26.97500
C  11.55800 -0.08800 30.31000
O  12.37200 -0.89200 30.69000
C  10.73600 0.92600 31.31000
C  10.02300 0.08500 32.28400
O  9.16500 -0.74600 32.06800
O  10.59400 0.29700 33.53900
C  9.91900 -0.44700 34.60600
H  5.80900 5.61200 30.35800
H  7.02400 5.25500 24.16300
H  10.98900 0.51000 24.93600
H  8.13100 2.43600 32.80500
H  7.55400 5.21000 31.97200
H  5.89900 3.00300 33.16600
H  5.12300 3.96900 32.05300
H  5.96000 4.83900 33.36800
H  10.36000 4.38800 32.19700
H  10.38300 2.98500 33.31600
H  8.29500 4.84800 34.20000
H  9.79200 5.68900 33.85700
H  4.10900 6.53200 29.44200
H  3.25500 6.96600 27.93100
H  4.45000 8.08000 28.61900
H  4.05800 8.74000 24.56900
H  4.62900 9.02200 26.24100
H  3.47900 7.67600 25.92200
H  8.80700 4.05600 22.80000
H  9.17100 1.25100 22.76400
H  6.28300 2.87800 22.85100
H  7.17400 1.66400 22.16200
H  7.29800 3.18300 21.27700
H  10.80100 2.97300 22.12900
H  11.37800 1.55200 23.04300
H  10.97000 3.71300 24.89400
H  12.10900 4.23600 23.75200
H  12.31900 2.73700 24.83500
H  12.94500 -0.45700 26.37000
H  11.54900 -1.50000 26.27700
H  12.70400 -1.67300 27.63100
H  11.38300 1.49000 31.98200
H  10.42200 -0.37400 35.57100
H  9.85700 -1.49900 34.32800
H  8.92300 -0.02600 34.73800
Mg 6.54100 54.65100 39.84600
C  6.24600 51.13400 39.77000
C  9.86300 54.24100 39.02100
C  6.75600 57.94800 39.31500
C  3.08400 54.80400 40.31800
N  7.83700 52.88200 39.25400
C  7.54600 51.59400 39.43900
C  8.75900 50.77700 39.22900
C  9.89400 51.75800 39.51200
C  9.18700 53.03300 39.25200
C  10.58400 51.65600 40.86900
C  8.76500 50.03900 37.81500
C  8.52700 50.99000 36.64600
H  7.19500 50.94200 35.96200
N  8.11300 55.90600 39.18200
C  9.42000 55.58300 38.96200
C  10.25100 56.74800 38.78600
C  9.35700 57.85000 38.87700
C  7.97600 57.28300 39.10400
C  11.72900 56.79400 38.43700
C  9.75100 59.31900 38.53500
O  10.87200 59.66300 38.38500
C  8.63900 60.44600 38.58100
N  5.08300 56.21200 39.67200
C  5.42700 57.51800 39.57200
C  4.20300 58.43600 39.55700
C  3.08600 57.44700 40.10100
C  3.75800 56.06000 40.03900
C  4.45100 59.67900 40.46400
C  1.83600 57.53700 39.27500
C  0.49800 57.71300 39.94900
N  4.94900 53.29400 39.97700
C  3.61000 53.46900 40.22600
C  2.93800 52.17200 40.56200
C  3.95200 51.24800 40.37500
C  5.11800 51.97000 40.02500
C  1.48300 52.00700 40.98700
C  4.28200 49.80600 40.41700
O  3.60600 48.85200 40.77100
C  5.80000 49.63300 39.98600
C  5.62900 48.94600 38.63100
O  4.95000 49.29800 37.66700
O  6.32600 47.77000 38.68200
C  6.17200 46.77700 37.59900
H  10.94800 54.12700 39.07700
H  6.72200 59.03700 39.24300
H  2.01400 54.87600 40.52700
H  8.77300 50.05300 40.04400
H  10.65900 51.58600 38.75600
H  10.60300 52.64300 41.33100
H  11.60700 51.29800 40.74900
H  10.11500 50.91300 41.51400
H  7.91500 49.37300 37.66400
H  9.68100 49.47100 37.65200
H  9.17900 50.60700 35.86100
H  8.81200 52.00200 36.93300
H  11.62900 57.07800 37.39000
H  12.13200 55.78400 38.36100
H  12.41000 57.49300 38.92300
H  9.11100 61.40500 38.36600
H  8.19600 60.44600 39.57700
H  7.96200 60.19400 37.76400
H  3.98400 58.74200 38.53500
H  2.88200 57.68500 41.14500
H  4.10700 60.52000 39.86400
H  5.47200 59.83100 40.81500
H  3.89500 59.61000 41.39900
H  1.80300 56.68500 38.59600
H  1.95400 58.44500 38.68400
H  0.58400 57.44500 41.00200
H  -0.20100 57.05700 39.43100
H  0.14500 58.73100 39.78400
H  0.91500 52.54200 40.22500
H  1.30500 52.38300 41.99400
H  1.29900 50.93300 40.97800
H  6.33300 48.96500 40.66200
H  7.10500 46.21900 37.51300
H  5.84400 47.26200 36.68000
H  5.42800 46.08300 37.98900

