158

Mg -0.29600 43.39500 25.22600
C  2.22500 42.79800 27.67000
C  -2.58800 42.30600 27.48300
C  -2.42700 43.19800 22.69100
C  2.39700 43.91900 22.92000
N  -0.10800 42.59900 27.33400
C  0.91000 42.64800 28.18500
C  0.38600 42.34400 29.62600
C  -1.12600 41.86500 29.44500
C  -1.32200 42.25600 27.97500
C  -1.37400 40.35200 29.72200
C  0.45400 43.55400 30.53600
C  -0.27600 43.56700 31.90900
H  -0.42400 42.34400 32.88700
N  -2.30400 42.99500 25.16100
C  -3.13300 42.55700 26.18000
C  -4.48100 42.47800 25.67800
C  -4.41700 42.62300 24.30700
C  -3.00500 42.96700 23.97400
C  -5.64900 42.15200 26.61800
C  -5.55200 42.63200 23.33000
O  -5.41500 42.92400 22.11400
C  -6.99200 42.13300 23.76200
N  -0.08400 43.56800 23.15800
C  -1.13900 43.45700 22.29400
C  -0.85000 43.66800 20.84300
C  0.69500 43.91400 20.96400
C  1.06100 43.83600 22.43800
C  -1.35300 42.50400 19.89100
C  1.20600 45.21200 20.28900
C  1.05900 46.49600 21.08200
N  1.87200 43.37700 25.21800
C  2.80300 43.77100 24.26300
C  4.18900 43.63100 24.79200
C  3.97400 43.25100 26.12700
C  2.54400 43.15900 26.34500
C  5.53600 43.87200 23.98200
C  4.65300 42.94500 27.42400
O  5.83400 42.71700 27.73000
C  3.48800 42.90900 28.47900
C  3.76300 41.78900 29.43700
O  3.70300 40.59300 29.26000
O  4.24300 42.32600 30.56600
C  4.60400 41.41900 31.69800
H  -3.25800 42.05900 28.31000
H  -3.11300 43.33300 21.85300
H  3.14000 44.15000 22.15400
H  0.96600 41.54600 30.09000
H  -1.81800 42.43100 30.06900
H  -2.01800 39.89000 28.97400
H  -1.87000 40.38800 30.69200
H  -0.44500 39.78600 29.79600
H  0.03100 44.33900 29.90800
H  1.47400 43.85900 30.77200
H  -1.28700 43.94300 31.75500
H  0.27400 44.34400 32.44000
H  -5.33700 42.48100 27.60900
H  -5.62800 41.06700 26.71500
H  -6.64900 42.49100 26.34800
H  -7.00200 41.14300 24.21700
H  -7.56600 41.99100 22.84600
H  -7.53900 42.82200 24.40500
H  -1.37600 44.58000 20.56200
H  1.25800 43.06700 20.57300
H  -1.83400 43.07600 19.09700
H  -2.01300 41.76700 20.34900
H  -0.47300 42.08100 19.40700
H  0.74200 45.30700 19.30800
H  2.26000 45.23200 20.01000
H  0.63600 46.39700 22.08200
H  0.39300 47.11700 20.48400
H  1.99500 47.05200 21.03500
H  6.32600 44.17700 24.66700
H  5.41000 44.61100 23.19100
H  5.75300 42.88600 23.56900
H  3.39900 43.86500 28.99500
H  4.56400 40.34700 31.50800
H  3.84100 41.56900 32.46200
H  5.64400 41.51400 32.01100
Mg -8.79100 18.39800 42.90500
C  -5.40400 17.59800 42.62000
C  -8.11400 21.62300 42.07700
C  -12.13100 18.88700 42.66200
C  -9.40900 14.94200 43.10100
N  -6.98300 19.43200 42.60700
C  -5.70700 18.97500 42.49800
C  -4.68100 20.09200 42.25900
C  -5.60500 21.38400 42.48600
C  -7.02600 20.80600 42.42300
C  -5.29600 22.23800 43.77500
C  -4.03300 20.07900 40.84300
C  -5.05000 20.13400 39.60500
H  -4.80300 19.07500 38.54200
N  -10.02600 20.06300 42.44400
C  -9.52800 21.32500 42.09900
C  -10.68800 22.15600 41.93200
C  -11.86700 21.36400 42.01600
C  -11.38200 20.01500 42.37800
C  -10.45700 23.61400 41.53100
C  -13.28900 21.83500 41.65800
O  -13.54000 22.97500 41.30700
C  -14.40100 20.86300 41.49200
N  -10.53900 17.06400 42.71000
C  -11.81900 17.54300 42.82300
C  -12.85500 16.39300 42.83600
C  -12.00800 15.13400 42.74600
C  -10.56100 15.75600 42.85000
C  -14.00200 16.54500 43.92500
C  -12.29200 14.18500 41.57500
C  -13.26600 13.07500 41.99300
N  -7.66400 16.55900 42.93300
C  -8.04600 15.21200 42.99000
C  -6.83300 14.37600 43.12400
C  -5.80100 15.29600 42.95700
C  -6.34500 16.59300 42.83600
C  -6.76600 12.91700 43.37400
C  -4.36300 15.41600 43.07800
O  -3.53700 14.49700 43.28300
C  -4.02500 16.91900 42.87900
C  -3.36500 17.34900 44.10600
O  -2.55400 18.25400 44.21300
O  -3.96400 16.72100 45.20600
C  -3.40500 17.09900 46.50500
H  -8.01100 22.69100 41.87600
H  -13.20800 18.93500 42.83400
H  -9.73900 13.91900 43.29500
H  -3.99600 20.12900 43.10500
H  -5.44200 22.03400 41.62700
H  -4.53000 21.76700 44.39000
H  -6.16100 22.34700 44.42900
H  -4.99100 23.23800 43.46900
H  -3.42800 19.17800 40.73900
H  -3.30700 20.89200 40.84600
H  -4.98700 21.07900 39.06600
H  -6.06000 20.01600 39.99600
H  -9.74300 23.67900 40.71100
H  -9.98000 24.16600 42.34000
H  -11.38000 24.17300 41.37800
H  -14.88100 20.41300 42.36200
H  -14.04000 20.06600 40.84300
H  -15.25100 21.36400 41.02800
H  -13.31900 16.63300 41.87900
H  -12.00100 14.58200 43.68600
H  -14.16800 15.54300 44.32000
H  -14.98300 16.75900 43.50200
H  -13.76400 17.17600 44.78100
H  -11.41900 13.59800 41.29200
H  -12.58100 14.71200 40.66600
H  -12.98300 12.09100 41.62000
H  -14.25200 13.30600 41.58800
H  -13.09400 12.92300 43.05900
H  -5.86300 12.36000 43.12400
H  -7.51800 12.38600 42.79100
H  -6.96200 12.63600 44.40900
H  -3.32800 17.07800 42.05700
H  -3.78400 16.41800 47.26700
H  -3.70000 18.06400 46.91900
H  -2.31900 17.01300 46.50600

