158

Mg 2.20700 -1.66000 44.68400
C  5.47400 -0.85200 44.25300
C  1.46800 0.80800 42.37600
C  -0.88500 -2.75200 44.60100
C  3.19900 -4.52300 46.63900
N  3.40000 -0.27200 43.25600
C  4.71500 -0.08900 43.42100
C  5.24500 0.98700 42.41000
C  3.91400 1.61800 41.83500
C  2.87300 0.74100 42.60600
C  3.76100 3.12400 41.98000
C  6.23000 0.48700 41.29500
C  7.42500 1.44900 41.09600
H  7.63200 1.91300 39.65300
N  0.56700 -1.06000 43.70400
C  0.43400 0.02400 42.86100
C  -1.02800 0.28000 42.56900
C  -1.65500 -0.86200 43.02700
C  -0.69100 -1.59200 43.86100
C  -1.47500 1.41700 41.67500
C  -3.15200 -1.18200 42.70800
O  -3.81400 -0.62000 41.86400
C  -3.84800 -2.26500 43.42700
N  1.29000 -3.53600 45.42900
C  -0.05100 -3.62500 45.34300
C  -0.61600 -4.90500 46.05700
C  0.77500 -5.53700 46.63100
C  1.81800 -4.48300 46.21500
C  -1.58900 -4.51800 47.23300
C  1.09900 -6.90400 45.94900
C  1.23400 -8.18600 46.85500
N  3.93300 -2.54400 45.35300
C  4.19200 -3.68000 46.17000
C  5.62900 -3.84300 46.32500
C  6.19800 -2.67600 45.66300
C  5.10700 -1.91200 45.11300
C  6.37000 -4.90000 47.17500
C  7.40100 -1.87700 45.32800
O  8.57100 -2.15300 45.51200
C  6.97400 -0.66300 44.51300
C  7.19300 0.67400 45.21800
O  6.68600 1.12900 46.23500
O  7.87700 1.45600 44.41100
C  8.14600 2.84300 44.80900
H  1.19200 1.55800 41.63100
H  -1.92300 -3.06900 44.72100
H  3.52000 -5.45000 47.11900
H  5.69500 1.76000 43.03300
H  3.83300 1.46000 40.76000
H  3.57600 3.46400 40.96100
H  4.68600 3.59100 42.31600
H  2.90800 3.38500 42.60600
H  5.64800 0.43700 40.37400
H  6.44900 -0.53900 41.59000
H  8.27500 0.77900 41.23000
H  7.39400 2.27700 41.80400
H  -2.54800 1.54200 41.52800
H  -0.98200 1.19300 40.73000
H  -0.90900 2.27600 42.03600
H  -3.79100 -2.18000 44.51200
H  -3.50200 -3.25200 43.12100
H  -4.91300 -2.12100 43.24400
H  -1.06900 -5.58000 45.33100
H  0.82400 -5.57000 47.71900
H  -1.05200 -4.23900 48.14000
H  -2.14400 -5.43100 47.44700
H  -2.27800 -3.68900 47.07400
H  2.07800 -6.75900 45.49200
H  0.37100 -7.13000 45.16900
H  2.27800 -8.48600 46.93900
H  0.86900 -9.08700 46.36100
H  0.78800 -8.05200 47.84000
H  5.75300 -5.02300 48.06500
H  7.43500 -4.81600 47.39200
H  6.35000 -5.77600 46.52700
H  7.50800 -0.57500 43.56700
H  7.24800 3.38200 45.10900
H  8.61200 3.48600 44.06300
H  8.85400 2.85300 45.63800
Mg -11.44700 16.48200 41.16800
C  -8.37700 14.62600 40.84300
C  -9.91900 19.11200 39.62200
C  -14.49500 17.64900 40.37100
C  -12.91100 13.48800 42.41000
N  -9.39300 16.76400 40.38300
C  -8.34100 15.89400 40.19300
C  -7.14600 16.57900 39.51800
C  -7.61600 18.09300 39.44400
C  -9.05800 18.03100 39.84700
C  -6.90700 19.20700 40.26700
C  -6.73200 15.80400 38.22000
C  -5.21700 15.71900 38.05200
H  -4.79700 16.30500 36.66700
N  -12.15700 18.25800 40.30100
C  -11.33200 19.21100 39.77000
C  -12.18600 20.31400 39.21000
C  -13.50100 19.90300 39.47700
C  -13.45800 18.56500 40.00600
C  -11.51300 21.58500 38.57100
C  -14.70800 20.68100 39.03400
O  -14.61200 21.75500 38.43700
C  -16.09400 20.26600 39.39900
N  -13.39200 15.58500 41.18000
C  -14.52500 16.37900 40.95800
C  -15.85000 15.62000 41.20100
C  -15.38800 14.41400 42.02600
C  -13.77200 14.58200 41.99300
C  -17.05200 16.37200 41.76100
C  -15.88500 13.05500 41.47800
C  -16.47700 12.18300 42.56000
N  -10.76700 14.48900 41.76300
C  -11.50200 13.38300 42.19200
C  -10.56600 12.26500 42.29100
C  -9.34400 12.72100 41.82100
C  -9.54900 14.04700 41.42200
C  -10.93300 10.88400 42.75900
C  -7.99500 12.34800 41.65600
O  -7.47600 11.23800 41.86200
C  -7.28200 13.51500 40.89700
C  -6.11300 13.88000 41.61700
O  -6.07100 14.33900 42.74200
O  -4.98600 13.63600 40.81200
C  -3.67400 14.23800 41.34100
H  -9.44000 19.97500 39.15500
H  -15.48200 18.00600 40.07000
H  -13.41700 12.57800 42.74000
H  -6.34600 16.54100 40.25800
H  -7.53300 18.36200 38.39100
H  -7.56400 19.62700 41.02800
H  -6.59400 20.05000 39.65100
H  -6.09500 18.65900 40.74400
H  -7.10200 16.24500 37.29400
H  -7.13900 14.79500 38.16800
H  -4.87600 14.70700 38.27000
H  -4.74000 16.37200 38.78300
H  -10.56400 21.38500 38.07300
H  -11.29100 22.28600 39.37700
H  -12.16800 21.95700 37.78300
H  -16.68700 21.17500 39.29800
H  -16.15200 19.88000 40.41700
H  -16.45100 19.53100 38.67600
H  -16.08200 15.27300 40.19400
H  -15.76800 14.43900 43.04700
H  -17.92400 16.14900 41.14600
H  -16.85800 17.44300 41.81700
H  -17.13300 15.99100 42.77900
H  -15.07500 12.56400 40.93800
H  -16.75700 13.04300 40.82400
H  -17.55200 12.02900 42.47000
H  -16.31600 12.44800 43.60500
H  -15.99500 11.22700 42.35500
H  -11.78700 10.47000 42.22300
H  -11.09300 10.82400 43.83600
H  -10.10300 10.21400 42.53700
H  -7.07000 13.11800 39.90400
H  -2.79700 13.82300 40.84400
H  -3.53200 13.95700 42.38500
H  -3.75200 15.32300 41.26700

