158

Mg 47.11600 24.72200 28.82600
C  47.86300 27.32600 31.00000
C  45.81900 22.98500 31.60100
C  46.60000 22.14700 26.77800
C  48.93600 26.37000 26.26800
N  46.82100 25.09000 31.01200
C  47.15900 26.29600 31.62600
C  46.66500 26.27500 33.07700
C  46.58900 24.73300 33.30700
C  46.44600 24.18300 31.91900
C  47.76700 24.02000 33.91400
C  45.30300 26.94900 33.34400
C  45.37400 27.97400 34.56900
H  45.82800 27.61900 36.03800
N  46.29200 22.82300 29.12100
C  45.73700 22.31100 30.26600
C  45.09100 21.02800 29.92700
C  45.25000 20.83900 28.52800
C  46.11200 21.95500 28.07200
C  44.43600 20.20000 30.94400
C  44.71700 19.72000 27.58000
O  45.05500 19.61200 26.42300
C  43.93100 18.69100 28.21100
N  47.85900 24.26700 26.81600
C  47.37100 23.12800 26.19500
C  47.93800 23.05100 24.73200
C  48.56900 24.44200 24.50100
C  48.48000 25.13800 25.92100
C  48.91500 21.90700 24.34200
C  47.84900 25.37500 23.40000
C  48.77900 26.04400 22.37500
N  48.16800 26.49100 28.64000
C  48.76300 27.02800 27.51100
C  49.31800 28.38800 27.89000
C  48.97500 28.49100 29.26500
C  48.25300 27.35100 29.65100
C  49.92300 29.40000 26.94400
C  49.16400 29.35500 30.43300
O  49.77700 30.38000 30.60700
C  48.43600 28.55700 31.60700
C  49.43000 28.29500 32.69900
O  50.39800 27.55300 32.80800
O  48.97600 29.04200 33.75700
C  49.64800 28.91000 35.09100
H  45.27200 22.52600 32.42700
H  46.55800 21.33200 26.05200
H  49.45300 26.95800 25.50600
H  47.45600 26.66300 33.71900
H  45.80200 24.38600 33.97700
H  47.80700 22.96100 33.65700
H  47.75400 24.08400 35.00200
H  48.72400 24.39600 33.55400
H  44.60800 26.16500 33.64600
H  44.98200 27.54700 32.49100
H  44.35300 28.33800 34.68900
H  46.03100 28.75400 34.18500
H  44.06900 20.77500 31.79400
H  45.18800 19.57700 31.42900
H  43.62800 19.62400 30.49200
H  43.00300 19.14200 28.56400
H  44.51300 18.29100 29.04100
H  43.75200 17.95800 27.42500
H  47.12200 22.88400 24.02900
H  49.60700 24.48300 24.17100
H  49.58100 22.27300 23.56100
H  48.31500 21.05200 24.03100
H  49.49500 21.62300 25.22000
H  47.37000 26.19500 23.93500
H  47.00100 24.85100 22.95900
H  48.98500 27.07700 22.65600
H  48.37700 25.97200 21.36400
H  49.76500 25.58200 22.33100
H  49.46900 30.35900 27.19300
H  49.67200 29.19100 25.90400
H  51.00500 29.46700 27.05400
H  47.65600 29.27200 31.86800
H  48.83000 28.60000 35.74100
H  49.99600 29.87400 35.46100
H  50.47000 28.19600 35.15100
Mg -4.88400 26.08000 25.80500
C  -3.15700 27.30700 28.65000
C  -6.38700 23.78800 28.12200
C  -5.98700 24.37600 23.28000
C  -2.92600 28.10500 23.87000
N  -4.88200 25.64900 28.06000
C  -4.14000 26.35000 28.96600
C  -4.55100 25.98500 30.41000
C  -5.35000 24.65100 30.25200
C  -5.60400 24.69600 28.72600
C  -4.62700 23.32200 30.78700
C  -5.31700 27.11300 31.14500
C  -5.08300 27.22800 32.70600
H  -4.90100 25.97000 33.56200
N  -6.16900 24.42000 25.69300
C  -6.69400 23.68400 26.75000
C  -7.59100 22.72100 26.20000
C  -7.54700 22.86800 24.78400
C  -6.55300 23.95400 24.50500
C  -8.33500 21.74800 27.14600
C  -8.32100 22.08500 23.73700
O  -8.18100 22.17300 22.51900
C  -9.54600 21.23200 24.13100
N  -4.43800 26.23800 23.80900
C  -5.02400 25.33400 22.96200
C  -4.69300 25.65700 21.49500
C  -3.84400 26.95700 21.67300
C  -3.80800 27.21900 23.21700
C  -3.84300 24.53200 20.77200
C  -4.41200 28.33400 21.05100
C  -3.49600 29.00100 19.99700
N  -3.35700 27.37600 26.12700
C  -2.67300 28.25200 25.25900
C  -1.95100 29.26400 25.92000
C  -2.06100 28.88900 27.26700
C  -2.87400 27.73400 27.36500
C  -1.09600 30.34000 25.31500
C  -1.58100 29.21000 28.59300
O  -0.85000 30.13300 28.96700
C  -2.31600 28.18500 29.60400
C  -1.14700 27.44900 30.20300
O  -0.35300 26.83100 29.55300
O  -1.06000 27.51200 31.56900
C  0.06800 26.81600 32.15000
H  -6.87100 23.18400 28.89200
H  -6.37900 23.87700 22.39100
H  -2.29100 28.66400 23.18000
H  -3.65400 25.75000 30.98300
H  -6.31200 24.73900 30.75800
H  -4.74700 23.31000 31.87000
H  -3.64800 23.48800 30.33600
H  -4.96400 22.39100 30.33100
H  -6.37800 26.90800 30.99600
H  -5.22400 27.99400 30.51100
H  -5.94000 27.75200 33.12800
H  -4.15100 27.79300 32.70800
H  -9.25100 22.21000 27.51400
H  -7.77800 21.50700 28.05100
H  -8.42200 20.78400 26.64400
H  -10.16000 21.01300 23.25800
H  -10.14400 21.73900 24.88800
H  -9.22300 20.24100 24.45200
H  -5.62700 25.94400 21.01100
H  -2.77900 26.82400 21.48200
H  -3.22300 25.00700 20.01200
H  -4.59800 23.82500 20.43000
H  -3.19800 24.10200 21.53900
H  -4.56500 29.02100 21.88200
H  -5.35100 28.26100 20.50200
H  -3.92800 29.14600 19.00600
H  -2.64600 28.34400 19.81500
H  -3.12100 29.91100 20.46400
H  -1.21500 30.19600 24.24100
H  -0.04100 30.10200 25.45300
H  -1.39300 31.32900 25.66400
H  -2.93400 28.80000 30.25800
H  -0.14300 25.83400 32.57200
H  0.34800 27.61200 32.84100
H  0.97700 26.80400 31.54900

