158

Mg 47.37500 25.77300 27.62500
C  48.17400 28.18200 30.15300
C  47.02400 23.49500 30.13900
C  46.91800 23.40600 25.21800
C  48.91000 27.83600 25.26300
N  47.51300 25.89100 29.81400
C  47.72700 26.97000 30.66600
C  47.59300 26.64800 32.11100
C  47.50300 25.08300 32.05200
C  47.33900 24.81400 30.60900
C  48.72000 24.28300 32.70900
C  46.44500 27.45600 32.78900
C  45.84300 26.96200 34.12900
H  45.80300 27.93200 35.28900
N  46.90600 23.72900 27.63300
C  46.79500 22.97000 28.82900
C  46.29200 21.63400 28.53000
C  46.19000 21.60200 27.04700
C  46.74400 22.89100 26.55400
C  46.10700 20.56800 29.55600
C  45.69700 20.48800 26.15700
O  45.75800 20.59300 24.93600
C  45.13500 19.25500 26.64400
N  47.79700 25.62500 25.51000
C  47.52300 24.58100 24.69100
C  47.89800 24.87400 23.21400
C  48.08200 26.42700 23.25400
C  48.32100 26.63900 24.75700
C  49.03600 23.94800 22.73800
C  46.92200 27.29000 22.65000
C  47.35500 28.49800 21.79800
N  48.29000 27.64800 27.63900
C  48.93300 28.26800 26.63100
C  49.34600 29.59200 27.13400
C  49.06600 29.59600 28.51800
C  48.47200 28.38000 28.79100
C  49.88000 30.70000 26.32400
C  49.15600 30.38900 29.76400
O  49.68200 31.51200 29.93100
C  48.58100 29.48400 30.93500
C  49.62700 29.28800 31.95500
O  50.54000 28.40900 32.00900
O  49.25900 30.05900 33.06000
C  49.82400 29.57200 34.31700
H  46.87300 22.71000 30.88400
H  46.85000 22.67700 24.40800
H  49.32600 28.48200 24.48800
H  48.58400 26.90400 32.48400
H  46.65000 24.77100 32.65500
H  49.51000 24.91900 33.10800
H  49.24900 23.71600 31.94300
H  48.33600 23.58200 33.45000
H  45.61000 27.55200 32.09600
H  46.90800 28.43000 32.94900
H  46.22100 25.96600 34.36100
H  44.77700 26.77000 34.01100
H  45.07400 20.22500 29.51300
H  46.19400 20.88000 30.59600
H  46.77700 19.76000 29.26400
H  44.21600 19.40400 27.20900
H  45.92700 18.72800 27.17500
H  44.78000 18.72600 25.76000
H  47.04900 24.60900 22.58500
H  49.03800 26.52000 22.73900
H  49.38100 23.38000 23.60100
H  49.80900 24.57500 22.29400
H  48.52800 23.26800 22.05400
H  46.31500 27.63900 23.48500
H  46.22900 26.66300 22.08900
H  47.45000 29.37600 22.43800
H  46.53400 28.65200 21.09800
H  48.26300 28.32500 21.22000
H  49.16100 31.06600 25.59100
H  50.81100 30.47900 25.80300
H  50.09400 31.47100 27.06500
H  47.71300 29.89600 31.45100
H  50.90800 29.48400 34.23700
H  49.29400 28.64100 34.51500
H  49.63400 30.33900 35.06900
Mg 49.22200 36.53000 27.34500
C  47.17900 34.79300 29.74800
C  48.99100 39.31400 29.29500
C  50.76900 38.12100 24.91600
C  48.61500 33.76500 25.26900
N  48.18100 36.97800 29.29500
C  47.55000 36.09700 30.11700
C  47.16500 36.81300 31.43200
C  47.60700 38.29100 31.18300
C  48.32200 38.19600 29.83500
C  46.57500 39.45500 31.30100
C  47.81500 36.23100 32.80400
C  46.73900 36.04000 33.99200
H  46.50200 37.18600 35.02600
N  49.86000 38.48700 27.15100
C  49.78100 39.46000 28.09900
C  50.53700 40.63600 27.62400
C  51.12500 40.29700 26.29000
C  50.62100 38.94500 26.06900
C  50.71100 41.84300 28.59500
C  51.97100 41.16300 25.41400
O  52.32600 40.76300 24.29700
C  52.35100 42.59800 25.82900
N  49.48300 36.09600 25.43200
C  50.24800 36.86900 24.68600
C  50.56100 36.22400 23.28500
C  50.19900 34.69800 23.59000
C  49.33300 34.82300 24.81600
C  49.60600 36.86800 22.27000
C  51.40600 33.66700 23.67000
C  51.23200 32.31300 22.94100
N  48.16800 34.59200 27.46200
C  47.93700 33.63900 26.48700
C  46.98800 32.59500 27.00800
C  46.80400 32.98000 28.34100
C  47.46800 34.17800 28.52800
C  46.51200 31.39800 26.27800
C  46.09700 32.59600 29.60500
O  45.39100 31.62200 29.93300
C  46.44600 33.70900 30.58400
C  47.03700 33.01200 31.82000
O  48.16300 32.85000 32.17300
O  45.95000 32.61100 32.59600
C  46.30100 31.80000 33.74200
H  48.92700 40.12800 30.02000
H  51.20200 38.67400 24.08000
H  48.42000 32.97800 24.53800
H  46.08200 36.73100 31.51900
H  48.35800 38.60100 31.90900
H  46.57200 40.01700 30.36700
H  46.76200 40.19000 32.08300
H  45.65400 38.93000 31.55700
H  48.53100 36.99200 33.11500
H  48.35700 35.28900 32.72400
H  46.93900 35.08000 34.46900
H  45.72800 35.95300 33.59300
H  50.75700 41.44600 29.61000
H  49.91900 42.57200 28.43000
H  51.61900 42.44600 28.58200
H  52.98000 42.46600 26.70900
H  51.52800 43.25900 26.10000
H  52.90700 43.16700 25.08500
H  51.56700 36.42600 22.91600
H  49.48100 34.38900 22.83000
H  49.23600 37.75000 22.79300
H  48.86100 36.18300 21.86500
H  50.17700 37.30200 21.44900
H  51.57600 33.50500 24.73400
H  52.26300 34.27600 23.37800
H  51.42000 31.49300 23.63300
H  51.95900 32.37400 22.13200
H  50.24100 32.26900 22.48900
H  45.48700 31.60600 25.97200
H  46.60700 30.52200 26.92000
H  47.10600 31.21800 25.38100
H  45.46700 34.17500 30.69900
H  46.50700 30.77500 33.43500
H  45.43500 31.78400 34.40300
H  47.21200 32.10600 34.25600

