158

Mg 0.94800 8.79500 26.73700
C  1.41700 10.73300 29.46200
C  1.28900 6.02900 28.64200
C  0.77300 7.02800 23.90200
C  0.59400 11.76700 24.84000
N  1.46400 8.43300 28.86100
C  1.42900 9.39800 29.82300
C  1.26300 8.81200 31.24300
C  1.62400 7.28800 30.87200
C  1.41800 7.21000 29.37400
C  2.97100 6.72600 31.51600
C  -0.08900 9.08400 31.85700
C  -0.23100 9.22200 33.35300
H  0.94300 8.74500 34.26200
N  1.02700 6.79600 26.32900
C  1.15100 5.81500 27.27700
C  1.22200 4.54700 26.64700
C  1.10400 4.78100 25.20700
C  0.93800 6.21800 25.07900
C  1.26000 3.22500 27.46000
C  0.90600 3.80200 23.98900
O  0.74100 4.13200 22.81500
C  1.13200 2.31000 24.23700
N  0.66400 9.36300 24.72800
C  0.64000 8.40900 23.72600
C  0.48300 8.97800 22.30200
C  0.22800 10.47600 22.62200
C  0.49100 10.56900 24.15800
C  1.68900 8.72500 21.39400
C  -1.22100 10.98800 22.24900
C  -1.34000 12.06200 21.17000
N  1.13100 10.79700 27.04000
C  0.95600 11.90500 26.19800
C  1.16100 13.13600 26.97000
C  1.35700 12.70300 28.25600
C  1.31200 11.31700 28.23600
C  1.11300 14.56100 26.42300
C  1.64900 13.11000 29.53100
O  1.95500 14.18700 29.93700
C  1.40100 11.86000 30.45100
C  2.46700 11.83100 31.49900
O  3.61700 11.51900 31.24400
O  1.90100 12.06300 32.69600
C  2.76800 11.94200 33.90700
H  1.44000 5.14000 29.25900
H  0.73600 6.65300 22.87800
H  0.56400 12.68200 24.24600
H  2.13600 9.12900 31.81400
H  0.82500 6.69600 31.31800
H  2.70100 5.88900 32.16100
H  3.53500 7.53600 31.97800
H  3.60200 6.35700 30.70700
H  -0.84000 8.34300 31.58300
H  -0.53100 9.95400 31.37100
H  -1.13300 8.69400 33.66500
H  -0.52300 10.23600 33.62600
H  1.27600 2.34400 26.82000
H  0.34700 3.21700 28.05500
H  2.14500 3.27700 28.09500
H  0.23600 1.89000 24.69300
H  2.06400 2.30800 24.80200
H  1.27000 1.76200 23.30500
H  -0.39300 8.50600 21.85600
H  0.97000 11.07500 22.09500
H  2.59400 8.45100 21.93700
H  1.92200 9.60100 20.78900
H  1.42100 7.88900 20.74800
H  -1.71900 11.24200 23.18500
H  -1.83100 10.17600 21.85200
H  -0.61600 11.86900 20.37800
H  -1.11900 12.96200 21.74400
H  -2.31300 12.19000 20.69600
H  1.90500 14.65600 25.67900
H  1.01000 15.36400 27.15300
H  0.11600 14.60200 25.98600
H  0.50200 12.00200 31.05100
H  3.15400 12.96100 33.92500
H  3.53700 11.17300 33.83100
H  2.17300 11.73500 34.79600
Mg 50.04600 35.44700 26.78200
C  47.57800 34.11900 28.85400
C  49.90100 38.37700 28.64500
C  52.09400 36.84100 24.46000
C  49.82400 32.50600 24.73800
N  48.91100 36.12100 28.56700
C  48.00500 35.37100 29.29300
C  47.64000 35.99600 30.60500
C  48.04500 37.49200 30.29700
C  49.13200 37.32400 29.22800
C  46.86700 38.44000 29.92600
C  48.28900 35.40900 31.85100
C  47.55100 35.12400 33.10600
H  47.77300 36.07300 34.33000
N  50.85300 37.27100 26.61200
C  50.67400 38.33900 27.48200
C  51.37500 39.49500 26.94600
C  52.12700 39.07700 25.79600
C  51.68500 37.69300 25.54100
C  51.41400 40.87000 27.66300
C  53.10100 39.88500 24.92700
O  53.50500 39.43300 23.85900
C  53.61500 41.20700 25.42700
N  50.58100 34.82600 24.69000
C  51.67200 35.47800 24.09300
C  52.22200 34.70800 22.86000
C  51.57600 33.27500 23.02400
C  50.61300 33.53300 24.26500
C  52.02600 35.23300 21.50600
C  52.57700 32.10100 23.35100
C  53.43800 31.62400 22.23700
N  49.04700 33.59800 26.84700
C  49.00000 32.57200 25.90600
C  48.09500 31.57000 26.32800
C  47.44300 32.13700 27.46800
C  48.06100 33.37200 27.69200
C  47.91500 30.20000 25.69600
C  46.51600 31.89700 28.49700
O  45.72700 30.94200 28.77900
C  46.52200 33.12200 29.37900
C  46.76400 32.69600 30.79400
O  47.82900 32.36100 31.18400
O  45.58600 32.65000 31.55400
C  45.63200 31.72300 32.67800
H  49.82000 39.23700 29.31400
H  52.77400 37.23000 23.69900
H  49.95500 31.52900 24.26700
H  46.56700 35.91200 30.77700
H  48.61000 38.03000 31.05800
H  47.04500 38.85700 28.93500
H  46.79900 39.14700 30.75300
H  45.92900 37.88500 29.91100
H  48.98500 36.20400 32.11800
H  48.98100 34.62200 31.55000
H  47.79400 34.10000 33.38900
H  46.49000 35.08000 32.86000
H  51.27300 41.60600 26.87100
H  52.43500 41.13000 27.94200
H  50.74100 41.17600 28.46400
H  52.88400 42.00000 25.27100
H  54.54300 41.49100 24.93200
H  53.78800 41.12600 26.50100
H  53.29200 34.62900 23.05300
H  51.08000 32.89800 22.13000
H  52.98400 35.41800 21.02100
H  51.53800 36.20800 21.48700
H  51.40100 34.59400 20.88200
H  52.08900 31.19400 23.70900
H  53.12900 32.62400 24.13100
H  53.32600 30.54500 22.13000
H  54.49700 31.87600 22.29400
H  53.01000 32.06200 21.33500
H  48.23400 30.21500 24.65400
H  46.87600 29.90100 25.56300
H  48.35700 29.39900 26.28800
H  45.55500 33.62500 29.37200
H  44.99800 32.19800 33.42600
H  46.62800 31.51700 33.07000
H  45.12700 30.79500 32.41200

