158

Mg 1.52400 -1.94300 44.16900
C  4.92100 -1.05900 43.70500
C  0.75300 1.06500 42.60500
C  -1.61000 -3.04700 43.94400
C  2.65600 -5.19700 44.98000
N  2.69000 -0.17900 43.27700
C  4.10500 -0.03200 43.23900
C  4.54600 1.26700 42.58900
C  3.15900 2.06100 42.51300
C  2.08000 0.95400 42.84500
C  2.93600 3.33100 43.36200
C  5.18800 0.96500 41.26500
C  6.64100 1.55700 41.11500
H  6.64800 2.54400 39.90800
N  -0.19800 -1.15700 43.34800
C  -0.31700 0.10300 42.73600
C  -1.61400 0.27500 42.17200
C  -2.41600 -0.90000 42.51700
C  -1.44300 -1.78100 43.31600
C  -1.94900 1.35700 41.23500
C  -3.80700 -1.15900 42.10500
O  -4.35500 -0.22800 41.48400
C  -4.49900 -2.46500 42.45300
N  0.71300 -3.84100 44.39200
C  -0.68000 -3.99500 44.42400
C  -1.14700 -5.48400 44.66500
C  0.27000 -6.11700 44.88500
C  1.27000 -4.96400 44.84400
C  -2.06400 -5.72500 45.93200
C  0.46200 -7.26600 43.80200
C  0.01100 -8.69200 44.23800
N  3.43700 -2.96100 44.52400
C  3.75500 -4.25800 44.83200
C  5.17800 -4.39700 44.89400
C  5.62800 -3.14500 44.62900
C  4.55200 -2.32700 44.26300
C  5.80600 -5.70600 45.20700
C  6.81900 -2.44000 44.48000
O  7.98400 -2.79600 44.70300
C  6.40600 -1.01700 43.96300
C  6.78000 0.09600 44.88600
O  6.10600 0.43800 45.78400
O  7.91000 0.76200 44.47900
C  8.37600 2.02100 45.17800
H  0.62200 2.06100 42.17700
H  -2.68100 -3.25100 43.88300
H  3.01200 -6.17500 45.31000
H  5.22200 1.81200 43.24800
H  2.85400 2.37800 41.51500
H  3.97600 3.62700 43.50500
H  2.47900 3.15800 44.33600
H  2.45000 4.18300 42.88700
H  4.57900 1.34000 40.44200
H  5.21300 -0.09200 40.99900
H  7.35100 0.74100 40.98000
H  6.89900 2.04800 42.05400
H  -2.30200 0.95400 40.28600
H  -1.13300 2.00700 40.91800
H  -2.67700 1.98700 41.74600
H  -5.45200 -2.54600 41.93100
H  -4.63900 -2.54900 43.53000
H  -3.92900 -3.28600 42.01700
H  -1.57400 -5.73700 43.69500
H  0.42400 -6.63800 45.83000
H  -3.09100 -5.53500 45.62200
H  -1.64800 -5.04500 46.67500
H  -2.08100 -6.71100 46.39500
H  1.51300 -7.28900 43.51500
H  -0.00900 -6.90000 42.89000
H  -0.71100 -9.07900 43.51900
H  -0.46100 -8.67500 45.22000
H  0.86100 -9.37000 44.31400
H  5.58200 -6.36300 44.36700
H  5.47500 -6.08200 46.17500
H  6.85300 -5.48200 45.41100
H  6.92700 -0.85600 43.01900
H  8.18900 2.94800 44.63700
H  9.45500 2.06300 45.32600
H  7.88400 2.07900 46.14900
Mg 17.67500 -1.72800 27.59000
C  16.53100 0.08100 30.45000
C  19.71800 -3.43600 29.69500
C  19.37700 -2.71300 24.80400
C  15.79400 0.46300 25.65700
N  18.13300 -1.53500 29.87500
C  17.42400 -0.86100 30.81700
C  17.91600 -1.20100 32.30400
C  19.01500 -2.29100 31.98600
C  18.94900 -2.45700 30.39200
C  20.36200 -2.01100 32.56600
C  16.70400 -1.60700 33.21800
C  16.60200 -0.92200 34.59900
H  17.80500 -0.26000 35.20400
N  19.12100 -3.03000 27.29000
C  19.81600 -3.70700 28.30900
C  20.67600 -4.73900 27.66900
C  20.61700 -4.45700 26.28100
C  19.64000 -3.33000 26.02600
C  21.28900 -5.90300 28.46900
C  21.62100 -5.12000 25.16900
O  21.42900 -4.80100 23.96300
C  22.63700 -6.04800 25.65400
N  17.62300 -1.15900 25.52900
C  18.43200 -1.71600 24.57900
C  18.13000 -1.16200 23.21400
C  16.83300 -0.36200 23.40600
C  16.70700 -0.30200 24.93300
C  19.34900 -0.40900 22.53900
C  15.52700 -1.00600 22.81600
C  14.49800 -0.03000 22.20700
N  16.29500 -0.17700 27.88700
C  15.65400 0.62000 27.01700
C  14.74500 1.53600 27.65700
C  15.12300 1.43400 29.03200
C  16.06500 0.32500 29.09700
C  13.87000 2.47500 26.97200
C  14.84300 1.89700 30.44600
O  13.98000 2.69700 30.87100
C  15.82300 1.09600 31.38000
C  16.71900 2.09600 31.94500
O  17.84600 2.41600 31.54200
O  15.98800 2.66600 32.93600
C  16.77700 3.67400 33.62300
H  20.35300 -4.03300 30.35200
H  20.06100 -2.93700 23.98300
H  15.27300 1.14900 24.98500
H  18.38600 -0.29300 32.68100
H  18.70900 -3.13500 32.60400
H  20.52800 -2.67800 33.41200
H  20.50800 -0.98000 32.88600
H  21.15500 -2.18000 31.83700
H  16.68000 -2.69600 33.23500
H  15.78900 -1.35200 32.68200
H  16.21000 -1.66000 35.29900
H  15.77000 -0.21800 34.61100
H  21.01100 -6.82600 27.96000
H  20.84500 -5.94400 29.46400
H  22.37300 -5.80000 28.51100
H  23.46600 -5.69700 26.26800
H  23.01900 -6.44600 24.71400
H  22.00800 -6.76900 26.17800
H  17.79100 -2.01900 22.63200
H  16.88300 0.63500 22.96800
H  20.28300 -0.54000 23.08600
H  19.14200 0.66000 22.58300
H  19.40200 -0.66600 21.48100
H  15.07100 -1.51400 23.66600
H  15.68800 -1.77100 22.05600
H  14.40900 -0.08500 21.12200
H  14.64100 1.02200 22.45200
H  13.53800 -0.28300 22.65600
H  13.18900 1.91900 26.32800
H  14.48400 3.14200 26.36600
H  13.26100 3.04700 27.67300
H  15.22100 0.69500 32.19600
H  16.91500 4.47200 32.89400
H  17.63400 3.19500 34.09700
H  16.20100 4.02900 34.47700

