158

Mg 30.71700 58.00800 39.94500
C  27.79300 56.14800 39.03300
C  32.55500 55.24400 39.09600
C  33.39400 59.89100 40.18100
C  28.53000 60.80500 40.39200
N  30.17200 55.99200 38.99400
C  28.95900 55.37300 38.88800
C  29.13100 53.97000 38.22200
C  30.54100 53.67900 38.87300
C  31.14000 55.10000 38.99900
C  30.37500 52.89400 40.19900
C  29.06200 54.02400 36.63700
C  27.91800 53.24200 35.87100
H  27.03000 54.10300 34.93100
N  32.66400 57.61700 39.74000
C  33.25500 56.45500 39.36700
C  34.71400 56.58700 39.39300
C  35.01100 57.98300 39.60700
C  33.65100 58.54900 39.89900
C  35.64200 55.49800 38.90600
C  36.38300 58.71100 39.56100
O  37.33400 58.09600 39.13300
C  36.61600 60.14500 39.94100
N  30.93200 60.13800 40.07200
C  32.19000 60.62900 40.38200
C  32.08200 62.09900 40.77800
C  30.49600 62.31200 40.77300
C  29.90700 61.00800 40.41600
C  32.77500 62.29600 42.16300
C  30.05500 63.48900 39.82000
C  29.51500 64.71100 40.55500
N  28.58100 58.49000 39.85800
C  27.86500 59.62500 40.03200
C  26.46900 59.39300 39.78900
C  26.35500 57.97600 39.45100
C  27.65500 57.51900 39.43300
C  25.39000 60.34700 39.89800
C  25.43700 56.85200 39.23800
O  24.24000 56.71300 39.34900
C  26.36400 55.60800 38.88400
C  26.05100 54.52000 39.72400
O  26.32400 54.44600 40.89900
O  25.31400 53.56000 38.98700
C  24.79500 52.37200 39.77600
H  33.16700 54.34900 38.96600
H  34.21700 60.55600 40.45400
H  27.82800 61.61500 40.60100
H  28.35000 53.39200 38.71600
H  31.16200 53.02700 38.26000
H  29.48700 52.27000 40.29200
H  30.56200 53.48900 41.09300
H  31.27700 52.28200 40.19300
H  30.05200 53.71000 36.30500
H  28.95300 55.08400 36.40900
H  27.18200 52.93600 36.61500
H  28.42100 52.45300 35.31200
H  35.06500 54.83600 38.26000
H  36.19100 54.90100 39.63300
H  36.41900 56.03000 38.35700
H  36.27400 60.80100 39.14100
H  37.69800 60.27900 39.94500
H  36.22900 60.33700 40.94200
H  32.63200 62.58400 39.97100
H  30.14700 62.33400 41.80600
H  32.10800 62.63000 42.95800
H  33.50500 63.03700 41.83900
H  33.26500 61.36400 42.44700
H  29.22600 63.18900 39.17900
H  30.95400 63.83600 39.31100
H  28.44900 64.65300 40.77400
H  29.71800 65.55300 39.89300
H  29.98600 64.82500 41.53100
H  24.58100 59.71200 40.25700
H  25.16500 60.76600 38.91700
H  25.77700 61.01000 40.67200
H  26.21700 55.32500 37.84200
H  23.73900 52.64100 39.80400
H  25.24400 52.32400 40.76800
H  24.94000 51.45800 39.20000
Mg 27.23900 50.39600 26.10000
C  25.07700 51.26400 28.89900
C  29.44900 49.27900 28.45700
C  29.37200 50.07200 23.63200
C  24.85200 51.82600 23.90000
N  27.31800 50.46600 28.39600
C  26.27200 50.69200 29.27600
C  26.59500 50.29100 30.70000
C  28.03100 49.71200 30.54100
C  28.27100 49.79300 29.03200
C  29.18700 50.38200 31.38300
C  25.59700 49.28400 31.29400
C  24.88100 49.74100 32.50900
H  25.78900 50.26200 33.74500
N  29.19500 49.72600 26.04700
C  29.96000 49.29700 27.16500
C  31.23000 48.87000 26.55200
C  31.22600 49.09100 25.18100
C  29.90300 49.61000 24.91800
C  32.29900 48.20400 27.41400
C  32.36900 48.86200 24.17900
O  32.27500 49.30100 23.04700
C  33.66400 48.21700 24.63000
N  27.24700 51.20700 24.09000
C  28.19100 50.70400 23.31400
C  27.71400 50.80400 21.77500
C  26.21400 51.15000 21.88200
C  26.09700 51.41400 23.36000
C  28.54700 51.74000 20.81900
C  25.25600 49.97700 21.48800
C  24.33200 50.46600 20.33300
N  25.39200 51.38600 26.33300
C  24.50100 51.85900 25.33700
C  23.28200 52.33800 25.98400
C  23.48500 52.18700 27.39500
C  24.73900 51.57300 27.57500
C  22.08600 52.98400 25.37000
C  22.90900 52.36200 28.65900
O  21.86300 52.97100 28.92900
C  23.94000 51.83200 29.75200
C  24.38600 52.90800 30.69100
O  25.42100 53.60600 30.61900
O  23.41900 53.07600 31.60200
C  23.86400 53.73300 32.85100
H  30.02100 48.71200 29.19500
H  29.84700 49.70300 22.72100
H  23.99100 52.06400 23.27200
H  26.55800 51.19900 31.30200
H  28.04500 48.66600 30.84900
H  28.81900 50.94100 32.24300
H  29.90600 51.04600 30.90400
H  29.81700 49.55200 31.70300
H  26.02300 48.28800 31.41600
H  24.83600 49.16300 30.52400
H  24.30600 48.94100 32.97600
H  24.16600 50.52300 32.25500
H  32.54600 47.18800 27.10700
H  31.92100 47.98200 28.41200
H  33.16300 48.86700 27.38900
H  33.38500 47.25500 25.05800
H  34.17500 48.82200 25.38000
H  34.21500 47.93700 23.73200
H  27.71800 49.80200 21.34400
H  26.19700 52.13100 21.40900
H  29.53500 51.90800 21.24800
H  27.98600 52.66800 20.70600
H  28.69300 51.21000 19.87800
H  24.65400 49.72200 22.36000
H  25.93600 49.13900 21.33800
H  24.82100 50.40100 19.36100
H  24.05900 51.50500 20.52100
H  23.34900 49.99800 20.27900
H  21.95400 52.80100 24.30400
H  22.09300 54.02400 25.69700
H  21.20300 52.64100 25.91000
H  23.47100 50.97900 30.24300
H  24.40400 54.64800 32.60900
H  24.56700 53.14800 33.44300
H  23.00800 53.97200 33.48200

