158

Mg -1.84200 18.23100 27.02100
C  -2.34200 16.08900 29.66100
C  -2.83900 20.88900 28.82300
C  -1.62600 20.07000 24.17600
C  -1.71200 15.30900 25.01700
N  -2.35400 18.45900 29.01100
C  -2.37900 17.46500 29.97700
C  -2.69400 18.03300 31.36600
C  -3.16300 19.49600 31.07800
C  -2.80100 19.65900 29.56600
C  -4.65000 19.95300 31.49400
C  -1.51400 17.85400 32.34300
C  -1.87800 17.37400 33.74400
H  -0.78400 17.39400 34.81900
N  -2.09000 20.22500 26.56300
C  -2.43000 21.20700 27.44600
C  -2.32000 22.52500 26.79700
C  -1.83300 22.24900 25.46800
C  -1.82500 20.81400 25.38200
C  -2.40900 23.85800 27.48700
C  -1.36400 23.22800 24.37300
O  -1.00000 22.89400 23.29900
C  -1.30900 24.67000 24.73700
N  -1.69400 17.76200 24.95200
C  -1.58900 18.73200 23.97400
C  -1.36300 18.06300 22.53800
C  -1.06600 16.56200 22.95900
C  -1.58500 16.49900 24.37300
C  -2.46300 18.34700 21.44300
C  0.46400 16.03200 22.83400
C  1.59900 16.95700 23.50600
N  -1.97100 16.12200 27.24200
C  -1.84500 15.09500 26.35200
C  -1.80700 13.79700 27.06800
C  -2.04500 14.15300 28.39800
C  -2.15400 15.54300 28.40600
C  -1.58000 12.40900 26.43000
C  -2.17200 13.67300 29.71600
O  -2.17100 12.50400 30.12200
C  -2.33600 14.86100 30.63800
C  -1.24300 14.69200 31.60400
O  -0.15400 15.07500 31.33000
O  -1.66600 14.04000 32.73800
C  -0.46700 13.59500 33.52700
H  -3.03000 21.77300 29.43600
H  -1.48000 20.57800 23.22100
H  -1.51700 14.43200 24.39600
H  -3.49900 17.41100 31.75600
H  -2.58500 20.25200 31.60800
H  -5.11400 19.12700 32.03300
H  -5.22300 20.40400 30.68400
H  -4.56900 20.66100 32.31900
H  -1.01500 18.80300 32.53600
H  -0.74000 17.24400 31.87700
H  -2.19000 16.33100 33.69000
H  -2.77300 17.83600 34.16000
H  -2.58700 23.75500 28.55800
H  -3.19800 24.46000 27.03900
H  -1.54200 24.50900 27.37500
H  -0.55600 24.67700 25.52500
H  -2.33400 24.83800 25.06600
H  -1.09700 25.29800 23.87100
H  -0.47900 18.49200 22.06700
H  -1.67500 15.99600 22.25500
H  -3.30800 17.66200 21.50300
H  -2.09900 18.39800 20.41700
H  -2.83100 19.32300 21.76100
H  0.64700 15.95200 21.76300
H  0.50200 15.15400 23.47900
H  1.19500 17.94400 23.73200
H  2.55200 16.95900 22.97800
H  1.77900 16.55000 24.50100
H  -2.52000 12.04400 26.01700
H  -1.25900 11.62800 27.12000
H  -0.82900 12.52900 25.64900
H  -3.30900 14.71400 31.10600
H  -0.45900 14.14100 34.47000
H  0.51700 13.73100 33.07700
H  -0.61500 12.52900 33.70300
Mg 30.03900 57.54800 40.55900
C  27.33500 55.55100 39.93400
C  32.19800 55.17800 39.46200
C  32.68600 59.71700 40.75100
C  27.96100 60.05100 41.77900
N  29.77700 55.65700 39.61400
C  28.55500 54.98000 39.61300
C  28.77600 53.55400 39.19000
C  30.30400 53.46900 39.21700
C  30.81400 54.79800 39.51300
C  30.90500 52.41300 40.13900
C  28.06900 53.28700 37.82100
C  28.49200 54.10000 36.61500
H  27.47600 54.95700 35.76700
N  32.11300 57.50100 39.94300
C  32.76400 56.40200 39.50700
C  34.13600 56.64200 39.27600
C  34.30000 57.94400 39.66600
C  33.01200 58.50200 40.18100
C  35.10500 55.76900 38.65100
C  35.55700 58.78000 39.51400
O  36.64100 58.23300 39.33100
C  35.58500 60.34800 39.67900
N  30.26700 59.63900 40.94200
C  31.47600 60.26600 41.03500
C  31.27500 61.74300 41.37800
C  29.89400 61.73100 42.08300
C  29.29200 60.34600 41.56300
C  32.32100 62.53200 42.22900
C  28.99500 62.94700 41.81200
C  28.55700 63.61800 43.16200
N  28.07700 57.77900 40.79700
C  27.35700 58.87200 41.31800
C  25.91500 58.50500 41.38800
C  25.84800 57.24200 40.77200
C  27.22600 56.81200 40.44600
C  24.72600 59.48100 41.62400
C  25.04400 56.09300 40.27300
O  23.83800 56.04400 40.24800
C  25.92400 55.01800 39.81300
C  25.56400 53.83900 40.61000
O  25.97700 53.59800 41.72000
O  24.61200 53.07400 39.92100
C  24.05000 51.92600 40.51100
H  32.97800 54.46000 39.19700
H  33.57000 60.30300 41.01000
H  27.36600 60.79900 42.30600
H  28.34200 52.90600 39.95200
H  30.50900 53.27000 38.16500
H  30.60900 51.38900 39.91100
H  30.49900 52.67200 41.11700
H  31.98200 52.46400 40.29400
H  26.98000 53.26200 37.86200
H  28.32900 52.24900 37.61100
H  28.97300 53.41800 35.91400
H  29.19500 54.86900 36.93600
H  35.82200 56.31100 38.03500
H  34.73700 54.95400 38.02700
H  35.67300 55.18600 39.37600
H  34.67900 60.77700 39.25200
H  36.35600 60.58200 38.94500
H  35.77500 60.56900 40.73000
H  31.19200 62.19900 40.39100
H  30.05000 61.61100 43.15500
H  33.17000 61.85100 42.27900
H  31.92200 62.79100 43.21000
H  32.61300 63.45900 41.73700
H  28.09000 62.63000 41.29500
H  29.56900 63.67300 41.23600
H  28.95300 64.60800 43.38500
H  28.68500 63.04700 44.08100
H  27.47700 63.73700 43.25000
H  25.04900 60.27500 42.29700
H  23.88100 58.94300 42.05400
H  24.42300 59.91200 40.67000
H  25.63100 54.95100 38.76500
H  23.03200 51.92000 40.12200
H  24.12500 51.82100 41.59400
H  24.54900 50.99700 40.23400

