158

Mg 24.82500 -7.86800 47.50500
C  26.95700 -5.23400 46.25900
C  22.46600 -6.94300 45.28000
C  23.24400 -10.70000 48.24400
C  27.75400 -9.06900 49.17900
N  24.84500 -6.36700 45.78000
C  25.71800 -5.31800 45.58800
C  25.16900 -4.25100 44.62200
C  23.66500 -4.75700 44.52200
C  23.64500 -6.09100 45.21500
C  22.74300 -3.68100 45.03500
C  26.02100 -4.17600 43.29600
C  26.58200 -2.76000 42.99000
H  26.28200 -2.26700 41.58700
N  23.05300 -8.67500 46.89900
C  22.17800 -8.09200 46.00200
C  20.98300 -8.83800 45.79000
C  21.15200 -9.93300 46.72600
C  22.48000 -9.81700 47.38200
C  19.86900 -8.47100 44.75700
C  20.05600 -11.04100 47.00900
O  19.03400 -11.02300 46.39600
C  20.42500 -12.04600 48.08400
N  25.46400 -9.66000 48.44100
C  24.53700 -10.61700 48.71300
C  25.15700 -11.67900 49.60400
C  26.52400 -11.09600 50.10300
C  26.61300 -9.87900 49.16400
C  24.27600 -12.28600 50.71000
C  27.79900 -12.04300 50.05100
C  28.76200 -12.16700 51.21000
N  26.88000 -7.25800 47.84000
C  27.93000 -7.82200 48.55000
C  29.05100 -6.96600 48.58800
C  28.72800 -5.90700 47.76100
C  27.41100 -6.20100 47.24500
C  30.29100 -7.28500 49.42700
C  29.12800 -4.62500 47.30100
O  30.16300 -3.95900 47.43800
C  28.03200 -4.21000 46.21300
C  27.56600 -2.81700 46.51600
O  26.58200 -2.45100 47.14500
O  28.37000 -1.89500 45.89400
C  27.90600 -0.53000 45.80700
H  21.74200 -6.54300 44.56700
H  22.78900 -11.64700 48.54100
H  28.41300 -9.46400 49.95400
H  25.15900 -3.27700 45.11100
H  23.31400 -4.90800 43.50100
H  23.28000 -2.79200 45.36600
H  22.12000 -4.04700 45.85100
H  22.07000 -3.45700 44.20700
H  25.47000 -4.49800 42.41300
H  26.90400 -4.81200 43.35700
H  27.65600 -2.93800 43.04100
H  26.34000 -1.91800 43.63800
H  20.15900 -8.66000 43.72400
H  19.51300 -7.44200 44.70900
H  18.93100 -9.00800 44.89600
H  21.19500 -12.69400 47.66700
H  19.57700 -12.70300 48.27900
H  20.71900 -11.47500 48.96500
H  25.43300 -12.53000 48.98100
H  26.52700 -10.74000 51.13300
H  23.31600 -11.80200 50.89100
H  24.85300 -12.18300 51.62900
H  24.10600 -13.34700 50.52600
H  28.44000 -11.74900 49.22000
H  27.31600 -12.99400 49.82600
H  29.75100 -12.20100 50.75400
H  28.53800 -13.05400 51.80300
H  28.73700 -11.21700 51.74400
H  29.98100 -7.52700 50.44400
H  30.89700 -6.37900 49.42200
H  30.75900 -8.20600 49.07700
H  28.46900 -4.14600 45.21700
H  26.83600 -0.59300 45.60700
H  28.45700 -0.07700 44.98300
H  28.03800 0.01000 46.74400
Mg 0.01300 43.08800 25.84900
C  2.49700 42.98900 28.42700
C  -2.32500 42.39500 28.34500
C  -2.15100 42.92000 23.40100
C  2.66500 43.22600 23.51100
N  0.13800 42.60700 28.06600
C  1.23300 42.73000 28.93000
C  0.74000 42.61200 30.41000
C  -0.79400 42.19300 30.28700
C  -0.98500 42.36500 28.75500
C  -1.12000 40.78900 30.95400
C  1.08600 43.94000 31.20800
C  1.35000 43.75900 32.76300
H  0.88600 42.42800 33.42700
N  -2.04900 42.82300 25.85500
C  -2.82200 42.55100 26.95000
C  -4.17000 42.49600 26.49400
C  -4.19300 42.67200 25.05700
C  -2.78500 42.85100 24.69200
C  -5.28700 42.36600 27.47000
C  -5.39700 42.60000 24.09400
O  -5.23700 42.73400 22.89300
C  -6.79200 42.14400 24.50400
N  0.19500 43.24500 23.75300
C  -0.86300 43.05100 22.91600
C  -0.58100 43.11900 21.41700
C  1.00500 43.19500 21.42600
C  1.35300 43.24800 22.95100
C  -1.09700 41.94600 20.62700
C  1.78000 44.37900 20.62700
C  1.24100 45.84100 20.80300
N  2.13700 43.15000 25.88900
C  3.02200 43.23900 24.87800
C  4.32600 43.16800 25.39900
C  4.17300 43.12400 26.76500
C  2.84400 43.11900 27.05900
C  5.71300 43.24200 24.63100
C  4.88500 43.00800 28.04100
O  6.04200 42.80500 28.31600
C  3.77400 43.09200 29.19500
C  4.05800 41.91100 30.09100
O  3.85200 40.73000 29.88000
O  4.57700 42.42800 31.20600
C  4.61300 41.43000 32.35400
H  -3.05400 42.34300 29.15600
H  -2.93900 42.83100 22.65100
H  3.51300 43.07700 22.83800
H  1.36800 41.96100 31.01900
H  -1.41600 42.92700 30.79900
H  -0.30500 40.54400 31.63600
H  -1.29500 40.02100 30.20000
H  -2.07000 40.93800 31.46800
H  0.35600 44.73000 31.03200
H  2.02400 44.41700 30.92300
H  0.92800 44.61500 33.28800
H  2.43500 43.78600 32.85900
H  -6.23900 42.75900 27.11400
H  -5.10900 42.98100 28.35200
H  -5.52400 41.33600 27.74000
H  -7.07100 42.91000 25.22800
H  -6.74800 41.13300 24.90900
H  -7.48400 42.12900 23.66200
H  -0.91800 44.04200 20.94600
H  1.45400 42.21900 21.24500
H  -1.74600 41.41800 21.32600
H  -0.28600 41.33900 20.22400
H  -1.67300 42.29600 19.77000
H  1.77700 44.08700 19.57700
H  2.78000 44.54600 21.02800
H  0.58000 46.07900 19.97000
H  2.03500 46.56700 20.98000
H  0.74200 46.00000 21.75900
H  6.49100 43.53300 25.33700
H  5.72100 43.92300 23.78000
H  5.99200 42.27000 24.22400
H  3.93200 44.03200 29.72200
H  5.67800 41.31600 32.55700
H  4.21600 40.43100 32.17200
H  4.16000 41.90500 33.22400

