158

Mg 36.74900 49.28100 25.95400
C  36.76600 47.43500 28.79700
C  35.32400 51.91700 27.74100
C  36.41700 51.00400 22.98900
C  38.23600 46.75100 24.20400
N  36.03200 49.52300 28.04100
C  36.23400 48.72400 29.08200
C  35.90300 49.30900 30.49000
C  35.30500 50.67700 30.03600
C  35.58600 50.73400 28.56000
C  33.74800 50.76400 30.42900
C  37.21500 49.45300 31.30000
C  37.31300 48.99300 32.77500
H  36.08700 48.86300 33.65500
N  35.95400 51.22200 25.44200
C  35.46000 52.15800 26.31800
C  35.10500 53.36500 25.61200
C  35.39700 53.08500 24.22000
C  35.94600 51.74000 24.17900
C  34.52600 54.57600 26.31400
C  35.21600 54.01600 23.02800
O  35.51400 53.59200 21.88700
C  34.69600 55.33500 23.19700
N  37.21600 48.93500 23.94100
C  37.00100 49.77500 22.86800
C  37.61400 49.27200 21.52400
C  38.44600 47.99700 21.96200
C  38.01100 47.95300 23.47600
C  36.48200 48.97300 20.48200
C  39.98000 48.09200 21.80500
C  40.67700 47.26800 20.66700
N  37.35700 47.47000 26.31700
C  37.92900 46.49600 25.56700
C  38.17800 45.30200 26.30300
C  37.68000 45.65300 27.56300
C  37.21700 46.96100 27.53100
C  38.80500 44.02900 25.71000
C  37.54300 45.08300 28.89400
O  37.70700 43.97900 29.39400
C  36.94100 46.24400 29.77700
C  35.63800 45.68900 30.30500
O  34.59500 45.57600 29.66400
O  35.85400 45.33700 31.58000
C  34.66700 45.19500 32.30900
H  34.90900 52.75100 28.31100
H  36.39600 51.39600 21.97000
H  38.71900 45.96300 23.62300
H  35.22100 48.70200 31.08600
H  35.83200 51.49000 30.53500
H  33.39400 50.01100 31.13300
H  33.17300 50.75000 29.50400
H  33.68600 51.71600 30.95700
H  37.65700 50.44900 31.30700
H  37.92700 48.83500 30.75200
H  37.96800 49.71400 33.26500
H  37.88000 48.06300 32.79200
H  33.82600 55.17600 25.73200
H  35.28500 55.26300 26.68700
H  33.82500 54.19900 27.05900
H  34.89800 55.89300 22.28200
H  35.13500 55.90600 24.01500
H  33.63200 55.15600 23.34800
H  38.33700 50.04400 21.26100
H  38.06200 47.07000 21.53600
H  36.50600 49.76400 19.73200
H  35.50100 49.01500 20.95500
H  36.64200 48.03300 19.95300
H  40.49300 47.73900 22.69900
H  40.21600 49.14300 21.64100
H  39.86200 46.82800 20.09200
H  41.28600 46.45800 21.06900
H  41.37800 47.80900 20.03100
H  39.28800 44.17900 24.74500
H  38.06900 43.28800 25.39700
H  39.61100 43.69700 26.36500
H  37.57500 46.39500 30.65100
H  33.79400 45.80400 32.07300
H  34.87500 45.46700 33.34400
H  34.47200 44.12900 32.20000
Mg 5.97700 53.19300 39.64500
C  5.35500 49.71200 39.59300
C  9.24000 52.55500 39.21400
C  6.41400 56.54900 39.14100
C  2.47800 53.71800 39.76600
N  7.15200 51.30400 39.12700
C  6.71800 50.05800 39.38400
C  7.93900 49.08100 39.35200
C  9.12300 50.02600 39.59400
C  8.51000 51.36500 39.26400
C  9.71800 49.92500 41.03100
C  7.98900 48.19600 38.00700
C  7.95800 49.02700 36.70400
H  6.61700 48.91800 35.88600
N  7.56000 54.29100 39.21000
C  8.86800 53.88900 39.14800
C  9.75500 54.94900 38.79500
C  8.99400 56.11000 38.89200
C  7.55400 55.70700 39.10400
C  11.16400 54.75900 38.53700
C  9.53600 57.55900 38.75300
O  10.74500 57.83900 38.48500
C  8.75600 58.72500 39.27300
N  4.58000 54.94900 39.30400
C  5.03400 56.18900 39.30300
C  3.94400 57.19000 39.64500
C  2.63800 56.33300 39.61200
C  3.24700 54.88500 39.53100
C  4.20900 57.92700 41.00900
C  1.74500 56.65800 38.34300
C  0.39400 57.23400 38.72600
N  4.28000 52.05000 39.74800
C  2.90200 52.42000 39.97600
C  2.16100 51.27600 40.41700
C  3.06500 50.18600 40.27200
C  4.30800 50.70800 39.84100
C  0.70900 51.22100 40.86600
C  3.27700 48.74400 40.37700
O  2.44300 47.90600 40.70800
C  4.72300 48.35400 39.87800
C  4.47300 47.61100 38.60800
O  3.82200 48.06400 37.70700
O  5.04900 46.38400 38.64900
C  4.33700 45.41100 37.78900
H  10.32600 52.46700 39.27900
H  6.42000 57.64000 39.19600
H  1.41000 53.91200 39.88600
H  7.86100 48.34600 40.15200
H  9.91900 49.69200 38.92800
H  9.28100 49.11900 41.62000
H  9.59800 50.86200 41.57600
H  10.72200 49.51100 40.94200
H  7.15100 47.50000 37.95900
H  8.90600 47.61100 38.08400
H  8.81500 48.63200 36.15900
H  8.25400 50.05100 36.93000
H  11.38700 55.47300 37.74400
H  11.29500 53.77200 38.09300
H  11.79300 54.75200 39.42700
H  9.38900 59.60200 39.40800
H  8.14000 58.54200 40.15300
H  8.09000 59.21100 38.56100
H  4.04400 57.97700 38.89700
H  2.11800 56.39000 40.56800
H  3.83500 57.39000 41.88000
H  3.89600 58.97100 40.97800
H  5.26200 57.86000 41.28300
H  1.53200 55.82600 37.67200
H  2.20100 57.35000 37.63500
H  0.48500 58.13300 39.33600
H  -0.14600 56.43300 39.23200
H  -0.14200 57.46600 37.80600
H  0.60200 50.60400 41.75900
H  0.13100 50.70100 40.10200
H  0.23900 52.15100 41.18700
H  5.10700 47.66200 40.62800
H  3.26400 45.46900 37.97700
H  4.74700 44.42500 38.00900
H  4.53600 45.72200 36.76400

