158

Mg 39.90400 10.09100 29.57500
C  42.15500 11.21300 32.30600
C  37.81700 8.92000 31.97100
C  38.27600 8.66800 27.10900
C  42.50700 10.92700 27.52100
N  39.98600 10.18200 31.88400
C  40.90700 10.74100 32.75400
C  40.43300 10.71600 34.15400
C  39.05500 9.79800 33.98900
C  38.89900 9.60600 32.51800
C  38.95700 8.46800 34.79400
C  40.13400 12.17800 34.69100
C  40.84100 12.48700 36.02000
H  40.02800 13.10100 37.24500
N  38.22800 8.98200 29.53500
C  37.48900 8.61700 30.63900
C  36.34300 7.85800 30.15200
C  36.46300 7.72100 28.72900
C  37.72600 8.42400 28.39700
C  35.30300 7.17800 31.08500
C  35.51700 7.12500 27.74900
O  35.72000 7.19900 26.52400
C  34.26400 6.54000 28.16400
N  40.41900 9.66300 27.60800
C  39.48900 9.22600 26.73800
C  39.90800 9.52200 25.25800
C  41.35300 10.18100 25.37700
C  41.41600 10.32900 26.89300
C  39.90800 8.22900 24.37200
C  41.54600 11.54500 24.53700
C  41.00800 12.82000 25.13400
N  41.81700 10.93800 29.76900
C  42.79600 11.15000 28.85100
C  44.00700 11.76000 29.29100
C  43.76500 11.85000 30.70400
C  42.50200 11.24200 30.95300
C  45.13500 12.29300 28.54000
C  44.30600 12.24400 31.93300
O  45.34000 12.77400 32.24000
C  43.32000 11.76400 33.05200
C  43.92200 10.78500 34.01800
O  44.30500 9.62800 33.75900
O  44.15200 11.44600 35.17000
C  44.81500 10.55700 36.14600
H  37.13300 8.57200 32.74700
H  37.63200 8.44400 26.25600
H  43.30400 11.10900 26.79700
H  41.26500 10.27400 34.70200
H  38.20400 10.45700 34.16400
H  39.18900 7.59100 34.19000
H  37.95400 8.37600 35.21000
H  39.70700 8.50900 35.58300
H  39.06300 12.35000 34.79400
H  40.49700 12.85600 33.91800
H  41.56800 13.28600 35.87200
H  41.49500 11.67000 36.32400
H  35.13500 6.10500 30.98700
H  34.35200 7.66600 30.87200
H  35.57600 7.38200 32.12100
H  34.26400 5.80300 28.96700
H  33.82800 6.08000 27.27700
H  33.72100 7.45300 28.40600
H  39.12700 10.21100 24.93800
H  42.14800 9.49300 25.09000
H  39.69400 7.43900 25.09200
H  40.91300 8.11000 23.96900
H  39.24900 8.41700 23.52400
H  40.89500 11.49100 23.66500
H  42.58400 11.59200 24.20700
H  40.59700 13.52600 24.41300
H  41.89500 13.28900 25.56000
H  40.22900 12.64500 25.87600
H  44.67100 12.85700 27.73200
H  45.65300 11.42700 28.12900
H  45.79600 12.82400 29.22600
H  42.98100 12.66100 33.57000
H  45.69700 10.06400 35.73600
H  44.15700 9.79500 36.56300
H  45.24800 11.26600 36.85100
Mg 53.60500 24.19700 44.92900
C  51.35600 26.59200 44.03600
C  51.82100 21.87900 43.14500
C  56.19300 22.02800 45.12400
C  55.65900 26.66300 46.31100
N  51.97900 24.30100 43.48900
C  51.10600 25.36200 43.37600
C  49.87100 25.02200 42.59600
C  49.91500 23.42500 42.59800
C  51.31200 23.15800 43.19100
C  48.79100 22.70800 43.48500
C  49.85200 25.56300 41.13300
C  51.20600 26.01100 40.45400
H  51.96000 24.98300 39.61400
N  53.94900 22.15900 44.34600
C  53.00700 21.37900 43.68000
C  53.53600 20.02300 43.74600
C  54.81500 20.14100 44.41700
C  55.01700 21.44600 44.65600
C  52.79700 18.75000 43.25100
C  55.63100 18.93600 44.84300
O  55.43000 17.84200 44.34400
C  56.71000 18.95600 45.92900
N  55.68500 24.34100 45.40100
C  56.55500 23.29300 45.48800
C  57.92600 23.68300 46.04100
C  57.61600 25.07300 46.66200
C  56.20100 25.38000 46.10900
C  58.58400 22.74100 47.07200
C  58.59900 26.21200 46.34500
C  58.48900 26.89500 44.98500
N  53.52400 26.19500 45.20100
C  54.30600 27.03600 45.89800
C  53.65700 28.30500 46.18200
C  52.43900 28.10500 45.51800
C  52.42200 26.88700 44.89000
C  53.99000 29.40900 47.06600
C  51.18500 28.70800 45.23400
O  50.68800 29.78800 45.51500
C  50.37200 27.75000 44.24000
C  50.07000 28.53500 42.99100
O  50.79600 28.72900 42.06900
O  48.75800 28.62800 42.98100
C  48.09100 28.96100 41.72500
H  51.12300 21.15200 42.72600
H  56.93400 21.25300 45.32900
H  56.20700 27.35900 46.95000
H  49.01900 25.36500 43.18200
H  49.77200 22.96600 41.62000
H  48.86400 23.15700 44.47600
H  48.94200 21.62900 43.46400
H  47.74500 22.84000 43.20900
H  49.26900 26.47900 41.03300
H  49.29100 24.85100 40.52800
H  51.94600 26.30300 41.19900
H  51.15900 26.87500 39.79100
H  52.13900 18.94700 42.40500
H  52.14900 18.37100 44.04100
H  53.54500 18.06100 42.85800
H  56.80700 17.98300 46.41200
H  56.23900 19.63400 46.64000
H  57.60200 19.21700 45.35900
H  58.65600 23.78000 45.23700
H  57.41100 25.09400 47.73300
H  59.59200 22.43800 46.79100
H  57.99100 21.83600 47.21000
H  58.71600 23.21600 48.04300
H  59.58300 25.90500 46.70000
H  58.42100 27.00900 47.06600
H  58.01400 26.18900 44.30300
H  59.50800 27.14500 44.68900
H  57.82300 27.75600 44.92200
H  54.09600 29.18400 48.12700
H  53.24400 30.20300 47.08700
H  54.91800 29.85200 46.70400
H  49.47600 27.46200 44.79000
H  47.51000 29.86600 41.90400
H  47.50600 28.05500 41.56600
H  48.76000 29.23200 40.90800

