158

Mg 16.56300 -1.91200 28.41600
C  15.38600 0.09700 31.12000
C  18.92700 -3.27100 30.67800
C  17.99600 -3.45900 25.86800
C  14.47200 -0.18600 26.30900
N  17.12200 -1.52800 30.63000
C  16.36600 -0.83400 31.47800
C  16.76200 -1.15500 32.91700
C  18.09500 -1.98100 32.84600
C  18.04500 -2.29700 31.30200
C  19.39500 -1.22600 33.25000
C  15.58800 -1.83900 33.67800
C  15.60200 -1.68300 35.19800
H  16.85200 -1.36200 35.99900
N  18.09800 -3.29300 28.33700
C  18.93600 -3.71700 29.31400
C  19.73500 -4.84000 28.76700
C  19.50100 -4.90300 27.39700
C  18.44700 -3.91200 27.11900
C  20.75200 -5.55700 29.56700
C  20.13900 -5.91200 26.31300
O  19.83000 -5.78000 25.17100
C  21.10700 -6.98000 26.69000
N  16.37800 -1.69100 26.44100
C  17.04500 -2.49300 25.51500
C  16.63000 -2.23700 24.03500
C  15.42500 -1.41100 24.31100
C  15.39000 -1.11400 25.81200
C  17.77200 -1.63700 23.17800
C  14.04300 -1.87900 23.71100
C  13.09800 -0.89800 22.94900
N  15.19900 -0.27700 28.59400
C  14.33000 0.17800 27.68800
C  13.44500 1.16000 28.26900
C  13.82800 1.17500 29.67500
C  14.96900 0.31400 29.77100
C  12.36800 1.92500 27.54400
C  13.49400 1.68500 30.99100
O  12.59200 2.43700 31.34600
C  14.54800 1.05900 31.97600
C  15.33200 2.09400 32.75100
O  16.06200 3.00500 32.24300
O  15.16500 2.05900 34.16000
C  15.91900 2.99700 35.07200
H  19.71800 -3.66800 31.31700
H  18.34300 -3.98400 24.97500
H  13.80400 0.28000 25.58100
H  16.93900 -0.19600 33.40400
H  17.92500 -2.93700 33.34100
H  20.06400 -1.53500 32.44700
H  19.55700 -1.70300 34.21600
H  19.33200 -0.14000 33.18500
H  15.73100 -2.89000 33.42600
H  14.72100 -1.56300 33.07900
H  15.21300 -2.57400 35.69100
H  14.89800 -0.87600 35.39800
H  20.89900 -5.18500 30.58100
H  21.76700 -5.58300 29.17100
H  20.32300 -6.53600 29.78000
H  21.26400 -7.61800 25.82100
H  20.60900 -7.66500 27.37600
H  22.06600 -6.55200 26.98300
H  16.39500 -3.23400 23.66100
H  15.59300 -0.39700 23.94700
H  17.71000 -0.55000 23.22800
H  17.60100 -1.84800 22.12300
H  18.78300 -1.89000 23.49900
H  13.50700 -2.21800 24.59800
H  14.26200 -2.70100 23.02900
H  12.04900 -0.91200 23.24400
H  13.09500 -1.15500 21.89000
H  13.56500 0.07800 23.08000
H  12.02600 1.40900 26.64700
H  12.73300 2.88800 27.18900
H  11.60100 2.01800 28.31300
H  14.02200 0.53400 32.77400
H  16.35300 2.42300 35.89000
H  15.16200 3.71600 35.38700
H  16.74600 3.53600 34.61100
Mg 36.27900 49.45300 26.84300
C  36.63000 47.42000 29.52600
C  35.46600 52.03900 28.96700
C  36.01100 51.42600 24.15300
C  36.97100 46.69600 24.73600
N  36.19500 49.71300 29.01900
C  36.45700 48.74900 29.93700
C  36.29200 49.25500 31.39200
C  35.49300 50.61200 31.08500
C  35.73800 50.88000 29.61300
C  34.03800 50.59200 31.56700
C  37.65700 49.41200 32.23200
C  37.55900 49.35400 33.74300
H  36.23700 49.66900 34.40900
N  35.84200 51.48900 26.63200
C  35.51500 52.39400 27.58800
C  35.06200 53.62700 26.96200
C  35.38000 53.48500 25.58400
C  35.70800 52.08800 25.39900
C  34.60600 54.86400 27.78100
C  35.39600 54.60000 24.50400
O  35.77200 54.45700 23.37500
C  34.89500 56.01800 24.92900
N  36.35200 49.02800 24.69900
C  36.27000 50.06900 23.82300
C  36.59800 49.57000 22.43000
C  36.96100 48.09000 22.64000
C  36.80600 47.93300 24.13800
C  35.46500 49.71500 21.39000
C  38.41600 47.76500 22.18400
C  38.63500 46.93200 20.89900
N  36.64700 47.43400 27.01200
C  36.95600 46.40400 26.09700
C  37.26200 45.17300 26.80100
C  37.04800 45.54500 28.09100
C  36.69800 46.88900 28.18500
C  37.65400 43.90000 26.18600
C  37.11900 45.02900 29.47500
O  37.46200 43.89100 29.82200
C  36.79600 46.19200 30.43100
C  35.63200 45.92400 31.26000
O  34.47100 45.83600 30.87100
O  36.07500 45.76700 32.58100
C  35.03500 45.59400 33.55500
H  35.13600 52.85100 29.61700
H  35.93100 52.12200 23.31500
H  37.26200 45.94400 23.99900
H  35.55800 48.71000 31.98600
H  35.95500 51.44900 31.60800
H  33.61400 49.62400 31.83100
H  33.38000 50.97700 30.78800
H  33.90000 51.29800 32.38600
H  38.16700 50.34800 32.00600
H  38.31500 48.61400 31.88600
H  38.31000 50.03800 34.13800
H  37.84400 48.36600 34.10600
H  35.42900 55.54900 27.98600
H  34.44500 54.61700 28.83100
H  33.69200 55.38500 27.49700
H  35.51400 56.44400 25.71900
H  33.86100 55.87200 25.24200
H  34.98000 56.58100 24.00000
H  37.46100 50.17100 22.14300
H  36.26800 47.35900 22.22300
H  35.45300 50.74900 21.04300
H  34.47400 49.50400 21.79100
H  35.71900 49.03900 20.57400
H  39.00400 47.29500 22.97300
H  38.91000 48.72600 22.03900
H  38.63700 45.87800 21.17700
H  39.58800 47.17400 20.43000
H  37.84200 47.17100 20.19100
H  38.66500 43.87200 25.77900
H  37.16400 43.71300 25.23100
H  37.44600 43.02800 26.80500
H  37.65200 46.29900 31.09800
H  34.34200 44.87300 33.12100
H  34.58500 46.55000 33.82300
H  35.44000 45.18700 34.48100

