158

Mg 47.43000 16.70500 28.49700
C  45.89400 16.72600 31.52700
C  49.80900 18.87900 29.74400
C  48.65600 17.07400 25.26800
C  44.69500 15.05600 27.05900
N  47.94300 17.51300 30.45900
C  47.11600 17.38400 31.58000
C  47.78700 17.92900 32.83400
C  48.78100 18.97800 32.16900
C  48.89000 18.43200 30.70800
C  48.43600 20.53100 32.27400
C  48.27700 16.73300 33.73900
C  48.09600 16.84700 35.26100
H  47.79300 18.30600 35.80200
N  49.04500 17.70600 27.72200
C  49.96300 18.52300 28.39000
C  50.88300 19.10500 27.46000
C  50.60800 18.52900 26.17500
C  49.38600 17.74400 26.36200
C  51.77600 20.26400 27.78200
C  51.32300 18.77400 24.80200
O  50.83500 18.50500 23.76900
C  52.69400 19.49700 24.79100
N  46.70600 16.23600 26.41100
C  47.48700 16.37900 25.27000
C  46.77700 15.80500 24.02200
C  45.56300 15.02900 24.58600
C  45.66900 15.40100 26.12200
C  46.45000 16.90000 23.05500
C  45.51000 13.45600 24.40300
C  44.87700 13.01800 23.08700
N  45.65100 15.97300 29.09200
C  44.59800 15.32800 28.46300
C  43.61200 14.98600 29.43900
C  44.04200 15.54800 30.65200
C  45.30700 16.07400 30.41600
C  42.32000 14.31000 29.17800
C  43.68400 15.74400 32.03000
O  42.70000 15.31200 32.63400
C  44.83800 16.51600 32.69400
C  44.32300 17.79300 33.30500
O  43.90600 18.73300 32.71600
O  43.98900 17.46800 34.61600
C  43.28400 18.43200 35.44600
H  50.39600 19.72500 30.10800
H  48.99000 17.22600 24.24000
H  43.96000 14.34500 26.67900
H  47.10000 18.55900 33.39900
H  49.71400 18.74000 32.68000
H  49.33600 21.14100 32.35900
H  47.87500 20.72900 33.18700
H  47.90000 20.89500 31.39800
H  49.34600 16.67000 33.53400
H  47.83200 15.80900 33.36700
H  49.12900 16.63900 35.54000
H  47.32700 16.13700 35.56800
H  51.44000 21.16200 27.26300
H  52.78000 19.96400 27.48100
H  51.89200 20.43900 28.85200
H  52.35800 20.53300 24.81900
H  53.24900 19.29700 23.87400
H  53.32700 19.22600 25.63500
H  47.50200 15.14000 23.55200
H  44.65400 15.48600 24.19600
H  45.49500 16.69300 22.57300
H  47.23500 17.06000 22.31600
H  46.31900 17.84400 23.58500
H  45.12600 12.88900 25.25100
H  46.57300 13.21400 24.38100
H  45.49900 13.35500 22.25800
H  43.85200 13.34700 22.91800
H  44.77800 11.94100 23.22000
H  41.95800 14.53500 28.17400
H  41.45200 14.53600 29.79700
H  42.42400 13.23200 29.30300
H  45.21200 15.91500 33.52400
H  43.20800 19.32800 34.83100
H  43.85600 18.60100 36.35800
H  42.31600 17.94500 35.57200
Mg 42.36600 41.57000 26.37200
C  41.14800 43.95200 28.79000
C  43.64900 39.78800 28.90200
C  43.65900 39.67400 24.02500
C  41.64900 43.99700 23.82000
N  42.36300 41.85600 28.60200
C  41.82200 42.84200 29.37200
C  42.07200 42.58700 30.91100
C  43.03700 41.37000 30.87100
C  42.98200 40.90000 29.40200
C  44.46000 41.71500 31.31900
C  40.66200 42.34600 31.65400
C  40.39500 43.02700 32.98200
H  41.53400 43.29700 33.94700
N  43.36300 39.83800 26.48000
C  43.85400 39.30100 27.65000
C  44.53300 38.09300 27.32000
C  44.43500 37.89700 25.89700
C  43.80300 39.17200 25.39400
C  45.15600 37.27200 28.33800
C  44.85000 36.71500 24.95400
O  44.50800 36.74300 23.78300
C  45.68600 35.57400 25.54500
N  42.64900 41.81700 24.21800
C  43.09900 40.81400 23.49500
C  43.06400 41.09100 22.00300
C  42.24700 42.42200 21.93400
C  42.25500 42.79000 23.42300
C  44.44100 41.11300 21.24200
C  40.73500 42.25800 21.44800
C  39.76500 41.62000 22.45000
N  41.47500 43.55200 26.25700
C  41.35300 44.38900 25.15600
C  40.64100 45.52000 25.64000
C  40.51800 45.48300 27.05200
C  41.12000 44.25600 27.41800
C  40.15200 46.68800 24.78800
C  40.18800 46.22900 28.28400
O  39.76200 47.34900 28.45800
C  40.51400 45.16300 29.43300
C  41.56400 45.81100 30.45200
O  42.74200 45.78000 30.18900
O  40.96900 46.45100 31.52200
C  41.80700 46.87900 32.55600
H  44.02800 39.16800 29.71800
H  44.00700 38.91900 23.31600
H  41.41700 44.70900 23.02500
H  42.52300 43.50100 31.29800
H  42.66200 40.52600 31.44900
H  44.56600 42.76400 31.59400
H  45.21600 41.38000 30.60800
H  44.62000 41.11100 32.21200
H  40.48700 41.27900 31.79000
H  39.94700 42.79000 30.96200
H  39.63100 42.44200 33.49300
H  40.04300 44.03400 32.75900
H  44.51000 36.54900 28.83600
H  45.67100 37.86900 29.09200
H  45.98100 36.68600 27.93100
H  45.38700 35.20300 26.52500
H  46.67800 36.01100 25.42800
H  45.74200 34.73800 24.84800
H  42.46600 40.30000 21.55100
H  42.71200 43.27000 21.43000
H  45.30500 40.90100 21.87200
H  44.53000 42.00400 20.62200
H  44.34200 40.35800 20.46200
H  40.75400 41.59100 20.58600
H  40.42400 43.25700 21.14000
H  40.04100 41.66200 23.50300
H  39.60900 40.57600 22.17600
H  38.78400 42.04400 22.23300
H  39.31000 46.35700 24.18000
H  40.96000 47.06900 24.16400
H  39.97900 47.52800 25.46100
H  39.60900 44.98700 30.01500
H  41.62600 46.35500 33.49500
H  41.69900 47.92200 32.85600
H  42.85300 46.65000 32.35500

