158

Mg 48.77400 35.79700 27.98600
C  46.64500 34.39800 30.17500
C  49.17500 38.49200 30.00000
C  50.47300 37.39500 25.45200
C  48.22200 33.10300 25.72100
N  48.01700 36.28300 29.92400
C  47.19100 35.54600 30.67000
C  47.24900 36.02600 32.12900
C  47.54200 37.61400 31.81300
C  48.33900 37.49100 30.46200
C  46.28900 38.54100 31.64700
C  48.22700 35.18500 33.08300
C  49.49900 35.92500 33.56200
H  49.45000 36.47700 35.00000
N  49.59200 37.66300 27.70200
C  49.74200 38.60700 28.69100
C  50.50900 39.71100 28.21800
C  50.82100 39.50600 26.85000
C  50.27100 38.11600 26.59000
C  50.83400 40.96500 29.07600
C  51.55500 40.38600 25.84800
O  51.71500 40.06000 24.71400
C  52.11000 41.65300 26.35400
N  49.37700 35.27600 25.90200
C  49.99700 36.15900 25.14000
C  50.34700 35.48100 23.77200
C  49.63800 34.09300 23.90300
C  48.99300 34.09700 25.26600
C  49.83700 36.42900 22.60200
C  50.62400 32.93400 23.54100
C  50.83200 32.79100 22.01800
N  47.70700 34.09000 27.91600
C  47.60300 33.03100 26.98200
C  46.80100 31.95800 27.53200
C  46.28300 32.52200 28.70700
C  46.92100 33.77100 28.89300
C  46.57700 30.56500 26.99700
C  45.47400 32.19300 29.83000
O  44.89700 31.13900 30.10000
C  45.58500 33.45000 30.81500
C  45.90900 32.77500 32.07700
O  46.96800 32.21100 32.35900
O  44.84300 32.88100 32.93800
C  45.20700 32.87700 34.37500
H  49.42500 39.30700 30.68200
H  51.16900 37.76600 24.69600
H  47.89900 32.30300 25.05100
H  46.26800 35.84400 32.56900
H  48.14800 38.01300 32.62700
H  46.36900 39.32900 32.39700
H  45.38600 37.94000 31.74900
H  46.25000 38.96200 30.64200
H  48.53000 34.21500 32.68800
H  47.65700 35.01700 33.99700
H  49.91100 36.62600 32.83600
H  50.29700 35.20600 33.74700
H  51.88200 40.98700 29.37600
H  50.21500 41.16800 29.95000
H  50.55300 41.82700 28.47200
H  51.37400 42.44800 26.48300
H  52.74900 41.96200 25.52600
H  52.85800 41.70900 27.14400
H  51.43500 35.49600 23.70600
H  48.80200 34.04200 23.20500
H  49.05700 35.97500 21.99100
H  50.72700 36.48700 21.97500
H  49.42500 37.34300 23.02900
H  50.21600 32.05100 24.03200
H  51.56500 33.22700 24.00800
H  50.42300 33.60700 21.42200
H  50.57600 31.82100 21.59200
H  51.92200 32.79300 22.00800
H  47.13200 30.39700 26.07400
H  45.50800 30.46400 26.81300
H  46.87500 29.78600 27.70000
H  44.63500 33.98000 30.88600
H  46.22300 33.22600 34.55500
H  44.99000 31.92100 34.85200
H  44.62600 33.70100 34.78700
Mg 26.80800 50.11900 26.42700
C  24.69500 51.23000 29.12200
C  29.11700 49.28200 28.86000
C  28.88100 49.25000 24.03600
C  24.44100 51.49200 24.22700
N  26.94400 50.49600 28.72900
C  25.94800 50.76200 29.64700
C  26.39500 50.48700 31.08500
C  27.88500 50.09700 30.98800
C  28.03000 49.95100 29.42800
C  28.97700 51.01700 31.64500
C  25.55900 49.34700 31.91600
C  24.55300 49.97500 32.95800
H  24.25100 49.37600 34.35000
N  28.79300 49.48700 26.46500
C  29.53100 49.06300 27.58200
C  30.88100 48.64900 27.11500
C  30.80100 48.56100 25.65400
C  29.49400 49.16100 25.32300
C  31.90700 48.24700 28.06700
C  31.69500 47.95300 24.61900
O  31.51900 48.00800 23.37800
C  32.97800 47.23700 24.98900
N  26.80300 50.58500 24.40100
C  27.63500 49.88500 23.61400
C  27.07200 49.73000 22.16300
C  25.65500 50.41400 22.23000
C  25.63700 50.89200 23.71900
C  27.94300 50.40600 21.10500
C  24.47600 49.42100 21.89200
C  23.15400 49.85100 21.25100
N  24.92900 51.09200 26.63300
C  24.12800 51.63200 25.61300
C  22.96300 52.21100 26.18600
C  23.06900 52.06000 27.62600
C  24.36000 51.41300 27.81000
C  21.74700 52.82700 25.52400
C  22.49700 52.46700 28.84700
O  21.55300 53.16800 29.12100
C  23.41900 51.75300 29.82800
C  23.74300 52.71200 30.98100
O  24.74300 53.46000 30.99600
O  22.65600 52.72500 31.87800
C  22.95500 53.63300 32.96200
H  29.73700 48.82400 29.63400
H  29.20100 48.57600 23.23900
H  23.60200 51.85000 23.62800
H  26.29600 51.43000 31.62300
H  28.08400 49.11800 31.42300
H  29.62100 50.51100 32.36400
H  28.35400 51.67400 32.25200
H  29.54100 51.57300 30.89600
H  26.14300 48.63200 32.49500
H  24.99600 48.70800 31.23600
H  23.65800 50.03200 32.33800
H  24.79700 51.03500 33.02600
H  32.81600 48.78900 27.80500
H  32.22000 47.21500 27.90900
H  31.73800 48.55800 29.09800
H  33.55600 46.97900 24.10200
H  32.56900 46.30800 25.38700
H  33.55300 47.81500 25.71200
H  26.96100 48.68800 21.86000
H  25.57300 51.24400 21.52800
H  28.94700 50.74600 21.35800
H  27.39200 51.14400 20.52200
H  28.14700 49.61600 20.38200
H  24.05800 48.86100 22.72900
H  24.83000 48.59500 21.27500
H  22.95900 49.34500 20.30500
H  23.09700 50.92200 21.05800
H  22.27300 49.65600 21.86300
H  20.99500 52.04900 25.39100
H  21.96400 53.03500 24.47600
H  21.39200 53.74900 25.98400
H  22.97900 50.82600 30.19700
H  23.14200 54.65100 32.61900
H  23.74400 53.37400 33.66900
H  22.03600 53.60100 33.54700

