158

Mg 42.32300 41.39600 26.68400
C  41.42600 43.85000 29.21800
C  43.43600 39.36600 29.23700
C  43.75200 39.53700 24.34200
C  41.58400 43.92500 24.31200
N  42.46600 41.58700 28.93800
C  41.85800 42.60400 29.72800
C  41.81500 42.17600 31.20100
C  42.57300 40.76400 31.20600
C  42.85500 40.57000 29.74000
C  43.65000 40.52800 32.29900
C  40.42000 42.33500 31.91600
C  40.40300 41.67800 33.33000
H  39.76700 42.48500 34.48000
N  43.29800 39.58900 26.77600
C  43.69100 38.90500 27.89400
C  44.18300 37.60700 27.49300
C  44.21400 37.67600 26.08500
C  43.77300 38.97800 25.66700
C  44.45000 36.42000 28.47400
C  44.57600 36.58600 25.12400
O  44.63900 36.68200 23.91900
C  44.91600 35.18700 25.66400
N  42.72200 41.79200 24.76900
C  43.24700 40.76600 23.89000
C  43.12900 41.11300 22.45000
C  42.11000 42.24700 22.51300
C  42.21400 42.78000 23.93100
C  44.44900 41.35600 21.82900
C  40.72200 41.93900 21.91500
C  39.68900 41.28700 22.79900
N  41.56200 43.42400 26.71700
C  41.35800 44.25200 25.65100
C  40.98000 45.59600 26.15700
C  40.95800 45.43600 27.52600
C  41.37200 44.15300 27.82100
C  40.67400 46.77500 25.26800
C  40.71900 46.08800 28.71200
O  40.48500 47.30200 28.87400
C  40.93200 45.09200 29.87800
C  41.96800 45.64600 30.89200
O  43.20500 45.81600 30.73600
O  41.31000 45.80800 32.12200
C  42.00400 46.21800 33.31200
H  43.74100 38.64000 29.99400
H  44.02100 38.87700 23.51500
H  41.32600 44.65900 23.54600
H  42.44900 42.87000 31.75300
H  41.84600 39.98500 31.43600
H  44.54000 40.37200 31.68900
H  43.51600 39.60200 32.85700
H  43.94000 41.38800 32.90300
H  39.61800 41.92900 31.29900
H  40.35900 43.40700 32.10300
H  41.40700 41.39100 33.64500
H  39.79600 40.77700 33.24600
H  43.72100 35.61300 28.40300
H  44.55200 36.72000 29.51700
H  45.39900 35.91300 28.29500
H  45.84100 35.25200 26.23800
H  45.08600 34.42800 24.90100
H  43.99000 34.96000 26.19200
H  42.58200 40.32800 21.92900
H  42.58100 43.04600 21.94100
H  45.20400 40.95300 22.50300
H  44.61000 42.43100 21.74900
H  44.48700 40.78000 20.90400
H  40.81200 41.42300 20.95900
H  40.21700 42.89400 21.77700
H  39.43400 40.41500 22.19600
H  38.77300 41.82000 23.05300
H  40.05800 40.87900 23.74000
H  41.59400 47.31000 25.03600
H  40.01500 47.44200 25.82500
H  40.13700 46.33700 24.42700
H  39.97700 44.90100 30.36800
H  43.08700 46.30300 33.22500
H  41.79000 45.57800 34.16800
H  41.66300 47.20400 33.62600
Mg 0.26500 43.39100 25.81200
C  2.31100 43.10200 28.84700
C  -2.36400 42.62100 27.81800
C  -1.47200 43.33200 23.12000
C  3.31700 43.88500 24.00500
N  0.05200 42.80100 28.13000
C  0.97800 42.87300 29.12000
C  0.27500 42.65600 30.42000
C  -1.16900 42.15400 30.02300
C  -1.17500 42.65900 28.58000
C  -1.50000 40.70300 30.22500
C  0.35300 43.99400 31.32200
C  0.68400 43.91900 32.84700
H  0.71500 42.50100 33.48200
N  -1.65200 42.99900 25.51100
C  -2.62800 42.64400 26.47500
C  -3.87900 42.52100 25.80900
C  -3.66200 42.83700 24.42700
C  -2.21500 43.03100 24.31500
C  -5.15900 42.30300 26.43700
C  -4.71000 42.91500 23.30700
O  -4.33100 42.97600 22.13200
C  -6.24800 42.70400 23.61900
N  0.84100 43.66900 23.87200
C  -0.11300 43.55700 22.91900
C  0.46000 43.75700 21.51700
C  2.01600 43.97600 21.77400
C  2.08000 43.90200 23.25700
C  0.26200 42.49000 20.53900
C  2.52600 45.33500 21.22700
C  2.01500 46.59500 21.87300
N  2.35600 43.41500 26.21400
C  3.42300 43.72700 25.36900
C  4.67200 43.73200 26.20200
C  4.26600 43.45200 27.50700
C  2.85400 43.35700 27.50400
C  6.04400 44.08800 25.64900
C  4.73800 43.50900 28.87700
O  5.85300 43.73000 29.27600
C  3.53600 43.12600 29.85400
C  3.67100 41.72500 30.33800
O  3.48500 40.69300 29.73200
O  4.01300 41.76500 31.68400
C  4.25300 40.44300 32.27200
H  -3.32500 42.45300 28.30800
H  -2.06700 43.29600 22.20400
H  4.28700 43.96300 23.51100
H  0.83300 41.89800 30.97000
H  -1.85100 42.79600 30.58000
H  -0.64000 40.11200 30.54000
H  -1.81700 40.12700 29.35500
H  -2.26000 40.52000 30.98500
H  -0.58000 44.53000 31.15000
H  1.15800 44.60200 30.91000
H  0.00700 44.56100 33.41100
H  1.59500 44.42800 33.16100
H  -5.21500 41.94200 27.46400
H  -5.56900 41.48600 25.84400
H  -5.86200 43.13600 26.41600
H  -6.63500 43.40300 24.36100
H  -6.34600 41.68400 23.98900
H  -6.72800 42.81400 22.64600
H  -0.00600 44.59600 21.00200
H  2.59100 43.12200 21.41700
H  -0.78900 42.54100 20.25500
H  0.41700 41.52800 21.02800
H  0.90500 42.57300 19.66300
H  2.36600 45.36800 20.14900
H  3.61200 45.42400 21.26900
H  1.87900 47.26800 21.02700
H  2.73800 47.00900 22.57600
H  1.06300 46.46200 22.38600
H  6.21300 43.66100 24.66000
H  6.80300 43.80900 26.38000
H  6.12100 45.16200 25.47400
H  3.53400 43.90700 30.61400
H  4.46400 39.65000 31.55500
H  3.36700 40.17900 32.85000
H  5.13300 40.57600 32.90200

