158

Mg 2.01400 -1.35300 45.51000
C  5.37000 -0.34700 44.65100
C  0.87000 1.42400 43.67600
C  -0.93900 -2.78200 45.31300
C  3.42700 -4.36600 46.71100
N  2.98000 0.36000 44.28300
C  4.36800 0.59100 44.22700
C  4.66600 1.92200 43.52900
C  3.26100 2.50800 43.42000
C  2.31800 1.38500 43.83800
C  3.07400 3.76800 44.36300
C  5.34300 1.77900 42.06200
C  6.77700 2.18400 41.68800
H  7.06000 2.65800 40.21900
N  0.22800 -0.75000 44.54500
C  -0.09400 0.48200 43.95700
C  -1.51900 0.61700 43.81500
C  -2.11700 -0.56000 44.36500
C  -0.96900 -1.49100 44.74300
C  -2.19700 1.79000 43.21700
C  -3.64600 -0.96400 44.49200
O  -4.50300 -0.19600 44.13500
C  -4.18700 -2.24400 44.90900
N  1.40900 -3.37000 45.67600
C  0.12000 -3.58000 45.82100
C  -0.18900 -4.87800 46.61700
C  1.19800 -5.47200 46.87500
C  2.08000 -4.38900 46.31700
C  -1.05100 -4.65700 47.87300
C  1.48500 -6.83600 46.09200
C  0.52400 -8.07500 46.42500
N  3.90900 -2.22200 45.72500
C  4.30500 -3.42000 46.28900
C  5.80200 -3.39600 46.37600
C  6.21900 -2.20200 45.76700
C  5.05800 -1.54200 45.33000
C  6.84500 -4.46700 46.92600
C  7.42900 -1.48300 45.29400
O  8.67700 -1.63100 45.42000
C  6.89600 -0.20400 44.69200
C  7.33700 1.00300 45.51300
O  7.07700 1.25100 46.68700
O  8.17100 1.82700 44.72200
C  8.61000 3.11200 45.35000
H  0.60800 2.43100 43.34300
H  -1.84200 -3.38500 45.42600
H  3.91200 -5.13800 47.31200
H  5.40200 2.40900 44.16700
H  3.00200 2.85400 42.41900
H  2.72400 4.58800 43.73600
H  3.98600 4.08500 44.86900
H  2.25900 3.67600 45.08100
H  4.74900 2.23700 41.27100
H  5.39500 0.72300 41.79800
H  7.40100 1.30900 41.87200
H  7.02200 3.01900 42.34400
H  -3.18300 1.63300 42.78200
H  -1.59000 2.23900 42.43100
H  -2.31100 2.57800 43.96100
H  -4.08500 -2.56200 45.94700
H  -3.73400 -2.93000 44.19400
H  -5.24000 -2.16600 44.63600
H  -0.63100 -5.61100 45.94200
H  1.44600 -5.61300 47.92700
H  -0.56800 -4.76200 48.84400
H  -1.93900 -5.29000 47.87100
H  -1.41300 -3.63200 47.94900
H  2.51500 -7.11400 46.31400
H  1.54500 -6.57400 45.03600
H  0.33500 -8.45600 45.42100
H  -0.40800 -7.71800 46.86400
H  1.05000 -8.87800 46.94200
H  7.81300 -3.97200 47.00600
H  6.85400 -5.27100 46.19100
H  6.39000 -4.90900 47.81200
H  7.28900 -0.13000 43.67800
H  8.45800 3.89300 44.60500
H  9.69600 3.05300 45.41600
H  8.15500 3.40000 46.29800
Mg -5.04900 25.00900 26.81100
C  -3.68400 26.84400 29.30400
C  -6.74600 23.01100 29.08000
C  -6.26200 23.06300 24.22800
C  -2.87000 26.39700 24.57600
N  -4.94700 24.74100 28.88800
C  -4.53500 25.77300 29.73800
C  -4.96800 25.41200 31.15800
C  -5.55000 23.98000 31.06400
C  -5.82300 23.93700 29.58400
C  -4.60800 22.85700 31.46500
C  -6.02600 26.36000 31.70700
C  -6.16800 26.38200 33.25900
H  -5.43300 25.36700 34.13300
N  -6.42200 23.31000 26.66400
C  -7.06400 22.74200 27.75000
C  -8.06500 21.83600 27.19100
C  -7.86200 21.76200 25.78600
C  -6.88300 22.78200 25.48400
C  -9.11100 21.03900 28.00500
C  -8.49800 20.82300 24.70600
O  -8.23100 20.99000 23.50000
C  -9.42400 19.77900 25.08300
N  -4.54900 24.68100 24.69900
C  -5.22200 23.86200 23.84700
C  -4.69500 23.95100 22.38700
C  -3.64600 25.16600 22.46800
C  -3.65600 25.43000 23.99400
C  -4.11400 22.60500 22.04700
C  -3.81500 26.47300 21.59000
C  -3.12200 26.44100 20.20000
N  -3.63000 26.44300 26.84900
C  -2.81500 26.94100 25.86000
C  -2.04200 28.01700 26.39900
C  -2.32100 27.99300 27.81400
C  -3.27600 27.01300 27.98400
C  -1.19700 29.04800 25.59400
C  -2.02500 28.63800 29.04400
O  -1.30000 29.57200 29.34000
C  -2.96800 27.93100 30.09700
C  -2.11300 27.49600 31.17500
O  -1.39300 26.50300 31.12700
O  -2.42500 28.07900 32.31700
C  -1.97200 27.60200 33.63500
H  -7.47400 22.50800 29.72100
H  -6.66000 22.55600 23.34600
H  -2.18300 26.92800 23.91400
H  -4.09500 25.41200 31.81000
H  -6.42700 23.83500 31.69500
H  -4.80100 22.05800 30.74900
H  -4.95000 22.49200 32.43300
H  -3.55600 23.13400 31.40400
H  -7.00600 26.08000 31.32300
H  -5.69300 27.33500 31.35300
H  -7.22800 26.32300 33.50800
H  -5.77100 27.34300 33.58600
H  -8.90000 19.97000 27.96800
H  -10.07900 21.37800 27.63700
H  -9.11600 21.28800 29.06600
H  -9.00700 18.92400 25.61700
H  -9.75400 19.47200 24.09100
H  -10.27000 20.18400 25.63900
H  -5.38300 24.16200 21.56800
H  -2.65800 24.73800 22.29700
H  -4.85600 22.14900 21.39000
H  -3.86100 21.97900 22.90200
H  -3.32300 22.83500 21.33300
H  -3.46100 27.34800 22.13600
H  -4.85400 26.59500 21.28300
H  -2.36200 25.66200 20.26100
H  -2.61000 27.38500 20.01200
H  -3.90200 26.31300 19.44900
H  -1.77300 29.92300 25.29400
H  -0.80800 28.50200 24.73500
H  -0.33800 29.44100 26.13800
H  -3.75200 28.56100 30.51800
H  -2.81000 27.50300 34.32400
H  -1.10300 28.11900 34.04300
H  -1.68700 26.55000 33.63200

