158

Mg 0.50500 7.74500 25.81400
C  1.51100 9.82000 28.56300
C  0.67700 5.01200 27.91400
C  0.55300 5.64600 23.21300
C  1.30800 10.34100 23.60400
N  1.05600 7.52000 27.90600
C  1.38300 8.43000 28.85300
C  1.24000 7.81900 30.26600
C  1.32100 6.29500 29.97200
C  0.97300 6.26700 28.53300
C  2.65700 5.49500 30.23100
C  -0.06000 8.30000 30.95400
C  0.09400 8.56500 32.47900
H  1.30500 7.94600 33.21200
N  0.35300 5.63300 25.62000
C  0.39200 4.67900 26.58700
C  0.13200 3.40000 25.97900
C  0.06800 3.62100 24.60000
C  0.37200 4.98000 24.39100
C  -0.05300 2.10200 26.75500
C  -0.26800 2.73200 23.35200
O  -0.62500 3.13900 22.21300
C  -0.24100 1.33500 23.62600
N  0.70100 7.97200 23.65200
C  0.70300 6.92100 22.82500
C  0.89200 7.34200 21.33600
C  1.07000 8.86300 21.45900
C  0.99700 9.09800 23.00900
C  2.01300 6.56100 20.58900
C  0.32000 9.80500 20.45700
C  -1.16000 10.06700 20.64900
N  1.10300 9.74500 26.00500
C  1.35400 10.66600 24.99200
C  1.75300 11.87100 25.66100
C  1.75400 11.57900 27.05100
C  1.42800 10.28500 27.20300
C  2.17800 13.18900 25.11800
C  2.09200 12.14500 28.40700
O  2.59600 13.20100 28.69400
C  1.74200 11.03100 29.42300
C  2.85800 10.95500 30.41000
O  3.95000 10.46100 30.31600
O  2.49900 11.51900 31.52700
C  3.31800 11.51700 32.75400
H  0.69400 4.10800 28.52600
H  0.78700 4.96300 22.39400
H  1.77900 11.03700 22.90600
H  2.19400 8.13100 30.69200
H  0.55100 5.74800 30.51600
H  3.34200 6.08400 30.84100
H  3.00200 5.20000 29.24000
H  2.31900 4.56500 30.68900
H  -0.82800 7.52700 30.98300
H  -0.51700 9.18800 30.51500
H  -0.75800 8.12400 32.99600
H  -0.08000 9.63100 32.62900
H  0.82000 1.52200 26.45300
H  -0.92600 1.55500 26.40000
H  -0.00700 2.27600 27.83000
H  0.72000 1.04800 24.05300
H  -0.37100 0.85800 22.65500
H  -1.08300 0.95900 24.20600
H  -0.00700 7.21600 20.73300
H  2.12900 9.06900 21.30500
H  2.45700 7.23400 19.85500
H  1.67500 5.77000 19.91900
H  2.67600 6.11600 21.33100
H  0.56100 9.59000 19.41600
H  0.80400 10.74800 20.71000
H  -1.74100 9.71300 19.79800
H  -1.37800 11.08200 20.98300
H  -1.46500 9.41500 21.46700
H  1.70800 13.45500 24.17100
H  3.25800 13.30900 25.02800
H  1.77700 13.89000 25.85100
H  0.81800 11.36100 29.89800
H  3.75000 12.51800 32.73500
H  4.11100 10.77000 32.78300
H  2.67900 11.50200 33.63700
Mg 25.23300 -0.05900 28.39600
C  26.82100 -0.41300 31.45300
C  22.20900 0.03600 29.95100
C  23.86600 0.27900 25.26900
C  28.34400 -0.75900 26.75500
N  24.66200 -0.16200 30.46200
C  25.45300 -0.24400 31.55500
C  24.71200 -0.08600 32.90800
C  23.18300 -0.22900 32.39800
C  23.34400 -0.13300 30.78800
C  22.43200 -1.40200 32.90300
C  24.99900 1.20100 33.78900
C  25.23600 0.86600 35.22400
H  26.05100 1.76900 36.11000
N  23.33800 0.12500 27.72900
C  22.21200 0.22400 28.52000
C  21.13800 0.48600 27.64300
C  21.61900 0.65700 26.34900
C  23.04400 0.34800 26.38800
C  19.61400 0.45800 28.14900
C  20.81400 1.12000 25.05100
O  21.31400 1.18600 23.94100
C  19.30800 1.34500 25.16400
N  26.05200 -0.10700 26.27100
C  25.23400 0.05400 25.21100
C  26.03000 -0.03000 23.86300
C  27.47100 -0.40300 24.32300
C  27.31200 -0.48300 25.86000
C  25.54800 -1.07300 22.86800
C  28.56600 0.60400 23.89600
C  28.60700 1.94100 24.64700
N  27.15100 -0.48000 28.93700
C  28.32200 -0.81200 28.19200
C  29.38200 -1.10700 29.08600
C  28.85300 -0.95400 30.38600
C  27.51100 -0.60000 30.25800
C  30.84000 -1.39100 28.77200
C  29.19000 -0.94000 31.84600
O  30.23700 -1.10900 32.47500
C  27.91500 -0.59200 32.59800
C  27.74000 -1.62400 33.66600
O  26.96000 -2.59800 33.60000
O  28.45900 -1.30800 34.80500
C  28.25300 -2.03200 36.07600
H  21.28700 -0.02200 30.53400
H  23.34600 0.37200 24.31400
H  29.24900 -1.05400 26.21900
H  24.99500 -0.95200 33.50600
H  22.62100 0.62200 32.78300
H  22.11800 -1.23800 33.93400
H  23.05600 -2.29400 32.86000
H  21.61600 -1.61800 32.21300
H  24.22900 1.97000 33.73000
H  25.92500 1.71000 33.52100
H  25.74700 -0.09000 35.33600
H  24.24100 0.77600 35.66100
H  19.11200 -0.46500 27.85800
H  19.03400 1.25800 27.69000
H  19.41400 0.45900 29.22000
H  18.97600 1.68100 24.18100
H  19.07700 2.22900 25.75800
H  18.88200 0.40100 25.50400
H  26.04000 0.94600 23.37700
H  27.82100 -1.33800 23.88600
H  26.30500 -1.69500 22.39100
H  25.07700 -0.52500 22.05100
H  24.86300 -1.79700 23.31000
H  28.49800 0.85000 22.83700
H  29.52700 0.10300 24.00800
H  29.65800 2.02400 24.92400
H  27.95400 1.95400 25.52100
H  28.42100 2.72100 23.90900
H  30.96600 -1.84200 27.78800
H  31.14800 -2.15600 29.48500
H  31.45700 -0.49500 28.83700
H  28.01800 0.32300 33.18000
H  27.56400 -1.38000 36.61200
H  29.23100 -2.14400 36.54500
H  27.80600 -3.01400 35.92300

