158

Mg 47.92900 15.46100 28.33200
C  45.64500 14.91900 31.19700
C  50.00000 16.86700 30.55700
C  49.75200 16.15200 25.72300
C  45.40900 14.04400 26.34800
N  47.64700 15.95600 30.61500
C  46.75100 15.56900 31.57200
C  47.15900 16.08400 32.97300
C  48.39500 16.98000 32.58300
C  48.78300 16.49000 31.19400
C  48.21800 18.47400 32.65700
C  47.40600 14.98600 33.99900
C  46.78400 15.01200 35.39600
H  46.49700 16.22200 36.15600
N  49.71600 16.37300 28.15300
C  50.47100 16.87800 29.20700
C  51.68800 17.44000 28.63300
C  51.59500 17.14200 27.23000
C  50.28400 16.52400 26.96800
C  52.67500 18.24200 29.40500
C  52.65000 17.30500 26.08000
O  52.46500 16.99100 24.93200
C  54.00400 17.73000 26.52500
N  47.56200 15.20800 26.30500
C  48.52900 15.52000 25.40100
C  48.08600 15.27400 23.98000
C  46.77800 14.53900 24.17100
C  46.48000 14.62600 25.67700
C  47.81600 16.59300 23.21100
C  46.74100 13.03300 23.76300
C  46.07700 12.76300 22.41600
N  45.94600 14.64900 28.62800
C  45.12900 13.98500 27.72600
C  43.96100 13.45900 28.43800
C  44.20500 13.67600 29.79000
C  45.36200 14.51500 29.89600
C  42.70700 13.01000 27.86200
C  43.61500 13.51900 31.10200
O  42.61700 12.82800 31.37200
C  44.52200 14.37500 32.11400
C  43.66100 15.52300 32.58700
O  43.32800 16.47300 31.94000
O  43.20300 15.23000 33.82700
C  42.62900 16.34800 34.50400
H  50.60800 17.28500 31.36200
H  50.24100 16.56300 24.83800
H  44.65600 13.53400 25.74400
H  46.32900 16.66500 33.37500
H  49.15100 16.75500 33.33500
H  47.17100 18.76800 32.73100
H  48.59600 18.91800 31.73600
H  48.71500 18.86000 33.54700
H  48.46800 14.90100 34.22800
H  47.12500 14.03400 33.54700
H  47.24600 14.20800 35.96900
H  45.82900 14.55100 35.14500
H  53.66600 17.85900 29.16100
H  52.36400 18.37300 30.44100
H  52.57900 19.26200 29.03100
H  54.47500 16.88800 27.03000
H  54.09500 18.62000 27.14700
H  54.51000 17.81200 25.56200
H  48.88700 14.68100 23.53900
H  45.92900 15.06800 23.73700
H  48.07700 17.44600 23.83700
H  46.77700 16.73100 22.91200
H  48.39200 16.67900 22.29000
H  46.12500 12.56600 24.53200
H  47.73600 12.58700 23.76300
H  45.67600 13.70500 22.03900
H  45.25300 12.05100 22.45800
H  46.71800 12.35200 21.63600
H  41.79100 12.95200 28.44900
H  42.98700 12.03700 27.45800
H  42.48600 13.63400 26.99600
H  44.83900 13.83300 33.00500
H  41.74200 16.60900 33.92700
H  43.18500 17.27300 34.65100
H  42.19600 16.06300 35.46400
Mg 49.29200 44.51700 43.83300
C  46.07300 45.02400 42.70300
C  49.14700 41.25900 43.22100
C  52.66400 44.51000 44.20900
C  49.46200 48.16800 44.21900
N  47.75500 43.29800 43.07600
C  46.52000 43.67400 42.68500
C  45.76300 42.45700 42.18600
C  46.60800 41.22300 42.75600
C  47.97600 41.91300 43.04200
C  46.00600 40.62500 44.11300
C  45.66200 42.36700 40.66700
C  44.34800 42.04400 39.98200
H  43.68000 42.97800 38.95500
N  50.74600 43.09400 43.56100
C  50.50400 41.76200 43.38400
C  51.72100 41.06500 43.38100
C  52.77200 42.01500 43.52500
C  52.05300 43.27400 43.87200
C  51.83000 39.57000 43.20600
C  54.33100 41.74400 43.41900
O  54.54000 40.54700 43.24800
C  55.49300 42.77200 43.36900
N  50.81700 46.12000 44.25100
C  52.14700 45.75800 44.30500
C  53.12600 46.99700 44.41000
C  52.09200 48.15300 44.42300
C  50.64800 47.47600 44.24700
C  54.16600 46.99700 45.63700
C  52.34100 49.22600 43.29500
C  52.44600 50.67700 43.81400
N  48.00700 46.23700 43.51500
C  48.20800 47.62500 43.78000
C  47.02100 48.44500 43.39700
C  46.11300 47.41100 42.92400
C  46.79300 46.07700 43.10700
C  46.98500 50.01500 43.45500
C  44.78900 47.22400 42.35800
O  43.97800 48.00700 41.95800
C  44.73100 45.62500 42.24400
C  43.61000 45.06900 43.09400
O  43.63700 45.07800 44.33600
O  42.55700 44.62900 42.30000
C  41.33100 44.44900 43.06800
H  49.02400 40.17400 43.18700
H  53.68900 44.33600 44.54100
H  49.51500 49.25700 44.28500
H  44.76500 42.61200 42.59800
H  46.65400 40.49500 41.94600
H  45.59800 41.35600 44.81100
H  46.80300 40.14600 44.68200
H  45.32000 39.82500 43.83300
H  46.36500 41.62900 40.28000
H  45.86700 43.35600 40.25800
H  43.57900 41.89000 40.74000
H  44.39000 41.09700 39.44400
H  52.54100 39.34000 42.41200
H  50.91700 39.03200 42.95000
H  52.27900 39.17800 44.11900
H  55.18500 43.63800 42.78300
H  56.31100 42.23800 42.88800
H  55.80700 42.95400 44.39700
H  53.67600 47.02900 43.47000
H  52.19800 48.67700 45.37300
H  54.36600 46.03300 46.10400
H  53.77000 47.76600 46.30000
H  55.13500 47.32200 45.25800
H  51.53000 49.23400 42.56700
H  53.28800 48.91600 42.85500
H  52.23300 50.72400 44.88200
H  51.80400 51.37700 43.27900
H  53.46700 51.00300 43.61800
H  46.93700 50.30000 44.50600
H  46.05600 50.35600 42.99700
H  47.84500 50.44600 42.94200
H  44.45400 45.39000 41.21600
H  40.63800 44.26200 42.24800
H  41.01200 45.31700 43.64500
H  41.28300 43.51400 43.62700

