158

Mg 23.78300 -5.87400 46.14600
C  25.99800 -3.51900 44.77400
C  21.33500 -4.74500 44.21900
C  21.92200 -8.46400 47.25700
C  26.70400 -7.44400 47.64000
N  23.70300 -4.30100 44.75000
C  24.71600 -3.50300 44.25400
C  24.07600 -2.43900 43.32700
C  22.54600 -2.68500 43.37200
C  22.55000 -4.02000 44.11700
C  21.69100 -1.48100 43.85500
C  24.79900 -2.46100 41.88600
C  25.28200 -1.04000 41.42900
H  25.22100 -0.73400 39.92700
N  21.85100 -6.43500 45.89500
C  21.01100 -5.86300 44.99000
C  19.73200 -6.47100 45.05600
C  19.87700 -7.60500 45.92200
C  21.28000 -7.52800 46.42100
C  18.61500 -6.02000 44.09200
C  18.68700 -8.50700 46.31000
O  17.58400 -8.33900 45.82200
C  18.82500 -9.60200 47.34700
N  24.15700 -7.64200 47.39800
C  23.21900 -8.56900 47.71600
C  23.72600 -9.63900 48.68300
C  25.28500 -9.40400 48.60800
C  25.45500 -8.06300 47.84900
C  23.12300 -9.56000 50.06600
C  26.12100 -10.50000 47.82700
C  27.38000 -11.04300 48.55100
N  25.95000 -5.50800 46.31200
C  26.90500 -6.20800 46.99200
C  28.17400 -5.48700 46.81900
C  27.84500 -4.30600 46.01400
C  26.44300 -4.43800 45.71800
C  29.45600 -5.83600 47.47200
C  28.38500 -3.17000 45.28800
O  29.46300 -2.50500 45.31200
C  27.17100 -2.58600 44.46100
C  27.00100 -1.24900 45.04300
O  26.81800 -0.93700 46.22000
O  27.21100 -0.24200 44.01700
C  27.12100 1.17000 44.37600
H  20.57900 -4.22200 43.63000
H  21.34800 -9.35500 47.52200
H  27.57900 -7.92400 48.08400
H  24.35000 -1.51800 43.84100
H  22.24400 -3.02600 42.38200
H  21.43000 -0.99700 42.91400
H  22.39400 -0.84300 44.39000
H  20.72900 -1.71400 44.31100
H  24.19400 -2.78800 41.04100
H  25.63600 -3.15800 41.86900
H  26.31000 -1.00100 41.78800
H  24.80700 -0.22200 41.97000
H  17.84100 -6.76900 43.92400
H  19.00200 -5.61900 43.15500
H  18.13700 -5.27500 44.72800
H  17.87900 -10.14500 47.34700
H  19.09900 -9.12300 48.28700
H  19.52800 -10.38800 47.07200
H  23.38200 -10.58700 48.27000
H  25.76500 -9.16600 49.55600
H  22.10800 -9.94400 49.96600
H  23.13500 -8.58100 50.54500
H  23.52600 -10.34000 50.71100
H  26.51300 -10.07300 46.90400
H  25.43700 -11.32000 47.60900
H  27.49700 -12.11500 48.39400
H  27.40400 -10.75100 49.60000
H  28.25200 -10.51500 48.16300
H  29.39300 -6.55300 48.29000
H  30.00000 -4.95200 47.80400
H  30.06600 -6.15000 46.62400
H  27.54400 -2.53500 43.43800
H  27.43500 1.40900 45.39200
H  26.17200 1.56300 44.01100
H  27.86200 1.54300 43.67000
Mg 26.55000 49.77400 26.90600
C  24.35200 51.10800 29.53600
C  28.89700 49.19900 29.36600
C  28.68500 48.94900 24.53200
C  24.28000 50.96800 24.61200
N  26.56900 50.06600 29.20800
C  25.56600 50.55600 30.03800
C  26.03400 50.42900 31.44500
C  27.53600 49.88100 31.45000
C  27.69300 49.59200 29.94100
C  28.62500 50.75700 32.04900
C  25.04400 49.38100 32.20400
C  24.34100 49.97000 33.51100
H  24.30800 49.06900 34.75500
N  28.52900 49.26400 26.95200
C  29.31700 48.95800 28.01200
C  30.60100 48.45300 27.64900
C  30.57300 48.53500 26.20300
C  29.23100 48.91400 25.83700
C  31.68300 47.74700 28.52900
C  31.67500 48.19400 25.22300
O  31.46800 48.29800 24.04500
C  32.99000 47.63200 25.73700
N  26.47800 49.94300 24.87200
C  27.42100 49.37500 24.09000
C  26.98500 49.24500 22.59000
C  25.55500 49.97800 22.58600
C  25.37800 50.33100 24.10700
C  28.03500 49.94900 21.58400
C  24.42200 49.14200 21.97700
C  24.07800 49.43200 20.53700
N  24.66000 50.78500 26.98300
C  23.82700 51.05500 25.93000
C  22.62600 51.70200 26.44900
C  22.77200 51.63300 27.83700
C  24.02300 51.09700 28.16000
C  21.54600 52.39500 25.58700
C  22.12100 51.95800 29.09700
O  21.01700 52.47200 29.28500
C  23.09800 51.65600 30.22000
C  23.42700 52.84100 31.06000
O  24.13800 53.81800 30.76900
O  22.89900 52.70100 32.33700
C  23.07300 53.63300 33.34700
H  29.50900 48.74700 30.14900
H  29.24700 48.42800 23.75400
H  23.51000 51.18200 23.86700
H  25.97300 51.42500 31.88200
H  27.71900 48.91400 31.91900
H  29.27800 51.11300 31.25300
H  29.21600 50.14500 32.73000
H  28.20000 51.64200 32.52300
H  25.69100 48.57700 32.55400
H  24.23900 49.12700 31.51400
H  23.29700 50.21100 33.31100
H  24.68700 50.96000 33.80700
H  31.64300 46.68100 28.30100
H  31.42400 47.98200 29.56100
H  32.66200 48.17300 28.31000
H  33.51500 48.30700 26.41400
H  33.65600 47.33400 24.92800
H  32.68900 46.71100 26.23600
H  26.94100 48.19900 22.28700
H  25.72000 50.91800 22.05900
H  28.92200 50.40100 22.02700
H  27.74600 50.69500 20.84400
H  28.45700 49.19500 20.92000
H  23.51400 49.36100 22.53900
H  24.63700 48.07700 22.05900
H  23.09300 49.90000 20.55200
H  24.02400 48.50500 19.96600
H  24.83800 50.06800 20.08400
H  20.57700 52.18000 26.03900
H  21.61600 52.22000 24.51400
H  21.73100 53.45800 25.74000
H  22.72400 50.82400 30.81700
H  23.61200 54.55200 33.11700
H  23.36400 53.23200 34.31800
H  22.01700 53.89300 33.42500

