158

Mg 31.06900 58.30700 39.96200
C  28.18900 56.49500 38.95400
C  32.94200 55.60900 39.23100
C  33.77400 60.31300 40.04500
C  29.06700 61.21000 40.25600
N  30.58200 56.38900 39.08500
C  29.40200 55.82500 38.68600
C  29.54700 54.34800 38.24000
C  30.97100 54.01100 38.91000
C  31.55800 55.44900 39.05300
C  30.93300 53.07200 40.12900
C  29.54600 54.37600 36.72500
C  28.36400 53.66500 35.98400
H  27.35200 54.57500 35.24600
N  33.04300 58.01100 39.69200
C  33.65100 56.81900 39.45100
C  35.07900 57.01400 39.36700
C  35.36800 58.35900 39.70500
C  34.03700 59.01900 39.75300
C  35.99600 55.83400 39.08800
C  36.77800 58.93800 39.93800
O  37.76600 58.28500 39.63300
C  36.94700 60.33000 40.30900
N  31.41600 60.57100 39.79600
C  32.65000 61.06500 40.05500
C  32.62000 62.45900 40.58700
C  31.11600 62.70100 40.88100
C  30.44600 61.41000 40.28500
C  33.52300 62.69900 41.84700
C  30.40700 63.93000 40.23300
C  29.33600 64.73000 41.12600
N  29.00500 58.78300 39.70200
C  28.38700 60.00400 39.93600
C  26.96000 59.78700 39.84600
C  26.84000 58.39300 39.51900
C  28.12200 57.83200 39.36000
C  25.78100 60.78600 40.11100
C  25.87000 57.34600 39.37600
O  24.66100 57.38700 39.48400
C  26.73400 56.06700 38.85500
C  26.35100 54.85100 39.68000
O  27.00100 54.34300 40.53400
O  25.25200 54.23600 39.08400
C  24.79400 52.97100 39.60800
H  33.51700 54.69300 39.08500
H  34.60800 61.00700 40.16700
H  28.51200 62.07800 40.61800
H  28.73100 53.74500 38.63700
H  31.59400 53.64200 38.09400
H  29.93300 52.68000 40.31400
H  31.27000 53.69800 40.95500
H  31.63400 52.26000 39.93800
H  30.44500 53.92000 36.31000
H  29.72100 55.41300 36.43900
H  27.84100 52.99600 36.66700
H  28.83400 53.02100 35.24100
H  36.10000 55.83400 38.00300
H  35.71200 54.86100 39.48800
H  37.01800 55.82100 39.46500
H  36.47100 60.55900 41.26300
H  36.52500 60.92900 39.50200
H  38.01700 60.43000 40.49000
H  33.00900 63.10000 39.79500
H  30.96000 62.60800 41.95600
H  33.98100 61.78100 42.21400
H  32.89600 63.21600 42.57300
H  34.28300 63.38300 41.46800
H  30.08800 63.53400 39.27000
H  31.23600 64.60300 40.01200
H  28.44000 64.92200 40.53500
H  29.76400 65.66900 41.47600
H  28.99400 64.24100 42.03800
H  25.88000 61.40700 39.22100
H  25.93100 61.42200 40.98300
H  24.81300 60.28400 40.12000
H  26.45500 55.84200 37.82600
H  25.62400 52.26500 39.62500
H  23.95300 52.51900 39.08400
H  24.56300 53.09300 40.66600
Mg 9.33100 47.88400 26.87200
C  7.32600 47.72400 29.65000
C  12.01100 48.78800 28.72800
C  11.14600 48.54500 24.00800
C  6.41300 47.70800 24.75000
N  9.50000 48.48000 28.89100
C  8.63900 48.16200 29.89600
C  9.33400 48.43400 31.25200
C  10.75000 48.76500 30.88800
C  10.75100 48.76000 29.34000
C  11.19500 50.16400 31.42200
C  9.03300 47.31100 32.28700
C  9.94100 47.07600 33.49900
H  9.26900 46.56900 34.82900
N  11.36100 48.37300 26.39100
C  12.28600 48.59000 27.33600
C  13.58400 48.68000 26.64800
C  13.36400 48.48400 25.22000
C  11.85600 48.45900 25.17600
C  14.83500 49.12700 27.37000
C  14.37300 48.47100 24.09300
O  13.94700 48.47400 22.92900
C  15.86500 48.33000 24.45200
N  8.86700 48.28200 24.65400
C  9.81200 48.36200 23.75100
C  9.22000 48.11400 22.33300
C  7.79300 47.75800 22.62700
C  7.67100 47.86800 24.11100
C  9.40400 49.25700 21.35100
C  7.32100 46.37800 22.09700
C  5.93900 46.29700 21.34900
N  7.28400 47.70400 27.13400
C  6.24900 47.62300 26.20300
C  5.00000 47.38300 26.98000
C  5.36900 47.27800 28.34600
C  6.79900 47.56500 28.36700
C  3.68700 47.05700 26.26400
C  4.94500 46.98900 29.70500
O  3.91500 46.55900 30.17400
C  6.17700 47.29200 30.62100
C  6.31800 45.94300 31.30000
O  7.14200 45.04800 31.09400
O  5.48400 45.92300 32.38700
C  5.72500 44.77900 33.35800
H  12.90200 48.95300 29.33600
H  11.69600 48.59200 23.06600
H  5.62200 47.51200 24.02300
H  8.82300 49.31900 31.63100
H  11.39600 48.03100 31.36900
H  12.17600 50.02500 31.87600
H  10.47800 50.50700 32.16800
H  11.26800 50.89100 30.61200
H  9.00500 46.38600 31.71100
H  8.05900 47.70300 32.58100
H  10.51400 47.98000 33.70700
H  10.63300 46.29000 33.19700
H  14.65700 49.54900 28.35900
H  15.28800 49.90500 26.75600
H  15.64300 48.39600 27.41700
H  16.02200 47.61500 25.26000
H  16.32300 49.31100 24.57600
H  16.26700 47.91800 23.52600
H  9.78400 47.30300 21.87200
H  7.18200 48.55700 22.20700
H  8.41900 49.30000 20.88500
H  10.34100 49.28500 20.79600
H  9.35200 50.12300 22.01200
H  7.07000 45.75200 22.95300
H  8.06600 45.90600 21.45600
H  5.40600 47.24200 21.45400
H  5.47100 45.45300 21.85600
H  5.96500 46.00900 20.29800
H  3.35100 48.02100 25.88300
H  2.98400 46.74300 27.03500
H  3.88200 46.30300 25.50200
H  6.00300 47.98500 31.44400
H  6.33600 45.01200 34.23000
H  6.02600 43.82900 32.91700
H  4.74000 44.44900 33.68700

