158

Mg 30.35600 57.56700 39.85500
C  27.54500 55.48600 39.24100
C  32.46000 55.09600 39.12700
C  32.87900 59.84500 40.10600
C  28.01800 60.15600 40.54900
N  30.01700 55.53300 39.26600
C  28.81500 54.93600 38.81100
C  29.14100 53.55000 38.23300
C  30.66900 53.42200 38.36600
C  31.06500 54.76200 39.02800
C  31.09700 52.21800 39.25300
C  28.42900 53.34900 36.86200
C  28.75300 54.35800 35.75600
H  27.61400 55.17300 35.20900
N  32.33300 57.48100 39.57600
C  33.04200 56.36200 39.33400
C  34.40600 56.65300 39.19100
C  34.57600 58.02700 39.46100
C  33.24400 58.52200 39.75800
C  35.49200 55.62600 38.96200
C  36.01300 58.69400 39.65400
O  36.93200 58.03700 39.27200
C  36.33500 60.05800 40.16200
N  30.44300 59.77700 40.15200
C  31.62000 60.47300 40.23700
C  31.34600 62.02000 40.48400
C  29.75900 62.03400 40.56900
C  29.39100 60.55200 40.48200
C  32.06600 62.63100 41.71700
C  29.08600 62.77700 39.37900
C  28.74400 64.23400 39.69500
N  28.21900 57.75900 39.98900
C  27.45800 58.85200 40.31000
C  26.08300 58.55100 40.27000
C  26.06600 57.18600 39.85200
C  27.37600 56.77800 39.68100
C  24.89500 59.36300 40.55600
C  25.18100 56.10000 39.62100
O  23.93700 56.07800 39.75500
C  26.13200 54.92900 39.20100
C  26.04400 53.80100 40.18600
O  26.55800 53.67900 41.30300
O  25.40200 52.84100 39.56800
C  25.33000 51.59900 40.34100
H  33.22200 54.36000 38.86500
H  33.72900 60.52700 40.02400
H  27.24500 60.91500 40.69200
H  28.58600 52.83700 38.84400
H  31.11600 53.36300 37.37400
H  31.73700 51.51900 38.71400
H  30.21500 51.72300 39.65900
H  31.56000 52.51400 40.19400
H  27.35700 53.26700 37.03900
H  28.67800 52.34000 36.53300
H  29.04200 53.77500 34.88200
H  29.52000 55.03500 36.13200
H  35.86400 55.87400 37.96800
H  35.21400 54.57300 38.92100
H  36.22100 55.68400 39.77100
H  36.22600 60.71500 39.29900
H  37.40800 60.15900 40.32400
H  35.76600 60.41700 41.02000
H  31.76200 62.49300 39.59400
H  29.42500 62.52400 41.48300
H  32.39800 63.66700 41.64600
H  32.93700 62.06200 42.04200
H  31.22800 62.77400 42.40000
H  28.29700 62.19200 38.90800
H  29.81300 62.91500 38.57800
H  29.29300 64.91700 39.04800
H  28.88800 64.52300 40.73600
H  27.73400 64.40100 39.32000
H  24.50000 58.99600 41.50400
H  24.19500 59.37000 39.72200
H  25.33400 60.33300 40.78800
H  25.85400 54.53600 38.22300
H  26.23200 51.01400 40.16600
H  24.41500 51.13200 39.97700
H  25.30000 51.76400 41.41800
Mg -2.47400 35.14300 26.40100
C  -4.13300 33.36200 28.81200
C  -1.24400 37.26200 28.81900
C  -1.55700 37.34700 23.94300
C  -4.17100 33.27100 24.00600
N  -2.62800 35.21300 28.54600
C  -3.18300 34.29200 29.37400
C  -2.89800 34.63900 30.91500
C  -2.12700 36.00300 30.87100
C  -1.97000 36.21400 29.29000
C  -2.61800 37.19700 31.69800
C  -2.00700 33.53300 31.61200
C  -2.75700 32.62200 32.66200
H  -2.22200 32.50200 34.12400
N  -1.36700 37.01000 26.33200
C  -0.92800 37.67900 27.47000
C  0.08900 38.70300 26.99800
C  -0.10600 38.74200 25.53900
C  -1.05000 37.69100 25.17000
C  0.95700 39.45000 28.03100
C  0.54000 39.65000 24.51500
O  0.39800 39.66600 23.30400
C  1.46900 40.60800 24.98100
N  -2.94300 35.39600 24.34900
C  -2.43800 36.33500 23.51800
C  -2.99000 36.27000 22.08400
C  -3.71900 34.85300 22.15700
C  -3.47000 34.43400 23.59000
C  -3.96800 37.45500 21.74400
C  -2.99700 33.85200 21.11900
C  -1.70200 32.99800 21.45600
N  -3.75700 33.51000 26.34800
C  -4.31000 32.80400 25.31900
C  -5.05900 31.74900 25.88500
C  -4.97300 31.92300 27.23200
C  -4.23400 33.03500 27.49100
C  -5.86700 30.76300 25.12700
C  -5.44900 31.31800 28.48000
O  -6.14800 30.32600 28.65600
C  -4.78100 32.19500 29.62800
C  -5.85300 32.62400 30.58900
O  -6.60400 33.62300 30.45800
O  -6.02900 31.69200 31.59700
C  -6.91800 32.16800 32.67200
H  -0.81500 37.97300 29.52800
H  -1.33800 38.09500 23.17800
H  -4.74600 32.76100 23.23100
H  -3.86100 34.72600 31.41800
H  -1.11000 35.82100 31.21800
H  -1.83900 37.37900 32.43900
H  -3.51700 36.88700 32.23000
H  -2.85700 38.05700 31.07400
H  -1.12500 33.94400 32.10300
H  -1.66100 32.83700 30.84600
H  -2.82600 31.59600 32.30200
H  -3.78200 32.96800 32.79800
H  0.64400 40.49300 28.06900
H  1.98500 39.56600 27.68800
H  0.83600 39.12000 29.06300
H  2.32200 40.00000 25.28400
H  1.11100 41.08000 25.89600
H  1.77300 41.28100 24.17900
H  -2.18000 36.40900 21.36800
H  -4.78500 34.97800 21.96500
H  -4.26700 38.05600 22.60300
H  -4.89200 37.23900 21.20700
H  -3.42500 38.18800 21.14700
H  -2.87600 34.44200 20.21000
H  -3.82500 33.18700 20.87400
H  -1.00300 32.83800 20.63500
H  -2.05300 31.97700 21.60400
H  -1.28200 33.39700 22.38000
H  -5.20600 30.31500 24.38500
H  -6.62200 31.27800 24.53300
H  -6.38300 30.02000 25.73400
H  -3.95200 31.77300 30.19500
H  -6.17300 32.71300 33.25100
H  -7.30600 31.33700 33.26100
H  -7.71300 32.87200 32.42300

