158

Mg 47.33900 15.83000 27.57800
C  45.59100 15.74100 30.49400
C  49.98400 17.34400 29.19000
C  48.77400 16.55800 24.64200
C  44.39800 14.76900 25.75100
N  47.64900 16.57600 29.56600
C  46.79600 16.37800 30.65000
C  47.49300 16.69200 32.02800
C  48.82000 17.36700 31.55500
C  48.88700 17.01200 29.99500
C  48.97800 18.87800 31.81200
C  47.68100 15.46200 32.86600
C  47.27800 15.64000 34.36600
H  47.20800 17.08400 35.01000
N  49.10800 16.76300 27.03700
C  50.15000 17.18100 27.81000
C  51.37700 17.43100 27.07500
C  50.91200 17.25100 25.74700
C  49.53600 16.70900 25.73200
C  52.68900 17.67500 27.70900
C  51.81100 17.44600 24.38400
O  51.31900 17.10000 23.26900
C  53.09800 17.99700 24.35400
N  46.59400 15.73700 25.55200
C  47.42400 16.19800 24.55800
C  46.62700 16.17400 23.27500
C  45.42400 15.31800 23.55700
C  45.48500 15.23300 25.05400
C  46.30300 17.70900 22.94700
C  45.40300 13.87500 23.01800
C  44.08600 13.44900 22.33100
N  45.36400 15.28600 27.97700
C  44.29800 14.82000 27.15800
C  43.21200 14.43500 28.01500
C  43.64500 14.74900 29.36800
C  44.98300 15.26900 29.22600
C  41.93700 13.62900 27.62700
C  43.30500 14.70100 30.76900
O  42.32900 14.28700 31.35200
C  44.54100 15.28700 31.52100
C  44.02100 16.42000 32.34900
O  43.76300 17.50000 31.94700
O  43.67800 15.95000 33.63100
C  42.68300 16.77000 34.31600
H  50.80300 17.79100 29.75800
H  49.14200 16.72300 23.62700
H  43.49600 14.45200 25.22300
H  46.87800 17.46600 32.48700
H  49.64100 16.77500 31.96000
H  49.10800 19.46100 30.90000
H  49.88500 19.04800 32.39200
H  48.16000 19.19500 32.45800
H  48.74400 15.22000 32.86600
H  47.12300 14.65600 32.38800
H  47.92200 14.98700 34.95600
H  46.27200 15.22200 34.39300
H  53.37500 16.90600 27.35400
H  52.51800 17.45200 28.76300
H  52.92600 18.72100 27.51900
H  53.04100 18.77300 23.59100
H  53.76500 17.19200 24.04700
H  53.40500 18.44300 25.30100
H  47.25400 15.70100 22.51900
H  44.53400 15.90700 23.33300
H  47.21000 18.20100 22.59700
H  45.97800 18.26800 23.82500
H  45.50900 17.69100 22.20100
H  45.71700 13.09200 23.70900
H  46.12800 13.61500 22.24700
H  43.35100 14.25300 22.36600
H  43.75000 12.47900 22.69700
H  44.27600 13.24000 21.27800
H  41.04700 14.24900 27.52200
H  41.64600 12.76000 28.21700
H  42.29400 13.20900 26.68700
H  44.96500 14.43600 32.05400
H  41.78800 16.99100 33.73400
H  43.15300 17.63700 34.78100
H  42.26100 16.16400 35.11800
Mg 48.92800 34.93300 27.41400
C  46.93800 33.14700 29.92400
C  49.36300 37.35600 29.70300
C  50.25300 36.65900 24.96900
C  48.21200 32.25900 25.18200
N  48.18800 35.18900 29.54800
C  47.56700 34.32800 30.39800
C  47.67100 34.89500 31.80700
C  47.88900 36.41100 31.59700
C  48.50100 36.33400 30.22900
C  46.52000 37.28500 31.63200
C  48.68500 34.10600 32.60700
C  48.74500 33.90900 34.09300
H  47.73200 34.80300 34.83200
N  49.70500 36.68200 27.39200
C  49.96100 37.52800 28.51300
C  50.69700 38.67800 28.07500
C  50.79300 38.60500 26.67100
C  50.24600 37.26600 26.30900
C  51.26100 39.81900 29.01100
C  51.40900 39.49000 25.65500
O  51.29900 39.22400 24.48500
C  52.19700 40.61800 26.07000
N  49.14900 34.52300 25.34400
C  49.78100 35.41300 24.58500
C  50.26000 34.79900 23.27300
C  49.77600 33.30200 23.40900
C  48.97900 33.34000 24.65100
C  49.86700 35.46800 21.95300
C  50.86600 32.19200 23.47000
C  50.49200 30.81100 22.82000
N  47.84000 33.12200 27.48500
C  47.67500 32.19500 26.49400
C  46.84900 31.08700 27.03800
C  46.54100 31.41600 28.37800
C  47.12500 32.64500 28.59100
C  46.34800 29.89500 26.34400
C  45.90000 30.94900 29.50700
O  45.41900 29.83800 29.73700
C  46.05500 32.10500 30.56000
C  46.52900 31.53000 31.81800
O  47.55800 30.93100 31.96700
O  45.62400 31.76800 32.76100
C  45.81700 31.28300 34.10200
H  49.68400 38.06600 30.46800
H  50.83000 37.13100 24.17100
H  48.04000 31.44500 24.47400
H  46.73000 34.66500 32.30700
H  48.48600 36.75800 32.44000
H  46.25800 37.49900 30.59500
H  46.73100 38.18100 32.21500
H  45.68800 36.68100 31.99200
H  49.59200 34.68700 32.44400
H  48.85700 33.14900 32.11500
H  49.78600 34.09300 34.35800
H  48.55500 32.84000 34.19800
H  50.56400 40.05400 29.81500
H  51.23800 40.79900 28.53400
H  52.28700 39.65200 29.33900
H  52.77900 40.27700 26.92600
H  51.47600 41.42800 26.17800
H  52.88300 40.93100 25.28200
H  51.34800 34.75000 23.22200
H  49.14300 33.05100 22.55800
H  50.64300 35.34100 21.19900
H  49.81700 36.55000 22.08000
H  48.88100 35.23300 21.55300
H  50.92500 31.95700 24.53200
H  51.86900 32.51000 23.18500
H  49.84100 31.01900 21.97200
H  50.04000 30.18900 23.59300
H  51.37800 30.37800 22.35600
H  45.69300 30.46500 25.68600
H  45.81900 29.18300 26.97700
H  47.10300 29.39300 25.73800
H  45.09100 32.57900 30.74200
H  45.91500 30.19700 34.12000
H  45.00500 31.59200 34.76100
H  46.74400 31.67200 34.52300

