158

Mg 24.99500 1.36100 29.38200
C  27.00400 1.51000 32.12200
C  22.17100 1.26700 31.29500
C  23.12300 1.17500 26.52500
C  27.90600 1.29900 27.33000
N  24.64300 1.05900 31.53300
C  25.61600 1.48900 32.43100
C  25.02200 1.78000 33.80900
C  23.48000 1.61900 33.56200
C  23.37700 1.31000 32.06000
C  22.75500 0.51400 34.39500
C  25.44300 3.10000 34.32100
C  24.76300 3.49600 35.67400
H  25.16400 2.83600 37.06700
N  23.00700 1.26300 28.96000
C  21.93900 1.14900 29.91300
C  20.71100 1.09900 29.22500
C  20.93200 1.07000 27.79000
C  22.39000 1.18200 27.73300
C  19.41200 1.02200 30.02800
C  19.84200 0.83800 26.70700
O  20.10000 1.09600 25.56900
C  18.37000 0.50400 27.01700
N  25.47600 1.30700 27.20500
C  24.47600 1.29800 26.29900
C  25.04500 1.37000 24.80200
C  26.59300 1.48000 25.08200
C  26.70200 1.37900 26.63200
C  24.65200 0.04100 24.01500
C  27.22800 2.74200 24.46900
C  26.46200 4.11400 24.64800
N  27.10500 1.10200 29.58800
C  28.11000 1.22700 28.74800
C  29.30200 0.94600 29.45400
C  28.98900 1.21300 30.79000
C  27.59900 1.22600 30.80600
C  30.64600 0.62600 28.83600
C  29.46100 1.38100 32.09100
O  30.59000 1.30400 32.52000
C  28.22200 1.80400 32.99400
C  28.40800 0.89100 34.21600
O  28.12600 -0.30200 34.30300
O  29.00800 1.63500 35.30200
C  28.89800 1.01100 36.62500
H  21.28600 1.30400 31.93300
H  22.34000 1.13200 25.76500
H  28.83700 1.12600 26.78700
H  25.48200 0.95300 34.35200
H  22.95200 2.55500 33.74100
H  21.70300 0.67500 34.63000
H  23.19600 0.38300 35.38400
H  22.87500 -0.42100 33.84800
H  25.33200 3.90600 33.59500
H  26.51700 3.00900 34.48100
H  23.68500 3.34700 35.74600
H  24.99400 4.55500 35.78100
H  18.70700 0.24400 29.73600
H  18.91000 1.98400 30.13200
H  19.68100 0.66600 31.02200
H  18.51700 -0.41300 27.58700
H  17.94400 0.22400 26.05400
H  17.93100 1.26600 27.66200
H  24.64500 2.24500 24.28800
H  27.16900 0.60900 24.77000
H  25.42100 -0.22000 23.28900
H  23.74500 0.14600 23.41900
H  24.25900 -0.75400 24.64900
H  27.33500 2.64700 23.38800
H  28.22300 2.90600 24.88100
H  25.64200 4.11100 25.36600
H  26.07900 4.31400 23.64700
H  27.21600 4.84000 24.95000
H  30.91600 1.37500 28.09100
H  30.62100 -0.38000 28.41800
H  31.32500 0.77900 29.67400
H  28.19100 2.86100 33.25600
H  27.99400 1.33300 37.14200
H  29.75900 1.27600 37.23900
H  28.86800 -0.06000 36.42700
Mg 44.35200 5.07200 47.54700
C  42.04000 7.81100 47.51600
C  41.66800 2.97900 47.03000
C  46.56400 2.66200 46.93400
C  46.92000 7.45300 47.18700
N  42.15200 5.34100 47.45100
C  41.46900 6.56400 47.39900
C  39.92600 6.31100 47.39000
C  39.83000 4.68100 47.35700
C  41.29800 4.30100 47.28000
C  38.93800 4.07100 48.50300
C  39.11800 6.99200 46.23800
C  40.03600 7.17700 45.00700
H  39.43900 6.69500 43.66900
N  44.18200 3.04000 47.16200
C  42.97500 2.35200 46.97100
C  43.25500 1.01600 46.62100
C  44.64000 0.89900 46.46000
C  45.18700 2.20600 46.86800
C  42.18400 -0.01900 46.32700
C  45.30400 -0.40900 45.95800
O  44.74200 -1.52000 45.77900
C  46.73200 -0.31500 45.57200
N  46.44400 5.03100 47.17100
C  47.16300 3.88300 46.99900
C  48.65000 4.04000 47.12200
C  48.73300 5.59100 46.92400
C  47.30700 6.10800 47.08900
C  49.24000 3.60300 48.47700
C  49.24900 5.93900 45.51400
C  50.62200 5.48400 45.16300
N  44.50400 7.16300 47.37300
C  45.63100 7.97700 47.28500
C  45.18700 9.33000 47.24200
C  43.81900 9.33400 47.44600
C  43.38500 7.98700 47.44900
C  46.11600 10.52100 47.15100
C  42.62100 10.14900 47.65200
O  42.51400 11.38100 47.73700
C  41.42400 9.24300 47.66000
C  40.58500 9.44700 48.90600
O  40.60300 8.74300 49.91400
O  39.52500 10.32100 48.63700
C  38.27600 10.22300 49.47600
H  40.81400 2.33300 46.81600
H  47.34300 1.90200 46.83900
H  47.81300 8.05100 46.99300
H  39.48600 6.65900 48.32400
H  39.45700 4.37200 46.38100
H  39.55700 3.63300 49.28700
H  38.31800 3.22400 48.21200
H  38.29100 4.81100 48.97400
H  38.76600 7.99200 46.49100
H  38.24300 6.39500 45.98000
H  41.04900 6.78700 45.09800
H  40.12600 8.26200 44.96900
H  41.15300 0.26400 46.54000
H  42.34400 -0.93300 46.89900
H  42.22500 -0.24300 45.26000
H  46.95300 -1.13900 44.89400
H  47.29700 -0.57300 46.46700
H  47.04000 0.59800 45.06200
H  49.04700 3.62200 46.19600
H  49.40400 6.01400 47.67200
H  49.93900 4.31300 48.92100
H  49.67300 2.60300 48.48600
H  48.44600 3.45300 49.20800
H  49.15100 7.02400 45.47700
H  48.48200 5.56000 44.83900
H  51.12900 4.72100 45.75400
H  51.15200 6.43600 45.17800
H  50.70200 5.12900 44.13500
H  45.62900 11.49400 47.07500
H  46.69600 10.42200 46.23300
H  46.83300 10.35600 47.95500
H  40.87500 9.53900 46.76500
H  38.27400 11.08400 50.14400
H  38.25900 9.41100 50.20400
H  37.38800 10.13300 48.85100

