158

Mg 2.72500 -2.78700 43.96100
C  5.89000 -0.98200 43.22400
C  1.09900 -0.29600 42.11900
C  0.02300 -4.59100 44.15200
C  4.58700 -5.10300 45.49200
N  3.46600 -0.83100 42.80800
C  4.77200 -0.33200 42.68700
C  4.77800 0.91200 41.80100
C  3.21600 1.25400 41.80600
C  2.50000 -0.02700 42.25900
C  2.69600 2.62100 42.35900
C  5.44000 0.64800 40.45400
C  6.43900 1.67400 39.89800
H  6.16300 2.17100 38.53000
N  0.87200 -2.51000 43.12300
C  0.36100 -1.42500 42.47800
C  -1.02600 -1.69900 42.21500
C  -1.31400 -2.99600 42.68900
C  -0.15300 -3.43400 43.36100
C  -1.93600 -0.73400 41.45000
C  -2.64100 -3.76100 42.54800
O  -3.60400 -3.29400 41.98300
C  -2.79600 -5.26500 42.98700
N  2.34800 -4.85700 44.34800
C  1.07000 -5.20800 44.63800
C  1.01800 -6.46800 45.44600
C  2.49400 -6.66900 45.90800
C  3.15900 -5.44300 45.26200
C  -0.00100 -6.53600 46.68400
C  3.13400 -8.08900 45.72600
C  3.47400 -8.35200 44.25900
N  4.75200 -2.98400 44.47300
C  5.35100 -4.03300 45.10300
C  6.75200 -3.78900 45.31800
C  6.99500 -2.61600 44.61800
C  5.72300 -2.16900 44.08000
C  7.67000 -4.79300 45.96100
C  8.03600 -1.69500 44.13700
O  9.23100 -1.75000 44.25600
C  7.39000 -0.58700 43.28000
C  7.49600 0.74900 43.95800
O  6.84800 1.07800 44.95600
O  8.48400 1.53000 43.39000
C  8.87300 2.63300 44.27800
H  0.64900 0.49000 41.50900
H  -0.91300 -5.08800 44.41400
H  5.22800 -5.79900 46.03600
H  5.22200 1.73400 42.36200
H  2.95800 1.36500 40.75300
H  2.35100 3.22800 41.52300
H  3.46300 3.20700 42.86500
H  1.88400 2.43900 43.06300
H  4.68600 0.43300 39.69700
H  5.98900 -0.28600 40.56900
H  7.40800 1.17700 39.91800
H  6.33700 2.56100 40.52400
H  -2.51700 -0.07000 42.09000
H  -2.51600 -1.28000 40.70600
H  -1.32100 -0.06200 40.85000
H  -1.92100 -5.73600 42.53900
H  -3.68900 -5.65300 42.49600
H  -2.99800 -5.38800 44.05100
H  0.72400 -7.19200 44.68600
H  2.60600 -6.46200 46.97200
H  -0.78200 -7.27700 46.51700
H  -0.43600 -5.55500 46.87600
H  0.46200 -6.82500 47.62800
H  2.37300 -8.81000 46.02500
H  4.05200 -8.21100 46.30100
H  4.52000 -8.10700 44.07700
H  2.85600 -7.79000 43.55900
H  3.30300 -9.39600 43.99600
H  7.39400 -5.79600 45.63700
H  7.58300 -4.62800 47.03500
H  8.71900 -4.56300 45.77400
H  7.73400 -0.52500 42.24800
H  9.11300 2.17300 45.23700
H  8.17200 3.46700 44.26300
H  9.82800 3.00600 43.90800
Mg 25.38300 2.44400 29.58400
C  27.44600 2.26200 32.24000
C  22.68800 2.92400 31.81300
C  23.15000 2.07700 27.04000
C  27.86100 1.04400 27.53200
N  25.09300 2.48600 31.75900
C  26.10500 2.60800 32.56100
C  25.69100 3.01300 34.00800
C  24.13000 3.07300 33.88400
C  23.94700 2.78300 32.39300
C  23.51900 1.98100 34.72500
C  26.39400 4.32800 34.50700
C  27.28500 4.19500 35.80700
H  26.91300 5.11900 36.91800
N  23.21100 2.61600 29.44600
C  22.25600 2.78400 30.47900
C  20.96900 2.97800 29.89600
C  21.04500 2.66500 28.54600
C  22.48300 2.40500 28.23500
C  19.78500 3.36700 30.76200
C  19.94400 2.60000 27.41200
O  20.10200 2.30100 26.24900
C  18.62200 3.00200 27.87200
N  25.48700 1.60400 27.53300
C  24.46200 1.82500 26.66500
C  24.90200 1.52500 25.17700
C  26.40400 1.18400 25.39000
C  26.60300 1.27400 26.90600
C  24.04000 0.45400 24.47900
C  27.46600 1.86400 24.54800
C  27.85000 3.27500 25.11100
N  27.32600 1.75800 29.79000
C  28.19500 1.26700 28.87000
C  29.49500 1.09700 29.53700
C  29.23600 1.50500 30.88700
C  27.89800 1.83700 30.97900
C  30.70700 0.44600 29.00700
C  29.78400 1.69000 32.25100
O  30.93400 1.41100 32.67700
C  28.63600 2.09700 33.16100
C  28.50300 1.06800 34.27100
O  27.79800 0.06700 34.26000
O  29.35400 1.37600 35.33800
C  29.25900 0.43700 36.43600
H  21.89400 3.10100 32.54200
H  22.44700 1.98800 26.20900
H  28.61900 0.72500 26.81300
H  25.84100 2.28300 34.80300
H  23.64100 4.01200 34.14700
H  24.07500 1.29000 35.35800
H  22.87400 1.33900 34.12600
H  22.86700 2.60000 35.34100
H  25.67300 5.12400 34.69000
H  27.20500 4.57800 33.82300
H  28.29200 4.34100 35.41600
H  27.16200 3.19100 36.21100
H  19.11400 4.07200 30.27100
H  20.07900 3.69100 31.76000
H  19.17500 2.46600 30.83300
H  17.78700 2.90700 27.17700
H  18.62400 4.01800 28.26700
H  18.46600 2.38100 28.75400
H  24.74400 2.47600 24.66900
H  26.46200 0.13200 25.11100
H  23.41300 0.89000 23.70100
H  23.30500 -0.01900 25.13000
H  24.63100 -0.30400 23.96400
H  27.08500 2.08800 23.55100
H  28.38600 1.28100 24.52600
H  27.52100 3.63100 26.08700
H  27.46200 4.00100 24.39700
H  28.94000 3.25300 25.08000
H  30.75600 -0.48000 29.58000
H  31.56300 1.01900 29.36400
H  30.68600 0.30600 27.92600
H  28.93000 2.98800 33.71600
H  30.28400 0.34700 36.79600
H  29.05700 -0.62200 36.28000
H  28.65600 0.75000 37.28800

