158

Mg 24.65000 -4.43400 46.21700
C  26.94000 -2.23300 44.78100
C  22.28900 -3.40700 43.97200
C  22.84900 -7.21300 46.91500
C  27.36400 -5.83800 48.19400
N  24.72800 -3.05200 44.48100
C  25.68800 -2.18400 44.08700
C  25.22600 -1.19700 42.98300
C  23.66700 -1.42200 43.09600
C  23.55400 -2.71700 43.90600
C  22.83600 -0.27800 43.73700
C  25.76300 -1.59600 41.59300
C  26.05000 -0.41600 40.64600
H  25.58800 -0.54400 39.16900
N  22.74500 -5.18500 45.63400
C  21.98000 -4.67200 44.61100
C  20.77600 -5.51600 44.47300
C  20.85900 -6.65200 45.34100
C  22.19500 -6.33300 46.03100
C  19.67800 -5.14600 43.57200
C  19.87600 -7.80400 45.44400
O  18.91500 -7.97300 44.68800
C  20.07600 -8.88700 46.50300
N  25.01900 -6.16600 47.53600
C  24.09300 -7.08500 47.61700
C  24.54200 -8.28900 48.48400
C  25.96700 -7.76700 49.01200
C  26.13200 -6.50000 48.17500
C  23.54100 -8.95000 49.47600
C  27.10500 -8.74100 48.96500
C  28.26800 -8.55900 49.92200
N  26.69000 -4.08700 46.58400
C  27.62400 -4.69300 47.46200
C  28.88600 -3.96300 47.25600
C  28.63200 -2.91100 46.33600
C  27.29400 -3.07700 45.85400
C  30.15300 -4.27400 48.00900
C  29.29600 -1.78100 45.62000
O  30.45000 -1.43000 45.71000
C  28.26000 -1.33500 44.61700
C  28.02100 0.11400 44.89400
O  27.41200 0.60800 45.85400
O  28.51100 0.76400 43.81300
C  28.29000 2.22700 43.62000
H  21.55700 -2.99000 43.27700
H  22.42700 -8.20100 47.11300
H  28.22500 -6.12400 48.80300
H  25.43200 -0.19300 43.35400
H  23.30300 -1.73000 42.11600
H  21.82600 -0.27100 43.32500
H  23.14000 0.74800 43.53200
H  22.79100 -0.52200 44.79800
H  25.05700 -2.06600 40.90800
H  26.67600 -2.16900 41.75400
H  27.12600 -0.26300 40.73000
H  25.49600 0.43700 41.03800
H  19.74100 -4.05900 43.59900
H  18.70300 -5.40000 43.98900
H  19.78900 -5.61800 42.59500
H  20.18600 -8.45000 47.49500
H  20.96300 -9.43400 46.18200
H  19.18600 -9.51600 46.52600
H  24.72500 -9.15500 47.84800
H  26.03200 -7.43400 50.04800
H  22.59800 -8.40500 49.43500
H  23.94400 -8.88300 50.48700
H  23.29000 -10.00200 49.34300
H  27.51000 -8.74100 47.95300
H  26.78700 -9.77900 49.06500
H  28.49700 -9.52700 50.36700
H  28.26300 -7.80900 50.71300
H  29.08500 -8.31200 49.24400
H  30.63500 -5.17800 47.63600
H  29.95300 -4.33100 49.07900
H  30.88600 -3.47000 47.95300
H  28.73700 -1.40400 43.64000
H  29.17700 2.78400 43.32000
H  27.82000 2.70000 44.48200
H  27.68400 2.39700 42.73100
Mg 40.73600 9.31300 29.98100
C  42.60100 10.79600 32.48700
C  38.27600 8.49900 32.28400
C  38.98000 7.76900 27.51700
C  43.37400 9.72300 27.78400
N  40.52000 9.60600 32.18300
C  41.38900 10.26000 32.99000
C  40.75400 10.31500 34.44400
C  39.57100 9.34400 34.38500
C  39.42700 9.15300 32.85800
C  39.72100 8.06700 35.26500
C  40.40600 11.76700 34.95100
C  41.24600 12.30300 36.07900
H  40.61600 13.12500 37.26600
N  38.81000 8.43300 29.94000
C  38.00500 8.12800 30.94800
C  36.82700 7.51400 30.49100
C  36.88800 7.45600 29.06100
C  38.24900 7.92700 28.73500
C  35.69900 6.97600 31.42600
C  35.93300 6.94600 28.08100
O  36.02000 6.97400 26.83900
C  34.63800 6.40800 28.51900
N  41.05500 8.89800 27.85100
C  40.25900 8.10600 27.08700
C  40.77400 7.85000 25.64700
C  42.27500 8.40100 25.77800
C  42.22400 9.08800 27.22400
C  40.67400 6.41100 24.96800
C  42.70700 9.40800 24.66200
C  42.14800 10.84300 24.59300
N  42.71200 9.94500 30.10300
C  43.65000 10.15400 29.09500
C  44.81900 10.86600 29.62000
C  44.37800 11.14400 30.93900
C  43.16500 10.54500 31.18300
C  46.05900 11.24600 28.94200
C  44.74400 11.84400 32.14500
O  45.86000 12.30600 32.38100
C  43.65200 11.58300 33.28600
C  44.24800 10.70800 34.31600
O  44.44300 9.48500 34.22600
O  44.42700 11.42500 35.50900
C  44.46800 10.58500 36.72900
H  37.65600 8.08800 33.08400
H  38.30900 7.35900 26.75900
H  44.25800 9.82200 27.15100
H  41.65200 9.94100 34.93500
H  38.75900 9.95500 34.77800
H  40.64700 8.06500 35.84000
H  39.73800 7.11200 34.73900
H  38.85300 8.09200 35.92300
H  39.37100 11.90500 35.26400
H  40.55700 12.42500 34.09500
H  42.13000 12.88600 35.82100
H  41.54700 11.35300 36.51900
H  34.82000 7.61300 31.33300
H  35.90800 7.00100 32.49500
H  35.50900 5.92000 31.23700
H  34.09200 6.07600 27.63500
H  34.22000 7.28200 29.01900
H  34.69900 5.57300 29.21600
H  40.19300 8.35800 24.87800
H  43.02000 7.61000 25.86500
H  41.63000 6.02800 24.61100
H  40.13300 6.53200 24.02900
H  39.97900 5.73900 25.47100
H  42.49000 8.92700 23.70900
H  43.77900 9.49900 24.83400
H  42.81900 11.54800 25.08300
H  41.30100 10.90400 25.27700
H  41.77600 11.11600 23.60600
H  45.85400 11.84300 28.05300
H  46.46800 10.32100 28.53800
H  46.69700 11.65600 29.72500
H  43.29500 12.51500 33.72500
H  44.21000 11.21700 37.57900
H  45.54500 10.43300 36.79800
H  43.89200 9.66800 36.60500

