158

Mg 17.47900 -0.28000 27.89100
C  16.43600 1.71700 30.54700
C  19.52700 -1.97200 30.06700
C  19.09100 -1.82400 25.24800
C  16.03700 1.89900 25.77700
N  17.94700 -0.04200 30.05100
C  17.19900 0.63700 30.94800
C  17.50100 0.25200 32.39600
C  18.64500 -0.80200 32.22400
C  18.79100 -0.91800 30.68200
C  19.99200 -0.43900 32.89400
C  16.25100 -0.39500 33.14100
C  15.98200 -0.03100 34.62400
H  17.20700 0.55900 35.42500
N  18.88100 -1.91200 27.69700
C  19.58200 -2.48500 28.72500
C  20.49500 -3.51600 28.25000
C  20.36500 -3.52100 26.77700
C  19.41700 -2.38300 26.52300
C  21.28600 -4.40000 29.19300
C  21.01600 -4.40500 25.77200
O  20.84500 -4.20500 24.56100
C  22.08000 -5.35400 26.11900
N  17.60900 -0.04100 25.78200
C  18.19700 -0.77500 24.89100
C  17.72700 -0.42000 23.45100
C  16.64400 0.67600 23.66100
C  16.73400 0.84500 25.13900
C  18.87000 0.12500 22.46800
C  15.27600 0.31400 23.03900
C  14.91200 1.08400 21.70900
N  16.41400 1.50100 28.01700
C  15.82400 2.25200 27.07700
C  15.16300 3.43500 27.67700
C  15.41300 3.27200 29.05900
C  16.14700 2.02200 29.17800
C  14.49700 4.50500 26.84700
C  15.13100 3.75100 30.40100
O  14.35000 4.69800 30.78000
C  15.67300 2.74500 31.36000
C  16.67900 3.52700 32.10900
O  17.66300 4.04000 31.65600
O  16.22200 3.65800 33.42300
C  16.87200 4.58700 34.31100
H  19.94100 -2.72600 30.74000
H  19.61500 -2.32200 24.43000
H  15.35000 2.37200 25.07200
H  17.85300 1.18900 32.82700
H  18.39000 -1.83000 32.48400
H  20.42100 -1.33400 33.34400
H  19.84800 0.41600 33.55400
H  20.79700 -0.02800 32.28300
H  16.36300 -1.47800 33.19000
H  15.27500 -0.21400 32.69000
H  15.69400 -0.89000 35.22900
H  15.04100 0.51800 34.66600
H  20.64300 -5.18700 29.58600
H  21.63800 -3.72800 29.97500
H  22.15900 -4.88500 28.75600
H  22.81300 -4.58000 26.34500
H  22.44500 -5.89900 25.24900
H  21.71100 -5.91900 26.97500
H  17.38700 -1.41600 23.16700
H  16.93900 1.61500 23.19400
H  19.87300 -0.16900 22.77600
H  18.93000 1.21200 22.53300
H  18.63000 -0.28100 21.48600
H  14.55200 0.50000 23.83300
H  15.23200 -0.75800 22.84500
H  15.74700 1.53600 21.17400
H  14.26000 1.87700 22.07600
H  14.45300 0.44800 20.95100
H  13.50500 4.24300 26.48100
H  15.08200 4.92600 26.02900
H  14.37600 5.30200 27.58100
H  14.88800 2.38300 32.02400
H  17.61300 5.20600 33.80400
H  17.55500 4.02900 34.95100
H  16.18900 5.19100 34.90900
Mg 41.82100 40.96100 26.37600
C  41.49100 43.40100 28.97600
C  43.03900 38.78000 28.78600
C  42.33500 38.82900 23.94900
C  41.44200 43.57300 24.04000
N  42.26100 41.14600 28.63900
C  41.93500 42.18000 29.46100
C  42.21000 41.88600 30.92300
C  42.86400 40.42500 30.82300
C  42.69800 40.04700 29.34500
C  44.36300 40.34400 31.37600
C  40.86300 41.95000 31.72000
C  40.72900 42.88800 32.99100
H  39.73800 42.52800 34.07400
N  42.52200 39.04400 26.35900
C  42.98500 38.34400 27.44600
C  43.24400 37.00000 26.98900
C  42.93000 36.94200 25.55100
C  42.55400 38.33500 25.22900
C  43.87100 35.88300 27.92300
C  42.86800 35.76900 24.60400
O  42.62300 35.85200 23.41400
C  43.19800 34.36800 25.01700
N  41.95200 41.17200 24.32100
C  42.15500 40.12100 23.50100
C  42.07700 40.51800 22.01400
C  41.93600 42.04400 22.07100
C  41.86600 42.31700 23.57800
C  43.37700 40.06300 21.32600
C  40.65800 42.51700 21.32100
C  40.62500 43.96200 20.87400
N  41.28600 43.00500 26.38500
C  41.09500 43.90300 25.40400
C  40.84800 45.19800 25.96100
C  40.91200 44.98400 27.27500
C  41.29400 43.65500 27.55400
C  40.65900 46.52900 25.26800
C  40.82800 45.69900 28.54200
O  40.53100 46.88900 28.75400
C  41.12800 44.78800 29.68600
C  42.17000 45.26400 30.61400
O  43.38600 45.14000 30.44000
O  41.57200 46.01600 31.61900
C  42.49000 46.58500 32.57400
H  43.43400 37.97800 29.41300
H  42.20400 38.10000 23.14700
H  41.37300 44.31300 23.24000
H  42.87000 42.67800 31.27500
H  42.27800 39.76000 31.45700
H  44.79200 41.34500 31.41900
H  44.97200 39.81600 30.64200
H  44.48500 39.97900 32.39600
H  40.43100 40.97700 31.95400
H  40.17500 42.39500 31.00100
H  40.43400 43.83500 32.53900
H  41.72200 43.17800 33.33500
H  43.12600 35.10500 28.09600
H  44.40500 36.26500 28.79300
H  44.68300 35.42700 27.35700
H  42.81800 33.68000 24.26100
H  42.71600 34.21500 25.98200
H  44.24400 34.21200 25.28000
H  41.21200 40.03900 21.55700
H  42.76000 42.58100 21.60000
H  43.54800 40.68100 20.44500
H  43.32200 39.02300 21.00400
H  44.21000 39.97400 22.02400
H  39.83900 42.49500 22.04100
H  40.35100 41.85100 20.51500
H  40.33800 44.13500 19.83600
H  41.59200 44.45500 20.97400
H  39.90300 44.54900 21.44200
H  40.45800 46.35200 24.21200
H  41.54600 47.16000 25.33400
H  39.78800 47.05100 25.66500
H  40.26500 44.70800 30.34700
H  42.05100 46.97100 33.49400
H  43.15800 47.30400 32.10000
H  43.10200 45.79000 32.99900

