158

Mg 17.46200 50.58000 26.28300
C  19.11900 49.33400 29.17900
C  14.99000 51.56100 28.39600
C  15.95600 51.48600 23.63300
C  19.96700 48.97600 24.39300
N  17.07100 50.46300 28.60900
C  17.98300 50.00600 29.55500
C  17.52400 50.27600 30.95200
C  16.06900 50.70100 30.71600
C  15.99300 50.93500 29.20300
C  15.01400 49.74000 31.24800
C  18.48100 51.27100 31.61300
C  18.86900 51.13900 33.06000
H  17.79200 50.47900 33.99100
N  15.77600 51.49400 25.99800
C  14.87300 51.81000 27.01100
C  13.74600 52.48400 26.39200
C  14.05400 52.56600 24.95400
C  15.25400 51.82900 24.80100
C  12.56400 52.96300 27.15600
C  13.21700 53.17900 23.80500
O  13.61100 53.12800 22.61900
C  11.92100 53.83000 24.06400
N  17.90300 50.24500 24.24100
C  17.04800 50.67500 23.26500
C  17.57200 50.34400 21.85300
C  18.95800 49.60400 22.19400
C  18.94700 49.57300 23.68900
C  16.69700 49.33500 21.11900
C  20.16100 50.31300 21.52400
C  20.68300 51.58800 22.18200
N  19.24700 49.42200 26.65100
C  20.10000 48.88500 25.76100
C  21.27000 48.31900 26.54500
C  20.91400 48.50700 27.89300
C  19.67200 49.14000 27.85100
C  22.45900 47.72200 25.91500
C  21.30600 48.21200 29.27000
O  22.32900 47.73500 29.68800
C  20.27100 48.73400 30.12300
C  19.81200 47.58300 30.95400
O  18.97900 46.78700 30.61300
O  20.38500 47.65700 32.21500
C  19.88900 46.77400 33.32800
H  14.24000 51.95300 29.08600
H  15.43600 51.76700 22.71500
H  20.66200 48.44700 23.73700
H  17.61500 49.40100 31.59600
H  15.86800 51.67400 31.16400
H  15.37900 48.87000 31.79400
H  14.43300 49.42100 30.38300
H  14.49100 50.39900 31.94000
H  18.04300 52.26400 31.51600
H  19.43800 51.27000 31.09200
H  19.16100 52.05900 33.56500
H  19.71800 50.45700 33.09200
H  12.44700 52.39800 28.08100
H  11.72500 52.67400 26.52400
H  12.57400 54.03900 27.33000
H  12.00200 54.67600 24.74600
H  11.20700 53.08100 24.40700
H  11.38300 54.17800 23.18300
H  17.70800 51.29700 21.34200
H  18.98500 48.59100 21.79400
H  16.39800 48.67000 21.92900
H  17.13600 48.66100 20.38400
H  15.84800 49.88400 20.71100
H  19.92300 50.44200 20.46800
H  20.97700 49.60800 21.36900
H  19.88300 52.03400 22.77200
H  21.00100 52.32100 21.44000
H  21.55000 51.35500 22.80000
H  22.68900 48.21100 24.96700
H  22.34900 46.66500 25.67400
H  23.30500 47.79700 26.59700
H  20.69900 49.47600 30.79700
H  19.68900 47.50000 34.11700
H  20.68900 46.09700 33.62800
H  18.97000 46.26300 33.04200
Mg -5.93800 24.69900 26.33300
C  -4.56200 26.34200 29.16600
C  -7.93300 22.92100 28.53100
C  -6.62400 22.65500 23.84600
C  -3.66200 26.37900 24.40100
N  -6.06200 24.58300 28.67100
C  -5.45400 25.35800 29.55400
C  -6.01800 25.02500 31.00100
C  -6.95600 23.77000 30.77300
C  -6.97400 23.71500 29.19600
C  -6.59300 22.47200 31.47000
C  -6.68900 26.37700 31.59600
C  -6.74600 26.41900 33.17300
H  -6.40200 25.12800 33.99700
N  -7.19900 23.08800 26.21300
C  -8.06800 22.56000 27.12200
C  -8.89000 21.60300 26.48100
C  -8.41400 21.41900 25.13400
C  -7.36500 22.42500 25.00300
C  -9.96300 20.81200 27.26700
C  -8.80700 20.49200 24.10000
O  -8.37200 20.42200 22.93000
C  -9.96000 19.57800 24.36900
N  -5.28200 24.52100 24.28900
C  -5.71500 23.63100 23.45300
C  -5.11600 23.82600 22.04200
C  -4.03100 24.97800 22.33400
C  -4.34900 25.33200 23.79600
C  -4.57500 22.67600 21.29000
C  -3.97900 26.14400 21.36000
C  -2.59400 26.57100 20.83000
N  -4.48600 26.11700 26.60300
C  -3.70900 26.78900 25.73800
C  -2.80300 27.64900 26.47300
C  -3.11300 27.55100 27.81400
C  -4.19800 26.60800 27.79700
C  -1.74900 28.46700 25.77100
C  -2.81600 28.00500 29.12500
O  -2.00600 28.82000 29.50600
C  -3.73100 27.20200 30.14200
C  -2.87400 26.34200 31.02500
O  -2.35000 25.30500 30.71800
O  -2.66800 27.02300 32.21400
C  -1.99500 26.15100 33.16000
H  -8.48300 22.24100 29.18600
H  -6.80900 22.00600 22.98800
H  -2.97400 26.94600 23.77000
H  -5.16300 24.70900 31.59700
H  -7.98100 24.00700 31.06000
H  -5.56700 22.46300 31.83800
H  -6.71600 21.78300 30.63500
H  -7.28200 22.30400 32.29800
H  -7.71300 26.52800 31.25500
H  -6.10800 27.22600 31.23400
H  -7.60600 26.93400 33.60000
H  -5.86400 27.02600 33.37600
H  -10.94700 21.10300 26.89900
H  -10.13200 21.15600 28.28800
H  -9.98100 19.73100 27.12900
H  -9.70100 18.81600 25.10400
H  -10.05400 19.00600 23.44500
H  -10.93000 20.06400 24.47300
H  -5.94700 24.09400 21.39000
H  -3.05600 24.49300 22.37800
H  -3.54200 22.92600 21.05100
H  -5.26500 22.53000 20.45800
H  -4.53300 21.77900 21.90700
H  -4.52500 26.98000 21.79700
H  -4.47300 25.98300 20.40200
H  -2.72100 26.99900 19.83600
H  -1.97500 25.67500 20.89000
H  -2.13500 27.24000 21.55800
H  -1.35100 28.00500 24.86800
H  -0.95100 28.57300 26.50700
H  -2.10200 29.46500 25.50800
H  -4.25500 27.95900 30.72600
H  -2.39500 26.39200 34.14500
H  -0.90900 26.23700 33.12000
H  -2.31300 25.11200 33.07200

