158

Mg 34.36500 2.14900 29.45500
C  32.28400 3.36900 32.02200
C  36.94000 2.16200 31.53500
C  36.33800 1.60300 26.76000
C  31.62200 2.74700 27.18000
N  34.56400 2.70800 31.51100
C  33.57900 2.99000 32.46300
C  34.10700 2.83900 33.95300
C  35.64800 2.47000 33.79000
C  35.74100 2.52800 32.18300
C  36.58400 3.45600 34.59700
C  33.26000 1.79700 34.77000
C  33.03700 2.01400 36.32500
H  33.84700 3.04500 37.01700
N  36.40700 1.96100 29.20400
C  37.32300 1.97100 30.20400
C  38.67100 1.59500 29.69200
C  38.56400 1.43500 28.24600
C  37.08400 1.70100 28.01200
C  39.85900 1.35500 30.65900
C  39.54200 0.95100 27.21800
O  39.23100 0.89500 26.04400
C  40.95100 0.43000 27.64900
N  33.98400 2.13000 27.31100
C  35.02800 1.91700 26.44800
C  34.62300 2.02900 25.00900
C  33.04100 2.02100 25.17700
C  32.84400 2.31700 26.59500
C  35.18800 3.34700 24.29400
C  32.38400 0.71500 24.67600
C  32.21800 -0.41600 25.71900
N  32.40600 3.01100 29.46500
C  31.42800 3.16400 28.52800
C  30.22000 3.69100 29.10300
C  30.53700 3.79100 30.45700
C  31.85700 3.36200 30.65100
C  28.88800 3.96400 28.43400
C  29.95900 4.12300 31.76300
O  28.87000 4.53700 32.11500
C  31.07600 3.66700 32.76700
C  31.18400 4.68000 33.85000
O  31.71300 5.80400 33.74400
O  30.45200 4.31600 34.97200
C  30.30800 5.23900 36.03900
H  37.65800 1.93700 32.32600
H  36.90600 1.29400 25.88000
H  30.75000 2.75400 26.52200
H  33.97400 3.84900 34.33900
H  35.81500 1.42600 34.05300
H  37.41600 3.85000 34.01300
H  36.93200 3.04700 35.54500
H  36.03000 4.35300 34.87500
H  33.60400 0.80000 34.49500
H  32.21500 1.95700 34.50600
H  33.08200 1.07600 36.87800
H  32.04300 2.42900 36.49000
H  39.91600 1.92900 31.58400
H  40.77700 1.62400 30.13500
H  39.95600 0.28500 30.83900
H  40.87500 -0.08500 28.60700
H  41.50600 1.34800 27.83800
H  41.50000 -0.28100 27.03000
H  34.92300 1.14700 24.44400
H  32.56700 2.85400 24.65800
H  35.97700 3.87400 24.83000
H  34.39900 3.98700 23.90000
H  35.68800 3.07500 23.36400
H  32.99500 0.33300 23.85900
H  31.45800 1.00800 24.18200
H  32.40100 -0.04700 26.72800
H  32.86900 -1.27200 25.54400
H  31.23100 -0.86800 25.62600
H  28.78200 3.54900 27.43200
H  29.01500 5.04600 28.38300
H  27.97700 3.91200 29.03000
H  30.67500 2.83500 33.34600
H  29.98800 6.26500 35.85400
H  31.29600 5.42600 36.45800
H  29.66600 4.68600 36.72400
Mg -12.34000 16.06500 41.72200
C  -9.19900 14.04500 41.56400
C  -10.58400 18.56600 40.13700
C  -15.08100 17.34200 41.11100
C  -13.89000 12.91600 42.59300
N  -10.11300 16.24800 40.82200
C  -9.08200 15.31100 40.95500
C  -7.72800 15.93900 40.45200
C  -8.14200 17.48100 40.30300
C  -9.68500 17.44900 40.32600
C  -7.64000 18.40800 41.45800
C  -7.17700 15.26500 39.16800
C  -5.63600 15.52800 39.00200
H  -5.34900 16.24400 37.64200
N  -12.71200 17.78700 40.91700
C  -11.94100 18.73100 40.30800
C  -12.69700 19.89700 39.93900
C  -14.05300 19.62800 40.32400
C  -13.97900 18.17700 40.76300
C  -12.11100 21.14800 39.32900
C  -15.22100 20.54000 40.14800
O  -15.06900 21.62600 39.65300
C  -16.71100 20.15900 40.50900
N  -14.27900 15.13400 41.58300
C  -15.26300 16.05700 41.41500
C  -16.67600 15.34900 41.57800
C  -16.20600 14.03200 42.34200
C  -14.74200 13.95600 42.11600
C  -17.77000 16.14700 42.39100
C  -16.98900 12.76100 41.82900
C  -17.78400 11.91300 42.90000
N  -11.71300 13.94900 42.12600
C  -12.48500 12.83000 42.48100
C  -11.55900 11.73800 42.67900
C  -10.25200 12.19100 42.34300
C  -10.37600 13.51700 42.00400
C  -11.91800 10.43300 43.39200
C  -8.87100 11.73200 42.23600
O  -8.33400 10.63700 42.50300
C  -8.09900 13.02000 41.71800
C  -7.05300 13.52700 42.68800
O  -7.16700 13.52300 43.90400
O  -5.89000 13.82700 42.02300
C  -4.69000 13.89800 42.85800
H  -10.06600 19.39500 39.65000
H  -16.05500 17.82600 41.01500
H  -14.44800 12.02700 42.89200
H  -6.94500 15.85400 41.20600
H  -7.74200 17.94100 39.40000
H  -6.55900 18.55000 41.47000
H  -7.90500 17.89300 42.38100
H  -8.16600 19.36200 41.41400
H  -7.84000 15.64300 38.39000
H  -7.37600 14.19900 39.27800
H  -5.11900 14.57500 39.11000
H  -5.24900 16.22400 39.74600
H  -12.38300 21.32400 38.28800
H  -11.03000 21.10700 39.45600
H  -12.40700 22.00500 39.93300
H  -16.75400 19.84200 41.55100
H  -17.13400 19.36200 39.89700
H  -17.41200 20.96900 40.30500
H  -17.08900 15.18200 40.58300
H  -16.35300 14.00900 43.42100
H  -18.65500 16.41700 41.81400
H  -17.22400 17.03900 42.69900
H  -18.14600 15.61000 43.26100
H  -16.32700 12.16600 41.19800
H  -17.73800 13.08100 41.10400
H  -18.86700 11.91100 42.78000
H  -17.46900 12.21900 43.89700
H  -17.54700 10.84900 42.88200
H  -10.99300 9.86200 43.31600
H  -12.70200 9.97100 42.79100
H  -12.41300 10.59900 44.34800
H  -7.54000 12.82100 40.80300
H  -4.60000 12.97700 43.43500
H  -4.75200 14.68700 43.60700
H  -3.87100 14.00900 42.14800

