158

Mg 17.48100 -0.72900 27.81400
C  16.59800 1.12100 30.64900
C  19.30600 -2.91000 29.92900
C  19.15300 -2.09200 25.09100
C  16.04500 1.65200 25.78600
N  17.97100 -0.78700 30.04100
C  17.40100 0.00100 30.99600
C  17.82200 -0.42000 32.39400
C  18.80800 -1.62700 32.13900
C  18.61500 -1.84800 30.61800
C  20.28100 -1.39800 32.48100
C  16.59900 -0.67600 33.44900
C  16.93200 -0.54400 34.91300
H  18.25700 0.06600 35.32000
N  18.90600 -2.41900 27.59100
C  19.49200 -3.19900 28.52900
C  20.23300 -4.27500 27.90700
C  20.11700 -4.04600 26.55400
C  19.39800 -2.83100 26.30700
C  20.92600 -5.27200 28.70500
C  20.76000 -4.81100 25.34100
O  20.53100 -4.55200 24.16300
C  21.73400 -5.98000 25.65500
N  17.58500 -0.32100 25.71200
C  18.24000 -1.08700 24.80700
C  17.85300 -0.62200 23.36800
C  16.80500 0.44500 23.58700
C  16.82100 0.67000 25.12100
C  19.17200 -0.17500 22.50800
C  15.45500 0.13900 23.02700
C  14.39900 -0.67900 23.89600
N  16.48600 1.04400 28.09000
C  15.85300 1.86400 27.15100
C  15.11700 2.92600 27.82600
C  15.37600 2.67500 29.27100
C  16.22400 1.48900 29.33800
C  14.31200 4.02600 27.17700
C  15.05600 3.08300 30.62400
O  14.24600 3.96700 30.97100
C  15.95400 2.19300 31.51200
C  16.86100 3.01100 32.33400
O  18.04200 3.18100 32.13800
O  16.09500 3.62800 33.27500
C  16.86200 4.47200 34.24400
H  19.75000 -3.48000 30.74800
H  19.53000 -2.42200 24.12100
H  15.50600 2.36800 25.16100
H  18.36200 0.43000 32.81000
H  18.32500 -2.48300 32.61300
H  20.64600 -2.37800 32.78800
H  20.42900 -0.52200 33.11200
H  20.87700 -1.16500 31.59900
H  16.29300 -1.67600 33.14300
H  15.85000 0.09900 33.29000
H  16.76100 -1.47000 35.46300
H  16.18400 0.09300 35.38400
H  21.99600 -5.07100 28.64900
H  20.68100 -6.25300 28.29800
H  20.81100 -5.12400 29.77900
H  21.19400 -6.81200 26.10700
H  22.49500 -5.66100 26.36700
H  22.07900 -6.24500 24.65500
H  17.47300 -1.44900 22.76800
H  17.13900 1.35900 23.09700
H  20.02600 -0.27100 23.17900
H  19.02900 0.88100 22.27800
H  19.38900 -0.69200 21.57300
H  15.54700 -0.48700 22.14000
H  15.01400 1.10700 22.78900
H  13.52600 -0.14500 24.27000
H  14.88200 -1.04500 24.80200
H  13.96900 -1.48900 23.30600
H  14.11400 3.99000 26.10600
H  14.71300 4.96000 27.57100
H  13.33900 3.89500 27.65100
H  15.13300 1.80600 32.11700
H  16.17500 5.25800 34.55700
H  17.62700 5.01900 33.69200
H  17.22600 4.07400 35.19100
Mg -5.50000 25.68100 26.03200
C  -4.26500 27.22900 29.05600
C  -7.35300 23.53600 28.10700
C  -6.38800 23.91100 23.40100
C  -3.23400 27.60700 24.21700
N  -5.82700 25.51100 28.31400
C  -5.23200 26.23000 29.27700
C  -5.80400 25.88600 30.67700
C  -6.46900 24.56400 30.36800
C  -6.52700 24.47800 28.80400
C  -5.54000 23.29200 30.83200
C  -6.67800 26.99100 31.35100
C  -6.79200 26.96700 32.86900
H  -6.07500 25.79900 33.63400
N  -6.74300 23.94300 25.74000
C  -7.42400 23.19800 26.75000
C  -8.33600 22.28100 26.05300
C  -8.06000 22.40900 24.65400
C  -7.02200 23.44500 24.56200
C  -9.29900 21.37800 26.78200
C  -8.70100 21.70500 23.48500
O  -8.37200 21.96300 22.31400
C  -9.63500 20.53100 23.74200
N  -4.81100 25.71500 24.10100
C  -5.38300 24.84700 23.14900
C  -4.55500 24.98700 21.90000
C  -3.65500 26.28600 21.98500
C  -3.91100 26.58800 23.53600
C  -3.76500 23.70900 21.59100
C  -4.16400 27.54400 21.10700
C  -3.28700 28.21900 20.04100
N  -4.02600 27.21300 26.53100
C  -3.23900 27.94500 25.67700
C  -2.54000 28.96400 26.45800
C  -2.88300 28.70700 27.78700
C  -3.77400 27.62400 27.82900
C  -1.58100 29.95500 25.95800
C  -2.64700 29.07500 29.14200
O  -1.86800 29.92600 29.57700
C  -3.62200 28.23000 30.04300
C  -2.79400 27.53300 31.06000
O  -1.99400 26.62300 30.79400
O  -3.08000 28.13500 32.31600
C  -2.23600 27.54900 33.36700
H  -7.94300 22.83900 28.70600
H  -6.66100 23.41900 22.46500
H  -2.54100 28.18600 23.60400
H  -4.89200 25.78800 31.26700
H  -7.49200 24.61500 30.74000
H  -4.46900 23.42800 30.98300
H  -5.68400 22.50600 30.09100
H  -5.91800 23.02100 31.81800
H  -7.71800 26.83300 31.06400
H  -6.35900 27.97000 30.99200
H  -7.83500 27.05100 33.17400
H  -6.32400 27.91700 33.12600
H  -10.28400 21.84400 26.80200
H  -8.86500 21.20200 27.76600
H  -9.34100 20.33600 26.46500
H  -9.11800 19.72800 24.26700
H  -10.14200 20.21400 22.83100
H  -10.46100 20.85000 24.37900
H  -5.26900 25.17400 21.09900
H  -2.59100 26.11700 21.82100
H  -4.00400 23.49500 20.54900
H  -4.13600 22.90400 22.22500
H  -2.68900 23.88400 21.57700
H  -4.40000 28.37900 21.76700
H  -5.10700 27.26100 20.63800
H  -3.89200 28.37400 19.14700
H  -2.48700 27.54000 19.74700
H  -2.82600 29.17700 20.28000
H  -0.97600 29.50100 25.17300
H  -1.03200 30.39900 26.78900
H  -2.26800 30.70300 25.56300
H  -4.44500 28.85700 30.38400
H  -2.79100 27.60800 34.30300
H  -1.33300 28.13900 33.52800
H  -1.97600 26.50800 33.17300

