158

Mg 24.71500 -7.11700 47.30700
C  27.19600 -4.95100 46.04300
C  22.62100 -5.88500 44.99100
C  22.66500 -9.77600 47.82900
C  27.29000 -8.77600 49.01500
N  24.91300 -5.68300 45.71700
C  26.00000 -4.87100 45.41600
C  25.75300 -3.98000 44.25600
C  24.15700 -4.12300 44.01000
C  23.87500 -5.30700 44.94600
C  23.24100 -2.88400 44.35000
C  26.69100 -4.31500 42.99700
C  27.62500 -3.04700 42.66000
H  27.62600 -2.51500 41.26500
N  22.79000 -7.65100 46.61500
C  22.01800 -6.90600 45.77900
C  20.76400 -7.57400 45.62500
C  20.75200 -8.70800 46.44500
C  22.09500 -8.76700 47.02700
C  19.66200 -7.14900 44.68200
C  19.55700 -9.62400 46.52600
O  18.46100 -9.39700 45.94500
C  19.57400 -10.88600 47.35200
N  24.84500 -8.99600 48.38700
C  23.94000 -9.99800 48.36500
C  24.44700 -11.19100 49.22100
C  25.84100 -10.79300 49.63400
C  26.07600 -9.43200 48.97800
C  23.42400 -11.58300 50.41300
C  27.05100 -11.80700 49.30700
C  27.93000 -12.25800 50.45900
N  26.85800 -6.94500 47.45200
C  27.75400 -7.70400 48.23900
C  29.09000 -7.08200 48.21800
C  28.83400 -5.97900 47.35700
C  27.52800 -6.00500 46.93700
C  30.40800 -7.58800 48.84500
C  29.47600 -4.87400 46.71200
O  30.60100 -4.43800 46.80100
C  28.44900 -4.10500 45.97500
C  28.35500 -2.75900 46.55500
O  28.45600 -2.44700 47.73800
O  28.17800 -1.76500 45.63300
C  27.83500 -0.41400 46.05700
H  21.94000 -5.43400 44.26600
H  22.04100 -10.64800 48.03300
H  28.12700 -9.29500 49.48700
H  25.97300 -2.95600 44.55900
H  24.01200 -4.29500 42.94300
H  23.03100 -2.54400 43.33600
H  23.77600 -2.09800 44.88400
H  22.38100 -3.31000 44.86500
H  26.03200 -4.55000 42.16100
H  27.32800 -5.14500 43.30300
H  28.67500 -3.32100 42.76200
H  27.52500 -2.22300 43.36700
H  19.79900 -6.13900 44.29500
H  18.66700 -7.14000 45.12600
H  19.79300 -7.87300 43.87800
H  18.56400 -11.27400 47.48400
H  20.07300 -10.79300 48.31700
H  20.00800 -11.70200 46.77400
H  24.43500 -12.09400 48.61000
H  25.70000 -10.72400 50.71300
H  22.91800 -12.51700 50.16500
H  22.52900 -10.96200 50.44100
H  23.93200 -11.62800 51.37700
H  27.79600 -11.49200 48.57700
H  26.54000 -12.70700 48.96700
H  27.81900 -13.31400 50.70500
H  27.73700 -11.71700 51.38600
H  28.97700 -12.08500 50.21000
H  30.28600 -7.97500 49.85600
H  31.21200 -6.85400 48.77900
H  30.68800 -8.49400 48.30800
H  28.90300 -4.05400 44.98600
H  28.67400 0.11500 46.50800
H  27.01800 -0.27200 46.76500
H  27.68100 0.00600 45.06300
Mg 42.27400 41.43800 25.74000
C  41.42000 43.88100 28.11800
C  43.48300 39.60400 28.45000
C  43.39000 39.04300 23.66200
C  41.84000 43.68200 23.24200
N  42.27200 41.59900 28.05100
C  41.79500 42.68000 28.76200
C  41.80900 42.42200 30.31400
C  42.66800 41.14000 30.39600
C  42.78300 40.72700 28.91900
C  43.96200 41.27600 31.12600
C  40.43000 42.23400 30.98200
C  40.07900 43.33900 32.09100
H  41.00900 43.71700 33.25200
N  43.30900 39.54400 25.99800
C  43.70300 39.02400 27.17600
C  44.27600 37.70000 26.90400
C  44.12600 37.42200 25.49100
C  43.52600 38.66000 25.03200
C  44.78500 36.72900 28.00300
C  44.29800 36.11600 24.65800
O  44.09600 36.08300 23.42300
C  44.84000 34.86900 25.26700
N  42.55800 41.34700 23.81200
C  42.95200 40.24600 23.09200
C  42.79500 40.51000 21.56400
C  42.03700 41.87600 21.51400
C  42.14100 42.33500 22.92900
C  44.05800 40.45900 20.75300
C  40.53500 41.74300 21.17600
C  39.71100 40.57800 21.67800
N  41.68200 43.37500 25.63500
C  41.56600 44.19900 24.49700
C  41.21700 45.48900 24.88700
C  41.06400 45.39200 26.30700
C  41.39400 44.12400 26.69300
C  41.18900 46.68500 24.00800
C  40.77200 46.16900 27.52800
O  40.49900 47.34700 27.72800
C  40.98000 45.11500 28.80200
C  42.02400 45.77100 29.71200
O  43.22400 45.94600 29.43600
O  41.41200 46.18400 30.87100
C  42.32900 46.78000 31.80100
H  43.62400 38.95500 29.31600
H  43.60400 38.34300 22.85200
H  41.64900 44.38400 22.42800
H  42.33000 43.26900 30.76200
H  42.17700 40.31800 30.91500
H  44.06800 40.52200 31.90500
H  44.07100 42.22100 31.65700
H  44.81100 41.19000 30.44700
H  40.49000 41.35100 31.61900
H  39.75500 42.25100 30.12600
H  39.11600 43.04600 32.50800
H  39.98000 44.24300 31.49000
H  43.99000 35.98700 28.07500
H  44.90000 37.20100 28.97900
H  45.76000 36.33900 27.71000
H  44.14200 34.52300 26.02900
H  45.81900 35.18800 25.62300
H  45.07100 34.15900 24.47300
H  42.26500 39.66300 21.12900
H  42.51700 42.57500 20.83000
H  44.30200 41.39100 20.24300
H  44.03600 39.58400 20.10300
H  44.84000 40.32200 21.49900
H  40.56100 41.66500 20.09000
H  40.10800 42.69700 21.48500
H  39.42700 39.87500 20.89500
H  38.85600 40.88600 22.28100
H  40.15000 39.92400 22.43100
H  40.57400 46.55600 23.11800
H  42.19500 46.79700 23.60400
H  40.88600 47.55200 24.59400
H  40.09100 45.01800 29.42400
H  42.77000 47.69500 31.40400
H  43.02700 46.01300 32.13700
H  41.76200 47.11500 32.67000

