158

Mg 34.98100 3.33800 29.48900
C  32.82200 4.22600 32.17200
C  37.59400 3.51000 31.67400
C  37.02700 2.68400 26.87400
C  32.35300 3.46500 27.35000
N  35.17400 3.73700 31.74400
C  34.16600 4.03500 32.60900
C  34.75100 4.12000 34.01400
C  36.26800 4.18900 33.75800
C  36.39800 3.69600 32.35800
C  36.93300 5.53700 34.00100
C  34.25500 2.86600 34.82200
C  33.94400 3.23100 36.29600
H  34.66400 4.33100 36.89000
N  37.02000 3.09700 29.29800
C  37.97500 3.29500 30.26400
C  39.27800 2.95500 29.85400
C  39.13800 2.66100 28.49200
C  37.68700 2.81700 28.11500
C  40.45600 2.95600 30.79800
C  40.16800 2.22300 27.42700
O  39.94100 2.18000 26.23100
C  41.48700 1.75700 27.94600
N  34.75900 3.13400 27.35700
C  35.71500 2.82100 26.51500
C  35.16200 2.62900 25.10000
C  33.62200 2.92600 25.20400
C  33.55800 3.22100 26.76700
C  36.02600 3.44400 24.09100
C  32.63200 1.79100 24.85900
C  31.51200 2.18300 23.87100
N  33.05800 3.70800 29.67500
C  32.04900 3.82800 28.68000
C  30.76300 4.10500 29.25700
C  31.11100 4.25800 30.61600
C  32.48900 4.01100 30.84600
C  29.51900 4.23700 28.53300
C  30.46600 4.53400 31.90200
O  29.28900 4.69400 32.12800
C  31.58600 4.50600 32.98800
C  31.69000 5.84900 33.62000
O  32.43500 6.72700 33.21700
O  30.88900 5.88800 34.75000
C  31.33800 6.87500 35.75800
H  38.42100 3.54600 32.38700
H  37.77600 2.48200 26.10500
H  31.48100 3.51000 26.69500
H  34.50800 5.08000 34.47000
H  36.82000 3.49400 34.39000
H  37.16300 6.10400 33.09900
H  37.88200 5.36000 34.50600
H  36.40900 6.15200 34.73300
H  34.98900 2.06600 34.91300
H  33.35400 2.52400 34.31200
H  33.97100 2.35600 36.94600
H  32.91200 3.56900 36.20000
H  40.35600 3.90000 31.33400
H  41.40100 2.89500 30.25800
H  40.32000 2.16800 31.53800
H  41.90200 1.11300 27.17100
H  41.35000 1.26800 28.91100
H  42.17300 2.60000 28.03200
H  35.21600 1.57100 24.84200
H  33.37600 3.77100 24.56100
H  36.46800 4.30300 24.59500
H  35.42100 3.76200 23.24200
H  36.83700 2.78700 23.77600
H  32.08000 1.38100 25.70500
H  33.19500 1.03800 24.30700
H  31.42700 3.26900 23.82700
H  30.53400 1.74800 24.07800
H  31.77900 1.78000 22.89400
H  28.77900 4.72000 29.17100
H  29.13500 3.26300 28.22800
H  29.67000 4.81000 27.61800
H  31.51000 3.71000 33.73000
H  30.57700 7.64600 35.87500
H  32.22200 7.44900 35.47900
H  31.56600 6.27900 36.64200
Mg 48.09600 25.66100 27.70200
C  48.89600 27.73400 30.26900
C  47.20000 23.23900 29.88600
C  47.70200 23.53400 25.03900
C  49.63000 27.99000 25.48600
N  48.23000 25.46100 29.87600
C  48.26200 26.55900 30.70800
C  47.83700 26.16900 32.12800
C  47.48000 24.65600 32.02700
C  47.56900 24.45800 30.49100
C  48.28700 23.57900 32.81500
C  46.64800 27.14500 32.66100
C  45.96100 26.58100 33.85500
H  46.05500 27.50100 35.03300
N  47.48400 23.63200 27.47300
C  47.14500 22.80400 28.51400
C  46.70100 21.48600 27.95900
C  46.84700 21.57200 26.52500
C  47.38400 22.94500 26.29200
C  46.22300 20.48200 28.88300
C  46.64200 20.46600 25.53400
O  46.78400 20.76300 24.29900
C  46.21600 19.08000 25.92900
N  48.59100 25.77600 25.51100
C  48.19400 24.79300 24.61400
C  48.49800 25.17200 23.18200
C  49.24400 26.56500 23.33100
C  49.11600 26.83800 24.84800
C  49.37400 24.11000 22.38500
C  48.76400 27.73000 22.35300
C  49.84000 28.37800 21.39100
N  49.02500 27.47000 27.81400
C  49.57200 28.35000 26.88000
C  50.25000 29.49800 27.53200
C  49.94300 29.28600 28.84200
C  49.24000 28.06500 28.95600
C  50.84300 30.70700 26.81700
C  49.97200 29.89400 30.16000
O  50.45800 30.96200 30.54000
C  49.23400 28.94500 31.07000
C  50.11800 28.64100 32.22800
O  51.11300 27.99700 32.22600
O  49.61600 29.14400 33.43000
C  50.22200 28.79300 34.66600
H  46.89500 22.58200 30.70300
H  47.49700 22.90500 24.17000
H  50.17600 28.64400 24.80200
H  48.67900 26.15900 32.82000
H  46.43800 24.45100 32.27600
H  48.77800 22.89900 32.11800
H  47.52100 23.09300 33.41900
H  49.11600 23.91300 33.43800
H  45.99200 27.28800 31.80300
H  47.09800 28.09200 32.95900
H  46.37200 25.58400 34.01400
H  44.91300 26.49700 33.56800
H  46.93300 19.79200 29.34000
H  45.49100 19.85300 28.37600
H  45.63300 20.83600 29.72800
H  46.69100 18.86600 26.88600
H  46.59100 18.35400 25.20800
H  45.12800 19.14100 25.89700
H  47.55800 25.42400 22.69100
H  50.32300 26.55300 23.17300
H  48.61100 23.44000 21.98900
H  50.04700 23.43100 22.90800
H  49.95800 24.70800 21.68500
H  48.32400 28.53000 22.94700
H  47.95900 27.31200 21.74700
H  49.52600 28.38700 20.34700
H  50.64700 27.64600 21.36300
H  50.13500 29.33000 21.83200
H  50.20500 31.50900 27.18900
H  50.71900 30.60800 25.73800
H  51.84700 30.93600 27.17600
H  48.35900 29.47500 31.44700
H  51.29200 28.71500 34.47100
H  49.81900 27.84100 35.01100
H  49.99500 29.59600 35.36600

