158

Mg 9.26200 4.20700 27.67600
C  10.66300 2.69100 30.64700
C  7.74000 6.51700 29.77600
C  7.93200 5.42600 24.94400
C  10.90800 1.72700 25.81000
N  9.25600 4.53300 29.92600
C  9.92500 3.85600 30.86800
C  9.61700 4.46300 32.24400
C  8.73200 5.62800 31.99000
C  8.54800 5.56100 30.46100
C  7.37400 5.79500 32.73000
C  10.83200 4.94500 33.21600
C  10.79700 4.35900 34.65900
H  11.41000 5.17800 35.85300
N  7.98500 5.74600 27.36700
C  7.45400 6.60700 28.35800
C  6.62500 7.58200 27.71800
C  6.70500 7.25100 26.32000
C  7.61000 6.13300 26.12100
C  5.84300 8.63600 28.50200
C  5.87800 7.95000 25.22000
O  5.90300 7.63100 24.04300
C  4.94000 8.96900 25.62200
N  9.42300 3.59600 25.70700
C  8.74800 4.31800 24.73200
C  9.03500 3.82200 23.34600
C  10.18400 2.81300 23.62800
C  10.12600 2.66300 25.14700
C  7.85100 3.02700 22.69700
C  11.58700 3.47100 23.37700
C  12.10100 3.20700 21.92700
N  10.35900 2.44600 28.15600
C  10.99900 1.65400 27.25800
C  11.71500 0.62100 28.01100
C  11.64900 1.04000 29.37500
C  10.83500 2.16400 29.36500
C  12.47600 -0.58500 27.40500
C  12.03700 0.71000 30.68700
O  12.57900 -0.27400 31.14000
C  11.45000 1.80000 31.59900
C  10.74200 1.17700 32.69100
O  9.52300 0.94500 32.58500
O  11.46100 0.99200 33.83400
C  10.71400 0.38900 34.94700
H  7.22700 7.20200 30.45500
H  7.60800 5.91800 24.02400
H  11.47000 0.98400 25.23900
H  9.11100 3.74400 32.88800
H  9.39900 6.48300 32.10400
H  7.21100 5.01100 33.47000
H  6.51900 5.93700 32.06900
H  7.42100 6.67500 33.37100
H  10.82400 6.02700 33.34800
H  11.72300 4.52800 32.74800
H  11.36800 3.43100 34.66700
H  9.80500 4.12200 35.04500
H  6.02700 9.60600 28.04100
H  6.25700 8.74800 29.50400
H  4.77600 8.42600 28.42500
H  5.48200 9.82600 26.02000
H  4.24900 8.41300 26.25600
H  4.33300 9.28100 24.77200
H  9.31400 4.62000 22.65600
H  10.13000 1.86800 23.08800
H  7.40200 3.64700 21.92100
H  7.06800 2.99800 23.45500
H  8.05600 2.02100 22.33000
H  12.32400 2.99900 24.02600
H  11.71200 4.52300 23.63300
H  12.98000 2.56500 21.96900
H  12.46900 4.10000 21.42200
H  11.35000 2.71200 21.31100
H  12.48200 -1.42900 28.09400
H  13.52600 -0.30700 27.32200
H  12.09300 -0.78200 26.40300
H  12.32900 2.38200 31.87400
H  10.22100 -0.54100 34.66400
H  10.06800 1.14800 35.39000
H  11.38700 0.16400 35.77400
Mg 41.41300 7.67300 29.62400
C  42.85200 8.97300 32.52900
C  38.99700 6.19200 31.69000
C  40.09000 6.11200 26.90400
C  44.16500 8.68700 27.74300
N  40.93400 7.64800 31.93300
C  41.72000 8.27800 32.88500
C  41.13500 7.96500 34.30200
C  39.93600 6.98400 33.94800
C  39.97900 6.85100 32.44200
C  39.93900 5.65500 34.72400
C  40.66800 9.24300 35.14000
C  40.80800 9.26200 36.72600
H  40.92100 10.58400 37.29400
N  39.67800 6.54600 29.29800
C  38.83900 6.00500 30.27800
C  37.77600 5.32200 29.59200
C  37.99000 5.43800 28.24800
C  39.29000 6.06200 28.08600
C  36.64100 4.53900 30.37600
C  37.05000 5.09600 27.13200
O  37.42300 4.98200 25.96700
C  35.65400 4.69200 27.44500
N  42.03000 7.44000 27.58000
C  41.26900 6.81000 26.68300
C  41.88600 6.99600 25.26200
C  43.06300 7.97700 25.44500
C  43.06700 8.06700 26.96900
C  42.25200 5.61400 24.62600
C  42.94000 9.39900 24.84900
C  41.76700 10.33300 25.28100
N  43.10800 8.68700 29.97400
C  44.18100 8.98800 29.14300
C  45.12300 9.75000 29.92600
C  44.63800 9.81900 31.21700
C  43.42800 9.07400 31.22300
C  46.44600 10.33400 29.54100
C  44.76700 10.42200 32.50500
O  45.64400 11.15800 32.88600
C  43.61900 9.83300 33.44300
C  44.32100 9.19400 34.51400
O  44.79000 8.06700 34.45000
O  44.19300 9.96000 35.62000
C  44.84200 9.66700 36.87200
H  38.20500 5.71500 32.27200
H  39.62600 5.57300 26.07500
H  44.98400 9.07200 27.13200
H  41.91900 7.47300 34.87700
H  39.04900 7.47200 34.35200
H  40.79100 5.65200 35.40400
H  40.14700 4.90600 33.96000
H  38.97600 5.45800 35.19700
H  39.64600 9.40700 34.80100
H  41.26900 10.03800 34.69800
H  41.68700 8.74100 37.10500
H  39.89900 8.75900 37.05500
H  36.91400 4.38300 31.42000
H  36.27900 3.62700 29.90200
H  35.74600 5.14000 30.53800
H  35.09300 4.63700 26.51300
H  35.15000 5.29900 28.19800
H  35.79700 3.66200 27.77100
H  41.09500 7.47200 24.68200
H  44.02200 7.56600 25.12800
H  42.22900 4.87700 25.42900
H  43.27300 5.64400 24.24400
H  41.67300 5.35700 23.73900
H  42.96900 9.32900 23.76200
H  43.85800 9.93400 25.09400
H  42.15300 11.09900 25.95400
H  41.01500 9.68200 25.72900
H  41.31600 10.77200 24.39100
H  47.03100 9.42100 29.43700
H  46.86000 11.03200 30.27000
H  46.35400 10.77800 28.55000
H  43.02600 10.68400 33.77700
H  45.12200 8.62100 36.75000
H  44.13600 9.61600 37.70100
H  45.70200 10.26200 37.17800

