158

Mg 36.72500 49.75900 24.66200
C  36.32600 48.03600 27.71200
C  35.92400 52.68800 26.25800
C  36.71100 51.34800 21.66400
C  37.18100 46.74600 23.17400
N  35.91200 50.22800 26.76000
C  36.14200 49.43300 27.84000
C  35.85500 50.19900 29.11600
C  35.63900 51.63900 28.64900
C  35.82200 51.53900 27.05600
C  34.30200 52.32100 29.08600
C  37.06900 50.09400 30.18200
C  36.68100 49.88300 31.75200
H  35.19100 49.77500 32.13100
N  36.32000 51.74900 24.04100
C  36.10700 52.79000 24.89700
C  36.28600 54.04000 24.14100
C  36.30000 53.63700 22.74100
C  36.45500 52.19500 22.76500
C  36.49900 55.44700 24.75900
C  36.34700 54.44200 21.48800
O  36.47000 54.02900 20.34700
C  36.05100 55.95900 21.67800
N  36.66600 49.11800 22.68700
C  36.81200 49.96700 21.57200
C  37.00100 49.17300 20.31100
C  37.42600 47.76200 20.91300
C  37.06500 47.86900 22.40500
C  35.73800 49.22700 19.39500
C  38.80600 47.45300 20.47200
C  39.13800 45.96600 19.96400
N  36.64400 47.80600 25.23400
C  37.00000 46.66000 24.52600
C  36.99400 45.52600 25.40900
C  36.82300 46.06200 26.65500
C  36.51500 47.43100 26.52500
C  37.41200 44.13700 24.95500
C  36.90000 45.71400 28.09100
O  37.10000 44.68000 28.68800
C  36.44700 46.97900 28.80900
C  35.19900 46.68900 29.45200
O  34.07500 46.60600 28.95000
O  35.43400 46.44700 30.73500
C  34.28100 45.83200 31.49500
H  35.95200 53.56700 26.90600
H  36.83400 51.83500 20.69400
H  37.58800 45.83700 22.72800
H  34.87000 49.86700 29.44500
H  36.44400 52.31400 28.94100
H  34.43800 52.75800 30.07500
H  33.50000 51.58800 29.17500
H  33.91900 53.16100 28.50600
H  37.57300 51.06000 30.20600
H  37.88200 49.43400 29.88100
H  37.20400 50.70000 32.24900
H  37.23300 49.03100 32.14900
H  35.56400 56.00200 24.68900
H  37.21800 55.96700 24.12600
H  36.82400 55.35600 25.79600
H  36.87100 56.67500 21.73800
H  35.24800 56.14100 22.39300
H  35.56200 56.24200 20.74600
H  37.87300 49.63500 19.84800
H  36.69100 47.04000 20.55600
H  36.10000 49.79000 18.53400
H  34.87900 49.75900 19.80300
H  35.29100 48.27900 19.09800
H  39.36400 47.67700 21.38100
H  39.21800 48.20000 19.79300
H  39.86700 45.59700 20.68500
H  39.57000 45.98000 18.96300
H  38.26600 45.31800 20.04400
H  36.69300 43.60800 24.33000
H  37.79100 43.47400 25.73300
H  38.31700 44.37200 24.39400
H  37.13800 47.29000 29.59300
H  33.86000 44.92200 31.06800
H  33.46400 46.50000 31.76900
H  34.76200 45.48000 32.40800
Mg -10.64500 17.03500 42.36100
C  -7.26000 16.03300 42.15600
C  -9.51100 20.19100 41.53000
C  -13.76900 17.80000 41.80600
C  -11.44000 13.58700 42.53300
N  -8.52400 17.98300 41.69600
C  -7.37100 17.35000 41.80000
C  -6.19300 18.34600 41.50400
C  -6.96700 19.71500 41.61900
C  -8.44000 19.30900 41.69500
C  -6.46600 20.57700 42.70900
C  -5.43400 18.17500 40.12900
C  -6.35000 17.64400 39.01100
H  -5.70600 17.76500 37.65900
N  -11.56500 18.83500 41.94200
C  -10.97200 19.97300 41.59100
C  -11.92300 20.96500 41.34300
C  -13.19500 20.31700 41.42200
C  -12.92200 18.87600 41.74200
C  -11.59100 22.40100 40.94100
C  -14.51900 21.04600 41.26500
O  -14.58700 22.21400 41.01500
C  -15.85400 20.29200 41.45800
N  -12.36400 15.83100 42.25100
C  -13.57200 16.46300 42.06700
C  -14.65500 15.49800 42.16700
C  -13.97200 14.11600 42.30300
C  -12.49500 14.49400 42.34000
C  -15.73200 15.82100 43.24000
C  -14.22100 13.16200 41.10900
C  -14.36600 11.68400 41.53000
N  -9.61100 15.21300 42.41600
C  -10.01700 13.90200 42.55400
C  -8.88900 12.97000 42.56900
C  -7.82700 13.84900 42.54300
C  -8.26600 15.16900 42.38400
C  -8.93900 11.49600 42.61000
C  -6.39200 13.77200 42.46300
O  -5.63300 12.80100 42.48800
C  -5.94200 15.22600 42.27100
C  -5.12100 15.69900 43.43800
O  -3.91800 15.89200 43.32000
O  -5.84500 15.92700 44.59900
C  -5.14800 16.59400 45.81900
H  -9.14300 21.18100 41.25100
H  -14.74800 18.18200 41.50700
H  -11.74500 12.54600 42.65500
H  -5.47900 18.26700 42.32300
H  -6.69400 20.29700 40.73900
H  -6.00900 19.95600 43.48000
H  -7.40800 20.95800 43.10200
H  -5.85800 21.42200 42.38700
H  -4.60600 17.49100 40.31200
H  -5.06200 19.12900 39.75600
H  -7.24600 18.26300 39.07300
H  -6.45800 16.58100 39.22800
H  -11.44600 22.47600 39.86300
H  -10.66600 22.69200 41.43900
H  -12.39700 23.06400 41.25300
H  -16.07300 19.62500 40.62400
H  -16.62700 21.05000 41.32800
H  -15.92700 19.83700 42.44600
H  -15.29000 15.48900 41.28100
H  -14.19700 13.63400 43.25400
H  -16.76800 15.76500 42.90700
H  -15.57300 16.88100 43.44200
H  -15.62500 15.19200 44.12400
H  -13.40700 13.14700 40.38300
H  -15.00100 13.56900 40.46500
H  -14.84100 11.49100 42.49200
H  -13.43400 11.12400 41.47000
H  -15.10500 11.19000 40.89900
H  -8.19400 11.09900 41.92000
H  -9.85200 10.96500 42.34300
H  -8.60600 11.15100 43.58900
H  -5.31300 15.34100 41.38800
H  -5.17900 17.68000 45.91200
H  -4.06900 16.48000 45.72200
H  -5.55700 16.19200 46.74600

