158

Mg 24.33200 -4.79200 45.89500
C  26.64700 -2.72500 44.20800
C  22.01200 -4.00900 43.69900
C  22.74200 -7.61800 46.77500
C  27.19300 -6.13000 47.72100
N  24.37200 -3.36400 44.28700
C  25.34100 -2.67600 43.65700
C  24.89300 -2.02800 42.36600
C  23.35400 -2.29700 42.44700
C  23.21500 -3.25100 43.57800
C  22.45900 -1.05600 42.54100
C  25.67800 -2.62400 41.16000
C  26.16300 -1.72300 40.05800
H  25.34300 -1.76900 38.72400
N  22.50300 -5.55400 45.40300
C  21.70100 -5.08100 44.49800
C  20.50200 -5.90400 44.33300
C  20.70800 -7.01300 45.16100
C  22.04700 -6.78700 45.83300
C  19.44100 -5.68500 43.41800
C  19.78900 -8.19200 45.33000
O  18.69700 -8.21000 44.74700
C  19.98500 -9.38700 46.25200
N  24.95200 -6.67200 46.99400
C  24.04700 -7.62100 47.27600
C  24.58500 -8.81700 48.13400
C  25.96500 -8.26200 48.41600
C  26.06400 -6.95700 47.63100
C  23.71300 -9.20500 49.41000
C  27.05800 -9.30700 47.95300
C  28.04100 -9.84300 49.10200
N  26.38300 -4.39500 46.11900
C  27.37300 -4.92400 46.98000
C  28.61400 -4.19000 46.77400
C  28.37800 -3.43800 45.66000
C  27.06400 -3.57800 45.27400
C  29.90100 -4.46100 47.46400
C  29.03900 -2.62700 44.67600
O  30.23800 -2.29700 44.51500
C  27.91200 -2.15900 43.64300
C  27.88900 -0.68800 43.68400
O  27.28700 -0.01100 44.49800
O  28.45600 -0.15000 42.58100
C  28.65600 1.30200 42.65200
H  21.27100 -3.65900 42.97800
H  22.28300 -8.53900 47.14100
H  27.94700 -6.56100 48.38300
H  24.98400 -0.94400 42.42600
H  22.99700 -2.81000 41.55400
H  22.91600 -0.11500 42.23500
H  22.05100 -1.05000 43.55200
H  21.65200 -1.22100 41.82700
H  24.94000 -3.27800 40.69600
H  26.50700 -3.24300 41.50200
H  27.16400 -2.06900 39.80100
H  26.18100 -0.70400 40.44400
H  18.99500 -6.56900 42.96200
H  19.89800 -5.18500 42.56400
H  18.70800 -5.00400 43.85000
H  20.14700 -8.99300 47.25500
H  20.94800 -9.83000 45.99600
H  19.28400 -10.22100 46.22800
H  24.52200 -9.67000 47.45900
H  26.19300 -8.05500 49.46100
H  22.77100 -8.66700 49.30300
H  24.16300 -8.91200 50.35900
H  23.63600 -10.28300 49.55100
H  27.75300 -8.78500 47.29600
H  26.74200 -10.21000 47.43200
H  28.09800 -10.92700 49.01100
H  27.66800 -9.61800 50.10100
H  29.00700 -9.34300 49.02500
H  30.67000 -4.75100 46.74700
H  29.83800 -5.21000 48.25300
H  30.29100 -3.57600 47.96700
H  28.11500 -2.60700 42.67100
H  29.34300 1.60500 43.44200
H  27.64500 1.70900 42.65800
H  29.10600 1.66100 41.72700
Mg 46.85900 24.64900 28.71500
C  47.86600 26.74000 31.19500
C  45.95100 22.31500 31.06800
C  46.53700 22.32900 26.14000
C  48.11500 26.92800 26.32300
N  47.01800 24.51400 30.84100
C  47.33200 25.53200 31.68300
C  46.89600 25.33700 33.14900
C  46.36900 23.82200 33.06000
C  46.47900 23.52600 31.55200
C  47.06000 22.85500 34.00400
C  45.73400 26.23200 33.64700
C  45.48200 26.13400 35.12400
H  45.72100 27.34400 36.10100
N  46.17700 22.63100 28.58400
C  46.02500 21.84200 29.72500
C  45.61100 20.54300 29.23800
C  45.68700 20.52000 27.79600
C  46.13700 21.86100 27.41900
C  45.11400 19.41800 30.29400
C  45.44400 19.32800 26.83300
O  45.44700 19.50800 25.63600
C  45.07100 17.96800 27.37300
N  47.45600 24.59400 26.49600
C  47.04700 23.59500 25.69200
C  47.11400 23.97100 24.25500
C  47.45900 25.52200 24.30600
C  47.74500 25.67400 25.76300
C  48.05800 23.09100 23.36900
C  46.32600 26.39500 23.89800
C  46.63400 27.69600 23.19600
N  47.84600 26.45100 28.70600
C  48.21600 27.31800 27.73100
C  48.69500 28.59000 28.27300
C  48.59300 28.35700 29.61200
C  48.08900 27.10200 29.84600
C  49.39900 29.68300 27.51700
C  48.85500 28.99800 30.87100
O  49.23200 30.14200 31.14600
C  48.27700 27.99400 31.97600
C  49.37700 27.76400 32.93800
O  50.51700 27.50900 32.59000
O  48.90700 28.08000 34.18000
C  49.82100 28.30700 35.31000
H  45.58900 21.67700 31.87700
H  46.56500 21.61300 25.31600
H  48.36900 27.70200 25.59700
H  47.71300 25.34100 33.87000
H  45.30300 23.78300 33.28400
H  47.73500 23.38900 34.67300
H  47.69400 22.20900 33.39600
H  46.36400 22.32700 34.65700
H  44.86900 25.86400 33.09400
H  45.81100 27.25400 33.27800
H  46.13200 25.35300 35.51900
H  44.44900 25.81400 35.25600
H  44.07500 19.14900 30.10800
H  45.35300 19.80100 31.28600
H  45.63500 18.46300 30.22700
H  45.68700 17.85200 28.26500
H  45.40900 17.25500 26.62200
H  43.99000 18.02000 27.50500
H  46.09900 23.71100 23.95500
H  48.36100 25.79500 23.75800
H  48.91900 23.66800 23.03300
H  47.43800 22.59400 22.62300
H  48.40900 22.29500 24.02700
H  45.57800 26.43200 24.69000
H  45.75300 25.85100 23.14700
H  46.33200 27.57600 22.15600
H  47.70100 27.91500 23.24500
H  45.97500 28.51400 23.48700
H  48.81900 29.90900 26.62300
H  50.39000 29.31200 27.25400
H  49.35000 30.65600 28.00600
H  47.38700 28.49000 32.36400
H  50.85100 28.16500 34.98300
H  49.68800 27.58000 36.11200
H  49.76600 29.35900 35.59100

