158

Mg 53.89500 23.68600 43.43300
C  51.14300 25.76100 42.82500
C  52.20300 21.12000 42.03900
C  56.89100 22.01600 43.18700
C  55.76800 26.52500 44.63200
N  51.92000 23.53500 42.55800
C  50.96400 24.50200 42.49200
C  49.66200 23.93400 41.79100
C  49.93800 22.36500 41.84800
C  51.42600 22.29100 42.18000
C  49.12800 21.52800 42.87000
C  49.27100 24.49900 40.35100
C  50.46600 24.73100 39.31400
H  50.07700 25.19000 37.88500
N  54.35300 21.78500 42.79700
C  53.54000 20.88500 42.27400
C  54.25200 19.61400 42.08400
C  55.65200 19.82300 42.44200
C  55.68500 21.30800 42.76800
C  53.53000 18.39900 41.48500
C  56.70300 18.67900 42.46500
O  56.25700 17.52800 42.40000
C  58.11000 18.90100 42.63900
N  56.01400 24.28200 43.69900
C  57.06000 23.32000 43.56000
C  58.46100 23.96100 43.96100
C  58.06100 25.39600 44.44400
C  56.49200 25.42600 44.24900
C  59.15300 23.10700 45.10200
C  58.88800 26.52600 43.66200
C  60.29900 26.84200 44.20400
N  53.56800 25.72800 43.82700
C  54.39500 26.76100 44.33100
C  53.55400 27.99400 44.47800
C  52.32000 27.70400 43.87400
C  52.38900 26.28900 43.40500
C  53.91600 29.25900 45.13400
C  50.96800 28.18200 43.51300
O  50.53200 29.30100 43.71000
C  50.13300 26.95200 42.95200
C  49.69000 27.36000 41.60100
O  50.40100 27.80900 40.63500
O  48.30000 27.46600 41.68000
C  47.75900 28.19900 40.59500
H  51.66600 20.20000 41.80100
H  57.70400 21.28900 43.13200
H  56.40100 27.33100 45.01100
H  48.93800 24.19300 42.56300
H  49.84700 21.82100 40.90800
H  48.13500 21.42000 42.43400
H  48.83000 22.07800 43.76300
H  49.61500 20.60000 43.17200
H  48.63200 25.36200 40.16100
H  48.60000 23.76500 39.90500
H  51.11300 23.85400 39.32300
H  51.02500 25.57500 39.71700
H  53.80700 18.30100 40.43500
H  52.44700 18.35400 41.59100
H  53.80600 17.44400 41.93000
H  58.50900 19.20600 43.60600
H  58.46500 19.67200 41.95400
H  58.58800 17.98600 42.29200
H  59.14900 23.97300 43.11600
H  58.27500 25.46500 45.51000
H  59.84400 22.46000 44.56200
H  58.33900 22.57400 45.59300
H  59.66000 23.66600 45.88800
H  58.28300 27.43200 43.63100
H  58.89300 26.20800 42.61900
H  61.10000 26.28600 43.71700
H  60.24600 26.60200 45.26600
H  60.56400 27.90000 44.20700
H  53.26200 29.46100 45.98200
H  53.87200 30.01100 44.34600
H  54.93400 29.14000 45.50600
H  49.26100 26.73500 43.56800
H  46.71100 28.34000 40.85800
H  47.75000 27.58200 39.69700
H  48.22300 29.18500 40.56200
Mg -12.04800 16.86200 41.81600
C  -8.82900 15.42000 41.45400
C  -10.83200 19.81500 40.52200
C  -15.22400 17.96300 41.78900
C  -13.25300 13.59500 42.14800
N  -10.01100 17.46100 40.96100
C  -8.83000 16.66700 40.98000
C  -7.66500 17.52200 40.41300
C  -8.26300 18.98100 40.35300
C  -9.81800 18.77800 40.56900
C  -7.60600 20.08400 41.20700
C  -7.16700 16.95700 39.00800
C  -5.69900 17.33000 38.58800
H  -5.47300 17.80800 37.09700
N  -12.91000 18.64900 41.26600
C  -12.25000 19.76400 40.77100
C  -13.15900 20.82100 40.57400
C  -14.36800 20.34900 41.05100
C  -14.22900 18.94000 41.40000
C  -12.84600 22.22300 39.96800
C  -15.60700 21.22700 41.12800
O  -15.72300 22.36900 40.74500
C  -16.93800 20.69900 41.66600
N  -13.93700 15.89100 41.84000
C  -15.07400 16.57500 42.05000
C  -16.35800 15.71700 42.03900
C  -15.69700 14.36100 42.28800
C  -14.23200 14.56400 42.01100
C  -17.52600 16.06400 42.99800
C  -16.26100 13.26300 41.33800
C  -16.45000 11.69900 41.86500
N  -11.21500 14.95900 42.11000
C  -11.85500 13.74000 42.22300
C  -10.81300 12.65500 42.22600
C  -9.61300 13.32400 42.06400
C  -9.94100 14.70200 41.86300
C  -11.03300 11.19500 42.24300
C  -8.17900 13.07200 42.02800
O  -7.52100 12.05400 42.05700
C  -7.63100 14.50200 41.68600
C  -6.75100 14.94300 42.81400
O  -7.10700 14.89200 44.01400
O  -5.57300 15.32700 42.32200
C  -4.50600 15.56400 43.32300
H  -10.35700 20.79200 40.41200
H  -16.27400 18.26100 41.81800
H  -13.76800 12.64900 42.32600
H  -6.82900 17.55300 41.11200
H  -8.07100 19.32600 39.33700
H  -7.24900 20.77500 40.44300
H  -6.79600 19.64500 41.79000
H  -8.30600 20.62100 41.84700
H  -7.89400 17.32500 38.28300
H  -7.19000 15.87600 38.87300
H  -5.14600 16.40300 38.74000
H  -5.28000 17.97000 39.36400
H  -13.39800 22.41600 39.04900
H  -11.77700 22.17600 39.76100
H  -13.11900 22.91200 40.76700
H  -17.60000 21.52700 41.92100
H  -16.75800 20.21200 42.62500
H  -17.50300 20.07500 40.97500
H  -16.83800 15.69500 41.06100
H  -15.73100 14.03200 43.32700
H  -17.35500 16.95600 43.60100
H  -17.71900 15.26500 43.71300
H  -18.46900 16.33000 42.52000
H  -15.70900 13.12100 40.40800
H  -17.27500 13.51800 41.03200
H  -17.46900 11.34400 41.70700
H  -16.23200 11.64800 42.93200
H  -15.81600 11.14800 41.17100
H  -11.65300 10.99600 43.11800
H  -10.12300 10.59700 42.28400
H  -11.60800 10.94300 41.35200
H  -7.04400 14.32400 40.78600
H  -4.91400 16.35300 43.95500
H  -3.59100 15.90100 42.83600
H  -4.36400 14.61600 43.84300

