158

Mg 41.31800 7.77500 30.37100
C  43.08100 9.36800 33.00900
C  39.05400 6.48000 32.63400
C  39.71900 6.03100 27.88400
C  43.59800 8.88400 28.05800
N  41.21900 7.88700 32.55400
C  41.97200 8.57500 33.48000
C  41.54300 8.40400 34.89600
C  40.40300 7.30600 34.66500
C  40.20700 7.18500 33.19100
C  40.50600 5.93800 35.44800
C  41.00400 9.74900 35.33500
C  41.61500 10.41500 36.58500
H  40.69800 10.80800 37.76400
N  39.58900 6.53600 30.21400
C  38.77300 6.14800 31.27700
C  37.63000 5.33600 30.71500
C  37.82500 5.34600 29.32600
C  39.07900 5.96800 29.10100
C  36.50000 4.72500 31.49700
C  36.86400 4.68400 28.31500
O  37.27100 4.54900 27.16300
C  35.41800 4.25400 28.62000
N  41.68300 7.38000 28.28200
C  40.91200 6.60800 27.48300
C  41.45400 6.53300 25.99900
C  42.53700 7.70800 26.04300
C  42.63700 8.02100 27.58300
C  41.90100 5.17700 25.55300
C  42.27300 8.92500 25.09800
C  41.09700 9.82800 25.41200
N  43.02500 8.86200 30.42400
C  43.86500 9.23800 29.40200
C  44.92100 10.09700 29.96100
C  44.60300 10.17100 31.35100
C  43.52200 9.37700 31.59000
C  46.07600 10.70000 29.21100
C  45.10000 10.73100 32.59400
O  46.05800 11.49500 32.79800
C  44.07400 10.29900 33.67600
C  44.98200 9.47200 34.58800
O  45.58400 8.46300 34.26400
O  45.08600 10.00000 35.79100
C  45.99700 9.37500 36.78800
H  38.31000 6.01600 33.28400
H  39.29900 5.42900 27.07500
H  44.20800 9.31800 27.26300
H  42.39700 7.96000 35.40700
H  39.47300 7.82900 34.88900
H  40.33300 5.10800 34.76300
H  39.67700 5.90700 36.15600
H  41.44900 5.78000 35.97100
H  39.94500 9.68400 35.58900
H  41.05400 10.53800 34.58500
H  41.97200 11.40300 36.29200
H  42.55400 9.90300 36.79700
H  35.58600 5.31500 31.42500
H  36.68400 4.83900 32.56500
H  36.55400 3.65500 31.30100
H  35.29600 3.52600 29.42200
H  34.99300 3.89200 27.68400
H  34.89600 5.17400 28.88600
H  40.61200 6.76600 25.34700
H  43.52200 7.31500 25.79300
H  42.80300 4.84200 26.06500
H  42.08100 5.20400 24.47800
H  41.21800 4.33600 25.67400
H  42.11300 8.41100 24.15000
H  43.19600 9.50200 25.03900
H  40.67500 9.59500 26.39000
H  40.31200 9.71000 24.66500
H  41.36700 10.87600 25.54500
H  46.20000 11.75900 29.43900
H  45.93200 10.52100 28.14600
H  47.05500 10.31800 29.50300
H  43.72100 11.18800 34.19900
H  46.05100 8.28700 36.83800
H  45.68000 9.63600 37.79700
H  47.03100 9.66400 36.60000
Mg 5.18400 57.09700 41.92600
C  5.24900 53.61200 41.46900
C  8.13200 57.33600 40.27000
C  4.65200 60.50000 41.75200
C  1.90200 56.67000 43.24100
N  6.38400 55.64600 40.89200
C  6.21500 54.27600 40.77600
C  7.36500 53.70500 39.90900
C  8.44500 54.75600 40.06600
C  7.63100 56.01100 40.42700
C  9.52200 54.42900 41.10600
C  6.84200 53.41700 38.46000
C  7.35800 52.08500 37.82600
H  6.50100 51.57200 36.68800
N  6.27300 58.76400 41.08700
C  7.50500 58.59200 40.52500
C  7.91200 59.89000 40.09000
C  6.87700 60.83600 40.41900
C  5.90400 60.06200 41.16200
C  9.30300 60.13500 39.49900
C  6.90200 62.34600 40.10600
O  7.96500 62.88100 39.72700
C  5.76600 63.27000 40.37500
N  3.49700 58.34500 42.39200
C  3.69600 59.72900 42.43900
C  2.42400 60.44900 42.98500
C  1.63500 59.23400 43.49900
C  2.40300 57.95700 43.04300
C  2.75700 61.52000 44.01300
C  0.08600 59.14600 43.16100
C  -1.03200 58.62300 44.10900
N  3.88500 55.52500 42.43000
C  2.57600 55.46800 42.94500
C  2.15300 54.09600 43.08300
C  3.21600 53.40000 42.56400
C  4.21900 54.26800 42.08600
C  1.00900 53.62600 43.82200
C  3.69600 52.06700 42.41500
O  3.30900 51.00700 42.72400
C  5.03300 52.16100 41.71300
C  5.01100 51.33300 40.47600
O  4.15400 51.34500 39.55800
O  5.97000 50.30400 40.58500
C  5.91400 49.25700 39.57800
H  9.09400 57.36100 39.75300
H  4.45900 61.57400 41.71300
H  1.03100 56.50800 43.88000
H  7.68400 52.73500 40.29000
H  9.01300 55.16600 39.23100
H  10.49200 54.54600 40.62300
H  9.42300 53.36700 41.33300
H  9.28000 55.06400 41.95800
H  7.39500 54.19200 37.93100
H  5.76500 53.57600 38.40100
H  7.37100 51.33000 38.61100
H  8.37700 52.16400 37.44600
H  9.06500 60.79800 38.66700
H  9.82100 59.24200 39.15100
H  9.93500 60.67500 40.20400
H  4.87700 62.80300 39.95100
H  6.04600 64.18200 39.84600
H  5.61000 63.42000 41.44300
H  1.78500 60.88600 42.21800
H  1.65700 59.09300 44.58000
H  3.84000 61.62500 43.95200
H  2.47000 61.22200 45.02200
H  2.16100 62.40500 43.78800
H  -0.05900 58.88000 42.11400
H  -0.19100 60.18200 42.97000
H  -1.66400 59.40800 44.52600
H  -0.45200 58.00200 44.79100
H  -1.69900 57.91200 43.62200
H  1.21200 53.58200 44.89200
H  0.53200 52.71400 43.46100
H  0.17800 54.32300 43.71800
H  5.84600 51.81100 42.34900
H  6.96000 48.98400 39.43300
H  5.40600 49.49500 38.64400
H  5.45400 48.39200 40.05600

