158

Mg 47.50100 14.76600 27.52200
C  45.53400 14.86600 30.49500
C  49.48600 17.28000 28.81100
C  49.10700 14.84300 24.61000
C  45.06000 12.64700 26.22800
N  47.48400 15.87600 29.42300
C  46.71800 15.68000 30.58600
C  47.23100 16.40700 31.77900
C  48.44800 17.28300 31.23200
C  48.48000 16.85700 29.71800
C  48.39200 18.83000 31.49500
C  47.57700 15.44700 32.86400
C  47.31400 15.94000 34.26700
H  48.38400 15.71100 35.36000
N  49.16300 15.90500 26.79000
C  49.79000 16.93300 27.44400
C  50.75400 17.57400 26.53200
C  50.81100 16.65700 25.34900
C  49.66600 15.75700 25.52100
C  51.61800 18.82200 26.83100
C  51.76200 16.76700 24.15200
O  51.67000 16.01700 23.14900
C  52.92700 17.79400 24.15700
N  47.11400 13.85800 25.69700
C  47.92600 14.02200 24.65700
C  47.57100 13.06000 23.51100
C  46.36000 12.25900 24.09000
C  46.17700 12.89400 25.44800
C  47.21600 13.84200 22.16400
C  46.71700 10.66600 24.24400
C  47.28900 9.95300 22.99000
N  45.55600 13.99700 28.14800
C  44.74400 13.14800 27.47100
C  43.54500 12.97200 28.33100
C  43.89300 13.56600 29.54000
C  45.12100 14.18900 29.35700
C  42.28800 12.15400 27.99200
C  43.36700 13.84300 30.85700
O  42.31200 13.53400 31.37000
C  44.38300 14.68000 31.55400
C  43.77100 15.96000 31.94900
O  43.48100 16.87100 31.23500
O  43.56000 15.91900 33.27700
C  42.81700 16.99300 33.90400
H  50.15000 18.04100 29.22600
H  49.71900 14.65000 23.72600
H  44.39500 11.95000 25.71300
H  46.45200 17.06100 32.17100
H  49.34800 16.79800 31.61000
H  48.49900 19.37900 30.56000
H  49.20800 19.03500 32.18800
H  47.48000 19.22300 31.94500
H  48.61400 15.13500 32.74400
H  47.12600 14.45600 32.80700
H  46.37700 15.53400 34.64900
H  47.18800 17.02200 34.29500
H  51.26500 19.59300 26.14500
H  52.70500 18.78200 26.76200
H  51.50900 19.22200 27.83900
H  53.26200 17.76500 23.12000
H  53.72100 17.37300 24.77300
H  52.48100 18.76000 24.39400
H  48.46400 12.50000 23.23400
H  45.47800 12.53100 23.51100
H  47.92300 14.55600 21.74200
H  46.21900 14.27300 22.25100
H  47.01100 13.13100 21.36400
H  45.81100 10.21600 24.64900
H  47.40100 10.33900 25.02700
H  46.75000 9.06700 22.65500
H  48.26800 9.51300 23.17600
H  47.23500 10.61800 22.12800
H  42.56200 11.19000 27.56300
H  41.84600 12.70100 27.16000
H  41.65800 12.15400 28.88100
H  44.85500 14.18900 32.40500
H  43.46100 17.42300 34.67200
H  41.87700 16.68400 34.36000
H  42.66000 17.84500 33.24300
Mg 46.03300 34.82700 28.22000
C  44.43300 32.80600 30.58800
C  46.07200 37.41000 30.46800
C  47.29200 36.93300 25.78700
C  45.84100 32.22700 25.88100
N  45.40500 35.00700 30.33700
C  44.85000 34.03100 31.12900
C  44.89500 34.47200 32.63100
C  45.10800 36.01900 32.47100
C  45.58500 36.16300 31.01800
C  43.79400 36.84100 32.69600
C  46.16200 33.77200 33.33100
C  46.19800 33.61600 34.86000
H  45.28500 34.59200 35.64600
N  46.78100 36.85400 28.20600
C  46.62100 37.79200 29.20900
C  47.21000 39.05900 28.85700
C  47.58100 38.91600 27.45600
C  47.23900 37.53100 27.09800
C  47.33800 40.23200 29.78200
C  48.29200 39.89100 26.46300
O  48.63000 39.50200 25.35600
C  48.52000 41.35600 26.90000
N  46.43800 34.60400 26.18000
C  46.87600 35.63500 25.45500
C  47.05000 35.19200 23.94100
C  46.71400 33.65200 23.98900
C  46.34600 33.41900 25.44900
C  46.37900 36.06600 22.87000
C  47.80600 32.64800 23.47800
C  47.47800 31.71100 22.30700
N  45.27900 32.89300 28.16500
C  45.36400 31.94900 27.16900
C  44.77000 30.70600 27.61100
C  44.38600 30.93900 29.00900
C  44.69700 32.30600 29.26900
C  44.73000 29.36500 26.84400
C  43.90400 30.39900 30.25000
O  43.53000 29.24600 30.46200
C  43.54500 31.65500 31.18600
C  43.85100 31.25800 32.58900
O  44.83400 30.73100 33.01400
O  42.82000 31.68200 33.36900
C  42.86500 31.28300 34.80400
H  46.08900 38.21800 31.20200
H  47.48500 37.55500 24.91000
H  45.83300 31.44800 25.11600
H  44.00300 34.17500 33.18200
H  45.82300 36.38000 33.21000
H  43.10300 36.27300 33.31900
H  43.20000 37.09100 31.81700
H  43.78300 37.77000 33.26700
H  47.11800 34.08900 32.91300
H  46.13500 32.77900 32.88400
H  47.24300 33.84500 35.06600
H  46.02400 32.57700 35.14200
H  46.66900 41.04800 29.50900
H  48.41800 40.37700 29.76700
H  47.15000 39.85700 30.78800
H  48.86500 41.30200 27.93200
H  47.56600 41.88400 26.92700
H  49.17800 41.84100 26.17900
H  48.11600 35.31200 23.74700
H  45.77200 33.39800 23.50500
H  47.17200 36.44500 22.22500
H  45.85600 36.92200 23.29600
H  45.66400 35.52200 22.25200
H  48.28300 32.04100 24.24700
H  48.66900 33.22100 23.13900
H  48.20700 31.90400 21.52100
H  46.45300 31.86700 21.96900
H  47.48500 30.63900 22.50100
H  45.41100 29.27400 25.99800
H  43.74200 29.13400 26.44600
H  44.97500 28.63500 27.61500
H  42.49800 31.86800 30.96800
H  43.48800 30.40500 34.97300
H  41.89800 31.25600 35.30700
H  43.21200 32.07800 35.46500

