158

Mg 35.02800 2.29700 29.89700
C  32.74000 3.49400 32.28700
C  37.41600 2.24600 32.44200
C  37.43900 1.62700 27.49400
C  32.64500 2.84900 27.45500
N  35.02800 2.67900 32.13000
C  34.03600 3.29200 32.83700
C  34.36300 3.25600 34.34300
C  35.91800 3.02000 34.36200
C  36.11000 2.53800 32.92600
C  36.84700 4.03000 34.98700
C  33.60100 2.11800 35.11700
C  33.77600 2.11500 36.68700
H  34.53000 3.19400 37.42200
N  37.08800 1.81700 29.97700
C  37.84000 1.88400 31.09800
C  39.20200 1.66700 30.67400
C  39.21800 1.35700 29.30300
C  37.91100 1.63800 28.87300
C  40.27800 1.86200 31.70900
C  40.38300 1.00600 28.44200
O  40.26200 1.11800 27.26800
C  41.65200 0.49100 29.05500
N  35.01700 2.18100 27.81500
C  36.16600 1.91200 27.02900
C  35.75000 1.72600 25.52200
C  34.16400 2.02900 25.56300
C  33.87900 2.30000 27.08600
C  36.43900 2.61000 24.47300
C  33.37000 0.82100 25.00800
C  32.25500 0.99800 24.09400
N  33.08900 3.05800 29.78500
C  32.21000 3.19800 28.76400
C  30.91000 3.56000 29.16800
C  31.08600 3.75200 30.57300
C  32.45700 3.42500 30.89400
C  29.77500 4.05400 28.30600
C  30.44100 4.23700 31.78000
O  29.29200 4.64400 32.07100
C  31.48800 3.99100 32.94100
C  31.89300 5.25200 33.59000
O  32.36400 6.24800 33.03800
O  31.61900 5.18000 34.94400
C  31.92000 6.37100 35.78800
H  38.20900 2.18000 33.19000
H  38.15300 1.30800 26.73200
H  31.91700 2.94000 26.64700
H  34.08900 4.16800 34.87200
H  36.08600 2.09800 34.91900
H  36.22200 4.87000 35.28800
H  37.67500 4.47600 34.43700
H  37.33700 3.53500 35.82600
H  33.96500 1.15700 34.75100
H  32.53600 2.14700 34.88400
H  34.26700 1.21100 37.04700
H  32.85000 1.99900 37.25000
H  40.48500 0.90900 32.19500
H  40.05300 2.61900 32.46100
H  41.22300 2.19900 31.28300
H  42.21300 1.40000 29.27500
H  42.23600 -0.19900 28.44700
H  41.40800 -0.02900 29.98200
H  36.09900 0.73700 25.22500
H  33.97900 2.90400 24.93800
H  36.75000 1.94400 23.66800
H  37.37300 3.06100 24.80900
H  35.84900 3.37800 23.97100
H  32.99600 0.25100 25.85800
H  34.07600 0.06500 24.66600
H  32.49200 0.26300 23.32400
H  32.17200 1.96300 23.59400
H  31.33600 0.78200 24.63900
H  30.28600 4.34500 27.38800
H  29.39400 5.00200 28.68600
H  29.00500 3.30200 28.13200
H  30.97400 3.38900 33.69100
H  31.05300 7.03100 35.79000
H  32.78300 6.92100 35.41400
H  32.15600 6.03400 36.79700
Mg 30.18500 57.88300 41.34400
C  27.36800 56.13100 40.13800
C  32.14800 55.80200 39.53700
C  32.82700 60.02500 41.99000
C  28.00200 60.39100 42.37300
N  29.71100 56.11700 39.98200
C  28.51200 55.52500 39.67500
C  28.76000 54.46100 38.61800
C  30.28000 54.14500 38.82600
C  30.80800 55.47900 39.49600
C  30.50200 52.98000 39.88300
C  28.41200 54.84900 37.12500
C  27.46400 53.82000 36.46500
H  26.69800 54.37500 35.20900
N  32.30400 57.82200 40.96500
C  32.90500 56.92900 40.18400
C  34.30500 57.19400 40.14100
C  34.52700 58.39100 40.84400
C  33.18500 58.80900 41.34700
C  35.22600 56.41400 39.37100
C  35.82500 59.13000 40.89200
O  36.83700 58.61800 40.41700
C  36.01500 60.46000 41.70100
N  30.39000 59.88200 42.07400
C  31.58800 60.49900 42.34200
C  31.39600 61.84100 43.03200
C  29.81500 61.88900 43.30800
C  29.34900 60.65500 42.53600
C  32.20400 62.10900 44.39400
C  29.08100 63.21300 42.93200
C  27.96600 63.53700 43.97500
N  28.09200 58.16400 41.46100
C  27.38300 59.31500 41.76100
C  25.97200 59.07200 41.54500
C  25.95000 57.82400 40.93100
C  27.27600 57.35900 40.83700
C  24.75800 60.01500 42.06200
C  25.05400 56.81100 40.37500
O  23.83800 56.83200 40.29200
C  25.93100 55.80300 39.75900
C  25.52600 54.47700 40.23400
O  25.44400 54.14700 41.42200
O  24.99600 53.76600 39.15800
C  24.51400 52.43200 39.50800
H  32.75700 55.22000 38.84200
H  33.59800 60.71800 42.33300
H  27.27100 61.15100 42.65800
H  28.18100 53.56100 38.82500
H  30.78800 53.99000 37.87400
H  29.64900 52.30400 39.83100
H  30.58000 53.33900 40.90900
H  31.40800 52.43600 39.61600
H  29.34000 54.70100 36.57300
H  28.04900 55.87400 37.04200
H  26.78600 53.59300 37.28700
H  28.07800 52.93100 36.31800
H  35.24300 56.86200 38.37700
H  34.89700 55.37600 39.31900
H  36.20800 56.37300 39.84200
H  35.60200 60.34700 42.70300
H  35.49300 61.22700 41.12800
H  37.04200 60.81900 41.77800
H  31.63500 62.50500 42.20100
H  29.63100 61.61100 44.34600
H  33.01300 61.37900 44.37100
H  31.71700 62.05500 45.36800
H  32.64200 63.10500 44.34300
H  28.54000 62.97700 42.01500
H  29.73800 64.04700 42.68700
H  28.18400 64.56100 44.28100
H  28.01200 62.97000 44.90500
H  27.02500 63.44200 43.43300
H  24.04400 59.37500 42.58100
H  24.36600 60.66400 41.27900
H  25.13800 60.74100 42.78000
H  25.76600 55.77800 38.68200
H  23.45800 52.42600 39.77900
H  25.09500 51.87800 40.24500
H  24.66600 51.86400 38.59100

