158

Mg 55.32800 24.66000 45.66200
C  52.52300 26.31600 44.54700
C  53.93600 21.71400 44.78300
C  58.37700 23.23800 46.08600
C  56.63200 27.76800 46.59900
N  53.46600 24.12500 44.73400
C  52.54300 24.94500 44.26900
C  51.32200 24.20400 43.81800
C  51.64500 22.71200 44.30700
C  53.11000 22.79300 44.62500
C  50.70300 22.33900 45.58300
C  51.28500 24.23600 42.21900
C  49.84800 24.01900 41.63000
H  49.59700 22.91600 40.58900
N  56.00800 22.70700 45.62700
C  55.28500 21.64700 45.24500
C  56.11100 20.45800 45.22400
C  57.39900 20.89400 45.62500
C  57.34700 22.36700 45.87200
C  55.55200 19.05100 44.78400
C  58.55900 19.92900 45.89200
O  58.54800 18.73400 45.47400
C  59.89700 20.32200 46.46500
N  57.26300 25.44700 46.04200
C  58.35800 24.64200 46.35500
C  59.59900 25.48800 46.65400
C  58.94400 26.89100 46.97600
C  57.49300 26.72200 46.53800
C  60.61000 24.96500 47.82300
C  59.80200 28.10600 46.54500
C  59.56600 28.72800 45.22600
N  54.68500 26.70900 45.67300
C  55.27100 27.80800 46.17400
C  54.32700 28.93600 46.14600
C  53.19000 28.40900 45.47600
C  53.51000 27.12100 45.17200
C  54.49500 30.30000 46.71600
C  51.80500 28.63100 45.01600
O  51.04400 29.59800 45.04800
C  51.31600 27.31800 44.28700
C  50.99700 27.58400 42.83900
O  51.80500 27.85800 41.90800
O  49.72500 27.33300 42.63400
C  49.20100 27.55000 41.24900
H  53.43600 20.82800 44.38700
H  59.35000 22.74600 46.03000
H  57.12300 28.69600 46.89900
H  50.45600 24.64300 44.31300
H  51.51500 22.01000 43.48300
H  50.16700 21.44400 45.26500
H  50.09800 23.17600 45.93000
H  51.29400 22.11700 46.47100
H  51.81400 23.43200 41.70700
H  51.70000 25.16100 41.81900
H  49.41300 24.89600 41.15000
H  49.25300 23.73500 42.49800
H  56.16600 18.19800 45.07100
H  55.53200 18.98500 43.69600
H  54.54200 18.85900 45.14600
H  60.42400 20.90100 45.70700
H  60.48600 19.46200 46.78400
H  59.63500 20.93700 47.32600
H  60.14200 25.44000 45.71000
H  58.79500 26.92100 48.05500
H  60.46900 24.01400 48.33500
H  60.64300 25.72900 48.60000
H  61.62100 25.01600 47.41800
H  60.80200 27.67200 46.52900
H  59.65500 28.75200 47.41100
H  58.75800 28.38400 44.58000
H  60.46100 28.54700 44.63100
H  59.35500 29.79500 45.29700
H  54.21900 31.06200 45.98800
H  55.56300 30.45200 46.87600
H  54.01100 30.35800 47.69100
H  50.39600 27.02300 44.79100
H  49.25100 28.59300 40.93800
H  48.12500 27.38000 41.21100
H  49.68200 26.95000 40.47600
Mg 41.86600 40.52800 26.90100
C  41.46300 42.82200 29.57300
C  42.99600 38.26800 29.03100
C  42.74300 38.67000 24.25400
C  41.07600 43.24300 24.72900
N  42.24600 40.70200 29.02200
C  41.91500 41.62100 30.02500
C  42.03300 41.16100 31.38400
C  42.81800 39.83600 31.07400
C  42.57700 39.54700 29.57200
C  44.29200 39.91900 31.58500
C  40.64200 41.06400 32.14100
C  40.41600 41.96600 33.44100
H  39.64000 41.32200 34.68100
N  42.80900 38.71000 26.65900
C  43.20000 37.88100 27.68200
C  43.59300 36.51700 27.16300
C  43.34100 36.60500 25.73800
C  42.88700 38.02900 25.49600
C  44.00200 35.29900 28.03200
C  43.60500 35.58100 24.70000
O  43.42900 35.81100 23.49200
C  44.11900 34.16800 25.03300
N  41.98700 40.95900 24.87500
C  42.35400 39.99500 23.93700
C  41.83700 40.33600 22.54800
C  41.31800 41.83900 22.68100
C  41.41500 42.04700 24.18700
C  42.96100 40.14700 21.49400
C  39.84900 42.00500 22.23500
C  39.67800 42.32600 20.77500
N  41.40800 42.68900 27.08500
C  40.99800 43.54000 26.09600
C  40.62100 44.76200 26.71900
C  40.72100 44.57200 28.13500
C  41.30900 43.28800 28.27800
C  40.18700 45.88300 25.94400
C  40.49400 45.19200 29.42100
O  40.04700 46.26400 29.73700
C  41.00100 44.06700 30.43100
C  42.10000 44.65800 31.15100
O  43.17900 44.95100 30.69100
O  41.63400 45.01900 32.34900
C  42.57600 45.63500 33.26900
H  43.26600 37.58100 29.83600
H  42.80300 38.06900 23.34400
H  40.80700 44.11400 24.12700
H  42.59700 41.97200 31.84400
H  42.23100 39.08800 31.60600
H  44.91000 39.66800 30.72300
H  44.47600 39.11700 32.30000
H  44.65400 40.91800 31.82900
H  40.38800 40.09800 32.57700
H  39.90100 41.36300 31.40000
H  39.82700 42.85400 33.21200
H  41.41100 42.21200 33.81300
H  45.01800 35.06900 27.70900
H  43.40200 34.42700 27.77100
H  43.84500 35.54800 29.08100
H  44.34400 33.54000 24.17100
H  43.31300 33.63900 25.54200
H  45.08600 34.20700 25.53300
H  41.03900 39.62600 22.32800
H  41.94200 42.56100 22.15500
H  44.02100 40.13000 21.74800
H  42.89200 40.96000 20.77100
H  42.82400 39.17100 21.03000
H  39.37500 42.81100 22.79700
H  39.29600 41.10400 22.49800
H  39.25900 43.29400 20.49800
H  39.03800 41.63400 20.22700
H  40.66400 42.38600 20.31400
H  40.68300 45.99900 24.98000
H  40.36300 46.77200 26.55100
H  39.11400 45.74600 25.81100
H  40.17200 43.90500 31.12000
H  43.06800 44.99400 34.00000
H  41.91600 46.23400 33.89600
H  43.30000 46.24200 32.72600

