158

Mg 8.85900 3.37300 27.73800
C  9.74700 1.74900 30.69900
C  7.21800 5.70800 29.65200
C  7.48800 4.58100 24.87000
C  10.15200 0.62100 25.86800
N  8.67900 3.79000 29.99200
C  9.13900 2.95400 31.02000
C  8.75300 3.50300 32.36800
C  7.92700 4.81500 31.97000
C  7.94400 4.81700 30.46100
C  6.45800 4.86400 32.57000
C  9.92000 3.66500 33.44600
C  9.62600 4.75900 34.49000
H  10.03400 4.52700 35.98300
N  7.65900 4.96200 27.30500
C  7.02600 5.83200 28.22900
C  6.25600 6.79300 27.58700
C  6.40000 6.52600 26.16900
C  7.28100 5.33000 26.04500
C  5.55400 7.84600 28.36300
C  5.88900 7.38200 25.01300
O  6.11600 7.08800 23.84200
C  5.26500 8.74500 25.30000
N  8.76300 2.64800 25.71900
C  8.17300 3.41400 24.69800
C  8.39100 2.70800 23.33900
C  9.19000 1.42500 23.68800
C  9.42100 1.58500 25.18000
C  7.08200 2.43300 22.57100
C  10.47100 1.27300 22.82400
C  10.41000 0.35000 21.59100
N  9.78300 1.61100 28.15700
C  10.25800 0.59600 27.31200
C  10.99900 -0.33900 28.06000
C  10.82600 0.12400 29.36600
C  9.97700 1.23900 29.36900
C  11.79900 -1.41000 27.59100
C  11.15300 -0.17800 30.71300
O  11.89500 -0.99100 31.19400
C  10.51700 0.86600 31.58100
C  9.69800 0.27900 32.60000
O  8.67100 -0.36700 32.38700
O  10.33700 0.44200 33.81800
C  9.76100 -0.32700 34.96700
H  6.78600 6.52600 30.23200
H  6.96000 4.89600 23.96800
H  10.57500 -0.20900 25.29800
H  8.01700 2.80700 32.77000
H  8.41500 5.72900 32.31000
H  5.89900 5.28900 31.73700
H  6.34300 5.62100 33.34600
H  6.05100 3.87300 32.77500
H  10.79500 4.06100 32.93000
H  10.18700 2.77900 34.02200
H  8.56300 4.97300 34.38500
H  10.16100 5.69900 34.35500
H  4.53400 7.81500 27.98000
H  5.94900 8.83600 28.13600
H  5.51700 7.80400 29.45200
H  4.41100 8.59400 25.96100
H  4.81500 9.10400 24.37500
H  5.97000 9.50500 25.63600
H  8.88800 3.37100 22.63000
H  8.68200 0.47700 23.51300
H  7.08100 2.97400 21.62400
H  6.25900 2.55300 23.27500
H  7.14200 1.37900 22.30100
H  11.31000 1.00800 23.46600
H  10.84200 2.18400 22.35500
H  10.20800 0.81900 20.62800
H  9.76400 -0.52600 21.64700
H  11.43200 -0.02900 21.58600
H  12.30400 -1.11500 26.67100
H  11.05200 -2.18800 27.43100
H  12.61200 -1.61600 28.28800
H  11.28300 1.52300 31.99500
H  8.89600 0.19800 35.37400
H  10.57600 -0.41800 35.68500
H  9.48700 -1.32900 34.63700
Mg 53.24900 23.72300 44.39100
C  50.49200 25.70300 43.44800
C  51.33600 20.98000 43.07200
C  56.03900 21.83200 44.30700
C  54.92600 26.52600 45.14600
N  51.24200 23.42300 43.09000
C  50.30500 24.41100 42.90700
C  49.01100 23.84100 42.18900
C  49.14200 22.36900 42.45100
C  50.64800 22.20900 42.83800
C  48.20200 21.86700 43.51700
C  49.08800 24.31500 40.67200
C  47.74800 24.66000 39.98500
H  47.12900 23.72400 38.92200
N  53.62800 21.62700 43.91800
C  52.69200 20.69000 43.45100
C  53.31400 19.42500 43.44800
C  54.69100 19.58300 43.80200
C  54.84500 21.03300 44.07800
C  52.66700 18.18200 43.14700
C  55.70600 18.46200 43.93400
O  55.37000 17.36500 43.50700
C  57.13000 18.73600 44.39300
N  55.26600 24.16600 44.45700
C  56.25300 23.20400 44.52400
C  57.58400 23.82400 44.96800
C  57.22200 25.34500 45.30500
C  55.72100 25.38200 44.96200
C  58.42100 23.12900 46.04600
C  57.98000 26.35500 44.47500
C  58.40100 27.64000 45.19300
N  52.84500 25.66500 44.38400
C  53.60900 26.74000 44.81600
C  52.80200 27.92200 44.95400
C  51.57000 27.58600 44.44800
C  51.65700 26.17100 44.06900
C  53.16700 29.28700 45.41700
C  50.21300 28.09500 44.19000
O  49.72500 29.20400 44.31800
C  49.42200 26.79800 43.64700
C  48.84600 27.28200 42.37900
O  49.45900 27.60500 41.35800
O  47.50500 27.51500 42.49200
C  46.80000 28.29600 41.43400
H  50.68800 20.11400 42.92100
H  57.00100 21.31600 44.32700
H  55.41800 27.40500 45.56800
H  48.13400 24.27300 42.67100
H  48.96800 21.92500 41.47100
H  47.35900 21.35500 43.05400
H  47.85500 22.67500 44.16200
H  48.70900 21.06900 44.05800
H  49.51700 23.57300 39.99800
H  49.72500 25.18700 40.52100
H  47.96700 25.55400 39.40200
H  47.02600 24.94700 40.74900
H  52.44000 17.56400 44.01600
H  53.27700 17.64300 42.42300
H  51.72900 18.37200 42.62500
H  57.68000 19.25800 43.60900
H  57.54000 17.73100 44.49100
H  57.13500 19.19900 45.38000
H  58.18100 23.89500 44.06000
H  57.43300 25.57800 46.34900
H  58.04500 22.12000 46.21800
H  58.38300 23.66200 46.99700
H  59.42600 22.96300 45.66000
H  57.31900 26.70000 43.68000
H  58.82900 25.86800 43.99600
H  59.47300 27.79900 45.07800
H  58.26000 27.69400 46.27300
H  57.88400 28.51200 44.79100
H  54.23400 29.45400 45.27500
H  52.92200 29.40400 46.47200
H  52.57900 30.05000 44.90500
H  48.62700 26.46700 44.31500
H  46.07500 28.86900 42.01200
H  46.28000 27.72300 40.66700
H  47.45200 29.06100 41.01200

