158

Mg -0.19400 7.34700 26.26500
C  0.76700 9.31600 29.05900
C  -0.08600 4.63100 28.41600
C  -0.62500 5.53700 23.66100
C  0.31900 10.20700 24.23600
N  0.28200 6.97500 28.57500
C  0.53700 7.96500 29.47700
C  0.48300 7.39500 30.92300
C  0.53200 5.83200 30.68100
C  0.29500 5.78100 29.10500
C  1.92500 5.18100 31.20700
C  -0.72100 7.82300 31.85200
C  -0.36500 7.94600 33.36800
H  0.81600 7.25000 34.02900
N  -0.35500 5.38600 26.06800
C  -0.29900 4.38700 27.05900
C  -0.59200 3.11300 26.44300
C  -0.78300 3.36200 25.03000
C  -0.53400 4.81300 24.83600
C  -0.65600 1.84600 27.21100
C  -1.20300 2.40200 23.93700
O  -1.44100 2.71100 22.75900
C  -1.71400 0.96600 24.31300
N  0.07900 7.77900 24.21600
C  -0.29600 6.81000 23.31000
C  -0.31100 7.42600 21.82900
C  -0.04500 8.93800 22.04800
C  0.15500 9.00200 23.57800
C  0.71100 6.71500 20.89700
C  -1.17200 9.85300 21.48800
C  -2.36500 10.06600 22.37500
N  0.47100 9.38600 26.51200
C  0.51300 10.44000 25.60500
C  0.83500 11.66600 26.31100
C  1.00900 11.28800 27.66700
C  0.71500 9.88500 27.74500
C  1.00700 13.04500 25.68600
C  1.36100 11.73300 28.98700
O  1.75400 12.79900 29.37900
C  1.12600 10.45700 29.93600
C  2.39000 10.19600 30.61000
O  3.37500 9.63000 30.16600
O  2.30100 10.77200 31.81300
C  3.50100 10.65900 32.69900
H  -0.25000 3.75100 29.04300
H  -1.03000 4.96500 22.82400
H  0.38800 11.11400 23.63200
H  1.40400 7.70900 31.41500
H  -0.19700 5.31100 31.30200
H  2.31200 4.63400 30.34700
H  1.71200 4.48200 32.01600
H  2.61100 6.00600 31.39900
H  -1.52900 7.09200 31.89100
H  -1.15900 8.72700 31.42900
H  -1.21700 7.58300 33.94300
H  -0.29400 8.97900 33.71100
H  -1.22000 0.98600 26.85000
H  -1.09200 1.98100 28.20000
H  0.39200 1.55200 27.27000
H  -2.56700 0.97000 24.99100
H  -0.94200 0.37000 24.80100
H  -2.11300 0.47500 23.42600
H  -1.29700 7.25500 21.39800
H  0.88300 9.12100 21.50700
H  0.78100 5.64800 21.10900
H  1.69000 7.07100 21.21800
H  0.53900 6.93800 19.84400
H  -1.53500 9.35900 20.58700
H  -0.61200 10.75900 21.25700
H  -2.39000 11.11000 22.68700
H  -2.39100 9.43400 23.26200
H  -3.29900 9.91700 21.83300
H  0.11200 13.65400 25.55900
H  1.37700 12.81000 24.68900
H  1.69800 13.56300 26.35100
H  0.32200 10.72200 30.62300
H  4.41900 11.11200 32.32400
H  3.52900 9.63800 33.08000
H  3.39400 11.17800 33.65100
Mg 39.97500 10.09500 30.02100
C  41.98600 11.02200 32.78000
C  37.82200 8.63200 32.22900
C  38.61400 8.67000 27.42900
C  42.72200 11.19000 27.90500
N  39.91300 9.85000 32.29200
C  40.80100 10.46900 33.20900
C  40.19200 10.37400 34.63600
C  38.96700 9.36300 34.48200
C  38.92900 9.25500 32.92700
C  39.14800 7.94900 35.10700
C  39.76100 11.76900 34.99200
C  40.55400 12.36800 36.13600
H  39.84000 13.17700 37.18800
N  38.30100 8.94900 29.87300
C  37.52100 8.49700 30.89500
C  36.40200 7.79600 30.33800
C  36.59200 7.84000 28.85400
C  37.88100 8.42900 28.67200
C  35.48200 6.98600 31.19200
C  35.70200 7.33900 27.88600
O  35.90600 7.43100 26.63900
C  34.38000 6.75400 28.29200
N  40.58700 9.93000 27.96800
C  39.80200 9.31300 27.08900
C  40.29700 9.39700 25.61000
C  41.63000 10.24800 25.80900
C  41.64600 10.52500 27.33400
C  40.48100 8.07400 24.86600
C  41.63100 11.63000 25.06400
C  40.97600 11.72900 23.75400
N  41.99100 10.77100 30.24200
C  42.90900 11.23400 29.30000
C  43.97800 11.80900 29.89000
C  43.63200 11.90300 31.28400
C  42.46200 11.12400 31.44500
C  45.28200 12.31000 29.31700
C  44.12500 12.22800 32.61500
O  45.11900 12.79200 32.93100
C  43.02000 11.82800 33.56500
C  43.73700 10.88200 34.43900
O  44.34600 9.89600 34.02300
O  43.56100 11.18500 35.77200
C  44.22800 10.36900 36.76900
H  37.08800 8.12200 32.85700
H  38.07600 8.29700 26.55400
H  43.51100 11.69600 27.34400
H  40.98300 9.86700 35.18900
H  37.98200 9.72000 34.78400
H  38.41300 7.82400 35.90200
H  40.10500 7.79900 35.60700
H  39.18000 7.09800 34.42800
H  38.76100 11.60900 35.39600
H  39.86500 12.47100 34.16500
H  41.24900 13.08200 35.69300
H  41.21500 11.65300 36.62500
H  34.80300 7.73100 31.60700
H  35.95100 6.50600 32.05100
H  34.97100 6.14600 30.72300
H  34.06700 7.45600 29.06500
H  34.51500 5.77800 28.75800
H  33.63300 6.71500 27.49900
H  39.54400 9.98000 25.08000
H  42.47600 9.64700 25.47700
H  41.35700 8.14800 24.22300
H  39.54100 7.89900 24.34200
H  40.77800 7.29700 25.57000
H  42.65800 11.88300 24.80100
H  41.32500 12.43800 25.72800
H  40.79900 10.73600 23.34000
H  41.62400 12.19000 23.00800
H  40.00200 12.21800 23.74500
H  45.90200 11.52200 28.89000
H  45.80600 12.72600 30.17700
H  44.90900 13.05000 28.60800
H  42.64500 12.67300 34.14300
H  43.83900 9.36000 36.63000
H  44.09100 10.75400 37.78000
H  45.30000 10.37600 36.57100

