158

Mg 7.99300 2.95000 27.11800
C  9.15600 1.74400 30.19200
C  6.01900 5.15000 28.91300
C  6.80100 4.05800 24.17800
C  9.45100 0.28200 25.55900
N  7.50100 3.30000 29.30100
C  8.19400 2.73900 30.31200
C  7.87200 3.51100 31.63600
C  6.72800 4.47300 31.21100
C  6.73700 4.26600 29.73500
C  5.32000 4.15300 31.87700
C  9.03400 4.26900 32.36500
C  8.69700 5.09500 33.56800
H  9.28100 4.57300 34.91500
N  6.48600 4.37200 26.64700
C  5.87400 5.19700 27.53400
C  5.19000 6.17500 26.76800
C  5.36600 5.88000 25.37700
C  6.25900 4.67700 25.34500
C  4.35800 7.31200 27.38700
C  4.88300 6.70400 24.08700
O  5.39400 6.48900 22.97200
C  3.98100 7.87000 24.17200
N  8.07100 2.11700 25.10300
C  7.57400 2.79100 24.08100
C  7.68800 1.93100 22.78200
C  8.64400 0.81400 23.21900
C  8.62800 1.03500 24.71700
C  6.28200 1.44200 22.18700
C  10.04100 0.87900 22.58000
C  11.01900 1.78600 23.38200
N  9.19100 1.44700 27.64800
C  9.80900 0.44500 26.92600
C  10.62100 -0.41900 27.75400
C  10.41000 0.08500 29.01100
C  9.50600 1.20700 28.95200
C  11.43900 -1.58300 27.33100
C  10.81400 -0.11700 30.37900
O  11.63700 -0.93200 30.80400
C  10.14500 1.04900 31.19100
C  9.51000 0.48100 32.41500
O  8.54100 -0.27700 32.47600
O  10.21200 1.00000 33.47800
C  9.55500 0.58900 34.72000
H  5.55900 5.96500 29.47700
H  6.54900 4.36500 23.16000
H  9.94700 -0.53100 25.02400
H  7.51500 2.78900 32.37000
H  7.07700 5.49800 31.33600
H  4.53600 3.99900 31.13600
H  5.17500 5.07000 32.44700
H  5.36900 3.36100 32.62500
H  9.54000 4.86500 31.60500
H  9.72600 3.54100 32.78900
H  7.62700 5.26000 33.69200
H  9.15800 6.07700 33.45800
H  4.39500 7.48000 28.46400
H  3.31000 7.28300 27.08800
H  4.68400 8.22400 26.88800
H  3.54600 8.16100 23.21500
H  4.60200 8.72200 24.45000
H  3.17900 7.73300 24.89700
H  8.21600 2.51800 22.03000
H  8.19700 -0.12500 22.89200
H  6.15100 1.82100 21.17400
H  5.48900 1.71900 22.88300
H  6.12000 0.36700 22.11700
H  10.04000 1.17800 21.53200
H  10.51500 -0.10200 22.56600
H  11.72200 1.12700 23.89200
H  10.54800 2.51100 24.04500
H  11.58500 2.43900 22.71700
H  12.51200 -1.39500 27.37100
H  11.34500 -1.79400 26.26500
H  11.13600 -2.44300 27.92800
H  10.84600 1.85200 31.41500
H  8.50400 0.88000 34.71400
H  10.17700 0.96500 35.53200
H  9.49800 -0.49700 34.78400
Mg 17.17000 52.19000 25.97500
C  18.96800 50.51300 28.58700
C  14.68500 52.80600 28.28600
C  15.15900 53.54600 23.48100
C  19.42200 51.10200 23.85600
N  16.90100 51.62600 28.09900
C  17.82300 51.11600 28.99600
C  17.41300 51.31700 30.44600
C  15.88400 51.59800 30.22400
C  15.76400 52.00400 28.74000
C  15.05400 50.29400 30.49800
C  18.22300 52.55400 31.08400
C  18.34200 52.51900 32.57700
H  17.28300 51.72500 33.31900
N  15.20400 53.06700 25.85000
C  14.42400 53.24600 26.98700
C  13.23200 54.01300 26.60500
C  13.32500 54.20900 25.21700
C  14.61600 53.64900 24.76000
C  12.14400 54.48400 27.62600
C  12.34400 54.87900 24.28800
O  12.53600 55.06200 23.08800
C  11.03000 55.37900 24.88300
N  17.18500 52.29000 23.89300
C  16.38800 52.95800 23.03300
C  16.94400 52.89800 21.56000
C  18.38500 52.26000 21.81600
C  18.33400 51.84500 23.30700
C  16.02400 52.08100 20.62700
C  19.65700 53.02900 21.39700
C  20.32800 54.05500 22.28800
N  18.86700 51.06100 26.11700
C  19.73700 50.66200 25.16300
C  20.98200 50.05800 25.71900
C  20.60200 49.93500 27.06400
C  19.33600 50.50600 27.24300
C  22.19700 49.70100 24.97500
C  21.12400 49.43900 28.32800
O  22.13700 48.84800 28.57900
C  20.11300 49.95800 29.43900
C  19.70500 48.81800 30.35000
O  18.98200 47.86400 30.08300
O  20.17800 49.04900 31.64300
C  19.68700 48.03600 32.65100
H  13.93100 52.98600 29.05600
H  14.74900 53.90400 22.53400
H  20.09600 50.62800 23.13900
H  17.54100 50.36900 30.96800
H  15.52900 52.35100 30.92800
H  14.95500 49.79100 29.53600
H  14.02100 50.51000 30.77200
H  15.30900 49.60000 31.29800
H  17.80300 53.46400 30.65400
H  19.25100 52.47400 30.73100
H  18.28500 53.55600 32.90700
H  19.25200 51.96300 32.80200
H  11.18300 54.02000 27.40200
H  12.06900 55.56600 27.51700
H  12.42000 54.29900 28.66400
H  10.57100 55.96700 24.08800
H  11.19200 56.05600 25.72100
H  10.35400 54.55100 25.09800
H  17.01200 53.91500 21.17100
H  18.44800 51.29600 21.31000
H  16.58700 51.43900 19.94900
H  15.39800 52.78200 20.07600
H  15.31200 51.42500 21.12800
H  19.52500 53.57400 20.46200
H  20.36200 52.23900 21.13800
H  21.40200 53.95100 22.44100
H  19.70500 54.09600 23.18100
H  20.21000 55.05500 21.87200
H  22.54500 50.51400 24.33900
H  22.07000 48.75700 24.44500
H  22.89400 49.70600 25.81300
H  20.59600 50.72100 30.04900
H  19.74600 47.00300 32.31100
H  18.70700 48.40300 32.95700
H  20.42000 47.93500 33.45000

