158

Mg 29.45400 58.00500 39.41400
C  26.93600 55.77200 38.23500
C  31.72500 55.43500 38.34500
C  31.87400 60.15000 40.01900
C  27.10800 60.42800 39.67600
N  29.29300 55.88000 38.34200
C  28.17500 55.20300 38.05500
C  28.44900 53.69600 37.65200
C  29.96900 53.62600 37.82200
C  30.37100 55.13500 38.13100
C  30.65400 52.65800 38.90000
C  28.04900 53.31500 36.22600
C  28.42800 54.36000 35.02200
H  27.32100 54.80800 34.02800
N  31.49500 57.89500 39.24300
C  32.25300 56.66800 38.86200
C  33.67200 57.02600 38.97400
C  33.75200 58.33800 39.56200
C  32.33700 58.87000 39.60800
C  34.70100 56.12200 38.45100
C  35.07200 59.01100 39.91600
O  36.12500 58.50900 39.77700
C  35.06800 60.34300 40.42900
N  29.54700 60.19800 39.41900
C  30.59500 60.80700 40.01100
C  30.24400 62.25000 40.42900
C  28.73900 62.06600 40.61600
C  28.39200 60.82900 39.83500
C  31.01300 62.91400 41.63900
C  28.01800 63.28500 40.01900
C  27.00700 64.02100 40.99800
N  27.35400 58.08400 39.11600
C  26.58500 59.14800 39.29200
C  25.20400 58.83000 39.07900
C  25.29600 57.46700 38.65900
C  26.63600 57.05500 38.66800
C  24.00400 59.78700 39.15000
C  24.44800 56.36200 38.28900
O  23.21400 56.27400 38.19100
C  25.50000 55.16100 38.09500
C  25.17000 54.06300 39.10000
O  25.73700 53.82600 40.13000
O  23.95900 53.42100 38.75300
C  23.44500 52.34100 39.57800
H  32.45900 54.62800 38.39300
H  32.66600 60.84000 40.31600
H  26.33800 61.16300 39.92000
H  27.96300 53.03300 38.36700
H  30.49000 53.45700 36.88000
H  29.98300 51.80200 38.97500
H  30.81700 53.11400 39.87600
H  31.61400 52.25600 38.57700
H  27.00500 53.01000 36.30500
H  28.71000 52.49100 35.95800
H  29.26600 53.89400 34.50300
H  28.81500 55.30500 35.40400
H  35.42700 55.93800 39.24200
H  35.14800 56.57300 37.56500
H  34.33700 55.11400 38.25300
H  36.05700 60.77100 40.59100
H  34.68300 60.19500 41.43800
H  34.62600 61.08700 39.76600
H  30.63700 62.87100 39.62400
H  28.55800 61.86100 41.67200
H  30.29200 63.32100 42.34800
H  31.79800 63.57300 41.26900
H  31.54400 62.15400 42.21100
H  27.42100 63.03800 39.14100
H  28.71200 64.08400 39.75600
H  26.98300 65.05200 40.64700
H  27.21800 64.02200 42.06700
H  26.01300 63.64900 40.74800
H  24.30200 60.80100 38.88400
H  23.56200 59.67000 40.14000
H  23.31300 59.44500 38.37900
H  25.41100 54.95500 37.02800
H  24.08600 51.46000 39.61100
H  22.46500 51.99400 39.24900
H  23.25600 52.50600 40.63800
Mg 16.69700 52.21900 25.83300
C  18.38500 51.00600 28.59500
C  13.98600 52.85000 27.95300
C  14.88100 53.35300 23.15800
C  19.06000 51.01800 23.73700
N  16.28500 52.06800 28.00400
C  17.16000 51.69500 28.93700
C  16.65200 51.88800 30.36700
C  15.15600 52.13100 30.13100
C  15.11300 52.44700 28.65800
C  14.31800 50.89600 30.60100
C  17.42300 53.02100 31.12400
C  17.29800 52.95600 32.60400
H  16.18400 52.13000 33.31000
N  14.77100 53.06500 25.57300
C  13.75800 53.19100 26.58700
C  12.49800 53.62300 25.96700
C  12.85300 53.93300 24.61300
C  14.21900 53.42100 24.36300
C  11.23900 53.83100 26.79100
C  11.91700 54.49500 23.49900
O  12.38700 54.80600 22.43800
C  10.51800 54.83600 23.83800
N  16.77600 51.93600 23.66500
C  16.05100 52.64800 22.75700
C  16.65000 52.62600 21.37000
C  18.00300 52.05400 21.64000
C  17.99000 51.65900 23.08700
C  15.77900 51.81500 20.36700
C  19.22200 52.95600 21.38400
C  20.29100 52.21300 20.67600
N  18.38300 51.24600 26.10400
C  19.30200 50.82300 25.07900
C  20.35200 50.03500 25.70400
C  20.09800 50.13900 27.10300
C  18.82700 50.83500 27.25100
C  21.40700 49.28600 24.98300
C  20.56800 49.82400 28.42400
O  21.57800 49.17900 28.71600
C  19.49500 50.31200 29.38800
C  18.85200 49.17500 30.10900
O  18.00300 48.40000 29.63300
O  19.16700 49.21100 31.48100
C  18.37700 48.41000 32.50400
H  13.12200 53.09500 28.57400
H  14.51100 53.97500 22.34000
H  19.88200 50.65300 23.11900
H  16.92100 51.00000 30.94000
H  14.76200 53.01400 30.63500
H  14.80600 49.95700 30.86300
H  13.67400 50.57700 29.78100
H  13.66400 51.22100 31.41000
H  17.03000 53.96700 30.75300
H  18.46900 52.96400 30.82400
H  17.08000 53.94800 32.99900
H  18.26300 52.70200 33.04200
H  10.35000 53.30200 26.44600
H  11.21200 54.92000 26.83500
H  11.43900 53.63000 27.84300
H  10.02800 53.92700 24.18500
H  10.07200 55.14200 22.89100
H  10.50900 55.54800 24.66300
H  16.71600 53.67300 21.07100
H  18.04700 51.13500 21.05600
H  15.30200 51.01900 20.93900
H  16.33800 51.37700 19.53900
H  14.97500 52.37300 19.88600
H  19.77900 53.14800 22.30100
H  19.06300 53.89600 20.85500
H  20.60300 52.76800 19.79100
H  20.03800 51.20400 20.35000
H  21.14100 52.22300 21.35900
H  21.11000 48.91100 24.00400
H  21.65600 48.37800 25.53200
H  22.27100 49.94200 24.87500
H  19.98200 51.03100 30.04600
H  18.53300 47.34700 32.32000
H  17.34200 48.61700 32.23200
H  18.78200 48.67500 33.48000

