158

Mg 29.93000 59.65100 39.43800
C  27.42100 57.26500 38.43800
C  32.31300 57.29300 38.51800
C  32.20400 62.10300 39.76600
C  27.28300 62.08000 39.48900
N  29.87300 57.47600 38.61800
C  28.74800 56.70200 38.32100
C  29.12100 55.35000 37.71700
C  30.61300 55.28000 38.26900
C  30.98200 56.79200 38.41600
C  30.82300 54.38700 39.51800
C  28.94100 55.27700 36.12000
C  27.78000 54.41300 35.49500
H  26.90100 55.07800 34.46000
N  31.94500 59.71100 39.16700
C  32.78300 58.64100 38.72000
C  34.21700 59.13400 38.64100
C  34.19900 60.49900 39.21200
C  32.76300 60.86400 39.39000
C  35.30400 58.24200 38.25000
C  35.47600 61.30400 39.48700
O  36.61800 60.86700 39.24100
C  35.42900 62.68200 40.11200
N  29.72700 61.69800 39.72200
C  30.83700 62.48400 39.87200
C  30.41400 63.96700 40.08800
C  28.86400 63.90600 39.96200
C  28.60200 62.41800 39.80100
C  31.07200 64.79700 41.32400
C  28.29000 64.80500 38.83200
C  27.20300 65.80000 39.19300
N  27.74000 59.71100 39.22100
C  26.89600 60.77800 39.30500
C  25.56900 60.23900 39.06800
C  25.70300 58.92300 38.76800
C  27.04000 58.60500 38.79300
C  24.30300 61.02900 39.06300
C  24.98300 57.66600 38.42800
O  23.83200 57.38400 38.25800
C  26.04900 56.59600 38.11500
C  25.84300 55.38700 38.94700
O  25.92200 55.34600 40.18000
O  25.30000 54.33900 38.18100
C  24.84800 53.23100 38.94500
H  33.00400 56.49800 38.22800
H  32.82700 62.98600 39.92000
H  26.53500 62.87300 39.42500
H  28.47500 54.69900 38.30700
H  31.39900 54.94000 37.59500
H  30.54000 53.34800 39.35200
H  30.14500 54.66200 40.32600
H  31.83800 54.46000 39.91000
H  29.91200 54.86300 35.84800
H  28.87400 56.31000 35.77900
H  27.15900 54.02100 36.30000
H  28.17100 53.51800 35.01300
H  35.63300 58.46000 37.23400
H  34.93900 57.21900 38.34600
H  36.12400 58.13400 38.96100
H  34.71500 62.59300 40.93200
H  35.14100 63.46600 39.41200
H  36.41000 62.90600 40.53200
H  30.82500 64.45500 39.20400
H  28.41300 64.13800 40.92600
H  31.37600 64.03900 42.04600
H  30.23900 65.36800 41.73400
H  31.99500 65.30900 41.05100
H  27.90700 64.09500 38.09900
H  29.08400 65.29100 38.26500
H  27.57900 66.80600 39.00900
H  27.04700 65.83700 40.27200
H  26.26000 65.61800 38.67700
H  24.34200 61.71700 38.21800
H  24.11200 61.54600 40.00400
H  23.37100 60.48900 38.90000
H  26.08800 56.23500 37.08700
H  24.82000 52.32600 38.33700
H  23.85900 53.44400 39.35000
H  25.40800 52.87100 39.80800
Mg -0.96600 34.29900 27.92900
C  -2.44200 31.99000 30.12500
C  0.34300 35.85000 30.56700
C  -0.03200 36.50900 25.78200
C  -2.64600 32.49000 25.23900
N  -1.19500 34.07200 30.10100
C  -1.73500 33.01300 30.82000
C  -1.78100 33.35900 32.33300
C  -0.95300 34.71900 32.40000
C  -0.59000 34.88000 30.90300
C  -1.77200 35.95000 33.01800
C  -1.12900 32.20800 33.21600
C  -1.95300 31.77700 34.43500
H  -1.32300 31.72100 35.83100
N  0.10200 35.89000 28.18200
C  0.65900 36.33700 29.29100
C  1.46600 37.47400 29.00200
C  1.42700 37.59700 27.56200
C  0.53500 36.57600 27.08500
C  2.15100 38.21800 30.04400
C  2.20700 38.53800 26.71600
O  2.08300 38.55500 25.53800
C  3.09400 39.52600 27.31600
N  -1.68500 34.68400 25.87300
C  -1.00800 35.63600 25.28500
C  -1.20700 35.53600 23.72900
C  -1.77900 34.15300 23.51800
C  -2.06500 33.73100 24.97700
C  -2.10600 36.67600 23.25800
C  -0.91200 33.22000 22.62600
C  0.16800 32.30000 23.40800
N  -2.28200 32.52600 27.69800
C  -2.81600 31.94900 26.54500
C  -3.64600 30.81300 26.94500
C  -3.61500 30.80500 28.35600
C  -2.80100 31.89200 28.73700
C  -4.42500 29.84100 26.14600
C  -3.95300 30.09200 29.52300
O  -4.65400 29.08400 29.66100
C  -3.30300 30.89900 30.75000
C  -4.45100 31.41400 31.60800
O  -5.24900 32.19800 31.19800
O  -4.54300 30.69600 32.74800
C  -5.52100 31.10000 33.77000
H  0.94000 36.17800 31.42100
H  0.34900 37.25600 25.08300
H  -2.87100 31.85400 24.38000
H  -2.78200 33.58400 32.70300
H  -0.10900 34.70800 33.09000
H  -1.14100 36.51800 33.70200
H  -2.67000 35.60600 33.53300
H  -2.16200 36.72200 32.35400
H  -0.15400 32.50300 33.60600
H  -0.98200 31.26700 32.68600
H  -2.36500 30.77800 34.29600
H  -2.78600 32.47300 34.52600
H  3.21100 38.11000 29.81600
H  1.98000 37.81000 31.04000
H  2.00100 39.29700 29.98700
H  2.70100 40.19100 28.08500
H  3.41000 40.10000 26.44500
H  3.97300 39.04400 27.74300
H  -0.23100 35.64200 23.25600
H  -2.76700 34.20900 23.06100
H  -3.14100 36.37600 23.42600
H  -1.88900 36.94900 22.22500
H  -1.96400 37.44800 24.01400
H  -0.39800 33.70500 21.79600
H  -1.61300 32.61400 22.05000
H  0.19100 32.59300 24.45800
H  1.16100 32.60300 23.07800
H  -0.14900 31.25900 23.34800
H  -3.94100 29.87200 25.17100
H  -5.42200 30.27000 26.04300
H  -4.44900 28.90900 26.71100
H  -2.62600 30.23900 31.29300
H  -5.96000 30.16400 34.11500
H  -6.37100 31.68200 33.41300
H  -4.97900 31.43400 34.65500

