158

Mg 1.44100 8.17500 26.71200
C  1.88800 9.62800 29.83500
C  1.60100 5.15800 28.23800
C  1.23100 6.93700 23.61400
C  1.74500 11.36300 25.31800
N  1.81500 7.55300 28.80200
C  1.68900 8.26400 29.90500
C  1.61400 7.40600 31.17900
C  1.91000 6.00400 30.66000
C  1.75800 6.23700 29.10400
C  3.25200 5.30400 30.94500
C  0.26400 7.61100 31.91500
C  0.45400 8.08400 33.38600
H  1.59700 7.48800 34.22500
N  1.43700 6.31600 26.01900
C  1.41800 5.14400 26.80300
C  1.28500 4.02800 25.88700
C  1.21600 4.54400 24.56800
C  1.25600 5.97900 24.66100
C  1.22200 2.58700 26.46900
C  1.09600 3.75300 23.33000
O  0.87500 4.28700 22.21100
C  1.13300 2.28100 23.40600
N  1.35500 9.04800 24.73200
C  1.31500 8.30100 23.61800
C  1.53500 9.07600 22.36500
C  1.23900 10.47400 22.84100
C  1.48100 10.30300 24.38900
C  2.85500 8.96600 21.56400
C  -0.11600 11.03700 22.45000
C  -1.43500 10.57500 23.12200
N  1.79800 10.15000 27.34900
C  1.92000 11.33800 26.67700
C  2.08300 12.41700 27.59500
C  2.06400 11.77200 28.88700
C  1.94800 10.40300 28.67400
C  2.07700 13.90200 27.28500
C  2.23600 12.03900 30.29700
O  2.47800 13.04800 30.89600
C  2.01900 10.64300 31.01500
C  3.08600 10.41400 32.05600
O  4.17400 9.85100 31.88000
O  2.79300 11.22400 33.15500
C  3.81000 11.53300 34.19100
H  1.64500 4.15600 28.66900
H  1.43200 6.52900 22.62100
H  1.75100 12.35200 24.85500
H  2.48000 7.76100 31.73800
H  1.13400 5.29000 30.93700
H  4.15300 5.88600 31.13700
H  3.58300 4.77900 30.04900
H  3.12800 4.49000 31.65900
H  -0.31100 6.68800 31.84000
H  -0.24700 8.41000 31.37700
H  -0.50300 7.93500 33.88700
H  0.53900 9.17000 33.40800
H  0.42900 2.09500 25.90600
H  0.85500 2.56500 27.49500
H  2.14700 2.01500 26.38900
H  0.11800 1.89000 23.48200
H  1.76900 1.78800 24.14200
H  1.57600 2.10600 22.42600
H  0.61800 8.73400 21.88500
H  1.93500 11.23400 22.48600
H  3.37500 8.02700 21.75500
H  3.60200 9.73500 21.75900
H  2.55200 9.09600 20.52500
H  -0.26000 11.20600 21.38300
H  -0.02000 12.02200 22.90700
H  -1.88400 11.28300 23.81900
H  -1.19400 9.69600 23.72000
H  -2.17500 10.29400 22.37300
H  2.37400 14.05100 26.24700
H  2.87700 14.34300 27.88000
H  1.09400 14.20000 27.65000
H  1.07700 10.62500 31.56300
H  4.77000 11.07100 33.96100
H  3.47100 11.01200 35.08600
H  3.77600 12.62300 34.20700
Mg 40.91900 9.29100 29.73200
C  42.94800 10.75200 32.13000
C  38.85600 8.17100 32.08500
C  39.33900 7.77400 27.18700
C  43.55900 10.01200 27.18700
N  40.88700 9.57200 31.86600
C  41.73600 10.27500 32.64600
C  41.32600 10.32300 34.12900
C  40.06900 9.33900 34.15100
C  39.97000 8.98000 32.59800
C  40.27100 8.11000 34.99600
C  41.19000 11.84100 34.61300
C  40.31500 12.12200 35.90400
H  40.90200 13.00300 37.04200
N  39.29500 8.19500 29.67600
C  38.50700 7.95400 30.72300
C  37.25700 7.25700 30.22100
C  37.37600 7.14100 28.75200
C  38.75900 7.66500 28.43400
C  36.04400 6.90100 31.20000
C  36.44200 6.54900 27.73000
O  36.62600 6.58700 26.53000
C  35.14100 5.95300 28.07000
N  41.45100 9.05000 27.33100
C  40.55000 8.32700 26.65500
C  40.93700 8.40700 25.11500
C  42.32300 9.18300 25.14400
C  42.50700 9.31500 26.62400
C  41.02600 6.97100 24.46400
C  42.43000 10.51400 24.36800
C  41.71800 11.74900 24.94700
N  42.82300 10.17400 29.61900
C  43.73900 10.31800 28.54900
C  44.85800 11.04100 29.05500
C  44.57700 11.26600 30.43700
C  43.39300 10.61600 30.78500
C  46.04300 11.43800 28.17900
C  45.13400 11.83800 31.63200
O  46.19500 12.45400 31.72800
C  44.07200 11.53700 32.80200
C  44.75500 10.92200 33.96500
O  45.16700 9.76700 33.89200
O  44.66800 11.79400 34.92900
C  45.09900 11.38100 36.28900
H  38.15900 7.80700 32.84300
H  38.77600 7.10600 26.53100
H  44.36600 10.27200 26.49900
H  42.10500 9.95600 34.79800
H  39.08900 9.76900 34.36200
H  40.40700 7.20400 34.40400
H  39.31700 8.00800 35.51200
H  41.18100 8.18100 35.59200
H  40.79800 12.27100 33.69200
H  42.16600 12.28200 34.81800
H  39.96200 11.13300 36.19700
H  39.42300 12.65200 35.57100
H  36.26000 7.01700 32.26200
H  35.75500 5.88900 30.91800
H  35.24000 7.57700 30.90700
H  34.52600 6.65200 28.63800
H  35.24300 5.08900 28.72700
H  34.69600 5.63100 27.12900
H  40.26800 9.04100 24.53300
H  43.19100 8.60000 24.83900
H  40.72600 6.16400 25.13100
H  41.97000 6.67600 24.00500
H  40.26800 7.11000 23.69200
H  42.10000 10.27500 23.35800
H  43.51900 10.56500 24.36400
H  41.20000 11.64300 25.90000
H  41.02700 12.02500 24.15100
H  42.36900 12.61700 25.05700
H  46.58700 12.19600 28.74400
H  45.67800 11.96900 27.30000
H  46.70500 10.64200 27.83800
H  43.67700 12.51300 33.08500
H  45.07000 10.29200 36.32000
H  44.25600 11.83700 36.80800
H  46.09400 11.74800 36.54200

