158

Mg 45.09400 4.34100 45.85200
C  43.32300 7.30900 45.77200
C  42.05000 2.62400 45.20500
C  46.79200 1.54100 45.24400
C  48.03700 6.23300 45.67800
N  43.03900 4.89000 45.39600
C  42.56700 6.17400 45.54700
C  41.03900 6.27700 45.49000
C  40.59000 4.79000 45.34300
C  41.98000 4.01500 45.28200
C  39.63300 4.32300 46.51500
C  40.48100 7.23700 44.21500
C  41.39900 7.41300 42.94400
H  40.76000 7.21000 41.56500
N  44.51900 2.33300 45.41800
C  43.21300 1.84900 45.19100
C  43.22000 0.45400 44.96900
C  44.63300 0.05500 44.93500
C  45.38300 1.32200 45.22600
C  42.02700 -0.39900 44.69500
C  45.21900 -1.38300 44.69100
O  44.46000 -2.32300 44.50000
C  46.79100 -1.55800 44.50100
N  47.17400 3.98000 45.41600
C  47.60000 2.68500 45.45800
C  49.13300 2.63000 45.67500
C  49.51100 4.14100 45.68600
C  48.18500 4.85400 45.55100
C  49.58700 1.93600 47.02900
C  50.53900 4.58300 44.58700
C  51.70100 3.69000 44.15000
N  45.64600 6.44500 45.84400
C  46.88500 7.07600 45.79800
C  46.71200 8.50000 45.95200
C  45.30300 8.67300 46.00500
C  44.74200 7.41300 45.86800
C  47.84600 9.46900 45.90200
C  44.23600 9.59300 46.14900
O  44.24100 10.81100 46.39700
C  42.91600 8.74900 46.07600
C  42.19600 9.06100 47.29600
O  42.24900 8.43200 48.35700
O  41.42300 10.13000 47.14700
C  40.93400 10.88800 48.27900
H  41.04800 2.26900 44.95200
H  47.51000 0.72300 45.15400
H  48.98900 6.75100 45.80700
H  40.55900 6.72900 46.35800
H  40.02300 4.66900 44.42000
H  39.14600 3.42500 46.13600
H  39.03800 5.16800 46.86200
H  40.37900 4.04300 47.26000
H  40.13200 8.20200 44.58300
H  39.53300 6.76200 43.96200
H  42.20200 6.67600 42.96500
H  41.84500 8.40000 42.82400
H  42.12700 -0.70100 43.65200
H  41.00500 -0.08600 44.90900
H  42.26000 -1.32400 45.22200
H  47.07300 -2.59600 44.32400
H  47.20300 -1.34800 45.48800
H  47.09500 -0.94400 43.65300
H  49.59900 2.21000 44.78400
H  50.02100 4.50100 46.58000
H  49.94700 2.64500 47.77500
H  50.34600 1.16700 46.88600
H  48.74800 1.42700 47.50300
H  50.88700 5.59000 44.81700
H  49.94600 4.89000 43.72500
H  51.65400 3.39100 43.10300
H  51.81300 2.79900 44.76700
H  52.64100 4.22900 44.26600
H  48.35500 9.43200 46.86500
H  47.26800 10.36700 45.68300
H  48.63800 9.27100 45.17900
H  42.41600 9.14100 45.19000
H  41.79700 11.46000 48.61800
H  40.76400 10.25500 49.15000
H  40.10400 11.49500 47.91500
Mg 43.18700 42.35800 26.55500
C  42.06300 44.60800 28.89300
C  44.49500 40.46600 29.10400
C  44.29400 40.16700 24.16000
C  42.09700 44.47800 24.06200
N  43.17000 42.47300 28.74800
C  42.57000 43.41000 29.46200
C  42.51900 42.95300 30.95800
C  43.62900 41.87600 30.99700
C  43.76100 41.54300 29.52900
C  44.82500 42.22200 31.85500
C  41.09600 42.63700 31.42300
C  40.45700 43.43600 32.58200
H  39.83500 42.65200 33.70500
N  44.11400 40.50500 26.65900
C  44.64700 39.90700 27.81300
C  45.21000 38.63300 27.48400
C  45.11800 38.50400 26.03500
C  44.47300 39.78500 25.51600
C  45.71000 37.67700 28.58100
C  45.43600 37.30800 25.13900
O  45.32400 37.30900 23.88500
C  45.91400 35.97600 25.84100
N  43.39100 42.48500 24.37600
C  43.86000 41.44900 23.63400
C  43.77400 41.78600 22.14900
C  42.82900 43.00000 22.12100
C  42.77900 43.38100 23.58000
C  45.13400 42.08300 21.50300
C  41.54800 42.40000 21.61200
C  40.69300 41.57600 22.65200
N  42.45500 44.28000 26.43700
C  42.07300 44.99700 25.36500
C  41.53500 46.27000 25.83100
C  41.44700 46.09700 27.24500
C  42.07100 44.86600 27.51700
C  41.09100 47.44800 25.03800
C  40.94900 46.70600 28.45600
O  40.27400 47.76400 28.64100
C  41.20500 45.67000 29.60200
C  42.06100 46.23300 30.79600
O  43.20800 46.58500 30.74600
O  41.33200 46.17200 31.88100
C  41.94200 46.73000 33.05800
H  44.88500 39.82900 29.90100
H  44.70200 39.47000 23.42500
H  41.69200 45.14600 23.29900
H  42.79100 43.72500 31.67800
H  43.22300 40.94500 31.39400
H  44.65400 43.04800 32.54700
H  45.62300 42.69100 31.27900
H  45.08100 41.27500 32.33000
H  41.06200 41.57900 31.68200
H  40.55600 42.79700 30.49000
H  39.76600 44.18900 32.20400
H  41.27200 44.03200 32.99400
H  45.25600 36.68700 28.63100
H  45.62100 38.03100 29.60900
H  46.79700 37.73400 28.53700
H  46.55100 36.28600 26.66900
H  46.52200 35.37100 25.16900
H  45.00600 35.50300 26.21500
H  43.50400 40.85100 21.65800
H  43.18800 43.68200 21.35000
H  45.51500 43.06500 21.78500
H  45.03500 42.05400 20.41800
H  45.93000 41.36100 21.68900
H  41.52900 41.72100 20.76000
H  40.85800 43.22500 21.43400
H  40.62900 42.01200 23.64800
H  41.02000 40.53600 22.63800
H  39.65300 41.61300 22.32700
H  41.22300 48.32000 25.67900
H  40.08200 47.13900 24.76600
H  41.63400 47.56300 24.10000
H  40.26500 45.25500 29.96700
H  41.34700 46.41500 33.91600
H  41.84600 47.81500 33.02200
H  42.99800 46.52900 33.24000

