158

Mg 54.37100 24.19800 45.42200
C  52.04300 26.50100 44.56800
C  52.55700 21.77000 43.89500
C  57.10700 22.01200 45.49300
C  56.47100 26.67100 46.69700
N  52.47800 24.18300 44.38200
C  51.65100 25.24900 44.12500
C  50.37700 24.80800 43.34200
C  50.46400 23.29200 43.55500
C  51.92900 23.00700 44.06700
C  49.35700 22.63100 44.47200
C  50.37300 25.42100 41.94300
C  50.73300 24.49700 40.80700
H  50.94300 25.01200 39.31200
N  54.74500 22.12000 45.00900
C  53.85400 21.33700 44.33400
C  54.37900 19.96300 44.30800
C  55.70500 20.03400 44.64700
C  55.91500 21.41400 45.11600
C  53.52900 18.79300 43.84200
C  56.67400 18.86100 44.65500
O  56.31100 17.76400 44.24900
C  57.98400 18.95700 45.24000
N  56.44300 24.34800 46.12400
C  57.38200 23.31000 45.92700
C  58.78500 23.67300 46.53900
C  58.57000 25.20500 46.92300
C  57.07800 25.41200 46.61500
C  59.27100 22.75900 47.63300
C  59.48100 26.27000 46.32000
C  60.12200 27.21800 47.40600
N  54.33600 26.21100 45.48700
C  55.24600 27.08000 46.17700
C  54.54700 28.37500 46.23200
C  53.32400 28.20600 45.58200
C  53.27100 26.89200 45.10500
C  55.06900 29.65200 46.90700
C  52.13100 28.88100 45.22300
O  51.78500 30.04000 45.31300
C  51.21900 27.78700 44.61800
C  50.67000 28.23400 43.26800
O  51.34900 28.65900 42.37200
O  49.31300 28.09900 43.23300
C  48.57100 28.68200 42.03200
H  51.80600 21.01600 43.65200
H  58.00400 21.39200 45.55800
H  57.05000 27.55400 46.97600
H  49.47800 25.15300 43.85100
H  50.47900 22.68600 42.64900
H  48.61900 23.32400 44.87600
H  49.78900 21.90100 45.15600
H  48.81400 21.96500 43.80100
H  51.16700 26.15200 41.79200
H  49.40900 25.86400 41.69200
H  49.94100 23.75300 40.72000
H  51.56300 23.86700 41.12500
H  53.55100 18.72900 42.75400
H  52.47800 18.93500 44.09500
H  53.80800 17.83400 44.27700
H  58.51700 18.00700 45.19800
H  57.94800 19.19100 46.30500
H  58.58800 19.66300 44.67100
H  59.43300 23.51400 45.67700
H  58.64500 25.36300 47.99900
H  59.81800 21.93200 47.17900
H  58.51400 22.36000 48.30900
H  59.99600 23.20800 48.31100
H  58.76700 26.83200 45.71900
H  60.19700 25.65500 45.77400
H  60.77700 26.58500 48.00400
H  59.33500 27.52000 48.09700
H  60.41000 28.12300 46.87100
H  55.26200 30.38200 46.12100
H  55.97200 29.42300 47.47300
H  54.36400 30.06300 47.63000
H  50.34400 27.67800 45.25800
H  48.31000 27.98900 41.23200
H  49.01800 29.56100 41.56700
H  47.67000 29.14500 42.43200
Mg 50.15800 46.45200 41.35100
C  47.33500 47.65000 40.01500
C  49.47700 43.27400 39.89100
C  53.41600 45.22800 42.04800
C  51.25200 49.66900 42.09100
N  48.70600 45.65400 40.17200
C  47.50700 46.24500 39.80400
C  46.50400 45.40500 39.11800
C  47.11200 43.98500 39.34600
C  48.51500 44.33300 39.81300
C  46.36200 42.96400 40.31600
C  46.17300 45.79400 37.66400
C  44.81700 45.20800 37.10300
H  44.90800 44.23700 35.92500
N  51.24500 44.55300 41.09100
C  50.81200 43.40400 40.41400
C  51.82300 42.36200 40.52900
C  52.93500 42.91800 41.25700
C  52.54800 44.30000 41.55400
C  51.62400 40.90700 40.10800
C  54.15500 42.16600 41.69900
O  54.31800 41.02900 41.29800
C  55.18000 42.67700 42.66100
N  52.19000 47.34700 41.82600
C  53.22700 46.65100 42.22400
C  54.25800 47.59900 42.73900
C  53.62600 48.98600 42.96100
C  52.26700 48.71200 42.16500
C  55.18400 47.13800 43.93000
C  54.39900 50.28200 42.56600
C  54.48900 51.39500 43.59300
N  49.41100 48.24400 41.24900
C  49.96300 49.51400 41.56000
C  48.98200 50.57200 41.33500
C  47.91400 49.81200 40.74800
C  48.27400 48.42600 40.62900
C  48.95500 52.05200 41.44600
C  46.53500 49.94200 40.40500
O  45.79200 50.91500 40.63100
C  46.19000 48.59300 39.76500
C  44.86700 48.14700 40.26300
O  44.64700 47.57100 41.31600
O  43.83400 48.36900 39.33100
C  42.55600 47.76600 39.64600
H  49.25300 42.26300 39.54400
H  54.44800 44.92800 42.24200
H  51.42600 50.71100 42.36700
H  45.59800 45.31400 39.71700
H  47.30000 43.53200 38.37300
H  46.93400 42.51900 41.13000
H  46.03900 42.13400 39.68700
H  45.46400 43.45200 40.69200
H  46.92000 45.36100 36.99900
H  46.24100 46.85500 37.42500
H  44.18100 46.02400 36.75900
H  44.40200 44.71500 37.98200
H  51.54300 40.31800 41.02200
H  52.46200 40.57400 39.49600
H  50.65700 40.64200 39.67900
H  54.73200 43.05200 43.58100
H  55.82500 43.41000 42.17600
H  55.82600 41.83800 42.91800
H  55.03400 47.83700 42.01200
H  53.38000 49.07400 44.01900
H  56.26600 47.21100 43.81800
H  54.99000 46.08400 44.12600
H  55.01400 47.62800 44.88900
H  53.87500 50.60000 41.66500
H  55.38500 49.95900 42.23200
H  54.09000 52.30700 43.14900
H  55.55400 51.41200 43.82400
H  53.80700 51.23000 44.42700
H  48.64300 52.56600 40.53700
H  50.01200 52.23700 41.64100
H  48.33500 52.41000 42.26800
H  46.09900 48.84300 38.70800
H  42.60300 46.73300 39.99100
H  41.88200 47.74000 38.79000
H  41.99500 48.35400 40.37300

