158

Mg 42.11700 40.50400 27.08200
C  41.21100 42.73000 29.52200
C  42.99600 38.35900 29.44700
C  42.90900 38.34000 24.71000
C  41.19600 42.83300 24.52600
N  41.98100 40.51300 29.21600
C  41.50400 41.49200 29.99800
C  41.55500 41.12400 31.48800
C  42.16400 39.72200 31.37600
C  42.38300 39.53300 29.95800
C  43.48300 39.49900 32.27800
C  40.17700 41.25700 32.23000
C  40.14700 42.10500 33.62000
H  39.54200 41.34400 34.84200
N  42.93700 38.62800 27.09000
C  43.25800 37.94400 28.18300
C  43.81400 36.61800 27.85300
C  43.65200 36.53300 26.42000
C  43.06800 37.79900 26.02500
C  44.26900 35.57500 28.79100
C  44.00000 35.43100 25.47500
O  43.76300 35.43900 24.26100
C  44.66300 34.16900 25.99400
N  42.03800 40.59500 24.93800
C  42.37000 39.51000 24.19600
C  42.18100 39.72900 22.67300
C  41.46700 41.16600 22.63800
C  41.57900 41.57600 24.10400
C  43.44200 39.58500 21.78700
C  40.00900 41.30800 22.06800
C  39.50000 42.72400 21.63500
N  41.35000 42.42100 26.94900
C  41.08800 43.26100 25.88100
C  40.61600 44.49500 26.42600
C  40.65900 44.34600 27.86600
C  41.14800 43.06000 28.08100
C  40.34000 45.66500 25.69500
C  40.50800 45.10400 29.12900
O  40.09600 46.21500 29.36400
C  40.74600 44.03900 30.27400
C  41.66900 44.60900 31.30800
O  42.82200 44.81100 31.07100
O  41.02400 44.97000 32.45700
C  41.74800 45.48700 33.61200
H  43.22800 37.69100 30.27900
H  43.11900 37.65100 23.88900
H  41.09800 43.55900 23.71600
H  42.25400 41.68200 32.11200
H  41.35600 39.11300 31.78200
H  43.62100 38.44500 32.52100
H  43.31100 39.91200 33.27200
H  44.32200 39.92600 31.72800
H  39.82400 40.28300 32.56900
H  39.51200 41.71400 31.49700
H  39.55500 42.98000 33.35000
H  41.14800 42.43400 33.90200
H  43.71900 34.64600 28.64000
H  44.19100 35.91700 29.82300
H  45.28800 35.31700 28.50100
H  43.81500 33.77300 26.55300
H  45.54000 34.51200 26.54300
H  44.92500 33.40000 25.26800
H  41.40600 39.07700 22.27200
H  42.04300 41.92700 22.10900
H  43.46500 40.23200 20.91100
H  43.56100 38.58600 21.36700
H  44.37700 39.86700 22.27000
H  39.27200 40.78300 22.67700
H  40.00600 40.83900 21.08400
H  39.13900 42.65800 20.60800
H  40.36300 43.38700 21.57300
H  38.83900 43.22600 22.34200
H  40.54500 45.57000 24.62900
H  41.05200 46.41900 26.03000
H  39.33000 46.03900 25.86100
H  39.77200 43.91200 30.74700
H  42.75200 45.85200 33.39400
H  41.79500 44.60400 34.24900
H  41.20500 46.30400 34.08700
Mg -10.52500 17.45900 40.99800
C  -6.93500 16.81700 41.05000
C  -10.00500 20.58700 40.14900
C  -13.74700 17.51500 40.14300
C  -10.82400 13.91400 41.54300
N  -8.66600 18.53900 40.55800
C  -7.34900 18.20300 40.75800
C  -6.40700 19.41800 40.42400
C  -7.43900 20.57300 40.58400
C  -8.77500 19.87900 40.39800
C  -7.22600 21.36600 41.95700
C  -5.76800 19.32400 39.02000
C  -4.17900 19.06600 38.99800
H  -3.71300 18.08400 37.90200
N  -11.79900 18.94000 40.49800
C  -11.42100 20.24100 40.25100
C  -12.55900 21.01100 40.00500
C  -13.67300 20.09600 39.91100
C  -13.09600 18.77700 40.10200
C  -12.48000 22.48300 39.82500
C  -15.08900 20.49200 39.79300
O  -15.38200 21.64000 39.68900
C  -16.23800 19.50100 39.85800
N  -12.10700 15.83700 40.56400
C  -13.37200 16.20200 40.48100
C  -14.27900 15.01800 40.61900
C  -13.36700 13.91600 41.28800
C  -11.99600 14.53000 41.10900
C  -15.60100 15.38000 41.35900
C  -13.55400 12.47500 40.73700
C  -12.56400 11.91300 39.67800
N  -9.24500 15.75200 41.28100
C  -9.55600 14.38700 41.57400
C  -8.36400 13.66700 41.73300
C  -7.31700 14.60900 41.70500
C  -7.85800 15.81900 41.25000
C  -8.24000 12.13200 41.92500
C  -5.87700 14.67800 41.84200
O  -5.08400 13.80300 42.19500
C  -5.56900 16.14200 41.32000
C  -4.66200 16.97900 42.26000
O  -3.43500 17.09500 42.20000
O  -5.42600 17.56200 43.11900
C  -4.70200 18.33600 44.14300
H  -9.94100 21.67000 40.02600
H  -14.82500 17.48600 39.97300
H  -10.92500 12.93400 42.01500
H  -5.70500 19.40000 41.25700
H  -7.25000 21.25100 39.75200
H  -6.66300 22.28900 41.81800
H  -6.67800 20.66900 42.59000
H  -8.12900 21.65500 42.49500
H  -5.94500 20.13800 38.31700
H  -6.29500 18.49000 38.55600
H  -3.79600 18.68400 39.94400
H  -3.62900 20.00300 38.92300
H  -12.51400 22.66600 38.75200
H  -11.64600 23.01900 40.27700
H  -13.31900 22.98100 40.31100
H  -16.03300 19.04600 38.88900
H  -17.25000 19.89600 39.95200
H  -16.19400 18.72900 40.62700
H  -14.54800 14.64500 39.63100
H  -13.50000 14.05100 42.36200
H  -15.34900 16.20300 42.02700
H  -16.04800 14.59300 41.96700
H  -16.34300 15.61400 40.59500
H  -14.55700 12.37500 40.32100
H  -13.54600 11.83900 41.62200
H  -12.04000 12.67600 39.10100
H  -13.06600 11.32400 38.91100
H  -11.87500 11.27900 40.23500
H  -8.95400 11.82200 42.68700
H  -7.24500 11.86600 42.28200
H  -8.43000 11.54700 41.02400
H  -4.96800 15.92100 40.43800
H  -5.52000 18.85300 44.64300
H  -4.05400 19.02200 43.59700
H  -4.14300 17.65400 44.78400

