158

Mg 1.23300 -2.70500 44.18200
C  4.53800 -2.07300 43.54800
C  0.43200 -0.13500 41.97100
C  -1.89800 -3.34200 44.84100
C  2.18400 -5.69900 45.84200
N  2.35700 -1.37300 42.73200
C  3.74000 -1.22100 42.80600
C  4.25000 -0.04700 41.87500
C  2.88700 0.69700 41.62500
C  1.80300 -0.33300 42.11200
C  2.80500 2.02600 42.35500
C  4.96200 -0.59400 40.64400
C  6.09400 0.35500 40.15500
H  6.66800 0.00700 38.73500
N  -0.47600 -1.82100 43.50000
C  -0.60200 -0.83100 42.59800
C  -2.03900 -0.52800 42.46800
C  -2.79000 -1.45200 43.28000
C  -1.72500 -2.24000 43.93800
C  -2.56200 0.49200 41.56400
C  -4.30500 -1.60200 43.41900
O  -4.99100 -0.93000 42.73600
C  -4.96100 -2.40200 44.50200
N  0.29400 -4.43400 45.10900
C  -1.01300 -4.26800 45.41000
C  -1.51000 -5.52800 46.17600
C  -0.23100 -6.49700 46.28600
C  0.81700 -5.50200 45.73800
C  -2.13400 -5.37600 47.53800
C  -0.26900 -7.79000 45.40300
C  -0.37500 -9.05900 46.34500
N  3.06700 -3.69000 44.67500
C  3.30700 -4.79200 45.44400
C  4.67300 -4.88800 45.69900
C  5.26800 -3.74200 45.07700
C  4.18800 -3.08900 44.40200
C  5.47000 -5.94900 46.48100
C  6.45500 -2.96700 44.78200
O  7.56900 -3.14200 45.16500
C  5.99000 -1.91300 43.75800
C  6.41900 -0.61600 44.23300
O  7.44100 -0.06000 43.98800
O  5.57700 -0.07800 45.12700
C  5.82000 1.29300 45.60300
H  0.25300 0.74100 41.34500
H  -2.92300 -3.60200 45.11000
H  2.53000 -6.53200 46.45900
H  4.96100 0.43000 42.54900
H  2.63400 0.93900 40.59300
H  1.88600 2.24700 42.89600
H  3.08200 2.83600 41.68000
H  3.48500 2.01000 43.20700
H  4.23700 -0.74500 39.84400
H  5.40600 -1.58100 40.76900
H  6.87000 0.13600 40.88800
H  5.95300 1.43500 40.18600
H  -2.56600 0.12900 40.53600
H  -1.87500 1.33100 41.67300
H  -3.50500 0.91100 41.91300
H  -4.48000 -2.32400 45.47700
H  -5.10600 -3.44100 44.20300
H  -5.96100 -1.99900 44.65900
H  -2.25000 -6.00300 45.53300
H  0.07900 -6.83200 47.27600
H  -2.23600 -6.35400 48.00800
H  -3.12400 -4.96600 47.33600
H  -1.58900 -4.67000 48.16500
H  0.55500 -7.88100 44.69600
H  -1.19200 -7.75400 44.82400
H  0.60600 -9.53400 46.34800
H  -1.15900 -9.71500 45.96700
H  -0.80400 -8.93500 47.34000
H  5.99600 -5.53000 47.33900
H  6.06200 -6.46000 45.72200
H  4.71000 -6.61600 46.89000
H  6.60800 -2.16800 42.89700
H  5.77800 1.86600 44.67700
H  6.81800 1.56300 45.94700
H  4.98400 1.52900 46.26300
Mg 48.43200 35.35700 27.54200
C  46.43000 33.60100 29.90500
C  48.36300 38.03400 29.49400
C  49.94800 37.02600 25.01900
C  47.97700 32.57400 25.42800
N  47.66300 35.65700 29.59500
C  46.93600 34.83100 30.36800
C  46.90600 35.41700 31.78100
C  47.00500 36.93400 31.49000
C  47.70800 36.89700 30.10500
C  45.67900 37.73900 31.47400
C  48.00100 34.68700 32.69800
C  49.07200 35.52500 33.30300
H  48.82000 36.18400 34.71000
N  49.05400 37.29200 27.29000
C  49.01000 38.27900 28.22300
C  49.71500 39.41400 27.78000
C  50.20800 39.12000 26.45900
C  49.65500 37.78300 26.15300
C  49.92600 40.62800 28.70200
C  51.05500 39.89700 25.52000
O  51.22000 39.59500 24.32300
C  51.57400 41.24000 25.84200
N  48.72500 34.94000 25.54800
C  49.35100 35.82300 24.68700
C  49.54800 35.27200 23.33200
C  48.92800 33.83400 23.39800
C  48.59900 33.73200 24.87600
C  48.82500 36.14300 22.26500
C  49.91800 32.61700 22.99300
C  49.41100 31.67500 21.90700
N  47.50000 33.43700 27.57600
C  47.44100 32.42000 26.66700
C  46.66700 31.28600 27.19100
C  46.14100 31.79900 28.45300
C  46.77500 33.07600 28.61200
C  46.30300 29.96700 26.51400
C  45.38400 31.42700 29.58400
O  44.73000 30.42400 29.77200
C  45.37500 32.67400 30.45800
C  45.52400 32.27500 31.86600
O  46.57400 31.81300 32.39600
O  44.47700 32.79600 32.54500
C  44.59800 32.82700 34.01700
H  48.40800 38.86800 30.19700
H  50.51700 37.48600 24.20800
H  47.86000 31.69600 24.78900
H  45.99900 35.03400 32.25000
H  47.65300 37.40900 32.22700
H  45.78100 38.36300 30.58600
H  45.61600 38.50400 32.24800
H  44.75800 37.15600 31.45400
H  48.53400 33.91100 32.14700
H  47.48200 34.27300 33.56200
H  49.42300 36.34600 32.67700
H  49.95700 34.89200 33.23800
H  49.23800 41.41300 28.39000
H  50.91200 41.03300 28.47300
H  49.90400 40.47000 29.78000
H  52.09900 41.32000 26.79400
H  50.84700 42.04300 25.72200
H  52.31300 41.54200 25.10000
H  50.61400 35.12300 23.16300
H  47.96900 33.80100 22.88200
H  48.18400 36.93700 22.64700
H  48.11000 35.60800 21.64000
H  49.64900 36.56500 21.68900
H  50.19100 32.00200 23.85100
H  50.83000 33.02500 22.55700
H  49.90000 31.85900 20.95000
H  48.33000 31.77000 21.80500
H  49.62900 30.65200 22.21600
H  46.87800 29.17500 26.99200
H  46.54300 29.94400 25.45100
H  45.25500 29.85100 26.79000
H  44.43100 33.17600 30.24700
H  43.67300 32.50800 34.49800
H  44.90900 33.81900 34.34400
H  45.28300 32.12500 34.49300

