158

Mg 42.92900 4.16000 47.64200
C  40.89700 6.98400 47.40900
C  40.07700 2.21600 47.60800
C  44.90800 1.44200 47.06800
C  45.71900 6.24500 47.33500
N  40.72300 4.55500 47.46500
C  40.11500 5.77300 47.49100
C  38.53300 5.63300 47.77900
C  38.39800 4.11500 47.85000
C  39.80500 3.58000 47.69500
C  37.77900 3.51100 49.13500
C  37.58600 6.33300 46.69900
C  38.04400 5.95500 45.26600
H  38.41400 7.03700 44.29600
N  42.52100 2.09500 47.48500
C  41.28400 1.50500 47.40400
C  41.38800 0.09100 47.11900
C  42.79600 -0.13300 46.91200
C  43.48700 1.14800 47.20500
C  40.32300 -0.93800 47.12500
C  43.37500 -1.55700 46.54700
O  42.69700 -2.51500 46.35600
C  44.91100 -1.75700 46.32200
N  45.01100 3.89300 47.19600
C  45.63600 2.63600 47.17700
C  47.16100 2.75600 47.25400
C  47.41400 4.25800 47.38900
C  45.97400 4.87400 47.38300
C  47.83400 1.87000 48.39400
C  48.47100 4.82900 46.37600
C  49.94300 4.97800 46.88000
N  43.26500 6.21600 47.31700
C  44.41000 6.86600 47.26100
C  44.14100 8.29800 47.21100
C  42.73700 8.39000 47.22500
C  42.27600 7.09000 47.31000
C  45.15600 9.41500 47.14200
C  41.60100 9.29500 47.22800
O  41.52500 10.54500 47.20900
C  40.32100 8.42000 47.31500
C  39.47400 8.99600 48.42400
O  39.45200 8.68400 49.64600
O  38.56600 9.88600 47.85600
C  37.66800 10.49300 48.76800
H  39.12200 1.68800 47.64600
H  45.60200 0.59900 47.06500
H  46.61600 6.86600 47.29300
H  38.33700 6.24600 48.65900
H  38.01600 3.68600 46.92400
H  37.40100 4.32300 49.75600
H  38.55400 3.11600 49.79200
H  36.91700 2.86700 48.96400
H  37.68800 7.41300 46.80400
H  36.56500 6.08200 46.98700
H  37.16400 5.40300 44.93600
H  38.82000 5.18900 45.24900
H  40.59700 -1.83700 47.67800
H  40.27900 -1.17300 46.06200
H  39.35500 -0.56400 47.45700
H  45.50200 -1.90100 47.22600
H  45.26900 -0.94500 45.68900
H  44.97700 -2.78400 45.96300
H  47.60200 2.38700 46.32800
H  47.63900 4.50100 48.42800
H  48.55900 2.46100 48.95500
H  48.41900 1.06900 47.94200
H  47.19900 1.43800 49.16700
H  48.00100 5.71700 45.95400
H  48.54400 4.14600 45.52900
H  50.01400 4.57900 47.89100
H  50.25900 6.01900 46.95700
H  50.62200 4.41800 46.23700
H  44.57200 10.30900 46.92300
H  45.93400 9.26300 46.39400
H  45.56500 9.58600 48.13700
H  39.79400 8.64200 46.38700
H  37.04500 9.81900 49.35700
H  36.93800 11.12400 48.26100
H  38.19600 11.10300 49.50100
Mg 1.00700 43.62600 25.69800
C  2.88500 43.41500 28.58800
C  -1.68400 42.50600 27.43400
C  -0.55600 42.95900 22.72100
C  3.99300 44.39900 24.01600
N  0.67300 43.13500 27.74200
C  1.51300 43.34400 28.71500
C  0.84400 43.20600 30.06900
C  -0.64900 42.73200 29.78000
C  -0.58500 42.79100 28.24900
C  -1.13000 41.36400 30.34900
C  0.97500 44.51500 30.92500
C  1.54200 44.37500 32.42300
H  1.29800 43.05800 33.16500
N  -0.89100 42.85500 25.12200
C  -1.80400 42.46800 26.02300
C  -2.99100 41.95900 25.27000
C  -2.73700 42.07300 23.93000
C  -1.32700 42.58200 23.85700
C  -4.13000 41.42000 25.96200
C  -3.53800 41.72600 22.65900
O  -3.12300 41.88000 21.49300
C  -4.94500 41.26700 22.72200
N  1.57100 43.85400 23.70800
C  0.69000 43.64100 22.70400
C  1.36700 43.99200 21.34100
C  2.74700 44.56300 21.77100
C  2.80400 44.37400 23.27900
C  1.44700 42.69400 20.50300
C  3.05100 46.09800 21.45300
C  3.76300 46.30600 20.10000
N  3.03500 43.91500 26.18900
C  4.14500 44.16700 25.39100
C  5.37200 44.04100 26.19500
C  4.88100 43.77500 27.46200
C  3.48800 43.71300 27.42500
C  6.75400 44.22500 25.65500
C  5.33700 43.56700 28.79300
O  6.44900 43.52900 29.29000
C  3.99100 43.46300 29.69100
C  4.13300 42.28900 30.54000
O  3.81200 41.16500 30.21700
O  4.90100 42.60500 31.64100
C  5.16300 41.50000 32.61300
H  -2.62300 42.31600 27.95900
H  -1.02600 42.80600 21.74700
H  4.81100 44.83000 23.43500
H  1.36600 42.36700 30.53100
H  -1.41200 43.49400 29.93700
H  -0.25200 40.82500 30.70600
H  -1.56400 40.70000 29.60100
H  -1.64000 41.56200 31.29200
H  -0.01800 44.95800 30.99900
H  1.62300 45.25700 30.45900
H  1.01700 45.18600 32.92800
H  2.56700 44.68100 32.63500
H  -4.39700 40.49900 25.44400
H  -4.98100 42.08300 26.12000
H  -3.91500 41.04800 26.96400
H  -5.65700 41.98100 23.13400
H  -5.07100 40.28000 23.16800
H  -5.30400 41.28200 21.69300
H  0.62300 44.69400 20.96400
H  3.62200 44.04500 21.37700
H  1.34900 41.81300 21.13800
H  2.45200 42.64800 20.08100
H  0.71100 42.78200 19.70500
H  3.63400 46.49300 22.28500
H  2.09400 46.62000 21.46300
H  3.86600 45.36300 19.56200
H  4.82300 46.54400 20.18300
H  3.18600 46.96400 19.44900
H  6.79100 44.65300 24.65300
H  7.35400 43.31500 25.63400
H  7.40900 44.87300 26.23600
H  3.90300 44.36700 30.29400
H  5.03400 42.06800 33.53400
H  6.15200 41.04200 32.60700
H  4.43300 40.69300 32.66500

