158

Mg 1.24900 7.28000 26.57700
C  1.95600 9.38300 29.43300
C  0.99200 4.68600 28.90600
C  0.85700 5.33700 24.04500
C  1.86700 10.05200 24.62400
N  1.36400 7.11000 28.97500
C  1.66000 8.05100 29.88600
C  1.68200 7.45800 31.35500
C  1.57700 5.92400 31.05200
C  1.30500 5.91200 29.54200
C  2.82600 5.05000 31.35500
C  0.52300 8.06400 32.16000
C  0.69300 8.40800 33.62900
H  1.75900 7.62100 34.36900
N  0.79600 5.32800 26.48600
C  0.76100 4.40700 27.55300
C  0.35000 3.18100 26.98700
C  0.30000 3.30400 25.56700
C  0.66100 4.68100 25.29900
C  0.25700 1.92800 27.80000
C  -0.10200 2.36600 24.52100
O  -0.30800 2.68100 23.33300
C  -0.42400 0.95300 24.79700
N  1.67900 7.56500 24.61300
C  1.28100 6.58100 23.71100
C  1.39200 7.16400 22.22900
C  1.48800 8.66800 22.55200
C  1.66700 8.81800 24.09200
C  2.63100 6.70200 21.36300
C  0.14900 9.44200 22.15200
C  0.42300 10.69200 21.26200
N  1.84300 9.32000 26.89700
C  1.87900 10.34200 25.98700
C  2.14000 11.61900 26.63800
C  2.17000 11.27900 28.01000
C  2.02900 9.84900 28.08600
C  2.14700 12.97300 25.98200
C  2.27400 11.86100 29.35200
O  2.34500 13.04300 29.63600
C  2.17500 10.53900 30.33400
C  3.28600 10.49200 31.31100
O  4.29300 9.76100 31.28600
O  2.93900 11.36000 32.35300
C  3.92400 11.44100 33.41900
H  0.99300 3.79800 29.54100
H  0.54800 4.77800 23.15900
H  1.97900 10.95100 24.01500
H  2.60900 7.74800 31.85000
H  0.75000 5.51000 31.62900
H  2.64600 4.20500 32.02000
H  3.64900 5.60700 31.80400
H  3.28500 4.63700 30.45700
H  -0.32600 7.38700 32.06200
H  0.16000 8.95200 31.64300
H  -0.22900 8.26100 34.19200
H  1.07900 9.42100 33.51700
H  -0.75600 1.52500 27.79600
H  0.51100 1.89400 28.86000
H  0.83400 1.19600 27.23500
H  -0.71500 0.34900 23.93900
H  -1.32000 0.95400 25.41700
H  0.44700 0.42900 25.19100
H  0.54400 6.82900 21.63300
H  2.37400 9.19200 22.19400
H  3.05100 7.58000 20.87200
H  2.41100 5.86700 20.69800
H  3.43300 6.52700 22.08000
H  -0.38500 9.79700 23.03300
H  -0.49400 8.77700 21.57600
H  0.07300 10.41300 20.26800
H  1.42000 11.12000 21.16400
H  -0.25000 11.49700 21.55800
H  2.08000 12.92400 24.89500
H  3.03700 13.47000 26.36900
H  1.20300 13.39000 26.33100
H  1.25000 10.69800 30.88900
H  4.86000 11.66300 32.90500
H  4.20300 10.51500 33.92100
H  3.53300 12.20700 34.08900
Mg -10.54000 39.49000 41.68400
C  -10.14800 36.11500 41.12400
C  -7.34900 40.04800 40.45600
C  -11.22300 42.78900 41.80200
C  -13.70300 38.75700 43.06400
N  -8.97500 38.18200 40.76100
C  -8.98100 36.86500 40.71300
C  -7.73500 36.26600 40.06300
C  -6.74400 37.55300 40.25300
C  -7.73000 38.65900 40.58400
C  -5.69900 37.43200 41.36500
C  -8.05100 35.91600 38.60000
C  -7.38400 34.63400 38.10400
H  -6.34500 34.89300 37.02400
N  -9.50400 41.19500 41.04700
C  -8.19200 41.21800 40.57400
C  -7.80800 42.55000 40.44300
C  -8.88700 43.41900 40.79100
C  -9.96700 42.44800 41.28600
C  -6.42500 42.90500 39.96800
C  -8.85200 44.97300 40.75000
O  -7.85600 45.56600 40.35400
C  -10.13200 45.74900 41.16800
N  -12.30500 40.60400 42.19700
C  -12.28200 41.99900 42.22700
C  -13.64500 42.59700 42.71800
C  -14.42200 41.27700 43.22300
C  -13.43200 40.09800 42.84000
C  -13.52800 43.77900 43.73300
C  -15.89000 41.03200 42.68700
C  -17.04700 40.85900 43.72300
N  -11.82600 37.83000 41.95800
C  -13.01100 37.64800 42.62200
C  -13.31400 36.20900 42.79400
C  -12.19700 35.60400 42.23200
C  -11.32600 36.63300 41.77600
C  -14.49000 35.58000 43.45900
C  -11.63900 34.38300 41.89400
O  -12.00600 33.25600 42.11000
C  -10.28500 34.61800 41.06500
C  -9.12900 33.72700 41.60600
O  -8.62100 33.80200 42.73700
O  -8.64700 32.83700 40.68200
C  -7.43900 32.09300 41.07300
H  -6.28100 40.15600 40.25800
H  -11.39100 43.84500 42.02600
H  -14.61800 38.48700 43.59500
H  -7.30600 35.43800 40.62600
H  -6.26800 37.88600 39.33100
H  -4.81900 37.95100 40.98600
H  -5.53600 36.38200 41.60500
H  -6.10900 37.96000 42.22600
H  -7.60200 36.71800 38.01500
H  -9.13700 35.82700 38.54900
H  -8.18700 33.99500 37.73600
H  -6.89400 34.10000 38.91700
H  -6.35700 42.86500 38.88100
H  -5.68500 42.22000 40.38300
H  -6.00200 43.88300 40.19900
H  -10.20600 45.77700 42.25600
H  -11.03900 45.39300 40.68100
H  -9.93800 46.77100 40.84300
H  -14.19600 42.93400 41.84000
H  -14.53100 41.22500 44.30600
H  -12.49400 44.08100 43.89700
H  -14.02600 43.53200 44.67100
H  -14.05700 44.65900 43.36800
H  -15.90400 40.06800 42.17800
H  -16.20700 41.66800 41.86100
H  -17.37900 39.82100 43.72500
H  -17.88100 41.48900 43.41100
H  -16.72700 41.20000 44.70800
H  -14.37400 34.51100 43.64200
H  -15.35300 35.81000 42.83400
H  -14.52500 36.02300 44.45400
H  -10.49700 34.44600 40.01000
H  -6.74100 32.64700 41.70100
H  -6.81600 31.87900 40.20400
H  -7.76400 31.14600 41.50300

