158

Mg 6.90700 56.82500 42.36200
C  5.97400 53.63900 42.02500
C  10.14800 55.95700 41.29900
C  7.68000 60.26100 41.79400
C  3.73700 57.74300 43.25400
N  7.90300 55.06400 41.73300
C  7.29800 53.86300 41.63100
C  8.21200 52.83900 41.05900
C  9.63200 53.43100 41.39900
C  9.24100 54.88200 41.62500
C  10.42000 52.80300 42.56300
C  7.94500 52.65700 39.51000
C  8.28200 51.25300 38.89800
H  7.54800 51.00700 37.51700
N  8.64400 57.94200 41.60900
C  9.83500 57.36700 41.28200
C  10.79700 58.40200 40.82900
C  10.14900 59.68900 41.10500
C  8.77100 59.34500 41.56700
C  12.19800 58.03700 40.33900
C  10.82100 60.98300 41.05400
O  12.02600 60.91500 40.73200
C  10.18700 62.31000 41.50500
N  5.84700 58.71400 42.53000
C  6.41800 59.96600 42.30500
C  5.32000 61.07300 42.39500
C  4.07900 60.27700 42.91500
C  4.59600 58.85100 42.97100
C  5.84100 62.18400 43.34500
C  2.78300 60.48300 42.12800
C  1.61100 60.52400 43.14000
N  5.21500 55.91800 42.68600
C  3.98400 56.35300 43.12400
C  3.14200 55.18900 43.32200
C  3.86900 54.06600 42.92500
C  5.11700 54.61800 42.54200
C  1.75300 55.24600 43.85100
C  3.85100 52.68200 42.72000
O  3.04800 51.82800 43.06800
C  5.28500 52.32800 42.21600
C  5.12300 51.44300 41.01100
O  4.70800 51.69300 39.94000
O  5.46400 50.17300 41.42100
C  5.04500 49.11700 40.52000
H  11.14300 55.55600 41.09500
H  7.90900 61.32800 41.77400
H  2.73600 58.09400 43.51600
H  8.10100 51.88600 41.57700
H  10.31300 53.37600 40.55000
H  10.89700 53.43700 43.31000
H  11.03200 52.02000 42.11600
H  9.70800 52.27800 43.20000
H  8.71600 53.13600 38.90600
H  6.97400 53.00400 39.15800
H  7.91200 50.42500 39.50200
H  9.32400 51.10700 38.61100
H  12.61000 58.73500 39.60900
H  12.09700 57.12400 39.75300
H  12.79700 57.83500 41.22600
H  9.86500 62.25200 42.54400
H  9.34600 62.51700 40.84400
H  10.90300 63.11700 41.34700
H  5.09400 61.46300 41.40300
H  3.95200 60.63000 43.93900
H  6.46800 62.92100 42.84300
H  6.37500 61.69700 44.16100
H  5.01600 62.64000 43.89200
H  2.63000 59.58200 41.53300
H  2.88400 61.34300 41.46700
H  0.88400 59.89600 42.62600
H  1.22500 61.54300 43.16700
H  1.81800 60.17300 44.15100
H  1.18500 55.53600 42.96700
H  1.60900 55.89600 44.71300
H  1.37400 54.26400 44.13300
H  5.86100 51.66300 42.86000
H  5.80700 49.11800 39.74100
H  4.06400 49.22100 40.05700
H  5.11400 48.18500 41.08200
Mg -9.51200 17.90200 42.53600
C  -6.04700 17.36600 42.12600
C  -8.95100 21.25300 41.81900
C  -12.85600 18.22800 42.18800
C  -9.90600 14.41600 42.23500
N  -7.65700 19.13200 42.03900
C  -6.43400 18.70800 41.96600
C  -5.44500 19.88000 41.68100
C  -6.27800 21.15300 41.78100
C  -7.72400 20.48800 41.94000
C  -5.91700 22.20300 42.91700
C  -4.53700 19.82100 40.39100
C  -5.06700 18.96800 39.28400
H  -4.31100 18.87700 37.92900
N  -10.67400 19.51400 42.20600
C  -10.30700 20.83000 41.87200
C  -11.48600 21.73400 41.71100
C  -12.60800 20.88400 41.87400
C  -12.08000 19.45800 42.15900
C  -11.32900 23.20800 41.29400
C  -14.03800 21.38700 41.93400
O  -14.19500 22.63100 41.74900
C  -15.22700 20.51000 42.08300
N  -11.20100 16.48600 42.02500
C  -12.48000 16.89400 42.25000
C  -13.46800 15.67700 42.33400
C  -12.44100 14.49100 42.53800
C  -11.09100 15.10800 42.23400
C  -14.61100 15.64100 43.41900
C  -12.65500 13.18800 41.81500
C  -12.70900 11.94600 42.74700
N  -8.25500 16.17000 42.31400
C  -8.56100 14.85000 42.28800
C  -7.26700 14.00600 42.25600
C  -6.24800 15.00500 42.24300
C  -6.92500 16.22900 42.25300
C  -7.21000 12.49900 42.29400
C  -4.79200 15.22500 42.18000
O  -3.85100 14.48400 41.93800
C  -4.62100 16.79000 42.25200
C  -3.72300 17.24700 43.44300
O  -2.65900 17.89100 43.36500
O  -4.41300 16.97300 44.66500
C  -3.92000 17.71500 45.82600
H  -8.72900 22.30500 41.63000
H  -13.94300 18.31000 42.12400
H  -9.93300 13.32400 42.22000
H  -4.77200 19.75000 42.52900
H  -6.31900 21.72100 40.85200
H  -4.96900 22.06900 43.43700
H  -6.71400 22.26400 43.65800
H  -6.00900 23.14800 42.38100
H  -3.51700 19.51500 40.62400
H  -4.62400 20.81100 39.94500
H  -6.05900 19.38000 39.10000
H  -5.11900 17.96000 39.69500
H  -10.54000 23.32400 40.55100
H  -11.14900 23.72500 42.23700
H  -12.17100 23.74100 40.85300
H  -15.31400 19.91100 42.99000
H  -15.24600 19.88400 41.19100
H  -16.17900 21.04000 42.04200
H  -13.95500 15.53500 41.37000
H  -12.47700 14.35200 43.61800
H  -15.59100 15.90000 43.01700
H  -14.45200 16.40800 44.17700
H  -14.66300 14.69200 43.95100
H  -11.84700 13.01900 41.10300
H  -13.61200 13.37100 41.32400
H  -13.73800 11.59900 42.66000
H  -12.55200 12.12100 43.81200
H  -12.11800 11.12200 42.34600
H  -7.77000 11.98100 41.51600
H  -7.67200 12.29400 43.26000
H  -6.15300 12.23300 42.30400
H  -3.97200 17.02100 41.40700
H  -2.84200 17.58500 45.92700
H  -4.57800 17.51500 46.67200
H  -3.96200 18.79500 45.68600

