158

Mg 8.89900 3.19600 27.42500
C  10.44000 1.59900 30.19900
C  7.52100 5.48300 29.61700
C  7.49300 4.66900 24.80500
C  10.39200 0.86600 25.27400
N  8.95800 3.47800 29.69400
C  9.69900 2.75400 30.61200
C  9.49900 3.24900 32.02500
C  8.51500 4.38700 31.78200
C  8.29700 4.50700 30.31300
C  7.15800 4.17800 32.50500
C  10.78500 3.67200 32.77300
C  10.68200 4.67100 33.94100
H  11.53000 4.31300 35.18400
N  7.64800 4.81800 27.24400
C  7.20700 5.67200 28.21300
C  6.35300 6.68400 27.67700
C  6.33800 6.39700 26.31300
C  7.18800 5.23100 26.06600
C  5.76100 7.79900 28.50500
C  5.67300 7.21800 25.25600
O  5.59100 6.80800 24.09300
C  4.95000 8.45900 25.48700
N  9.01500 2.79700 25.31200
C  8.24100 3.53300 24.49400
C  8.52800 3.04600 22.98400
C  9.58200 1.93500 23.10500
C  9.66800 1.85100 24.62700
C  7.30300 2.67100 22.20700
C  10.97100 2.30000 22.37600
C  11.91800 1.13900 22.14300
N  10.11500 1.53300 27.60900
C  10.64900 0.69800 26.65400
C  11.40800 -0.33400 27.32300
C  11.35700 0.02400 28.69000
C  10.58400 1.15300 28.81800
C  12.15400 -1.45500 26.69200
C  11.71600 -0.44400 30.04600
O  12.24000 -1.48500 30.41400
C  11.24600 0.60600 31.01600
C  10.54500 0.05800 32.16800
O  9.50100 -0.56600 32.11000
O  11.23000 0.27000 33.37400
C  10.58300 -0.21400 34.60700
H  7.15800 6.26500 30.28700
H  7.05200 5.11100 23.91000
H  10.93400 0.08200 24.74100
H  8.97000 2.43800 32.52600
H  8.94700 5.29900 32.19500
H  6.40500 3.94000 31.75300
H  6.77000 5.11600 32.90100
H  7.31000 3.41800 33.27100
H  11.27900 4.14200 31.92300
H  11.38900 2.84500 33.14500
H  9.65200 4.87900 34.23000
H  11.15900 5.54100 33.49000
H  6.31800 8.71200 28.29200
H  5.57200 7.68000 29.57100
H  4.77100 8.02600 28.11000
H  4.59100 8.83600 24.52900
H  5.62000 9.20100 25.92100
H  4.07100 8.34400 26.12100
H  9.00900 3.86800 22.45400
H  9.28300 0.98000 22.67200
H  7.30600 3.30800 21.32200
H  6.41700 2.65800 22.84200
H  7.50100 1.65500 21.86600
H  11.41700 2.93500 23.14200
H  10.72500 2.86000 21.47300
H  11.54700 0.12100 22.26200
H  12.76700 1.12600 22.82600
H  12.32500 1.21400 21.13400
H  11.48900 -2.07900 26.09500
H  12.66100 -2.16000 27.35000
H  12.86800 -1.09300 25.95200
H  12.06400 1.22100 31.38900
H  10.91400 0.55200 35.30800
H  10.98300 -1.15300 34.98900
H  9.49400 -0.19900 34.65000
Mg 46.93500 24.66300 27.89700
C  47.47300 26.85700 30.55600
C  46.00900 22.23100 30.25100
C  46.41400 22.30000 25.35900
C  48.22500 26.81500 25.72200
N  46.52500 24.69200 30.13200
C  46.83500 25.70000 31.00600
C  46.57600 25.34300 32.50600
C  46.25600 23.79300 32.33700
C  46.37600 23.51200 30.79000
C  47.16800 22.85200 33.13900
C  45.45300 26.17800 33.13500
C  45.76400 26.65100 34.54900
H  44.69600 26.41100 35.65600
N  46.02400 22.70000 27.77700
C  45.77600 21.85000 28.84200
C  45.14500 20.58500 28.36500
C  45.31300 20.59800 26.95700
C  45.98300 21.92800 26.61100
C  44.64600 19.52200 29.35200
C  45.03600 19.48400 25.96300
O  45.36900 19.64900 24.80700
C  44.33400 18.15200 26.47200
N  47.21700 24.50800 25.84700
C  47.08500 23.49300 25.03200
C  47.55900 23.87400 23.60900
C  47.65800 25.46600 23.65600
C  47.66900 25.59900 25.18900
C  48.84900 23.12900 23.05300
C  46.51400 26.19200 22.91400
C  45.22100 26.61600 23.67900
N  47.89300 26.38900 28.08000
C  48.38000 27.15600 27.06600
C  48.90300 28.38700 27.69800
C  48.60700 28.28700 29.05500
C  47.92600 27.10200 29.21100
C  49.56200 29.48200 26.88700
C  48.73700 28.93600 30.28600
O  49.26300 30.03900 30.58000
C  48.02200 28.01800 31.34200
C  48.85000 27.51800 32.44200
O  49.76000 26.77300 32.27500
O  48.57500 28.05400 33.65800
C  49.47400 27.64100 34.71100
H  45.63700 21.51200 30.98400
H  46.35500 21.57200 24.54700
H  48.52300 27.60400 25.02800
H  47.50000 25.40400 33.08100
H  45.24500 23.52700 32.64500
H  47.36100 21.99700 32.49000
H  46.69500 22.44400 34.03300
H  48.07800 23.36500 33.44900
H  44.47700 25.69200 33.14400
H  45.27800 27.05700 32.51500
H  45.78900 27.74000 34.49700
H  46.73200 26.28900 34.89500
H  43.57000 19.39100 29.23200
H  44.70500 19.92000 30.36500
H  45.22400 18.61700 29.16500
H  43.43500 18.46400 27.00300
H  45.01000 17.46300 26.97900
H  44.04200 17.61300 25.57100
H  46.71300 23.54600 23.00600
H  48.60900 25.84900 23.28600
H  49.18000 22.43400 23.82500
H  49.56100 23.91600 22.80800
H  48.53800 22.53900 22.19000
H  46.28200 25.64300 22.00100
H  46.96800 27.15100 22.66200
H  45.02400 27.68700 23.73300
H  45.30700 26.15600 24.66300
H  44.42700 26.07300 23.16600
H  49.37800 30.49000 27.25900
H  49.21200 29.41500 25.85700
H  50.65000 29.46500 26.82200
H  47.26200 28.63700 31.81800
H  50.38400 27.06300 34.54900
H  48.97000 27.13800 35.53700
H  49.91500 28.56200 35.09200

