158

Mg 2.45800 -1.39000 45.13200
C  6.01200 -0.85800 44.79100
C  2.02900 1.63400 43.54200
C  -0.80000 -2.23100 44.60000
C  3.25000 -4.54000 46.16400
N  3.83000 0.08400 44.25300
C  5.19100 0.11500 44.21300
C  5.73500 1.23100 43.41400
C  4.50200 2.24600 43.22700
C  3.36400 1.28500 43.72800
C  4.45100 3.52200 44.07900
C  6.46400 0.74400 42.15000
C  7.88300 1.26500 41.86300
H  8.08500 1.56700 40.40000
N  0.79300 -0.43700 44.26800
C  0.86700 0.81200 43.73400
C  -0.49100 1.25000 43.30400
C  -1.33400 0.15500 43.68500
C  -0.50400 -0.90000 44.23000
C  -0.77600 2.62900 42.54700
C  -2.85800 0.10100 43.53400
O  -3.44000 1.01800 42.92100
C  -3.63300 -0.93000 44.27400
N  1.36700 -3.21300 45.25600
C  0.00900 -3.26200 45.13200
C  -0.51100 -4.66200 45.72600
C  0.78000 -5.51900 46.14300
C  1.89900 -4.40700 45.75700
C  -1.54100 -4.59500 46.83700
C  0.89900 -6.85700 45.28400
C  1.60400 -8.03000 45.99200
N  4.23000 -2.51200 45.57000
C  4.38000 -3.71900 46.09300
C  5.76700 -4.01900 46.44300
C  6.45300 -2.92300 46.01800
C  5.50200 -2.02000 45.45400
C  6.30100 -5.25700 47.04900
C  7.69500 -2.25000 45.88700
O  8.80000 -2.61400 46.32600
C  7.52800 -0.93700 45.01200
C  8.12900 0.28900 45.57100
O  7.96800 0.61900 46.77200
O  8.95800 0.97300 44.71200
C  9.36000 2.31300 45.22400
H  1.99900 2.58900 43.01300
H  -1.80600 -2.63800 44.47600
H  3.45400 -5.46600 46.70500
H  6.53000 1.66700 44.01800
H  4.23000 2.45700 42.19300
H  5.50200 3.72500 44.28500
H  3.84100 3.44400 44.97900
H  4.00500 4.32600 43.49300
H  5.79800 0.81400 41.29000
H  6.64600 -0.33000 42.18700
H  8.57000 0.62500 42.41700
H  8.10600 2.20900 42.36000
H  -1.84300 2.82200 42.65400
H  -0.53200 2.43200 41.50300
H  -0.21300 3.46600 42.96000
H  -4.64800 -0.62100 44.52400
H  -3.01700 -1.02200 45.16900
H  -3.61700 -1.86800 43.72000
H  -1.03300 -5.17600 44.91900
H  0.77600 -5.80300 47.19600
H  -1.76800 -3.56600 47.11500
H  -1.16200 -5.05800 47.74800
H  -2.45600 -5.15000 46.63100
H  1.51000 -6.71600 44.39200
H  -0.05900 -7.25300 44.94800
H  1.44100 -8.03300 47.07000
H  2.67800 -7.96500 45.81800
H  1.14900 -8.96700 45.67000
H  5.97300 -6.18300 46.57700
H  5.96200 -5.35700 48.08000
H  7.38700 -5.16700 47.08800
H  8.03900 -1.15700 44.07500
H  8.57400 2.91100 45.68500
H  9.66400 2.84900 44.32500
H  10.16600 2.22900 45.95400
Mg -11.01100 17.19700 41.24600
C  -7.47300 16.75900 41.60400
C  -10.30600 20.43800 40.67600
C  -14.11400 17.50500 40.47400
C  -11.26300 13.59000 41.44900
N  -9.10600 18.44300 41.09900
C  -7.80900 18.12600 41.34800
C  -6.84800 19.35500 41.21000
C  -7.86000 20.51900 41.44400
C  -9.20100 19.78500 41.01100
C  -7.95100 21.01500 42.93900
C  -6.15100 19.42700 39.78500
C  -4.68700 19.28700 39.83700
H  -4.10600 18.47200 38.68100
N  -12.09100 18.73100 40.51700
C  -11.60300 19.99000 40.38100
C  -12.71800 20.79100 39.95900
C  -13.90400 20.05900 39.86800
C  -13.44400 18.72800 40.31300
C  -12.54600 22.26100 39.67200
C  -15.29100 20.47100 39.37100
O  -15.55500 21.61000 38.97200
C  -16.47200 19.52200 39.47900
N  -12.34900 15.68400 40.75600
C  -13.63500 16.22800 40.80100
C  -14.61700 15.07900 40.90000
C  -13.79500 13.80900 41.20900
C  -12.34700 14.34700 41.15500
C  -15.81100 15.33800 41.81800
C  -14.01700 12.61000 40.18400
C  -14.70500 11.31200 40.67700
N  -9.73700 15.48900 41.61800
C  -10.01200 14.14200 41.64100
C  -8.77100 13.44300 41.93200
C  -7.68900 14.37400 41.96000
C  -8.34100 15.61800 41.73700
C  -8.75700 11.85900 42.19200
C  -6.28500 14.63700 42.17100
O  -5.37200 13.89000 42.48300
C  -6.06300 16.18200 41.89200
C  -5.36600 16.71200 43.13800
O  -4.14900 16.98700 43.21500
O  -6.18100 16.72800 44.26600
C  -5.61700 16.92500 45.58300
H  -10.11700 21.51100 40.76200
H  -15.18400 17.45100 40.26400
H  -11.56700 12.55000 41.59000
H  -6.17000 19.18800 42.04700
H  -7.46300 21.33300 40.83700
H  -7.38100 20.25900 43.48000
H  -8.96700 21.15700 43.30700
H  -7.43900 21.96000 43.11500
H  -6.25000 20.44900 39.42200
H  -6.49900 18.75300 39.00200
H  -4.32000 18.81100 40.74500
H  -4.09400 20.19600 39.93500
H  -12.28000 22.30100 38.61500
H  -11.75500 22.72700 40.25900
H  -13.50900 22.75300 39.80800
H  -16.31000 18.61200 38.90200
H  -17.31100 20.03500 39.00800
H  -16.55100 19.33400 40.55000
H  -15.17000 15.13200 39.96200
H  -13.96900 13.52100 42.24600
H  -16.24000 14.33600 41.82000
H  -16.48600 16.05800 41.35700
H  -15.54000 15.85700 42.73800
H  -13.07500 12.26600 39.75700
H  -14.56700 13.01700 39.33500
H  -14.70000 11.34600 41.76700
H  -14.10600 10.42700 40.46400
H  -15.77100 11.28000 40.45200
H  -8.35400 11.29400 41.35100
H  -9.71700 11.45900 42.51600
H  -8.04100 11.67600 42.99300
H  -5.29200 16.25400 41.12500
H  -6.41000 16.91300 46.33200
H  -5.27300 17.95900 45.57800
H  -4.84600 16.16800 45.72600

