158

Mg 43.84600 3.46400 47.02800
C  41.94200 6.42400 46.76400
C  40.98500 1.53200 46.66600
C  45.77900 0.69400 47.05800
C  46.72800 5.39800 46.19300
N  41.72500 3.95100 46.64600
C  41.14700 5.26500 46.91700
C  39.61600 5.08900 47.03100
C  39.36100 3.53900 46.83200
C  40.78800 2.94200 46.68700
C  38.60400 2.88100 48.01100
C  38.78200 5.92400 46.01300
C  39.32500 6.29500 44.57800
H  38.76300 5.49200 43.38100
N  43.44500 1.40000 46.92000
C  42.18000 0.80000 46.78100
C  42.31700 -0.58100 46.65100
C  43.66800 -0.96200 46.80500
C  44.38100 0.41200 46.92300
C  41.12800 -1.58000 46.46800
C  44.21800 -2.41200 46.82400
O  43.56100 -3.47100 46.87400
C  45.64200 -2.60300 46.95900
N  45.97200 3.06700 46.62700
C  46.53900 1.87400 46.95000
C  48.10700 1.98500 46.84500
C  48.32600 3.43000 46.37500
C  46.88000 4.00000 46.38700
C  48.64000 1.75800 48.31500
C  49.08400 3.49600 45.03100
C  50.50600 3.92400 45.12400
N  44.33400 5.49000 46.66400
C  45.47800 6.08800 46.25600
C  45.33100 7.51700 46.15500
C  43.96900 7.73300 46.33000
C  43.37400 6.43500 46.65000
C  46.32900 8.60500 45.94200
C  42.93200 8.77000 46.44100
O  42.98900 9.95400 46.30200
C  41.52400 7.94400 46.65500
C  40.82600 8.56800 47.84200
O  41.16100 8.43100 49.02400
O  39.66600 9.18300 47.43500
C  38.72400 9.51800 48.53000
H  40.01200 1.03800 46.63300
H  46.33100 -0.19600 47.36900
H  47.49800 6.04800 45.77300
H  39.38800 5.48200 48.02100
H  38.74500 3.29700 45.96500
H  38.26500 3.47900 48.85700
H  39.31000 2.18700 48.46800
H  37.74300 2.31900 47.64700
H  38.50800 6.81400 46.57900
H  37.85500 5.40200 45.77600
H  40.37600 6.00700 44.55600
H  39.19400 7.36700 44.43300
H  41.20300 -1.87400 45.42100
H  40.20200 -1.06400 46.71900
H  41.16100 -2.51800 47.02200
H  46.13000 -2.21800 47.85500
H  46.17300 -1.95700 46.26100
H  45.89800 -3.62100 46.66700
H  48.22600 1.14700 46.15900
H  48.94200 3.90000 47.14200
H  47.89200 1.67400 49.10400
H  49.37300 2.51800 48.58400
H  49.11100 0.77500 48.33400
H  48.52800 4.16000 44.36800
H  48.98800 2.50300 44.59200
H  50.75700 4.43200 46.05500
H  50.77400 4.63500 44.34200
H  51.03400 2.97700 45.01900
H  46.72200 8.83200 44.95100
H  47.21200 8.29000 46.49900
H  46.08100 9.46000 46.57200
H  40.91000 8.09100 45.76700
H  38.83400 8.68000 49.21900
H  37.69900 9.50500 48.15800
H  39.03600 10.36600 49.13900
Mg 41.11400 41.98500 27.32000
C  40.55700 44.32500 29.79700
C  42.11700 39.79300 29.73100
C  42.32300 39.86900 24.90600
C  40.59200 44.48600 24.93700
N  41.42200 42.12500 29.43700
C  41.05800 43.14900 30.31600
C  41.05700 42.74700 31.82800
C  41.87100 41.38300 31.74500
C  41.84800 41.06700 30.26600
C  43.21600 41.42500 32.47500
C  39.75100 42.68200 32.63000
C  39.75300 43.59900 33.88600
H  39.18400 43.00800 35.13400
N  41.96600 40.05300 27.36100
C  42.21000 39.28100 28.44100
C  42.70500 37.89600 28.04200
C  42.74300 37.87800 26.61000
C  42.30000 39.30600 26.23100
C  43.00600 36.85200 29.02800
C  43.11000 36.84200 25.65700
O  43.14600 36.96300 24.48700
C  43.58500 35.49400 26.17000
N  41.49100 42.18700 25.29800
C  41.91900 41.08900 24.46600
C  41.68300 41.40200 22.97600
C  40.94700 42.79400 23.05200
C  40.96000 43.16400 24.56100
C  42.93400 41.31600 22.10400
C  39.62700 42.71500 22.27700
C  38.52300 41.92300 22.95100
N  40.66200 44.00200 27.28000
C  40.46400 44.98100 26.25500
C  39.95700 46.23200 26.81900
C  40.02700 46.01000 28.18900
C  40.46900 44.72500 28.44800
C  39.38000 47.42000 26.05100
C  39.85400 46.64500 29.45900
O  39.57800 47.79400 29.70000
C  40.07600 45.54900 30.61200
C  41.02200 46.12800 31.68900
O  42.22000 46.36900 31.57000
O  40.30100 46.50000 32.72900
C  40.90200 47.13700 33.86000
H  42.29900 38.99500 30.45300
H  42.66700 39.20600 24.11000
H  40.35400 45.25300 24.19700
H  41.65500 43.56000 32.24000
H  41.30700 40.65200 32.32500
H  43.57600 42.39600 32.81500
H  43.91800 41.03600 31.73700
H  43.12000 40.75300 33.32800
H  39.45000 41.68800 32.96100
H  38.96800 43.15400 32.03700
H  39.04700 44.38900 33.62900
H  40.67100 44.12900 34.14300
H  43.11800 37.24600 30.03900
H  43.94900 36.36500 28.78000
H  42.09400 36.26300 29.12200
H  42.84300 34.94400 26.74900
H  44.58100 35.64100 26.58700
H  43.71700 34.86900 25.28700
H  41.09000 40.58000 22.57300
H  41.60300 43.51700 22.56800
H  42.67200 41.09200 21.07000
H  43.60600 40.53900 22.47100
H  43.43600 42.25700 21.87900
H  39.82000 42.28300 21.29500
H  39.29300 43.73600 22.09300
H  37.68100 42.61200 22.89000
H  38.78200 41.61300 23.96300
H  38.19900 41.04000 22.39900
H  38.50400 47.79000 26.58400
H  39.12400 47.01200 25.07400
H  40.24400 48.08200 25.98500
H  39.10700 45.33600 31.06200
H  41.59300 47.92600 33.56600
H  41.43600 46.41300 34.47600
H  40.11900 47.53200 34.50800

