158

Mg 0.00800 7.64600 26.62800
C  0.84600 9.63600 29.39500
C  -0.00500 4.95400 28.88800
C  -0.57100 5.42800 24.13600
C  0.36600 10.29400 24.52200
N  0.61300 7.28000 28.77600
C  0.70700 8.30500 29.69000
C  0.57400 7.81000 31.11400
C  0.74600 6.28700 30.94800
C  0.40900 6.09800 29.43900
C  2.12400 5.64500 31.22400
C  -0.79100 8.12100 31.69800
C  -0.92100 8.27300 33.22800
H  0.12100 7.63900 34.06000
N  -0.14300 5.54900 26.49000
C  -0.13900 4.63000 27.52000
C  -0.29700 3.33000 26.96600
C  -0.56300 3.38500 25.60600
C  -0.43900 4.86900 25.38300
C  -0.17100 2.09400 27.82300
C  -0.67600 2.34300 24.59700
O  -0.82000 2.53200 23.39800
C  -0.73000 0.89300 25.02100
N  0.20700 7.81900 24.60500
C  -0.25400 6.79400 23.79600
C  -0.60700 7.37900 22.38600
C  -0.33200 8.92100 22.55400
C  0.09500 9.00200 23.99900
C  0.23700 6.74300 21.18700
C  -1.53100 9.86900 22.22200
C  -1.45800 10.65300 20.85700
N  0.45500 9.58800 26.89500
C  0.57100 10.58100 25.97700
C  0.77600 11.82700 26.65600
C  0.93000 11.47700 28.01500
C  0.71000 10.14900 28.08700
C  0.89100 13.25100 26.02900
C  1.30000 12.00800 29.26700
O  1.77000 13.09600 29.55200
C  1.11200 10.89700 30.29000
C  2.19200 11.03500 31.26300
O  3.35100 10.80000 31.00600
O  1.75100 11.26400 32.48300
C  2.72200 11.23900 33.57200
H  -0.29600 4.22500 29.64700
H  -1.10300 4.94800 23.31200
H  0.63700 11.03600 23.76700
H  1.42000 8.23500 31.65300
H  0.03000 5.77100 31.58900
H  2.70600 6.09900 32.02600
H  2.72400 5.67100 30.31400
H  2.00100 4.59800 31.50300
H  -1.57100 7.42000 31.40200
H  -0.96000 9.13000 31.32200
H  -1.85100 7.82200 33.57300
H  -0.94800 9.34700 33.41300
H  -1.11000 1.55500 27.69600
H  -0.00800 2.21400 28.89400
H  0.69300 1.53200 27.46600
H  0.15500 0.45300 25.48000
H  -0.92900 0.31100 24.12100
H  -1.65100 0.83300 25.60100
H  -1.66300 7.14200 22.26000
H  0.52000 9.29300 21.98600
H  -0.55300 6.43200 20.50300
H  0.77200 5.85700 21.52700
H  0.77000 7.47800 20.58400
H  -1.53000 10.60000 23.03100
H  -2.51600 9.41600 22.33300
H  -2.49300 10.89400 20.61600
H  -1.03400 10.12100 20.00500
H  -0.85200 11.53100 21.08000
H  0.90500 13.25900 24.93900
H  1.78400 13.58000 26.56100
H  0.09300 13.90800 26.37500
H  0.21700 11.19800 30.83500
H  3.41300 10.41500 33.39300
H  2.12500 11.10900 34.47400
H  3.10500 12.25800 33.53100
Mg -1.17800 33.95800 26.32200
C  -2.91800 32.41800 28.82800
C  0.34700 36.03200 28.72500
C  0.42800 35.43600 23.89800
C  -2.84100 31.88700 23.97500
N  -1.19700 34.17400 28.53700
C  -1.99800 33.37600 29.28600
C  -1.77200 33.79200 30.76700
C  -0.91500 35.07100 30.75500
C  -0.55000 35.14100 29.25300
C  -1.64800 36.35100 31.28000
C  -1.15000 32.58300 31.61000
C  -1.97800 32.18200 32.83300
H  -1.16600 31.93700 34.10900
N  0.24700 35.49200 26.26000
C  0.71200 36.26300 27.33000
C  1.77600 37.17200 26.84400
C  1.98100 36.83400 25.44200
C  0.90800 35.87000 25.16500
C  2.56000 38.10000 27.75000
C  2.99600 37.15700 24.38000
O  3.00300 36.72800 23.24600
C  4.11100 38.01300 24.72600
N  -1.37400 33.79700 24.22000
C  -0.61500 34.53300 23.43800
C  -0.86600 34.20400 21.94400
C  -1.76000 32.98200 21.96500
C  -1.99900 32.84700 23.48300
C  -1.36600 35.42100 21.11300
C  -1.20500 31.81300 21.23800
C  -0.53600 30.70900 22.09800
N  -2.71300 32.62900 26.32100
C  -3.24900 31.79600 25.31300
C  -4.16300 30.80300 25.84100
C  -4.04800 31.04800 27.24900
C  -3.19100 32.14100 27.47500
C  -4.93500 29.77600 25.02900
C  -4.64800 30.59500 28.49600
O  -5.51700 29.77800 28.65800
C  -3.85000 31.45100 29.61300
C  -4.82400 32.26000 30.37100
O  -5.46900 33.18300 29.87800
O  -4.97800 31.74200 31.70300
C  -6.12100 32.37700 32.36500
H  0.92700 36.53900 29.49900
H  0.91700 35.76600 22.97900
H  -3.30500 31.27700 23.19700
H  -2.80600 33.99100 31.05000
H  -0.03400 34.92100 31.38000
H  -1.81000 37.07400 30.48000
H  -0.99700 36.78600 32.03800
H  -2.60800 36.14600 31.75400
H  -0.07700 32.60400 31.79800
H  -1.16200 31.72600 30.93600
H  -2.43100 31.23000 32.55600
H  -2.70900 32.95900 33.05700
H  2.13600 38.20100 28.74900
H  2.54600 39.10800 27.33500
H  3.60200 37.79600 27.85100
H  3.86900 38.62700 25.59300
H  4.37200 38.63500 23.86900
H  5.02200 37.45900 24.94800
H  0.11800 33.94800 21.54900
H  -2.70500 33.02600 21.42500
H  -1.30600 36.35400 21.67200
H  -2.42500 35.18600 21.00200
H  -0.82600 35.43700 20.16600
H  -0.54900 32.15000 20.43500
H  -1.98800 31.27500 20.70400
H  -1.19200 29.85000 22.23900
H  -0.27400 31.11100 23.07600
H  0.34400 30.39600 21.53500
H  -4.30900 29.31000 24.26900
H  -5.64700 30.41200 24.50200
H  -5.49900 29.02800 25.58500
H  -3.39200 30.86000 30.40600
H  -5.65800 33.25400 32.81700
H  -6.61800 31.81500 33.15600
H  -6.84500 32.80200 31.66900

