158

Mg 26.43100 -1.55900 29.58300
C  28.49900 -1.41600 32.40300
C  23.68500 -1.27300 31.55400
C  24.37900 -1.73400 26.78200
C  29.20700 -2.34900 27.66900
N  26.11700 -1.50100 31.80900
C  27.10000 -1.26700 32.71400
C  26.55800 -0.83100 34.07000
C  24.98100 -0.82400 33.77200
C  24.90000 -1.30900 32.32500
C  24.12900 -1.72900 34.72400
C  27.00300 0.52600 34.66600
C  27.86200 0.40600 35.89100
H  27.66500 1.38800 37.02300
N  24.31900 -1.53300 29.20200
C  23.34900 -1.32700 30.21500
C  22.06200 -1.29600 29.60100
C  22.25200 -1.32000 28.20300
C  23.63400 -1.60800 28.00100
C  20.78000 -1.32000 30.39600
C  21.18600 -1.23400 27.03900
O  21.41500 -1.48500 25.84300
C  19.75500 -0.96700 27.39200
N  26.74100 -1.88500 27.60600
C  25.69500 -1.98000 26.62400
C  26.36000 -2.11500 25.18900
C  27.85200 -2.25400 25.50700
C  27.95200 -2.13300 27.02800
C  25.72600 -3.31700 24.35400
C  28.82300 -1.34300 24.67500
C  29.00200 0.14400 25.18100
N  28.44200 -1.82300 29.92500
C  29.46800 -2.13900 29.07400
C  30.73400 -2.17900 29.79500
C  30.33100 -1.82500 31.08500
C  28.98000 -1.66200 31.12800
C  32.03500 -2.46700 29.18500
C  30.89400 -1.75000 32.36600
O  32.02600 -1.88400 32.81500
C  29.68400 -1.44800 33.34900
C  29.66200 -2.42300 34.49000
O  29.11000 -3.51200 34.50200
O  30.22000 -1.88500 35.60600
C  30.21900 -2.78600 36.77100
H  22.79300 -1.04600 32.14200
H  23.78800 -1.88800 25.87700
H  30.02100 -2.54700 26.96900
H  26.82400 -1.67000 34.71300
H  24.66900 0.21900 33.72600
H  23.26600 -1.12300 34.99800
H  24.64800 -2.12400 35.59800
H  23.70800 -2.55200 34.14500
H  26.11000 1.14500 34.75600
H  27.69500 0.90800 33.91600
H  28.90700 0.53100 35.60600
H  27.72400 -0.57600 36.34300
H  20.37800 -0.30900 30.46100
H  20.98200 -1.56900 31.43700
H  20.16000 -2.05900 29.88900
H  19.23700 -1.89000 27.65200
H  19.17500 -0.59800 26.54600
H  19.77500 -0.20600 28.17200
H  26.13500 -1.14700 24.74100
H  28.21400 -3.27600 25.39900
H  26.39800 -4.17500 24.38200
H  25.67800 -3.14400 23.27900
H  24.72300 -3.64800 24.62400
H  28.42600 -1.20700 23.67000
H  29.82800 -1.72100 24.48700
H  30.06700 0.37300 25.19000
H  28.67400 0.22600 26.21700
H  28.51300 0.84000 24.49900
H  31.81800 -2.60600 28.12600
H  32.53900 -3.27000 29.72300
H  32.49200 -1.49700 29.38000
H  29.79300 -0.47900 33.83600
H  29.21400 -3.04700 37.10200
H  30.76400 -2.23800 37.53900
H  30.76200 -3.69400 36.50800
Mg 35.17600 49.22200 25.06800
C  35.30400 47.61800 28.39700
C  33.89500 52.03900 26.59700
C  34.63200 50.36600 22.09800
C  36.37600 46.13300 23.83300
N  34.57500 49.62700 27.23200
C  34.78000 48.94800 28.39000
C  34.41700 49.78400 29.65700
C  33.86600 51.12400 29.03200
C  34.17700 50.96700 27.51700
C  32.35800 51.37200 29.31700
C  35.56400 49.71400 30.72300
C  35.07400 49.22300 32.07000
H  34.82000 50.21900 33.20800
N  34.35700 50.98700 24.40400
C  33.99200 52.06400 25.17700
C  33.79900 53.19500 24.23800
C  33.80000 52.74700 22.87500
C  34.25000 51.31200 23.07300
C  33.59700 54.62600 24.71600
C  33.65400 53.51300 21.56300
O  33.87000 52.98000 20.46500
C  33.14200 55.01400 21.45400
N  35.44800 48.33100 23.26300
C  35.18700 49.08700 22.15900
C  35.57000 48.30100 20.87800
C  36.28300 47.07300 21.44900
C  35.95700 47.18300 22.95400
C  34.44900 48.04800 19.88000
C  37.85200 47.00000 21.18400
C  38.77800 47.80600 22.12600
N  35.67100 47.18000 25.89600
C  36.22200 46.07700 25.27000
C  36.52900 45.09800 26.24800
C  36.20200 45.65400 27.51800
C  35.69600 46.91600 27.23700
C  37.00000 43.69300 26.01200
C  36.28200 45.49700 29.01100
O  36.73200 44.52500 29.60600
C  35.60300 46.70800 29.58600
C  34.37000 46.16000 30.31600
O  33.34000 45.79700 29.84000
O  34.60300 46.05400 31.67100
C  33.64000 45.20200 32.41800
H  33.53700 53.01100 26.94000
H  34.49400 50.72400 21.07600
H  36.77800 45.25000 23.33200
H  33.52900 49.42200 30.17600
H  34.39800 52.00300 29.39500
H  32.32400 52.38000 29.73100
H  31.96300 50.72600 30.10100
H  31.72400 51.16700 28.45500
H  35.83900 50.76700 30.78500
H  36.34800 49.06400 30.33400
H  35.76600 48.44800 32.40100
H  34.13000 48.68600 31.98100
H  33.66200 54.70100 25.80200
H  32.67900 55.19800 24.57800
H  34.37500 55.16000 24.17100
H  34.03700 55.63000 21.54200
H  32.38200 55.36300 22.15300
H  32.62700 55.13600 20.50000
H  36.34200 48.91200 20.41000
H  35.88800 46.14900 21.02800
H  34.60000 48.58000 18.94100
H  33.56800 48.39300 20.42100
H  34.37700 46.98600 19.64800
H  37.94300 47.34700 20.15500
H  38.08200 45.93600 21.12900
H  38.25400 48.23800 22.97800
H  39.25700 48.53600 21.47300
H  39.49000 47.04800 22.45200
H  36.36700 42.96400 26.51700
H  37.99500 43.68900 26.45700
H  37.06400 43.32500 24.98800
H  36.27800 47.14100 30.32400
H  33.55300 44.22300 31.94600
H  32.65700 45.65800 32.30900
H  33.77200 45.07500 33.49300

