158

Mg 40.50500 9.68300 29.26200
C  42.45300 11.14800 31.90800
C  38.46200 8.41500 31.56000
C  38.96100 8.34900 26.77200
C  43.17800 10.68100 27.07200
N  40.53400 9.71400 31.49200
C  41.26900 10.56900 32.36600
C  40.87700 10.35700 33.88300
C  39.64800 9.31400 33.69500
C  39.55100 9.03100 32.16200
C  39.67900 8.08800 34.65800
C  40.55000 11.64700 34.68100
C  41.12700 11.69600 36.08800
H  40.41200 12.48300 37.20000
N  38.90100 8.54100 29.16200
C  38.04000 8.19300 30.22300
C  36.97100 7.42700 29.74600
C  37.14600 7.37300 28.34400
C  38.36600 8.06900 28.01600
C  35.96400 6.79800 30.68300
C  36.26200 6.62400 27.36000
O  36.68300 6.30100 26.28300
C  34.78600 6.32900 27.75300
N  41.12800 9.28100 27.21800
C  40.17200 8.86600 26.38600
C  40.55800 9.04600 24.88700
C  41.90900 9.83400 25.02800
C  42.08600 9.94600 26.53500
C  40.60200 7.65100 24.16100
C  41.79800 11.23300 24.25800
C  41.42900 12.57000 24.98800
N  42.37900 10.71500 29.34800
C  43.37400 10.96300 28.42200
C  44.54500 11.62400 29.06400
C  44.13700 11.76200 30.39300
C  42.82400 11.17400 30.53300
C  45.84300 12.00900 28.45800
C  44.58000 12.21400 31.68100
O  45.63100 12.79800 32.06500
C  43.51000 11.85500 32.73700
C  44.12300 10.89200 33.68900
O  44.55100 9.78500 33.44300
O  44.31800 11.51300 34.88700
C  44.33100 10.57500 36.01000
H  37.78900 8.03600 32.33100
H  38.42900 7.93100 25.91500
H  43.87100 11.16500 26.38000
H  41.64900 9.90200 34.50300
H  38.67100 9.76900 33.86000
H  39.90100 7.28200 33.95900
H  38.75500 7.75900 35.13300
H  40.52400 8.16900 35.34200
H  39.50900 11.96700 34.67600
H  40.95200 12.49300 34.12300
H  42.07600 12.23300 36.09800
H  41.36500 10.69600 36.45100
H  34.96000 7.16300 30.46600
H  36.07700 6.94600 31.75700
H  35.92400 5.72500 30.49600
H  34.19700 6.06500 26.87400
H  34.32400 7.22200 28.17400
H  34.70400 5.53800 28.49800
H  39.76700 9.61700 24.40200
H  42.82400 9.36200 24.67200
H  41.58600 7.51400 23.71200
H  39.83500 7.77100 23.39600
H  40.32900 6.92900 24.93000
H  41.14900 11.13900 23.38800
H  42.74200 11.45800 23.76200
H  42.34000 13.14300 25.16500
H  40.92500 12.48000 25.95000
H  40.75800 13.19000 24.39400
H  45.84100 11.89500 27.37500
H  46.64400 11.36300 28.81800
H  45.93800 13.07000 28.69300
H  43.22300 12.75300 33.28300
H  43.45900 9.92200 36.06200
H  44.15900 11.17600 36.90300
H  45.23000 9.95900 36.02500
Mg -11.69100 37.63700 42.45500
C  -9.54700 34.95600 41.47700
C  -9.52200 39.73500 41.06800
C  -14.04700 40.02200 42.85500
C  -14.05400 35.14800 43.41300
N  -9.87800 37.30800 41.16800
C  -9.12300 36.19100 41.02300
C  -7.87200 36.48800 40.26900
C  -7.73600 38.08600 40.36700
C  -9.14700 38.37700 40.94100
C  -6.50300 38.70000 41.18200
C  -7.89100 35.85300 38.82400
C  -6.49300 35.33700 38.51400
H  -5.87300 36.09100 37.35100
N  -11.78100 39.67600 41.99800
C  -10.73400 40.34300 41.45100
C  -11.18600 41.65200 41.22400
C  -12.49500 41.80900 41.72300
C  -12.87800 40.52400 42.23100
C  -10.33400 42.70700 40.62800
C  -13.33800 43.06300 41.67600
O  -12.99400 43.99300 40.95300
C  -14.74200 43.16500 42.26600
N  -13.75000 37.59800 42.95500
C  -14.44600 38.77300 43.16200
C  -15.88300 38.52200 43.81800
C  -15.77600 37.00000 44.04300
C  -14.43400 36.55600 43.42500
C  -16.13400 39.38600 45.12900
C  -16.99000 36.27800 43.39400
C  -17.06400 36.13300 41.89700
N  -11.81700 35.53700 42.50700
C  -12.80200 34.69700 42.94800
C  -12.33300 33.30200 42.92700
C  -11.05000 33.39000 42.40400
C  -10.84500 34.71800 41.99000
C  -12.97800 32.04300 43.51300
C  -9.77900 32.58900 42.15100
O  -9.53200 31.40800 42.37800
C  -8.77100 33.60400 41.44700
C  -7.55800 33.72300 42.26400
O  -7.48900 34.38000 43.29900
O  -6.45600 33.04300 41.72100
C  -5.15400 33.15100 42.47700
H  -8.70700 40.39500 40.76600
H  -14.88900 40.71400 42.92400
H  -14.66200 34.42500 43.96000
H  -6.97100 36.13100 40.76700
H  -7.70400 38.53600 39.37500
H  -5.69800 38.02200 41.46500
H  -6.81200 39.40800 41.95200
H  -5.92300 39.31700 40.49600
H  -8.18400 36.62600 38.11400
H  -8.54600 34.98600 38.73800
H  -6.56800 34.29700 38.19500
H  -5.87000 35.36800 39.40800
H  -9.29700 42.36900 40.61100
H  -10.37500 43.63500 41.19900
H  -10.72300 42.95900 39.64200
H  -14.95600 44.23300 42.23200
H  -14.51200 42.86100 43.28700
H  -15.50900 42.63500 41.70000
H  -16.64000 38.85200 43.10600
H  -15.82700 36.89800 45.12700
H  -17.13200 39.81800 45.05300
H  -15.29100 40.07500 45.17600
H  -16.23700 38.69100 45.96200
H  -17.86500 36.89700 43.58900
H  -17.30300 35.37200 43.91300
H  -17.31900 35.11200 41.61300
H  -16.17500 36.30100 41.28900
H  -17.83000 36.84400 41.58900
H  -14.04400 32.20900 43.66300
H  -12.56000 31.48900 44.35400
H  -12.82400 31.39200 42.65200
H  -8.51600 33.22600 40.45800
H  -5.30100 33.01500 43.54800
H  -4.75800 34.15100 42.30500
H  -4.46600 32.42300 42.04600

