158

Mg 26.41200 50.91500 26.76700
C  24.49900 52.20100 29.44800
C  28.62100 49.81600 28.99100
C  28.48400 50.47900 24.09600
C  24.16700 52.73100 24.60300
N  26.50900 50.98600 28.96300
C  25.62600 51.49000 29.86200
C  25.90500 51.14300 31.31100
C  27.28900 50.53800 31.20600
C  27.48100 50.38700 29.66600
C  28.37100 51.44500 31.82500
C  24.83800 50.09200 31.91600
C  24.33500 50.35400 33.32500
H  25.18900 51.17800 34.35000
N  28.28300 50.17800 26.54600
C  29.02900 49.63200 27.53900
C  30.24300 48.97600 27.03100
C  30.29000 49.37500 25.66400
C  28.99000 49.99300 25.33500
C  31.35500 48.39300 27.90200
C  31.37800 49.13700 24.67100
O  31.34700 49.57900 23.56100
C  32.52200 48.38500 25.02000
N  26.40400 51.71400 24.68500
C  27.34400 51.25000 23.84600
C  27.12100 51.73100 22.40900
C  25.63600 52.24200 22.44000
C  25.38500 52.28400 24.04300
C  28.14400 52.85400 22.02900
C  24.66900 51.34100 21.65000
C  23.24800 51.69400 21.29200
N  24.63300 52.18000 26.93000
C  23.90800 52.80400 26.02400
C  22.77400 53.54500 26.64800
C  23.07300 53.34300 28.01400
C  24.12300 52.55800 28.11300
C  21.62800 54.31200 25.92700
C  22.49300 53.57400 29.35100
O  21.49000 54.16700 29.74700
C  23.48300 52.84100 30.30200
C  24.05300 53.83500 31.19300
O  24.99400 54.55800 30.85100
O  23.18300 54.01500 32.24300
C  23.53500 55.04900 33.27700
H  29.23200 49.25300 29.70000
H  29.13400 50.22200 23.25700
H  23.41600 53.17100 23.94300
H  25.89800 52.06900 31.88500
H  27.22400 49.57400 31.71200
H  28.01900 52.13600 32.59200
H  28.94800 52.01500 31.09700
H  28.94900 50.69000 32.35800
H  25.19400 49.06300 31.95300
H  23.98300 50.18400 31.24500
H  24.08400 49.44500 33.87200
H  23.39300 50.89200 33.21500
H  31.77000 47.44300 27.56700
H  30.99600 48.23800 28.92000
H  32.24700 49.01300 27.98300
H  32.34300 47.31100 25.05600
H  33.08300 48.78900 25.86300
H  33.27100 48.45200 24.23000
H  27.29400 50.85700 21.78200
H  25.52400 53.29300 22.17400
H  28.52900 53.40600 22.88600
H  27.74800 53.59600 21.33600
H  28.95700 52.32600 21.53100
H  24.49400 50.43300 22.22700
H  25.12700 51.00300 20.72100
H  22.46000 51.12400 21.78400
H  23.02200 51.41900 20.26200
H  22.98800 52.73100 21.50500
H  21.11100 54.87100 26.70800
H  20.89100 53.77300 25.33200
H  22.12000 54.97700 25.21700
H  22.91800 52.12800 30.90200
H  22.65300 55.37000 33.83100
H  23.88400 55.92800 32.73700
H  24.32100 54.66200 33.92500
Mg -12.06200 15.74600 42.47800
C  -8.55600 16.57300 42.78300
C  -12.52600 19.23100 41.95300
C  -15.07400 15.04200 41.70100
C  -11.08700 12.32200 42.96600
N  -10.58500 17.62600 42.19600
C  -9.25400 17.67900 42.36100
C  -8.73800 19.11900 42.22400
C  -10.04200 19.96100 42.54100
C  -11.16000 18.87900 42.15100
C  -10.05400 20.38900 44.02500
C  -8.07900 19.45800 40.83400
C  -6.56400 19.84900 40.85800
H  -5.78300 18.85700 39.97900
N  -13.60700 16.96900 41.92500
C  -13.61000 18.36000 41.81500
C  -14.92600 18.73900 41.46700
C  -15.74300 17.57000 41.48000
C  -14.83400 16.44700 41.74600
C  -15.25800 20.14100 41.02500
C  -17.22400 17.52600 41.22300
O  -17.85400 18.48800 40.84200
C  -18.06700 16.26900 41.36400
N  -12.86100 13.96400 42.33600
C  -14.21800 13.94000 42.13100
C  -14.69700 12.44700 41.97300
C  -13.41200 11.62100 42.26900
C  -12.38100 12.70300 42.55400
C  -15.98300 12.08600 42.87500
C  -13.03600 10.61100 41.10100
C  -12.87900 9.08100 41.48700
N  -10.18600 14.66500 42.73500
C  -10.01700 13.26000 43.02300
C  -8.63900 12.99000 43.08100
C  -8.03600 14.26300 43.04200
C  -9.00900 15.23800 42.91200
C  -7.94800 11.68100 43.14400
C  -6.73900 14.93500 43.14100
O  -5.59600 14.48500 43.28700
C  -7.05700 16.47600 42.96400
C  -6.71900 17.15500 44.19800
O  -7.22500 16.96700 45.26700
O  -5.64800 17.99900 43.98500
C  -5.06800 18.59400 45.17200
H  -12.72000 20.30500 41.98600
H  -16.10500 14.70500 41.57400
H  -10.75700 11.28600 43.06500
H  -7.99400 19.37600 42.97800
H  -10.04500 20.86600 41.93300
H  -9.49000 19.66300 44.61000
H  -11.08600 20.31100 44.36700
H  -9.72000 21.42000 44.13800
H  -8.60100 20.29800 40.37600
H  -8.16000 18.51500 40.29300
H  -6.17700 19.72000 41.86900
H  -6.38000 20.84100 40.44700
H  -15.39100 20.20500 39.94500
H  -14.59100 20.95400 41.31300
H  -16.22700 20.39800 41.45300
H  -19.11300 16.57500 41.38600
H  -17.79200 15.83500 42.32500
H  -17.92300 15.62400 40.49700
H  -15.09300 12.34400 40.96300
H  -13.38600 11.10900 43.23100
H  -16.84400 11.79600 42.27300
H  -16.28900 12.91200 43.51700
H  -15.82900 11.28800 43.60200
H  -12.13000 10.83500 40.53700
H  -13.86400 10.56700 40.39300
H  -13.38500 8.46100 40.74700
H  -13.38600 8.91000 42.43600
H  -11.87900 8.74200 41.75900
H  -7.27300 11.34700 42.35700
H  -8.64100 10.85300 43.28900
H  -7.37900 11.65600 44.07400
H  -6.44500 16.84800 42.14200
H  -5.06800 17.80900 45.92800
H  -5.66400 19.46000 45.46000
H  -4.04200 18.90400 44.97800

