158

Mg 46.66200 3.64900 48.10200
C  45.10400 6.69800 47.12000
C  43.62500 2.00200 47.46000
C  48.17000 0.65500 48.46200
C  49.61900 5.29600 48.16400
N  44.62200 4.29400 47.31700
C  44.23700 5.57900 46.96500
C  42.74400 5.65100 46.50300
C  42.23900 4.17600 46.80900
C  43.58900 3.42500 47.24400
C  41.09700 4.10000 47.89400
C  42.67400 6.13700 44.99000
C  41.97600 7.54700 44.64400
H  40.80200 7.44100 43.70800
N  46.01100 1.56500 47.97200
C  44.72500 1.13000 47.72800
C  44.71400 -0.33300 47.72900
C  46.00000 -0.72400 48.03700
C  46.84300 0.47500 48.12000
C  43.45800 -1.20800 47.53900
C  46.48700 -2.17200 48.25700
O  45.76300 -3.08400 47.97800
C  47.82500 -2.65900 48.76900
N  48.52500 3.00000 48.18100
C  48.97800 1.77900 48.48800
C  50.39000 1.73900 48.89100
C  50.89200 3.16000 48.63500
C  49.62300 3.92800 48.26900
C  50.63900 1.14300 50.27600
C  51.98700 3.25300 47.45000
C  51.33600 3.36000 46.03000
N  47.22000 5.62400 47.85700
C  48.54200 6.15300 47.99300
C  48.54700 7.55500 47.82300
C  47.19600 7.88100 47.49800
C  46.42700 6.64200 47.48200
C  49.80200 8.46100 47.93500
C  46.21200 8.94100 47.16400
O  46.33500 10.13200 47.03800
C  44.89000 8.18200 46.84200
C  43.84400 8.71000 47.74600
O  43.56500 8.25700 48.88400
O  43.16000 9.73600 47.14700
C  42.10400 10.49500 47.88100
H  42.63800 1.53700 47.40800
H  48.75300 -0.24000 48.69100
H  50.60300 5.75900 48.25700
H  42.26600 6.41100 47.12200
H  41.93100 3.70200 45.87700
H  41.58800 3.68600 48.77500
H  40.46800 3.29700 47.51000
H  40.49600 5.00000 48.02400
H  42.13700 5.34500 44.46600
H  43.64300 6.24900 44.50400
H  42.78100 8.08000 44.13700
H  41.71100 8.13200 45.52400
H  42.85800 -1.39800 48.43000
H  43.69500 -2.17800 47.10200
H  42.91600 -0.71600 46.73100
H  48.23400 -2.08200 49.59800
H  48.56200 -2.54600 47.97400
H  47.74200 -3.72200 48.99700
H  50.79400 1.05600 48.14400
H  51.30100 3.65900 49.51300
H  50.72400 0.07000 50.10800
H  49.74300 1.35100 50.86200
H  51.56800 1.44800 50.75800
H  52.75300 2.47800 47.47200
H  52.41600 4.24900 47.55300
H  50.45500 2.71900 46.06400
H  51.99300 2.98000 45.24700
H  50.99500 4.37600 45.82800
H  49.51400 9.42900 48.34500
H  50.06100 8.65700 46.89500
H  50.65100 8.03800 48.47300
H  44.57900 8.28200 45.80200
H  41.37300 9.81200 48.31400
H  41.48800 11.14000 47.25400
H  42.59400 10.98900 48.72100
Mg 0.45000 43.20800 26.15200
C  2.71300 43.72100 28.93400
C  -2.02000 42.31900 28.32400
C  -1.34400 42.00000 23.56100
C  3.38300 43.29900 24.07200
N  0.43800 42.91500 28.29000
C  1.38000 43.22300 29.26900
C  0.81800 43.03000 30.68700
C  -0.59000 42.39000 30.41500
C  -0.78200 42.57500 28.91000
C  -0.72800 40.88600 30.68900
C  0.71700 44.41100 31.44300
C  0.73900 44.32500 32.97100
H  0.66000 42.95500 33.68900
N  -1.49800 42.51000 25.96300
C  -2.39300 42.24900 26.95900
C  -3.71600 41.94000 26.34400
C  -3.54700 42.04900 24.95900
C  -2.08200 42.14600 24.78800
C  -4.92500 41.75200 27.21400
C  -4.55200 41.89700 23.82300
O  -4.22300 41.86500 22.66100
C  -6.03800 41.68500 24.22600
N  0.92800 42.68900 24.15200
C  -0.00300 42.11200 23.33000
C  0.67000 41.76500 21.94900
C  1.97900 42.66000 21.98100
C  2.13900 42.92200 23.48200
C  0.79400 40.21400 21.78700
C  1.88500 43.97700 21.28800
C  3.18600 44.37700 20.61100
N  2.60700 43.45400 26.42800
C  3.58000 43.64400 25.45300
C  4.75000 44.12700 26.06700
C  4.44100 44.18500 27.41600
C  3.17700 43.77500 27.63700
C  6.01700 44.40900 25.28400
C  5.01700 44.42400 28.72200
O  6.16900 44.74200 29.15700
C  3.86000 44.13200 29.75400
C  4.31000 43.05700 30.77900
O  4.25100 41.84900 30.55900
O  4.64700 43.70700 31.99200
C  4.97400 42.73300 33.07700
H  -2.85700 42.08900 28.98600
H  -1.94100 41.68600 22.70200
H  4.13300 43.48100 23.29900
H  1.51500 42.38900 31.22700
H  -1.38800 42.94000 30.91500
H  -1.66800 40.69600 31.20600
H  0.07900 40.55900 31.34500
H  -0.60900 40.23500 29.82200
H  -0.22000 44.94100 31.27000
H  1.56800 45.01100 31.12200
H  0.08300 45.08300 33.39800
H  1.71700 44.77000 33.15300
H  -5.81100 42.34400 26.98300
H  -4.73800 42.19300 28.19300
H  -5.02700 40.66900 27.15300
H  -6.70400 41.39300 23.41400
H  -6.36300 42.65500 24.60500
H  -5.98900 40.92300 25.00300
H  0.04300 42.11800 21.13100
H  2.84800 42.08200 21.66500
H  0.38700 39.79500 22.70800
H  1.80900 39.98300 21.46300
H  0.12100 40.02100 20.95200
H  1.53400 44.70400 22.02100
H  1.07200 43.89200 20.56700
H  3.96800 43.69700 20.94900
H  3.34900 45.42000 20.88200
H  3.07000 44.28300 19.53200
H  5.86400 45.35600 24.76800
H  6.05500 43.65800 24.49500
H  6.91400 44.35600 25.90100
H  3.73600 45.07200 30.29200
H  5.78300 42.04700 32.82500
H  4.04400 42.17300 33.18200
H  5.16700 43.28900 33.99400

