158

Mg 26.23900 1.19300 29.71600
C  28.37600 0.72400 32.65400
C  23.59200 1.43000 31.78500
C  24.28400 1.07800 26.99900
C  29.02100 0.52200 27.67600
N  26.08900 1.08300 31.95700
C  27.05000 1.08900 32.98000
C  26.41600 1.10800 34.32000
C  24.85800 1.14400 34.01700
C  24.81900 1.27200 32.47500
C  24.00700 -0.03800 34.53300
C  27.00100 2.24000 35.19000
C  26.34900 2.60800 36.53200
H  26.94800 2.09700 37.87700
N  24.13400 1.27100 29.45800
C  23.18100 1.41900 30.39800
C  21.87300 1.63000 29.78300
C  22.12100 1.47400 28.36700
C  23.56300 1.25700 28.18700
C  20.72000 1.95300 30.69300
C  21.03400 1.40800 27.32700
O  21.27300 1.15600 26.11800
C  19.55000 1.46700 27.75900
N  26.58900 0.69900 27.66800
C  25.62500 0.95600 26.69000
C  26.20000 0.90300 25.24400
C  27.76600 0.80000 25.52500
C  27.84100 0.70100 27.05800
C  25.61900 -0.28600 24.40500
C  28.62200 2.07700 25.04600
C  27.90700 3.41700 25.24800
N  28.30400 0.74500 30.02800
C  29.25000 0.39700 29.07800
C  30.52900 0.08600 29.76500
C  30.24300 0.24200 31.16100
C  28.87000 0.59400 31.29300
C  31.93300 -0.19300 29.24900
C  30.74500 0.07600 32.50700
O  31.87400 -0.27600 32.80700
C  29.67700 0.50000 33.50800
C  29.51000 -0.61400 34.53600
O  28.75700 -1.56900 34.28400
O  30.31400 -0.52400 35.62900
C  30.04300 -1.54200 36.60500
H  22.75900 1.65000 32.45600
H  23.65400 1.09000 26.10700
H  29.89000 0.16800 27.11800
H  26.69300 0.17400 34.80800
H  24.43800 2.06700 34.41600
H  24.42100 -0.48800 35.43500
H  23.85000 -0.77900 33.74900
H  22.99800 0.23200 34.84500
H  27.15600 3.13300 34.58300
H  28.03100 1.92000 35.34800
H  25.30700 2.29000 36.56500
H  26.29700 3.69100 36.63900
H  20.44400 2.96600 30.39900
H  20.85600 2.01500 31.77300
H  19.86800 1.27600 30.63300
H  18.89700 1.27900 26.90700
H  19.40100 2.39700 28.30800
H  19.32100 0.67700 28.47400
H  25.94300 1.86900 24.80900
H  28.15700 -0.14100 25.13900
H  24.78500 0.12800 23.83800
H  25.21300 -1.03700 25.08300
H  26.44100 -0.57100 23.74800
H  28.80400 2.04400 23.97200
H  29.52600 2.16700 25.64800
H  28.55300 4.05900 25.84700
H  27.05500 3.34700 25.92400
H  27.45600 3.79500 24.33000
H  31.95100 -0.91000 28.42800
H  32.60400 -0.61300 30.00000
H  32.37000 0.72500 28.85700
H  30.09700 1.37600 34.00300
H  30.95000 -1.70300 37.18800
H  29.84100 -2.52600 36.18200
H  29.17700 -1.20200 37.17200
Mg -9.91100 17.54000 40.52300
C  -6.44300 17.20500 41.00100
C  -9.40100 20.96000 40.19300
C  -13.12000 17.91500 39.45700
C  -10.21800 14.12100 40.44300
N  -8.16800 18.88800 40.53700
C  -6.82100 18.54800 40.75800
C  -5.95000 19.84800 40.67600
C  -6.99000 20.87900 41.05300
C  -8.28700 20.24100 40.56800
C  -7.08300 21.24800 42.58500
C  -5.38700 20.04500 39.20500
C  -3.91800 19.45200 39.03900
H  -3.55800 18.54100 37.83500
N  -11.12500 19.23600 39.88900
C  -10.62300 20.52600 39.71900
C  -11.73700 21.38000 39.33200
C  -12.88500 20.55700 39.25500
C  -12.43200 19.17200 39.54200
C  -11.56300 22.85600 39.04500
C  -14.24000 20.95900 38.84800
O  -14.39900 22.13000 38.60400
C  -15.44500 20.09200 38.98400
N  -11.39100 16.21800 39.82300
C  -12.68200 16.55600 39.70300
C  -13.61000 15.39100 39.84500
C  -12.64000 14.21600 39.66500
C  -11.30200 14.89200 39.95900
C  -14.50500 15.29500 41.13700
C  -12.68000 13.51700 38.26400
C  -13.10700 12.08700 38.20900
N  -8.64000 15.96700 40.67800
C  -8.93300 14.61900 40.67600
C  -7.78200 13.88900 41.08000
C  -6.77900 14.85500 41.25000
C  -7.33100 16.13900 40.94800
C  -7.67900 12.35000 41.32300
C  -5.39700 15.00000 41.62600
O  -4.59800 14.20500 42.11900
C  -5.10100 16.52700 41.31400
C  -4.29900 16.98400 42.47100
O  -3.20700 17.49900 42.38200
O  -4.90000 16.81500 43.72300
C  -3.96400 16.47100 44.83300
H  -9.34400 22.04800 40.25600
H  -14.15100 17.80400 39.11600
H  -10.39800 13.04500 40.50100
H  -5.08800 19.83900 41.34200
H  -6.76000 21.73800 40.42300
H  -6.79000 22.29000 42.71000
H  -6.49000 20.54900 43.17400
H  -8.07200 21.10300 43.01900
H  -5.35300 21.09600 38.91900
H  -6.05400 19.42500 38.60500
H  -3.60800 18.94100 39.95100
H  -3.24400 20.30700 39.00000
H  -12.13200 23.11600 38.15300
H  -10.53400 23.16300 38.85600
H  -11.89600 23.50500 39.85500
H  -15.32900 19.23400 38.32200
H  -16.35400 20.68200 38.86900
H  -15.41800 19.66900 39.98800
H  -14.28800 15.41200 38.99200
H  -12.97200 13.49600 40.41200
H  -14.02700 15.68400 42.03600
H  -14.85500 14.27100 41.26200
H  -15.34300 15.94800 40.89300
H  -11.69000 13.64400 37.82600
H  -13.20200 14.05300 37.47200
H  -14.12500 11.87300 37.88200
H  -13.06100 11.66400 39.21300
H  -12.42500 11.49900 37.59500
H  -6.73200 12.14200 41.82100
H  -7.59400 11.92300 40.32300
H  -8.50400 11.89300 41.87000
H  -4.52500 16.52900 40.38900
H  -4.14200 15.44400 45.15200
H  -4.21100 17.04700 45.72500
H  -2.90400 16.52800 44.58700

