158

Mg 44.22500 5.10000 46.18700
C  42.44700 8.08900 45.92100
C  41.25100 3.42200 45.09200
C  45.91900 2.33700 45.61500
C  47.20000 6.91200 46.34300
N  42.06500 5.74700 45.44800
C  41.55200 7.01000 45.62100
C  40.07500 7.06300 45.51100
C  39.75400 5.52100 45.38400
C  41.07200 4.80600 45.29500
C  38.88900 4.79300 46.47000
C  39.46600 7.93600 44.41400
C  40.29600 8.07600 43.15000
H  39.62100 7.81100 41.79700
N  43.68300 3.08300 45.67500
C  42.44500 2.62700 45.25300
C  42.47400 1.21600 45.10000
C  43.82200 0.80200 45.26500
C  44.54900 2.07100 45.54400
C  41.31700 0.40900 44.82700
C  44.35800 -0.68100 45.17800
O  43.58600 -1.56700 44.79500
C  45.78000 -1.03300 45.56600
N  46.27900 4.71000 45.69300
C  46.72200 3.43800 45.70400
C  48.27100 3.37000 45.71500
C  48.64700 4.95600 45.72300
C  47.28700 5.56900 45.95800
C  48.87300 2.54200 46.91500
C  49.28400 5.47100 44.40700
C  50.87700 5.52300 44.41000
N  44.73300 7.11600 46.21700
C  45.98600 7.63900 46.39500
C  45.83500 9.02500 46.60700
C  44.48700 9.27000 46.47800
C  43.82400 8.06800 46.11200
C  46.91500 10.08500 46.82000
C  43.40200 10.27400 46.47300
O  43.43800 11.49700 46.62900
C  42.07100 9.58600 46.13100
C  41.10400 9.78300 47.19300
O  40.94300 9.03400 48.12000
O  40.24800 10.77200 46.91400
C  39.08600 10.92800 47.75900
H  40.34000 2.82000 45.08900
H  46.58100 1.47100 45.54200
H  48.13800 7.41000 46.59700
H  39.74700 7.40500 46.49300
H  39.14300 5.47800 44.48300
H  39.45200 4.74700 47.40200
H  38.74900 3.75300 46.17400
H  37.97300 5.38100 46.41200
H  39.19900 8.88200 44.88600
H  38.49900 7.56300 44.07600
H  41.16400 7.41800 43.11400
H  40.60000 9.11900 43.05600
H  41.44200 -0.15700 43.90400
H  40.35400 0.91400 44.90200
H  41.40400 -0.32500 45.62800
H  45.92000 -2.10800 45.67100
H  46.06700 -0.48600 46.46400
H  46.55000 -0.83300 44.82000
H  48.58800 2.87400 44.79800
H  49.27400 5.10100 46.60200
H  49.69200 3.07800 47.39500
H  49.37600 1.64100 46.56500
H  48.09700 2.33800 47.65200
H  48.92000 6.47700 44.20000
H  49.06100 4.72800 43.64100
H  51.13200 6.51900 44.04900
H  51.42000 4.84700 43.75100
H  51.21000 5.38200 45.43900
H  46.55900 11.11200 46.91000
H  47.49000 10.30700 45.92000
H  47.61800 9.78500 47.59700
H  41.72000 10.04700 45.20800
H  39.17400 11.68300 48.54000
H  38.79400 9.95000 48.14400
H  38.25300 11.32100 47.17600
Mg 41.52800 41.88900 26.84100
C  40.45800 44.23400 29.30900
C  42.22800 39.86600 29.26100
C  42.84900 39.90700 24.51900
C  41.23000 44.44900 24.51600
N  41.31000 42.11900 29.03300
C  40.75000 43.01000 29.87200
C  40.72200 42.63700 31.37500
C  41.61600 41.30800 31.36100
C  41.75000 41.04700 29.80100
C  42.97500 41.34900 32.03200
C  39.27600 42.52600 31.97100
C  39.00300 43.29900 33.28700
H  38.56700 42.46600 34.48000
N  42.34600 40.09800 26.85600
C  42.54500 39.41200 27.98600
C  43.10500 38.12700 27.68400
C  43.27500 38.07900 26.24400
C  42.79400 39.40500 25.80000
C  43.26400 37.02000 28.72000
C  43.75600 37.00000 25.30800
O  43.85100 37.18200 24.12300
C  44.07000 35.65500 25.86600
N  41.73000 42.12500 24.65200
C  42.42600 41.17800 24.00300
C  42.77200 41.68600 22.56000
C  41.97200 43.02800 22.45800
C  41.66500 43.21800 23.97400
C  44.23300 41.74000 22.20100
C  40.66300 42.92100 21.66400
C  40.27800 44.29100 21.27100
N  40.90100 43.85000 26.83400
C  40.87000 44.78900 25.84400
C  40.46300 46.10100 26.36000
C  40.20000 45.87500 27.71100
C  40.54100 44.54300 27.95800
C  40.35800 47.52100 25.72400
C  39.64600 46.52400 28.92900
O  39.23500 47.64500 29.22600
C  39.87200 45.40500 29.98800
C  40.78900 45.97600 30.99200
O  41.98300 46.03900 30.85700
O  40.13500 46.38900 32.10800
C  40.96500 46.62800 33.34000
H  42.45100 39.17700 30.07900
H  43.32600 39.27300 23.76900
H  41.19900 45.24400 23.76900
H  41.30200 43.38900 31.90900
H  41.18000 40.50100 31.95000
H  43.00700 41.92900 32.95400
H  43.67800 41.88400 31.39400
H  43.39800 40.34400 32.03200
H  38.95500 41.48900 32.06200
H  38.64700 43.02400 31.23200
H  38.23400 44.05600 33.13300
H  39.94400 43.79600 33.52500
H  43.57400 37.50500 29.64600
H  44.18700 36.51500 28.43700
H  42.46900 36.27500 28.73000
H  43.20500 35.23900 26.38200
H  44.87900 35.87500 26.56200
H  44.45500 35.02000 25.06800
H  42.40200 40.92000 21.87900
H  42.66100 43.86200 22.32200
H  44.56100 42.69300 22.61700
H  44.42400 41.66300 21.13000
H  44.68800 40.91200 22.74500
H  39.88700 42.47200 22.28400
H  40.77100 42.39700 20.71400
H  39.67600 44.64500 22.10800
H  39.71400 44.37000 20.34200
H  41.08800 45.01800 21.21700
H  40.89700 48.21200 26.37200
H  39.28300 47.62600 25.58000
H  40.86000 47.61000 24.76100
H  38.91900 45.15900 30.45800
H  42.00200 46.29400 33.31800
H  40.55500 46.16500 34.23700
H  40.98500 47.69300 33.56900

