158

Mg 49.56800 35.47800 27.44000
C  47.54100 34.15800 29.97400
C  50.26600 38.15200 29.40000
C  51.42900 36.64500 24.79100
C  48.45600 32.83300 25.32100
N  48.97900 36.03600 29.44200
C  48.22000 35.31200 30.31800
C  48.22500 35.96900 31.62700
C  48.61600 37.46000 31.30100
C  49.35800 37.24000 30.00400
C  47.40300 38.36100 31.11700
C  49.15000 35.33300 32.70200
C  48.80000 35.30500 34.24700
H  47.94100 36.47900 34.69100
N  50.78000 37.19200 27.21300
C  50.89800 38.12500 28.14100
C  51.80300 39.13200 27.55600
C  52.24700 38.63900 26.28300
C  51.47600 37.45800 26.01600
C  52.17400 40.35600 28.38200
C  53.27500 39.27500 25.33200
O  53.58700 38.77200 24.24200
C  54.12000 40.47600 25.83800
N  49.72100 34.90800 25.34100
C  50.71600 35.48400 24.52100
C  50.77000 34.75500 23.16500
C  49.88200 33.51000 23.35900
C  49.36600 33.73500 24.78600
C  50.36600 35.63600 21.92800
C  50.68500 32.10200 23.24400
C  50.10100 31.05700 22.24500
N  48.21700 33.84300 27.56300
C  47.95900 32.85700 26.62700
C  47.06600 31.91900 27.18300
C  46.80400 32.39100 28.47800
C  47.65600 33.47300 28.70600
C  46.43100 30.70400 26.51800
C  45.96700 32.19600 29.66600
O  45.07200 31.35300 29.78500
C  46.39200 33.33800 30.63200
C  46.75900 32.66500 31.94000
O  47.84400 32.15800 32.06300
O  45.76800 32.79900 32.85000
C  46.10100 32.21000 34.18100
H  50.50200 38.92800 30.13100
H  51.98700 36.95300 23.90500
H  48.07700 32.12500 24.58200
H  47.19200 35.78400 31.92300
H  49.30300 37.93700 31.99900
H  47.11900 38.25300 30.07000
H  47.64200 39.41500 31.26200
H  46.55100 38.06500 31.72900
H  50.12400 35.81600 32.62300
H  49.18700 34.28300 32.41300
H  49.78200 35.43700 34.70200
H  48.44400 34.32300 34.55800
H  53.22500 40.19800 28.62200
H  51.64500 40.57300 29.31000
H  51.95800 41.27200 27.83300
H  53.56000 41.38700 26.05000
H  54.98300 40.71300 25.21700
H  54.61700 40.16300 26.75600
H  51.84100 34.60000 23.03200
H  49.01700 33.67000 22.71600
H  50.45100 36.72000 21.99900
H  49.34500 35.39300 21.63500
H  51.09900 35.35600 21.17200
H  50.72500 31.59100 24.20600
H  51.70000 32.43900 23.03500
H  49.34500 31.54400 21.62900
H  49.67200 30.18600 22.73800
H  50.93700 30.76400 21.61000
H  46.53900 29.79100 27.10400
H  46.72900 30.45100 25.50100
H  45.38900 30.95800 26.32300
H  45.55400 34.01600 30.79700
H  47.17100 32.11500 34.36900
H  45.74500 31.20000 34.38300
H  45.60900 32.91300 34.85200
Mg -10.79000 17.46000 41.83300
C  -7.25500 16.83800 41.75500
C  -10.08000 20.73900 40.99300
C  -13.93700 17.63500 40.79700
C  -11.06000 13.87000 41.87100
N  -8.86900 18.64100 41.43400
C  -7.58600 18.20900 41.52900
C  -6.65100 19.27800 40.98500
C  -7.46000 20.53300 41.33400
C  -8.91500 20.00600 41.33900
C  -7.00000 21.31300 42.61300
C  -6.42700 19.11100 39.38300
C  -5.00300 18.71800 39.03900
H  -4.92200 17.46400 38.19400
N  -11.91500 18.97100 41.06900
C  -11.47600 20.26200 40.81500
C  -12.62900 21.02000 40.31100
C  -13.76300 20.14900 40.23200
C  -13.22700 18.84000 40.75100
C  -12.44800 22.48100 39.79700
C  -15.10600 20.56000 39.76400
O  -15.36800 21.73500 39.62800
C  -16.24700 19.64200 39.67200
N  -12.24400 15.91200 41.10900
C  -13.52100 16.31300 40.90600
C  -14.47800 15.07600 40.90200
C  -13.45200 13.89000 41.03100
C  -12.15800 14.60300 41.37400
C  -15.49200 15.20300 42.01000
C  -13.32300 13.07200 39.69000
C  -13.66400 11.57300 39.75400
N  -9.45600 15.75400 41.97700
C  -9.75700 14.35100 42.09400
C  -8.56400 13.55000 42.34700
C  -7.54100 14.49900 42.26900
C  -8.13300 15.81200 41.97400
C  -8.44800 12.10300 42.74600
C  -6.12600 14.68700 42.29000
O  -5.25800 13.86300 42.37900
C  -5.87300 16.26600 41.93900
C  -5.09300 16.88800 43.01600
O  -5.45600 17.78000 43.81100
O  -3.80300 16.42100 42.89500
C  -3.01200 16.68300 44.06600
H  -9.92700 21.80800 40.83000
H  -15.02400 17.58800 40.70300
H  -11.22700 12.79300 41.94500
H  -5.67900 19.27500 41.47800
H  -7.44000 21.23600 40.50100
H  -6.20100 20.76400 43.11100
H  -7.86400 21.34300 43.27700
H  -6.66300 22.31500 42.34700
H  -6.70700 20.05700 38.91800
H  -7.05800 18.27100 39.09200
H  -4.41300 18.54400 39.93800
H  -4.59200 19.56900 38.49600
H  -11.42500 22.85700 39.79800
H  -13.05100 23.00800 40.53700
H  -12.70800 22.39200 38.74200
H  -16.58300 19.27200 40.64100
H  -15.90600 18.83400 39.02500
H  -17.03700 20.08600 39.06700
H  -15.16400 15.14000 40.05700
H  -13.63900 13.09400 41.75200
H  -15.18100 14.66600 42.90600
H  -16.38500 14.65000 41.72000
H  -15.83700 16.18600 42.32900
H  -12.24400 13.11900 39.54300
H  -13.95400 13.45400 38.88600
H  -12.86700 10.94200 40.14600
H  -13.76800 11.19600 38.73600
H  -14.57100 11.29700 40.29100
H  -9.35600 11.50500 42.83300
H  -7.91400 12.01100 43.69100
H  -7.85700 11.64200 41.95500
H  -5.21900 16.22800 41.06800
H  -3.63000 16.51500 44.94800
H  -2.68300 17.72100 44.01300
H  -2.14800 16.02200 43.99600

