158

Mg 39.42100 9.38500 29.51700
C  41.58200 10.93200 32.03500
C  37.58000 8.13400 31.93700
C  37.81100 7.67700 27.12800
C  42.05000 10.05300 27.26100
N  39.59100 9.67100 31.65300
C  40.40600 10.38300 32.53100
C  39.91200 10.29000 33.97200
C  38.84900 9.18300 33.89700
C  38.62500 8.98300 32.40400
C  39.16600 7.90700 34.69800
C  39.38500 11.62700 34.49000
C  39.12700 11.56400 36.00700
H  40.08100 12.29000 37.03600
N  37.82200 8.19800 29.49600
C  37.14000 7.82300 30.61600
C  35.93900 7.10800 30.23500
C  35.96200 7.06700 28.82800
C  37.25500 7.61900 28.43700
C  34.94400 6.50900 31.17900
C  34.92200 6.52400 27.85400
O  34.89500 6.78700 26.68800
C  33.80400 5.69000 28.38800
N  39.85600 8.93400 27.47300
C  39.04900 8.17800 26.66600
C  39.51400 8.13300 25.18000
C  40.91500 8.94800 25.31100
C  40.93800 9.35800 26.79800
C  39.56800 6.77600 24.54300
C  40.95100 10.15900 24.30600
C  40.34700 11.57200 24.75800
N  41.47300 10.30000 29.58000
C  42.37000 10.50400 28.58300
C  43.46600 11.27400 29.03000
C  43.23300 11.50200 30.43300
C  41.99500 10.86700 30.68200
C  44.60600 11.81100 28.22100
C  43.71400 12.08100 31.71800
O  44.73100 12.73000 31.93100
C  42.62000 11.74300 32.77600
C  43.35800 11.05500 33.92000
O  43.70400 9.89100 34.01000
O  43.59200 11.96100 34.91200
C  44.00900 11.50700 36.22500
H  36.91100 7.82500 32.74200
H  37.50800 6.98300 26.34100
H  42.80700 10.23500 26.49600
H  40.68900 9.96200 34.66200
H  37.89500 9.47800 34.33300
H  39.30100 7.03800 34.05400
H  38.32600 7.70400 35.36200
H  40.08000 8.05100 35.27400
H  38.45600 11.89700 33.98800
H  40.11700 12.39000 34.22700
H  39.07900 10.52700 36.33700
H  38.16700 12.05800 36.15400
H  33.97100 7.00000 31.15200
H  35.29700 6.67400 32.19600
H  34.84600 5.42600 31.10500
H  34.22100 4.98900 29.11200
H  33.43300 5.12400 27.53400
H  33.03000 6.33000 28.81100
H  38.77400 8.73000 24.64700
H  41.77600 8.30000 25.14800
H  39.62500 6.03900 25.34400
H  40.49800 6.68300 23.98000
H  38.66100 6.72200 23.94100
H  40.38600 9.80200 23.44500
H  41.94100 10.06400 23.86100
H  39.61200 11.24000 25.49100
H  39.91100 12.02800 23.86900
H  40.98400 12.33100 25.21400
H  44.31200 12.04400 27.19800
H  45.36000 11.06100 27.98000
H  44.91700 12.74000 28.69800
H  42.26900 12.71200 33.13000
H  43.57200 10.55200 36.51500
H  43.82500 12.23100 37.01900
H  45.09200 11.39800 36.28800
Mg -0.48200 34.98400 26.98300
C  -2.32100 33.04600 29.24200
C  0.82100 36.70300 29.64300
C  0.71000 37.07200 24.88500
C  -2.08600 33.21100 24.35600
N  -0.72000 34.84900 29.21500
C  -1.49800 33.95300 29.93000
C  -1.48300 34.25700 31.40600
C  -0.55900 35.50100 31.48000
C  -0.10100 35.75500 30.07500
C  -1.00800 36.83600 32.27600
C  -0.91100 33.00300 32.15200
C  -1.65500 32.52600 33.41400
H  -0.89600 32.44900 34.71700
N  0.70500 36.70100 27.23800
C  1.14300 37.24000 28.39000
C  1.95200 38.33800 28.07100
C  1.95400 38.48500 26.63300
C  1.05400 37.45900 26.22400
C  2.76400 39.15400 29.03300
C  2.66900 39.41500 25.68400
O  2.41300 39.55400 24.44000
C  3.72600 40.33400 26.25300
N  -0.51400 34.97200 24.89900
C  -0.04100 36.07300 24.23000
C  -0.34700 36.06500 22.70400
C  -1.10500 34.68900 22.56400
C  -1.23700 34.21400 24.03100
C  -1.19400 37.30700 22.25200
C  -0.55200 33.64900 21.64900
C  0.52600 32.71500 22.20600
N  -1.90300 33.43100 26.76900
C  -2.42400 32.79700 25.65800
C  -3.29900 31.72800 26.09500
C  -3.30500 31.84600 27.51600
C  -2.45300 32.88300 27.85400
C  -3.95700 30.75000 25.19100
C  -3.83900 31.22000 28.71100
O  -4.54100 30.21200 28.86700
C  -3.28300 32.11300 29.87900
C  -4.43600 32.76900 30.55100
O  -4.92100 33.82900 30.26200
O  -4.93700 31.96000 31.61000
C  -6.04300 32.52500 32.42200
H  1.29400 37.23600 30.47000
H  1.02500 37.73100 24.07500
H  -2.61200 32.68800 23.55500
H  -2.50300 34.46900 31.72900
H  0.39600 35.26600 31.95000
H  -1.37000 37.59400 31.58100
H  -0.17200 37.29600 32.80200
H  -1.75200 36.62200 33.04400
H  0.02000 33.28400 32.64400
H  -0.69000 32.13100 31.53700
H  -2.04100 31.51000 33.32400
H  -2.48400 33.23000 33.48600
H  3.79500 38.80800 29.10000
H  2.46300 39.21300 30.07900
H  2.66200 40.19300 28.71900
H  4.52100 39.87200 26.83800
H  3.28300 41.07100 26.92400
H  4.11300 40.82900 25.36200
H  0.60200 35.96900 22.17600
H  -2.09400 34.89500 22.15300
H  -1.54900 37.69100 23.20800
H  -1.99800 37.08400 21.55000
H  -0.41500 37.90000 21.77300
H  -0.16700 34.19400 20.78800
H  -1.35900 33.04400 21.23600
H  0.03800 31.99700 22.86500
H  1.26200 33.25200 22.80400
H  1.03600 32.07400 21.48700
H  -3.13600 30.51200 24.51500
H  -4.82500 31.14300 24.66200
H  -4.06200 29.81200 25.73600
H  -2.67300 31.54800 30.58400
H  -5.81600 33.11300 33.31100
H  -6.58800 31.66500 32.81200
H  -6.72200 33.12200 31.81400

