158

Mg -1.63600 17.13700 25.80800
C  -1.97900 14.81600 28.49100
C  -2.26900 19.60600 28.06500
C  -1.66100 19.48900 23.31200
C  -1.43200 14.67000 23.56200
N  -2.29200 17.15400 28.07100
C  -2.24500 16.11500 28.91300
C  -2.72500 16.53800 30.33300
C  -2.84700 18.13000 30.23300
C  -2.45400 18.36600 28.71600
C  -4.16500 18.72500 30.71700
C  -2.02800 15.97500 31.57500
C  -2.12600 16.70500 32.90000
H  -2.03200 15.99900 34.24100
N  -1.78000 19.18300 25.71800
C  -1.93000 20.02800 26.80900
C  -1.86700 21.41600 26.44400
C  -1.66500 21.38600 25.02100
C  -1.74300 19.94600 24.62500
C  -2.14200 22.60100 27.35200
C  -1.61800 22.59700 24.04100
O  -1.56600 22.61300 22.83700
C  -1.59000 23.94500 24.68700
N  -1.62800 17.03700 23.71300
C  -1.52100 18.13400 22.90600
C  -1.42800 17.68700 21.48100
C  -1.02600 16.12800 21.64400
C  -1.34700 15.95900 23.05000
C  -2.75300 17.96800 20.75500
C  0.44200 15.73300 21.21200
C  1.63200 16.36000 22.01000
N  -1.64200 15.19400 25.95500
C  -1.52700 14.21400 24.90400
C  -1.65800 12.89500 25.57400
C  -1.76200 13.09100 26.93500
C  -1.77000 14.49400 27.14200
C  -1.80800 11.59900 24.82900
C  -1.82600 12.38700 28.15600
O  -1.74100 11.19800 28.41900
C  -1.92100 13.50300 29.27500
C  -0.92000 13.39100 30.37700
O  0.25700 13.71000 30.36100
O  -1.54200 12.76100 31.44100
C  -0.75700 12.28400 32.52900
H  -2.22400 20.34400 28.86900
H  -1.50700 20.22600 22.52200
H  -1.35100 13.87000 22.82300
H  -3.75200 16.17500 30.35900
H  -2.06800 18.60100 30.83300
H  -4.65300 19.17100 29.85000
H  -3.92000 19.47200 31.47200
H  -4.75800 17.94600 31.19500
H  -0.98800 15.77900 31.31300
H  -2.55200 15.03500 31.74900
H  -2.91900 17.44800 32.98300
H  -1.24200 17.34100 32.85700
H  -2.98200 23.15400 26.93100
H  -1.23700 23.20500 27.41900
H  -2.49300 22.36300 28.35600
H  -2.54100 24.29800 25.08700
H  -1.37400 24.61700 23.85600
H  -0.89900 24.01500 25.52700
H  -0.55300 18.21300 21.09800
H  -1.69700 15.46900 21.09400
H  -3.30400 17.03300 20.64900
H  -2.57700 18.48800 19.81300
H  -3.36900 18.62600 21.36700
H  0.60000 15.96300 20.15800
H  0.62800 14.66300 21.29900
H  2.37900 15.65300 22.37000
H  1.21300 16.85800 22.88500
H  2.19000 17.09300 21.42700
H  -1.93400 11.92300 23.79600
H  -2.65400 11.02200 25.20200
H  -0.83200 11.12500 24.93100
H  -2.86900 13.53000 29.81100
H  -0.55800 13.14800 33.16200
H  0.16800 11.85600 32.14200
H  -1.28500 11.52100 33.10100
Mg 52.66600 23.33600 44.91500
C  50.24700 25.79500 44.15700
C  50.75500 20.98800 43.57200
C  55.52000 21.65800 44.48400
C  54.84900 26.19200 45.97200
N  50.82100 23.48700 43.81500
C  49.94300 24.48900 43.63700
C  48.63000 23.99200 43.09300
C  48.61500 22.46600 43.41500
C  50.14500 22.29300 43.59400
C  47.69600 22.14000 44.60200
C  48.38200 24.48800 41.62500
C  49.63100 24.31900 40.62100
H  49.19400 24.40200 39.15200
N  53.04100 21.47000 44.34900
C  52.06900 20.58700 43.87800
C  52.79200 19.36100 43.62500
C  54.17900 19.55700 43.94000
C  54.29600 20.99800 44.20100
C  52.07800 18.04600 43.20300
C  55.23700 18.44700 43.85000
O  54.86900 17.28000 43.64300
C  56.67400 18.68900 44.04100
N  54.86900 23.83000 45.14600
C  55.81800 22.93600 44.93000
C  57.24100 23.30700 45.44700
C  56.91700 24.77400 45.93800
C  55.46600 24.94800 45.66100
C  57.64900 22.40100 46.60800
C  57.84100 25.88700 45.29400
C  58.28000 27.10800 46.07500
N  52.57100 25.59900 45.08300
C  53.44300 26.48900 45.72600
C  52.74200 27.72800 45.90500
C  51.47800 27.56200 45.28900
C  51.46700 26.23700 44.81700
C  53.25400 28.99700 46.34800
C  50.30000 28.18400 44.96100
O  49.94200 29.32500 45.08900
C  49.41400 27.11300 44.15000
C  49.09900 27.61100 42.72900
O  49.83000 27.79100 41.81100
O  47.75000 27.95700 42.75900
C  47.13000 28.48600 41.57600
H  49.97700 20.23200 43.44700
H  56.35400 20.95900 44.39400
H  55.45800 27.00100 46.38000
H  47.97300 24.60500 43.71100
H  48.36800 21.88000 42.52900
H  48.16300 21.36500 45.20900
H  46.84400 21.63100 44.15100
H  47.49700 23.03500 45.19200
H  48.13500 25.54900 41.58600
H  47.52800 23.95500 41.20700
H  49.93300 23.30400 40.88200
H  50.41000 25.02600 40.90400
H  52.55600 17.76200 42.26600
H  51.09500 18.38000 42.87000
H  52.05800 17.32800 44.02300
H  56.79400 19.12000 45.03500
H  56.94900 19.38300 43.24600
H  57.15300 17.71300 43.96500
H  57.92600 23.33600 44.59900
H  57.09200 24.86900 47.01000
H  56.76500 22.15000 47.19500
H  58.34900 23.02700 47.16100
H  58.09500 21.49100 46.20800
H  57.28700 26.15700 44.39500
H  58.76800 25.38400 45.01800
H  57.91600 27.89800 45.41900
H  59.35900 27.21500 46.18900
H  57.94600 26.96400 47.10300
H  54.26700 29.19500 45.99800
H  53.20500 29.01600 47.43700
H  52.65200 29.82500 45.97500
H  48.50400 27.03600 44.74500
H  47.79600 29.22500 41.13200
H  46.24400 29.00200 41.94800
H  46.87200 27.74900 40.81600

