158

Mg 1.55800 -3.08700 44.03900
C  4.70400 -1.89200 43.44800
C  0.24200 -0.36300 42.06200
C  -1.40300 -4.66700 43.88700
C  3.04200 -5.89700 45.61200
N  2.32900 -1.37300 42.78200
C  3.71200 -1.08300 42.80400
C  4.01600 0.29600 42.11700
C  2.56300 0.93800 41.99200
C  1.60700 -0.26500 42.37300
C  2.27800 2.31000 42.67700
C  4.78900 0.06200 40.74500
C  5.92000 1.09400 40.51300
H  5.61100 1.94800 39.26900
N  -0.28800 -2.72700 42.95000
C  -0.63000 -1.52200 42.33500
C  -2.00400 -1.54300 41.93500
C  -2.59000 -2.73000 42.51200
C  -1.41000 -3.42900 43.12900
C  -2.69500 -0.44600 41.14900
C  -4.03600 -3.13200 42.52800
O  -4.94000 -2.58500 41.90900
C  -4.45000 -4.34000 43.24200
N  1.03400 -5.07900 44.54500
C  -0.30600 -5.39200 44.54300
C  -0.61400 -6.66700 45.35100
C  0.80200 -7.20400 45.59500
C  1.70600 -5.98500 45.25600
C  -1.50400 -6.49100 46.55000
C  1.13300 -8.41200 44.72400
C  0.54300 -9.68200 45.33800
N  3.45600 -3.71500 44.63500
C  3.93900 -4.86000 45.24000
C  5.38800 -4.73800 45.50800
C  5.69700 -3.61200 44.82600
C  4.56300 -3.04700 44.23200
C  6.28100 -5.69900 46.41100
C  6.78100 -2.70100 44.55600
O  7.92600 -2.67900 45.04400
C  6.25600 -1.66100 43.49200
C  6.68800 -0.30200 44.04300
O  6.00500 0.29600 44.81800
O  7.87300 0.13400 43.44300
C  8.15800 1.54900 43.55600
H  -0.21400 0.49000 41.55500
H  -2.29300 -5.29300 43.98000
H  3.37000 -6.74900 46.21200
H  4.62300 0.83100 42.84700
H  2.28600 1.01200 40.94000
H  1.99700 3.10500 41.98700
H  3.19200 2.70000 43.12500
H  1.47400 2.27000 43.41100
H  4.01700 0.11900 39.97800
H  5.18800 -0.95000 40.68600
H  6.93600 0.70900 40.42200
H  5.96700 1.85000 41.29700
H  -2.01300 0.11200 40.50800
H  -3.31400 0.28300 41.67200
H  -3.45400 -0.86100 40.48700
H  -4.08800 -5.22100 42.71000
H  -5.52900 -4.27400 43.37900
H  -3.96100 -4.15400 44.19800
H  -1.04600 -7.32400 44.59500
H  0.95700 -7.42700 46.65100
H  -2.29800 -7.23800 46.52600
H  -2.05100 -5.54900 46.49700
H  -1.11600 -6.65900 47.55500
H  2.21600 -8.53400 44.70300
H  0.84900 -8.30400 43.67700
H  0.30400 -9.46400 46.37900
H  1.26300 -10.49300 45.44500
H  -0.37700 -10.03600 44.87400
H  6.85100 -5.13300 47.14700
H  7.05700 -6.19100 45.82400
H  5.70200 -6.43900 46.96300
H  6.73000 -1.79500 42.52000
H  7.32900 2.23400 43.37300
H  9.04200 1.75500 42.95400
H  8.45600 1.65000 44.60000
Mg 24.20500 -5.19100 45.72000
C  26.05200 -2.63300 44.13000
C  21.57000 -4.29300 43.72100
C  22.74900 -8.07400 46.56600
C  27.18400 -6.20800 47.39900
N  23.94800 -3.71500 43.96600
C  24.79100 -2.74200 43.62800
C  24.19300 -1.95100 42.47000
C  22.62600 -2.16100 42.72800
C  22.70500 -3.45500 43.50900
C  22.01300 -0.90700 43.47900
C  24.72600 -2.30800 41.06300
C  24.98400 -1.06000 40.18300
H  24.96300 -1.48000 38.73400
N  22.39700 -6.09100 45.20100
C  21.40400 -5.53000 44.40000
C  20.25200 -6.41900 44.30900
C  20.58000 -7.53400 45.14000
C  21.95400 -7.27100 45.72000
C  19.04100 -6.16400 43.45800
C  19.51900 -8.64500 45.48200
O  18.37700 -8.61400 45.00500
C  19.89300 -9.65700 46.50300
N  24.87400 -6.86500 46.96200
C  23.99000 -7.98000 47.13700
C  24.68700 -9.08200 47.90300
C  26.08700 -8.46000 48.22200
C  26.07800 -7.11200 47.46800
C  23.84400 -9.59100 49.07100
C  27.38100 -9.34800 47.91300
C  28.25800 -9.67900 49.15800
N  26.21900 -4.57000 45.83600
C  27.29400 -5.02100 46.63000
C  28.31500 -4.14500 46.42700
C  27.87500 -3.17900 45.49500
C  26.58900 -3.51800 45.13000
C  29.55100 -4.13400 47.11100
C  28.28700 -2.01800 44.77400
O  29.31600 -1.44200 44.70200
C  27.14000 -1.61700 43.81100
C  26.85500 -0.21000 44.03400
O  26.21600 0.20600 44.97500
O  27.46500 0.58000 43.07300
C  27.36400 2.01200 43.21200
H  20.63100 -3.89400 43.33200
H  22.25000 -8.99000 46.88800
H  28.04200 -6.64500 47.91500
H  24.45700 -0.90300 42.61800
H  22.16800 -2.40600 41.77000
H  21.11300 -0.54400 42.98300
H  22.70700 -0.06700 43.51200
H  21.86100 -1.26000 44.49900
H  24.08300 -2.99300 40.50900
H  25.67900 -2.83600 41.06800
H  26.01200 -0.81400 40.44900
H  24.36400 -0.18000 40.35500
H  19.33900 -5.74000 42.49900
H  18.41000 -5.44300 43.97900
H  18.43300 -6.98800 43.08600
H  18.99900 -10.28000 46.54200
H  20.14500 -9.27100 47.49000
H  20.74400 -10.20000 46.09300
H  24.71400 -9.93300 47.22300
H  26.06100 -8.13000 49.26100
H  24.28100 -9.48100 50.06400
H  23.55800 -10.62900 48.90100
H  23.00900 -8.89300 49.12800
H  27.85600 -8.93200 47.02500
H  27.09800 -10.37300 47.67200
H  29.15000 -10.19900 48.80700
H  27.72000 -10.22200 49.93400
H  28.48600 -8.73300 49.64900
H  30.04200 -3.16400 47.19800
H  30.27100 -4.61900 46.45200
H  29.38100 -4.64000 48.06100
H  27.56000 -1.73100 42.81100
H  26.75400 2.37400 42.38500
H  28.35400 2.46600 43.25700
H  26.76700 2.25800 44.09000

