158

Mg 44.41100 5.03800 47.25700
C  42.10900 7.93000 46.90000
C  41.52500 3.01800 46.76000
C  46.37600 2.47500 46.98400
C  46.95700 7.19100 46.55400
N  42.06600 5.45500 47.00100
C  41.45100 6.65200 46.86100
C  39.95400 6.40700 46.61900
C  39.76200 4.85900 46.92300
C  41.24500 4.42100 46.88200
C  38.86900 4.47200 48.17000
C  39.53200 6.78500 45.20300
C  38.42300 7.80300 45.09400
H  37.60700 7.78700 43.81400
N  43.99500 3.02100 47.18800
C  42.81800 2.35300 46.90600
C  43.12400 0.97700 46.71700
C  44.52800 0.71400 46.77300
C  45.00300 2.07600 47.09300
C  42.04200 -0.13100 46.59100
C  45.27200 -0.63500 46.58600
O  44.73200 -1.64300 46.23700
C  46.82000 -0.82600 46.58900
N  46.42400 4.87300 46.75400
C  47.06300 3.69100 46.81300
C  48.56700 3.89800 47.00000
C  48.75500 5.37700 46.49200
C  47.29500 5.89400 46.64100
C  49.05500 3.59200 48.46800
C  49.34900 5.64000 45.01700
C  50.82500 5.99700 44.98100
N  44.57900 7.13200 47.03100
C  45.72200 7.85300 46.75600
C  45.39700 9.32500 46.74800
C  44.04800 9.38500 46.89900
C  43.54100 8.04700 46.93600
C  46.36100 10.42900 46.61500
C  42.85300 10.27600 46.99200
O  42.84100 11.52900 46.95700
C  41.62600 9.38500 46.95900
C  40.70500 9.58500 48.12300
O  40.59300 8.84900 49.11600
O  39.97700 10.66600 47.86300
C  38.88200 10.99500 48.70900
H  40.69900 2.31300 46.64900
H  47.15100 1.70800 46.93400
H  47.84600 7.80200 46.38100
H  39.37000 6.98900 47.33300
H  39.27400 4.21700 46.18900
H  39.54000 4.54200 49.02600
H  38.54400 3.43500 48.09400
H  38.04900 5.18200 48.28900
H  39.19800 5.93000 44.61400
H  40.46600 7.11500 44.74900
H  38.76700 8.79000 45.40300
H  37.77100 7.43300 45.88500
H  41.95900 -0.78400 47.45900
H  42.31700 -0.77400 45.75500
H  40.99300 0.13800 46.46300
H  47.02600 -1.82700 46.21000
H  47.32900 -0.53100 47.50700
H  47.22900 -0.22100 45.77900
H  49.06000 3.15100 46.37900
H  49.33800 5.93400 47.22500
H  48.12700 3.47900 49.03000
H  49.59800 4.46800 48.82100
H  49.69200 2.71200 48.37800
H  48.66500 6.40900 44.65800
H  49.30600 4.75700 44.37900
H  51.07500 6.54000 44.07000
H  51.31500 5.02500 44.92400
H  51.14900 6.48400 45.90200
H  47.35100 10.15400 46.97900
H  45.95700 11.31100 47.11200
H  46.48700 10.82900 45.60900
H  41.08600 9.66200 46.05300
H  38.99600 12.03700 49.00700
H  38.55000 10.46900 49.60400
H  37.91800 11.00300 48.20000
Mg -5.62100 24.32500 26.24900
C  -4.20600 25.95400 28.91400
C  -7.58100 22.47700 28.23000
C  -6.73300 22.52900 23.49400
C  -3.48000 26.12400 24.16400
N  -5.73700 24.24100 28.34800
C  -5.08200 25.03400 29.31800
C  -5.61000 24.65500 30.73900
C  -6.42800 23.31900 30.43500
C  -6.61300 23.33900 28.91700
C  -5.62800 22.01900 30.88600
C  -6.46700 25.81300 31.41400
C  -6.38400 26.02700 33.01300
H  -5.67500 24.94800 33.80500
N  -6.98700 22.71200 25.89300
C  -7.74000 22.19700 26.85300
C  -8.72600 21.31500 26.22100
C  -8.58200 21.36700 24.82000
C  -7.40000 22.21700 24.69200
C  -9.75700 20.47700 27.01700
C  -9.32700 20.64500 23.63500
O  -9.05300 20.76100 22.49900
C  -10.50100 19.67000 23.90000
N  -5.07400 24.24400 24.18300
C  -5.68100 23.39700 23.27600
C  -4.92800 23.33800 21.98700
C  -4.12200 24.66600 22.11800
C  -4.24800 25.10500 23.55200
C  -4.08400 22.09300 21.90100
C  -4.47800 25.78100 21.08700
C  -3.37400 26.62300 20.38800
N  -4.10500 25.76800 26.37900
C  -3.29500 26.39400 25.49600
C  -2.42300 27.33000 26.19700
C  -2.79200 27.20900 27.50900
C  -3.80300 26.22200 27.56500
C  -1.38400 28.10100 25.54800
C  -2.50700 27.71000 28.81600
O  -1.78300 28.63300 29.22400
C  -3.41900 26.87900 29.76800
C  -2.53100 26.08700 30.70600
O  -2.11800 24.96800 30.51300
O  -2.52000 26.77400 31.88200
C  -1.70400 26.09200 32.94300
H  -8.12100 21.83300 28.92600
H  -6.98200 21.95100 22.60100
H  -2.84400 26.70200 23.49100
H  -4.76700 24.35000 31.35900
H  -7.43200 23.18200 30.83600
H  -5.19500 21.57300 29.99100
H  -6.17700 21.27800 31.46800
H  -4.74500 22.28100 31.46800
H  -7.51900 25.62100 31.20400
H  -6.17600 26.77400 30.98900
H  -7.39100 26.20200 33.39400
H  -5.84400 26.95100 33.21700
H  -9.55200 19.41100 26.92100
H  -10.71400 20.65500 26.52600
H  -9.77700 20.60100 28.10000
H  -11.06300 19.34200 23.02500
H  -11.20500 20.12300 24.59800
H  -10.15900 18.75600 24.38400
H  -5.58900 23.31500 21.12100
H  -3.08300 24.37100 21.97500
H  -3.17200 22.44000 21.41500
H  -4.46900 21.26500 21.30500
H  -3.74200 21.74700 22.87600
H  -5.15200 26.50400 21.54700
H  -4.97600 25.32400 20.23300
H  -3.69400 26.89200 19.38200
H  -2.42400 26.09800 20.29600
H  -3.27000 27.55600 20.94200
H  -1.54100 29.17900 25.51900
H  -1.24700 27.76900 24.51800
H  -0.45700 27.80600 26.04000
H  -4.04400 27.59600 30.30100
H  -0.75700 26.63000 32.97200
H  -1.55200 25.02400 32.79200
H  -2.19900 26.11100 33.91400

