158

Mg -2.26200 17.73400 27.38300
C  -3.04600 15.60600 30.09100
C  -2.94400 20.40200 29.49700
C  -2.43700 19.77900 24.70800
C  -2.18200 14.96100 25.32700
N  -2.77500 17.94600 29.54600
C  -2.97900 16.95100 30.44700
C  -3.17600 17.57800 31.86600
C  -3.60800 19.04000 31.56100
C  -3.05800 19.15300 30.13900
C  -5.13600 19.33200 31.56600
C  -1.99900 17.35600 32.89900
C  -1.94200 18.18300 34.23100
H  -1.45400 17.61000 35.54300
N  -2.55400 19.79200 27.14100
C  -2.71700 20.70000 28.12300
C  -2.66300 22.09700 27.60200
C  -2.60700 21.91700 26.21400
C  -2.56400 20.48700 25.95300
C  -2.94200 23.28500 28.41900
C  -2.70200 22.95500 25.13200
O  -2.82900 22.76900 23.93200
C  -2.55900 24.37900 25.57200
N  -2.32200 17.37900 25.24700
C  -2.25300 18.41600 24.40100
C  -2.08300 17.83100 22.99300
C  -1.65100 16.33600 23.20300
C  -2.06500 16.18600 24.68900
C  -3.34800 18.05500 22.16100
C  -0.13000 16.19500 22.94800
C  0.81200 17.06100 23.76900
N  -2.51300 15.64100 27.58000
C  -2.51200 14.64600 26.60200
C  -2.73700 13.41000 27.23500
C  -2.95900 13.78900 28.61200
C  -2.81300 15.13300 28.79400
C  -2.64900 12.02100 26.68800
C  -3.28400 13.23000 29.91900
O  -3.54300 12.09800 30.25900
C  -3.27200 14.41500 30.94200
C  -2.07200 14.14000 31.79000
O  -0.87100 14.03600 31.48400
O  -2.50900 13.89200 33.09100
C  -1.50700 13.32600 34.04500
H  -3.24200 21.27800 30.07700
H  -2.35500 20.43600 23.84000
H  -1.85000 14.19000 24.62800
H  -4.06100 17.07800 32.26000
H  -3.18700 19.84200 32.16700
H  -5.44300 20.05000 32.32600
H  -5.67700 18.38600 31.55100
H  -5.50700 19.94100 30.74200
H  -1.08300 17.63800 32.37900
H  -1.87700 16.29800 33.12700
H  -2.89300 18.69900 34.36100
H  -1.21200 18.98200 34.10200
H  -3.20900 23.12800 29.46400
H  -3.92300 23.57800 28.04400
H  -2.22900 24.10900 28.38900
H  -3.46600 24.69900 26.08600
H  -2.61300 24.98200 24.66600
H  -1.66000 24.70100 26.09600
H  -1.28600 18.40400 22.52000
H  -2.26000 15.78600 22.48600
H  -4.09100 18.63600 22.70700
H  -3.91400 17.12400 22.14400
H  -3.21100 18.43900 21.15000
H  0.08800 16.41500 21.90300
H  0.20300 15.17400 23.13600
H  1.13900 16.51300 24.65300
H  0.32800 17.95900 24.15300
H  1.77800 17.20400 23.28600
H  -3.16300 11.98600 25.72700
H  -3.17000 11.38200 27.40000
H  -1.59500 11.74700 26.63400
H  -4.18900 14.29800 31.51900
H  -0.66200 13.99300 34.21700
H  -1.19300 12.40200 33.56000
H  -2.03500 12.98700 34.93700
Mg -10.53500 39.15200 39.25400
C  -9.99800 35.73800 38.64700
C  -7.06700 39.68400 38.43400
C  -11.13900 42.41800 39.09900
C  -13.92500 38.37400 39.65000
N  -8.81700 37.87900 38.51100
C  -8.90500 36.50700 38.44400
C  -7.48300 35.95900 38.01000
C  -6.50700 37.23500 38.31100
C  -7.54300 38.28700 38.42900
C  -5.80700 37.07900 39.72000
C  -7.40500 35.39400 36.50600
C  -7.68200 36.44500 35.33600
H  -8.70400 36.14400 34.27500
N  -9.27600 40.84400 38.90500
C  -7.92400 40.82600 38.53500
C  -7.48700 42.14300 38.39700
C  -8.62000 42.97100 38.51600
C  -9.74400 42.12200 38.88800
C  -6.12000 42.62500 37.91600
C  -8.65300 44.49800 38.31600
O  -7.61400 45.19500 38.08300
C  -9.96200 45.32400 38.51300
N  -12.31200 40.17700 39.49300
C  -12.22800 41.56800 39.37000
C  -13.63500 42.13000 39.36800
C  -14.56400 40.88600 39.72600
C  -13.52300 39.75000 39.69600
C  -13.86300 43.35100 40.21400
C  -15.78400 40.80100 38.70400
C  -17.09200 40.04700 38.96600
N  -11.75900 37.42900 39.18100
C  -13.10200 37.23100 39.32800
C  -13.59800 35.88100 39.22700
C  -12.36800 35.21400 39.05600
C  -11.30100 36.20800 38.94500
C  -14.99700 35.37100 39.47300
C  -11.71100 33.85300 38.92200
O  -12.09300 32.68300 39.13200
C  -10.27200 34.23800 38.45400
C  -9.25800 33.51100 39.29500
O  -9.07400 33.60500 40.49700
O  -8.43400 32.73700 38.43000
C  -7.27800 32.03700 39.13300
H  -5.99500 39.78300 38.61600
H  -11.42000 43.47100 39.02500
H  -14.96200 38.16800 39.92500
H  -7.17600 35.12200 38.63800
H  -5.84400 37.49700 37.48600
H  -6.03500 37.87800 40.42500
H  -4.72100 37.00200 39.65900
H  -6.20700 36.20800 40.23900
H  -8.03700 34.50700 36.48300
H  -6.39800 34.98000 36.56700
H  -6.66100 36.71800 35.07100
H  -8.00600 37.38100 35.79000
H  -5.45200 41.78600 38.11000
H  -5.85900 43.49300 38.52200
H  -6.02100 42.93100 36.87400
H  -10.26900 45.44000 39.55300
H  -10.67300 44.84000 37.84300
H  -9.69200 46.31400 38.14900
H  -13.88800 42.43800 38.35400
H  -14.91500 40.94200 40.75600
H  -14.73700 43.25100 40.85800
H  -14.04800 44.18200 39.53400
H  -13.02500 43.60700 40.86200
H  -15.31900 40.53000 37.75700
H  -16.17900 41.81700 38.71800
H  -17.38600 39.39100 38.14600
H  -17.92500 40.72800 39.13900
H  -17.00700 39.46900 39.88600
H  -15.23100 34.75800 38.60200
H  -15.77200 36.13000 39.58400
H  -15.04800 34.78700 40.39200
H  -10.28500 33.98600 37.39400
H  -7.48700 30.98000 39.29800
H  -6.95600 32.52100 40.05500
H  -6.33100 32.21900 38.62400

