158

Mg 36.14300 50.06500 24.48800
C  36.59100 48.26200 27.59500
C  34.98500 52.71400 26.36000
C  35.57100 51.54100 21.70000
C  37.39200 47.17700 22.86200
N  35.80600 50.40900 26.84800
C  36.07300 49.54700 27.84200
C  35.75300 50.24000 29.20000
C  35.03400 51.52500 28.75000
C  35.32200 51.60400 27.22100
C  33.55000 51.48600 28.98300
C  37.04900 50.42900 30.02400
C  36.98700 50.42300 31.58900
H  35.60700 50.52900 32.26400
N  35.48300 51.90400 24.09100
C  35.09200 52.87000 24.98600
C  34.66300 53.99300 24.23100
C  34.64600 53.66700 22.82000
C  35.18500 52.28700 22.80700
C  34.29300 55.29600 24.94700
C  34.11700 54.44200 21.63100
O  34.08100 53.96400 20.50700
C  33.54300 55.80200 21.86600
N  36.17800 49.32800 22.56400
C  36.05300 50.24200 21.59100
C  36.56400 49.68600 20.21800
C  37.07500 48.25600 20.61300
C  36.87200 48.19900 22.13700
C  35.43300 49.51700 19.17600
C  38.57300 47.95800 20.08200
C  39.72000 48.64500 20.69000
N  36.75900 48.14700 25.01900
C  37.29200 47.10200 24.27800
C  37.57500 46.00200 25.12700
C  37.37900 46.40300 26.41400
C  36.85900 47.74200 26.34100
C  38.16400 44.71800 24.67700
C  37.46300 45.90800 27.77800
O  37.75600 44.83600 28.27600
C  36.89600 47.08300 28.60200
C  35.70100 46.65200 29.25600
O  34.57900 46.60100 28.76900
O  36.04900 46.32300 30.50200
C  35.22300 45.38600 31.34300
H  34.58700 53.55000 26.93900
H  35.44100 52.00300 20.72000
H  37.92700 46.38100 22.33800
H  35.08200 49.60600 29.77800
H  35.52000 52.38300 29.21500
H  33.25200 52.32300 29.61400
H  33.27100 50.69600 29.68100
H  32.96000 51.33200 28.07900
H  37.50200 51.36100 29.68600
H  37.72400 49.60000 29.81300
H  37.66500 51.16500 32.01000
H  37.46800 49.54700 32.02400
H  34.71300 55.37800 25.95000
H  33.21200 55.42700 24.91600
H  34.65500 56.09600 24.30200
H  32.93400 56.27200 21.09400
H  34.33900 56.53700 21.97900
H  32.88200 55.79600 22.73300
H  37.42600 50.27900 19.91200
H  36.33200 47.54200 20.25700
H  34.43600 49.47400 19.61300
H  35.57100 48.65000 18.53100
H  35.57000 50.37100 18.51200
H  38.54900 48.33200 19.05900
H  38.73400 46.88000 20.11700
H  40.04600 49.53300 20.14800
H  40.58200 47.98900 20.57300
H  39.58000 48.99200 21.71400
H  37.42600 44.10800 24.15600
H  38.66600 44.21500 25.50300
H  38.98600 44.86000 23.97500
H  37.65900 47.42400 29.30100
H  34.42100 45.87600 31.89400
H  35.74700 44.95800 32.19800
H  34.76800 44.53600 30.83500
Mg 1.34500 41.76800 25.75000
C  3.21400 41.95000 28.76400
C  -1.23100 40.62800 27.76700
C  -0.39300 41.35500 23.03700
C  4.21300 42.72400 23.98900
N  1.06700 41.40600 28.12800
C  1.93000 41.71600 29.09500
C  1.35400 41.67100 30.50300
C  -0.11700 41.15500 30.07000
C  -0.11300 41.02100 28.54900
C  -0.60500 39.84100 30.89400
C  1.46800 43.05700 31.28200
C  2.10900 43.11700 32.64800
H  1.72700 42.05700 33.66700
N  -0.44400 40.90400 25.43300
C  -1.38400 40.58400 26.35700
C  -2.59100 39.99800 25.64900
C  -2.44500 40.37300 24.28500
C  -1.06000 40.91300 24.14600
C  -3.66600 39.29800 26.38700
C  -3.39700 40.28800 23.17900
O  -3.21700 40.68800 22.08600
C  -4.72100 39.85400 23.43900
N  1.85800 41.94000 23.79400
C  0.91600 41.73100 22.82300
C  1.61200 41.81000 21.44000
C  2.95600 42.43800 21.73900
C  3.03100 42.39200 23.26900
C  1.73000 40.47000 20.73400
C  3.08600 43.89700 21.12800
C  4.32400 44.08200 20.38000
N  3.33100 42.22600 26.19200
C  4.34800 42.57300 25.38300
C  5.50300 42.72000 26.16600
C  5.15800 42.44700 27.49400
C  3.73600 42.19100 27.48200
C  6.80900 43.26400 25.77400
C  5.73600 42.22600 28.78200
O  6.85400 42.29600 29.22600
C  4.43200 42.10500 29.69700
C  4.76200 40.91600 30.57900
O  4.52500 39.75100 30.29500
O  5.35300 41.34200 31.73400
C  5.63600 40.38400 32.76300
H  -2.10100 40.38000 28.37800
H  -0.87300 41.25000 22.06200
H  5.14300 43.03600 23.51000
H  1.89700 40.89400 31.04100
H  -0.86000 41.87600 30.41000
H  -1.29900 40.27400 31.61500
H  0.26400 39.51800 31.46700
H  -1.15700 39.10300 30.31100
H  0.42900 43.37700 31.35900
H  1.96200 43.74400 30.59600
H  1.73600 44.04000 33.09300
H  3.19000 43.15000 32.50900
H  -3.36500 38.95900 27.37800
H  -3.98400 38.42000 25.82500
H  -4.54600 39.93300 26.48800
H  -5.15900 40.40900 24.26900
H  -4.74500 38.77000 23.54500
H  -5.29800 40.06300 22.53900
H  0.95100 42.44500 20.85000
H  3.84900 41.86400 21.49300
H  1.45900 39.56600 21.28000
H  2.77900 40.39800 20.44600
H  1.12600 40.52800 19.82900
H  3.03800 44.65700 21.90800
H  2.24500 44.10000 20.46500
H  4.86200 44.86100 20.92100
H  4.05400 44.47100 19.39800
H  4.84700 43.12900 20.30500
H  6.68100 44.08400 25.06700
H  7.24700 42.42200 25.23800
H  7.41600 43.60400 26.61200
H  4.23700 42.94800 30.36000
H  5.50400 40.76100 33.77700
H  6.49200 39.70900 32.73000
H  4.75300 39.75100 32.67300

