158

Mg 54.62400 24.20900 45.16500
C  51.97200 26.10100 44.07200
C  53.16900 21.37400 43.99400
C  57.67900 22.84000 45.28900
C  56.28100 27.43900 46.10000
N  52.81500 23.80900 44.02100
C  51.77300 24.73200 43.75700
C  50.51300 23.99900 43.20800
C  50.81700 22.51600 43.44100
C  52.35000 22.53400 43.84200
C  49.92600 21.80900 44.46200
C  50.06800 24.35700 41.79500
C  48.58200 24.07700 41.35900
H  48.14500 24.07100 39.83100
N  55.31900 22.28300 44.75300
C  54.57200 21.23700 44.28500
C  55.46700 20.04000 44.17200
C  56.76100 20.53300 44.41400
C  56.63700 21.94700 44.77600
C  55.07000 18.64000 43.88400
C  58.10500 19.80000 44.39000
O  58.01100 18.61800 44.40800
C  59.45500 20.42400 44.42000
N  56.71600 25.08200 45.49600
C  57.68000 24.18500 45.63100
C  58.99600 24.85600 46.17800
C  58.62900 26.37100 46.12800
C  57.11900 26.34300 45.98800
C  59.59200 24.40000 47.51700
C  59.26800 27.08300 44.87700
C  60.32900 28.23700 45.15400
N  54.19300 26.33400 45.29300
C  54.90800 27.46000 45.69600
C  53.96900 28.50200 45.79300
C  52.75400 28.07100 45.21500
C  53.00100 26.71600 44.84700
C  54.05200 29.85700 46.44800
C  51.39300 28.41600 44.90800
O  50.81000 29.50700 45.00200
C  50.90300 27.23300 44.05000
C  50.59900 27.85300 42.72300
O  51.44300 28.15000 41.89800
O  49.29800 27.76800 42.44200
C  48.77400 27.74200 41.05100
H  52.66400 20.41900 43.83200
H  58.72900 22.62600 45.49800
H  56.62500 28.37000 46.55700
H  49.66000 24.29000 43.82000
H  50.78000 21.96400 42.50200
H  50.35200 21.61900 45.44700
H  49.71100 20.81900 44.06000
H  49.03200 22.37900 44.71300
H  50.62100 23.74900 41.07900
H  50.24200 25.40700 41.56000
H  47.94800 24.68700 42.00200
H  48.29900 23.08000 41.69500
H  55.59900 18.15000 43.06600
H  54.00900 18.62600 43.63300
H  55.13000 18.02600 44.78300
H  59.57500 21.40000 43.95000
H  60.13600 19.82900 43.81100
H  59.69600 20.44300 45.48300
H  59.80600 24.57000 45.50700
H  58.90500 26.80400 47.08900
H  58.76600 24.03200 48.12700
H  60.02200 25.31700 47.91800
H  60.42000 23.71600 47.33500
H  58.54600 27.64800 44.28800
H  59.86200 26.52400 44.15500
H  60.80000 27.97900 46.10200
H  59.82100 29.19300 45.28100
H  61.00400 28.34200 44.30400
H  53.08800 30.23100 46.79300
H  54.33500 30.52400 45.63400
H  54.75100 29.82800 47.28400
H  49.99200 26.82200 44.48700
H  48.08800 28.58600 40.97400
H  48.33200 26.74800 40.98300
H  49.52000 27.93300 40.28000
Mg -2.24400 34.92100 26.20700
C  -4.20800 33.49100 28.53600
C  -1.33300 37.36400 28.47000
C  -0.39600 36.51600 23.76200
C  -3.93100 33.17900 23.66500
N  -2.63000 35.23800 28.32700
C  -3.36100 34.45600 29.08100
C  -3.30800 34.90200 30.55200
C  -2.51600 36.24400 30.46700
C  -2.17700 36.31600 28.96600
C  -3.33900 37.56000 30.89900
C  -2.71600 33.78000 31.45400
C  -2.31900 34.16900 32.93100
H  -2.86600 33.28000 34.02700
N  -0.99800 36.68900 26.13700
C  -0.83500 37.54600 27.18600
C  0.13400 38.61500 26.81900
C  0.46400 38.37800 25.42200
C  -0.27800 37.12100 25.02600
C  0.62800 39.61600 27.79100
C  1.27200 39.21600 24.42200
O  1.44500 38.95100 23.21000
C  1.88300 40.45300 24.91500
N  -2.18800 34.90700 23.98800
C  -1.20100 35.52100 23.23500
C  -1.19200 34.94700 21.81100
C  -2.51000 34.11900 21.81000
C  -2.89000 34.05400 23.21000
C  -1.13100 35.93800 20.59700
C  -2.35500 32.73200 21.16800
C  -3.41700 32.30000 20.16100
N  -3.72100 33.59000 26.03900
C  -4.22600 32.85800 24.97500
C  -5.16600 31.85000 25.41700
C  -5.14500 32.08200 26.84300
C  -4.25500 33.12300 27.16800
C  -5.98100 30.95100 24.56400
C  -5.76800 31.56900 28.10700
O  -6.47100 30.59800 28.25200
C  -5.21100 32.59400 29.21400
C  -6.43900 33.29200 29.76100
O  -7.25600 34.02800 29.18500
O  -6.56900 33.05400 31.10000
C  -7.56600 33.75800 31.93000
H  -0.99100 38.10800 29.19300
H  0.26200 36.93400 22.99700
H  -4.57300 32.64400 22.96300
H  -4.35400 35.08100 30.80500
H  -1.68900 36.35400 31.16900
H  -4.31800 37.25400 31.26700
H  -3.48300 38.32600 30.13800
H  -2.73100 38.06300 31.65200
H  -1.90800 33.29800 30.90400
H  -3.57000 33.11100 31.56000
H  -2.60100 35.21300 33.06500
H  -1.23100 34.18500 32.99300
H  -0.02300 40.48900 27.82100
H  1.62400 39.88400 27.43700
H  0.77000 39.16500 28.77300
H  1.23000 40.94700 25.63300
H  2.15800 40.96600 23.99300
H  2.87300 40.18600 25.28700
H  -0.37800 34.22100 21.80700
H  -3.22300 34.72500 21.25100
H  -0.10900 36.15500 20.28800
H  -1.40600 36.88500 21.06000
H  -1.86400 35.63300 19.85100
H  -2.36400 31.99300 21.96800
H  -1.43600 32.63200 20.59100
H  -2.90700 32.10900 19.21800
H  -4.05500 33.15200 19.92500
H  -3.99500 31.45200 20.52600
H  -6.79100 31.53600 24.12800
H  -6.26700 29.99700 25.00600
H  -5.31800 30.61300 23.76700
H  -4.74300 32.02800 30.01900
H  -7.00900 34.22200 32.74400
H  -8.13900 32.94800 32.38100
H  -8.16500 34.53600 31.45600

