158

Mg 49.97600 47.61700 43.45200
C  46.67900 47.83300 42.37300
C  50.13100 44.56800 41.88700
C  53.26500 47.49900 44.13400
C  49.89100 51.00300 44.48800
N  48.37500 46.19800 42.42100
C  47.15200 46.60400 42.01000
C  46.52900 45.51600 41.11800
C  47.55800 44.34000 41.19200
C  48.80300 45.07200 41.77800
C  47.22200 43.11300 42.07700
C  46.17100 45.92000 39.66400
C  44.79200 45.44700 39.16100
H  44.84600 44.44500 37.95100
N  51.47300 46.24700 43.02700
C  51.28300 45.04600 42.38300
C  52.61400 44.44400 42.24900
C  53.62700 45.33200 42.71800
C  52.76400 46.41700 43.34600
C  52.82500 43.04200 41.68000
C  55.15600 45.25800 42.69500
O  55.62700 44.29900 42.18400
C  56.08300 46.26200 43.33200
N  51.37000 49.16200 43.98100
C  52.57700 48.72100 44.47100
C  53.26600 49.89800 45.28700
C  52.15600 51.02500 45.36000
C  51.07500 50.39100 44.50700
C  53.82100 49.62500 46.68200
C  52.65500 52.49000 45.08900
C  52.67500 53.03500 43.71200
N  48.59100 49.20900 43.46100
C  48.69000 50.48400 43.84500
C  47.32600 51.11300 43.70200
C  46.57000 50.14800 43.07400
C  47.38700 48.97900 42.96100
C  46.94200 52.56100 44.17300
C  45.30700 49.85700 42.57800
O  44.29000 50.51100 42.46600
C  45.35000 48.40100 42.02600
C  44.35000 47.64600 42.79400
O  44.17400 47.56100 43.97300
O  43.53600 47.06200 41.85100
C  42.34500 46.40800 42.37100
H  50.26700 43.66600 41.28600
H  54.24500 47.43700 44.61100
H  49.82300 51.93000 45.06100
H  45.55400 45.26100 41.53300
H  47.83400 44.01400 40.18900
H  47.26800 42.27500 41.38100
H  46.16300 43.07000 42.33400
H  47.77300 43.01800 43.01300
H  46.97700 45.54100 39.03500
H  46.16700 47.00900 39.62400
H  44.30400 46.38800 38.90700
H  44.13700 45.02300 39.92200
H  53.20400 42.97300 40.66000
H  51.90400 42.46000 41.71700
H  53.62400 42.48700 42.17100
H  55.96300 46.34000 44.41300
H  55.85300 47.24700 42.92400
H  57.07100 45.88100 43.07300
H  53.96100 50.34100 44.57300
H  51.76500 51.11300 46.37400
H  53.24400 49.79700 47.59100
H  54.69000 50.22300 46.95700
H  54.15000 48.58700 46.66700
H  53.61400 52.64000 45.58500
H  51.93700 53.11800 45.61500
H  53.68200 53.43600 43.60400
H  51.99000 53.87300 43.58300
H  52.49600 52.31600 42.91200
H  46.98100 52.54000 45.26300
H  45.94500 52.83600 43.83100
H  47.69400 53.30300 43.90300
H  45.12200 48.29800 40.96500
H  42.49400 45.44500 42.86000
H  41.67000 46.23800 41.53100
H  41.72400 47.08800 42.95400
Mg 1.10100 42.05500 25.53200
C  3.49100 41.97200 28.17800
C  -1.27100 41.46500 27.97600
C  -1.24600 42.08700 23.17400
C  3.58300 42.57200 23.37900
N  1.17600 41.69500 27.78600
C  2.19800 41.80400 28.63700
C  1.76900 41.86900 30.11900
C  0.32400 41.24000 29.99500
C  0.02200 41.44100 28.44900
C  0.16800 39.76400 30.59100
C  1.77600 43.29500 30.78600
C  2.14600 43.19700 32.26700
H  0.99800 43.58100 33.13800
N  -1.02300 41.72000 25.58400
C  -1.80100 41.56800 26.68100
C  -3.21600 41.57500 26.29400
C  -3.24200 41.60400 24.84000
C  -1.79600 41.79900 24.45700
C  -4.38800 41.45400 27.27800
C  -4.46600 41.60000 23.97500
O  -4.37000 41.69800 22.77900
C  -5.80800 41.53200 24.55200
N  1.19600 42.12900 23.59500
C  0.08500 42.10900 22.78800
C  0.49600 42.34600 21.34600
C  1.98100 42.85900 21.44900
C  2.36200 42.47300 22.89600
C  0.32800 41.16200 20.39400
C  2.11700 44.43400 21.36200
C  2.63200 44.96500 19.99900
N  3.14200 42.21200 25.68900
C  4.05300 42.51000 24.71000
C  5.42700 42.63100 25.20800
C  5.21600 42.42000 26.61700
C  3.83400 42.22900 26.80500
C  6.67000 42.71400 24.33000
C  5.87700 42.31000 27.90100
O  7.13400 42.35600 28.09100
C  4.74300 42.27000 28.94700
C  4.96300 41.29700 29.97700
O  5.07700 40.08000 29.79400
O  4.88200 41.91000 31.18500
C  5.11900 41.05000 32.36700
H  -1.94600 41.21000 28.79600
H  -2.04100 42.25600 22.44500
H  4.38900 42.65800 22.64700
H  2.44800 41.15700 30.58800
H  -0.43300 41.82500 30.51800
H  0.95700 39.38500 31.23900
H  0.45500 39.07900 29.79400
H  -0.82300 39.58000 31.00600
H  0.78300 43.71900 30.63500
H  2.41800 43.97800 30.22900
H  2.88900 43.97500 32.44400
H  2.57700 42.23500 32.54700
H  -4.89200 42.39500 27.49900
H  -3.96400 41.04700 28.19500
H  -5.11000 40.67300 27.04100
H  -6.50100 41.54600 23.71000
H  -6.06600 42.41600 25.13500
H  -5.94700 40.65400 25.18300
H  -0.08300 43.13500 20.86500
H  2.73200 42.34600 20.84900
H  1.18100 41.01700 19.73100
H  -0.63100 41.24300 19.88300
H  0.31600 40.33200 21.10000
H  2.74300 44.76500 22.19000
H  1.13600 44.88100 21.52200
H  1.83300 45.54600 19.53900
H  3.05400 44.13600 19.43100
H  3.39400 45.70300 20.25200
H  6.56100 43.67200 23.82100
H  6.58700 41.83500 23.69100
H  7.53700 42.64800 24.98700
H  4.72700 43.27200 29.37400
H  6.10700 41.32400 32.73600
H  5.17300 39.98700 32.12900
H  4.37800 41.21100 33.15000

