158

Mg 16.51100 51.55500 26.79900
C  18.31000 50.39300 29.63200
C  13.98800 52.43900 28.91000
C  14.65300 52.70100 24.07500
C  18.88700 50.14300 24.86000
N  16.13200 51.09300 29.06000
C  17.03600 50.77100 30.00900
C  16.44600 51.05000 31.44900
C  14.94100 51.53800 31.11800
C  14.99100 51.77200 29.62100
C  13.95400 50.38400 31.50000
C  17.27900 52.17000 32.19600
C  17.83100 51.89900 33.63700
H  16.92200 52.48100 34.72500
N  14.59400 52.38700 26.49000
C  13.74700 52.68900 27.53900
C  12.65100 53.51600 27.05900
C  12.80200 53.60200 25.69300
C  14.11100 52.96000 25.33900
C  11.46300 53.98400 27.92200
C  11.87300 54.17300 24.64200
O  12.27000 54.31600 23.48200
C  10.44400 54.74300 24.95300
N  16.71400 51.41800 24.76500
C  15.77800 51.90600 23.78200
C  16.41900 51.84300 22.41300
C  17.91900 51.09600 22.68100
C  17.88300 50.82700 24.17800
C  15.49300 51.23500 21.34400
C  19.12200 51.97700 22.24400
C  19.35800 53.35100 22.93700
N  18.20200 50.57200 27.10800
C  19.06100 49.97700 26.22800
C  20.25800 49.36700 26.87100
C  19.93800 49.53000 28.20700
C  18.72300 50.23300 28.32500
C  21.39300 48.63100 26.28200
C  20.37900 49.24400 29.54300
O  21.36900 48.62600 29.86100
C  19.46300 49.87200 30.51800
C  19.09300 48.85600 31.54300
O  18.31800 47.88500 31.49100
O  19.68500 49.21000 32.72900
C  19.44900 48.36200 33.93500
H  13.23600 52.79800 29.61400
H  14.15000 52.93800 23.13500
H  19.58700 49.77600 24.10800
H  16.39300 50.12300 32.01900
H  14.66100 52.47000 31.60900
H  13.08300 50.80100 32.00600
H  14.33800 49.72700 32.28100
H  13.75600 49.76700 30.62400
H  16.63900 53.03200 32.38400
H  18.03600 52.46500 31.46900
H  18.83400 52.32300 33.69600
H  17.90400 50.82200 33.78300
H  11.47100 55.06400 27.77700
H  11.49200 53.81400 28.99800
H  10.52500 53.49900 27.64900
H  9.65700 54.00100 24.81900
H  10.29300 55.48500 24.17000
H  10.45700 55.23900 25.92400
H  16.62000 52.88700 22.17300
H  18.04900 50.20500 22.06800
H  14.48700 51.26300 21.76300
H  15.81500 50.20600 21.18500
H  15.36000 51.84800 20.45200
H  18.77000 52.23800 21.24600
H  20.01500 51.35300 22.19800
H  18.74300 53.53800 23.81800
H  19.02400 54.15300 22.27700
H  20.43000 53.43000 23.11400
H  21.80600 47.90200 26.97900
H  22.15400 49.32900 25.93400
H  21.10900 48.13100 25.35600
H  19.87300 50.71600 31.07300
H  19.60500 47.31400 33.67700
H  18.44900 48.45200 34.36000
H  20.16100 48.64600 34.71000
Mg 9.21200 48.49500 25.46000
C  6.91800 48.91200 28.08500
C  11.83100 49.22400 27.49500
C  11.22400 48.16100 22.69300
C  6.39800 47.88300 23.23500
N  9.32300 49.14800 27.49000
C  8.36000 49.03900 28.46500
C  8.93000 49.14400 29.90600
C  10.36700 49.63600 29.60500
C  10.56900 49.33800 28.09900
C  10.63100 51.17500 29.88700
C  8.70000 47.91600 30.77200
C  9.51300 47.76500 32.03600
H  8.75800 47.05900 33.19600
N  11.20000 48.67800 25.15900
C  12.15000 48.93100 26.14300
C  13.46000 48.71200 25.66800
C  13.34100 48.29300 24.26600
C  11.84900 48.39400 23.95800
C  14.65100 48.86100 26.56400
C  14.48700 47.86500 23.35600
O  14.28900 47.56500 22.20400
C  15.88700 47.89600 23.81100
N  8.81200 48.15800 23.17400
C  9.85100 47.99800 22.33400
C  9.33300 47.53900 20.94800
C  7.76100 47.47600 21.05300
C  7.60900 47.73600 22.58100
C  9.81300 48.37800 19.77500
C  7.04200 46.11800 20.55200
C  5.82900 46.31500 19.68000
N  7.15800 48.50700 25.58700
C  6.15900 48.27300 24.56600
C  4.90000 48.35200 25.20100
C  5.11800 48.65500 26.54300
C  6.49600 48.75200 26.71800
C  3.59900 48.20100 24.49800
C  4.50500 48.97600 27.81700
O  3.35300 49.22900 28.08100
C  5.70200 49.03000 28.90800
C  5.45800 47.86200 29.73200
O  5.67100 46.65700 29.46500
O  5.04200 48.30000 30.99200
C  4.81700 47.40600 32.17200
H  12.58900 49.46200 28.24500
H  11.93800 47.88100 21.91600
H  5.55300 47.56000 22.62400
H  8.31500 49.95000 30.30700
H  11.06800 49.03900 30.18900
H  9.78500 51.61300 30.41500
H  10.69900 51.65100 28.90900
H  11.48000 51.26200 30.56500
H  8.87100 47.04800 30.13500
H  7.64100 47.82900 31.01500
H  9.85700 48.72800 32.41500
H  10.39000 47.18400 31.75400
H  14.33400 48.97900 27.60000
H  15.21100 49.72400 26.20200
H  15.29400 47.98300 26.49500
H  16.06100 47.26400 24.68100
H  16.24700 48.90200 24.02300
H  16.55200 47.41400 23.09400
H  9.50900 46.46500 20.89300
H  7.33400 48.36800 20.59300
H  10.47700 49.13500 20.19100
H  9.00200 48.93900 19.31000
H  10.18200 47.83800 18.90300
H  6.72600 45.58500 21.44800
H  7.73000 45.44400 20.04100
H  5.82800 45.80700 18.71600
H  5.68200 47.34200 19.34500
H  4.93200 45.99600 20.21100
H  3.11600 47.30600 24.89100
H  3.60100 48.30400 23.41300
H  3.05000 49.06400 24.87500
H  5.81300 49.98300 29.42300
H  5.07600 46.36700 31.97200
H  3.78100 47.37400 32.51100
H  5.53800 47.64300 32.95400

