158

Mg 47.95900 34.91300 27.41200
C  46.51900 33.23500 30.19100
C  48.39600 37.60100 29.30900
C  49.00900 36.51800 24.71700
C  47.21400 32.07000 25.51700
N  47.35600 35.41200 29.49100
C  47.01200 34.51200 30.47500
C  47.21400 35.19500 31.84100
C  47.40700 36.71100 31.44400
C  47.76300 36.58100 29.96400
C  46.14300 37.55000 31.75800
C  48.49500 34.54300 32.44300
C  48.52300 34.47100 33.91500
H  47.66000 35.34100 34.90400
N  48.66900 36.80100 27.05400
C  48.76900 37.76800 27.99400
C  49.30100 38.93000 27.44800
C  49.59000 38.68400 26.08400
C  49.08300 37.28700 25.91800
C  49.49000 40.16200 28.22000
C  50.20000 39.53500 25.00600
O  50.32400 39.20600 23.78500
C  50.65900 40.90700 25.36700
N  48.05700 34.35200 25.34400
C  48.56100 35.22000 24.46100
C  48.65400 34.55000 23.07000
C  48.05500 33.17600 23.34100
C  47.82800 33.11900 24.85600
C  48.10300 35.28400 21.86100
C  48.86600 31.96700 22.76800
C  48.21600 30.89900 21.91100
N  47.04300 33.14700 27.70200
C  46.74800 32.08800 26.83000
C  46.14300 30.95800 27.50400
C  46.00600 31.45500 28.81200
C  46.57000 32.71100 28.86600
C  45.73600 29.61700 27.00600
C  45.41600 31.04100 30.11100
O  44.88700 30.03500 30.44800
C  45.80800 32.21400 31.08800
C  46.53400 31.65100 32.24100
O  47.69900 31.34800 32.24300
O  45.67800 31.50700 33.31100
C  46.11800 31.02200 34.59500
H  48.57000 38.49100 29.91600
H  49.57400 37.02900 23.93400
H  47.10700 31.18000 24.89400
H  46.35200 34.99900 32.47800
H  48.26300 37.16600 31.94300
H  46.36100 38.22400 32.58700
H  45.21000 37.04300 32.00600
H  45.97000 38.17600 30.88300
H  49.39400 35.09600 32.16900
H  48.75100 33.53900 32.10600
H  49.54900 34.69700 34.20400
H  48.37200 33.41500 34.13900
H  50.23600 39.93900 28.98400
H  48.54300 40.45000 28.67600
H  49.83500 41.05300 27.69600
H  51.41200 40.97300 26.15300
H  49.73400 41.40800 25.65400
H  51.14500 41.33200 24.48900
H  49.68800 34.35900 22.78300
H  47.05800 33.05300 22.92000
H  48.87600 35.44500 21.11000
H  47.59300 36.19800 22.16400
H  47.42500 34.59600 21.35700
H  49.10600 31.56000 23.75100
H  49.74400 32.36000 22.25400
H  48.01300 29.96400 22.43300
H  48.78700 30.77600 20.99100
H  47.21100 31.22000 21.63600
H  46.10100 29.44500 25.99400
H  44.67000 29.48900 27.19500
H  46.11500 28.82300 27.65000
H  44.90700 32.65500 31.51400
H  45.41700 30.27100 34.96000
H  46.18500 31.77200 35.38200
H  47.12400 30.61300 34.50300
Mg 6.80600 53.38600 41.09200
C  6.33500 49.92300 40.61400
C  9.92000 52.92800 39.94800
C  7.00300 56.68200 40.94800
C  3.45500 53.55900 42.18600
N  8.01600 51.57000 40.23700
C  7.60800 50.28100 40.15500
C  8.78800 49.39900 39.66300
C  10.02100 50.35500 39.74200
C  9.29600 51.68900 39.91000
C  11.13000 50.04300 40.80700
C  8.65300 48.78600 38.20700
C  8.33900 49.82700 37.08100
H  7.20500 49.42600 36.24500
N  8.30400 54.65300 40.50500
C  9.53400 54.24500 40.12700
C  10.33700 55.41600 39.84200
C  9.52000 56.56200 40.08400
C  8.21500 56.00900 40.50000
C  11.74200 55.50900 39.18300
C  10.03000 57.97600 40.06900
O  11.20800 58.17200 39.86800
C  9.15800 59.10900 40.36500
N  5.38600 54.89800 41.32300
C  5.71400 56.20000 41.26600
C  4.56800 57.10500 41.78200
C  3.51000 56.13200 42.38500
C  4.12200 54.74600 41.92300
C  5.01100 58.16100 42.92700
C  2.00200 56.44600 42.03800
C  0.95400 56.30200 43.27300
N  5.17000 52.06300 41.31900
C  3.88000 52.26000 41.82400
C  3.15800 51.02800 41.96700
C  4.15100 50.08900 41.57900
C  5.29700 50.74700 41.16100
C  1.76800 50.72800 42.50600
C  4.32700 48.62700 41.49400
O  3.58200 47.69000 41.79900
C  5.81600 48.44900 41.00700
C  5.65600 47.55100 39.81900
O  5.00300 47.84700 38.87200
O  6.35000 46.37500 39.95500
C  6.37700 45.52200 38.68000
H  10.93800 52.78500 39.57900
H  6.95600 57.75600 41.13800
H  2.46000 53.67300 42.62000
H  8.81500 48.54400 40.33900
H  10.44000 50.42500 38.73800
H  11.05700 50.77800 41.60800
H  12.12200 50.03100 40.35400
H  10.87900 49.10300 41.29800
H  7.79200 48.12500 38.31300
H  9.54100 48.20400 37.96300
H  9.20900 49.87400 36.42700
H  8.24200 50.83700 37.47800
H  11.97700 54.58500 38.65400
H  12.52700 55.69200 39.91600
H  11.83300 56.29300 38.43200
H  8.28600 59.09700 39.71200
H  9.75400 60.02100 40.33800
H  8.82900 59.04100 41.40200
H  4.17200 57.67600 40.94200
H  3.62600 55.99500 43.46000
H  6.01700 57.99000 43.31200
H  4.37300 58.10300 43.80900
H  5.06300 59.15900 42.49200
H  1.67700 55.69900 41.31500
H  1.95700 57.42700 41.56400
H  0.30900 57.17800 43.34400
H  1.55100 56.26300 44.18300
H  0.34900 55.39600 43.31200
H  1.48400 49.75400 42.10900
H  1.03300 51.49200 42.25300
H  1.66200 50.67700 43.59000
H  6.35800 47.83500 41.72600
H  7.43100 45.26700 38.57300
H  6.15400 46.00300 37.72700
H  5.68600 44.68000 38.71800

