158

Mg 47.52300 25.40900 28.24800
C  48.23300 27.54900 30.95900
C  46.96300 22.79000 30.55200
C  47.24000 23.32400 25.61600
C  48.90900 27.84600 26.16300
N  47.55800 25.24800 30.44500
C  47.69600 26.29100 31.30900
C  47.38700 25.92900 32.72300
C  47.17500 24.33700 32.61600
C  47.25600 24.02100 31.10700
C  48.02000 23.38000 33.51200
C  46.24200 26.73200 33.30400
C  45.90400 26.54900 34.76100
H  45.83800 27.86100 35.63400
N  47.01700 23.37600 28.04900
C  46.85800 22.45000 29.13000
C  46.41200 21.27700 28.57100
C  46.43700 21.41700 27.09600
C  46.90700 22.75400 26.84200
C  46.00800 20.08200 29.36700
C  46.01500 20.46300 26.01200
O  46.07400 20.70600 24.77100
C  45.44200 19.14600 26.38600
N  48.16800 25.56900 26.19200
C  47.79200 24.61500 25.29100
C  48.01000 25.03300 23.90400
C  48.61600 26.40500 24.04300
C  48.57000 26.68900 25.52400
C  48.73700 23.92400 23.01500
C  47.87400 27.48400 23.24200
C  48.66100 28.77800 22.82500
N  48.33100 27.34700 28.40100
C  48.86600 28.19300 27.50600
C  49.44600 29.41000 28.17400
C  49.15700 29.22400 29.51900
C  48.50900 27.95300 29.59600
C  50.22600 30.50600 27.59500
C  49.24900 29.81400 30.86700
O  49.81600 30.82200 31.22900
C  48.50200 28.83100 31.81600
C  49.48600 28.55500 32.93000
O  50.61200 28.17300 32.83700
O  48.80200 28.76800 34.01300
C  49.53800 28.53500 35.27500
H  46.77900 22.06100 31.34500
H  47.10400 22.72800 24.71100
H  49.32200 28.58500 25.47200
H  48.30100 26.20800 33.24700
H  46.14100 24.23600 32.94700
H  47.42200 22.54800 33.88400
H  48.62000 23.93700 34.23200
H  48.73800 22.77600 32.95700
H  45.32700 26.44700 32.78600
H  46.42400 27.80000 33.17600
H  46.46000 25.76900 35.28300
H  44.92200 26.07800 34.78200
H  46.72000 19.28500 29.15600
H  44.96900 19.78900 29.21400
H  46.06900 20.22300 30.44600
H  44.50700 19.18900 26.94400
H  46.18000 18.51700 26.88400
H  45.26700 18.70900 25.40300
H  46.96500 25.03800 23.59400
H  49.66700 26.40800 23.75400
H  48.96300 23.20100 23.79800
H  49.69800 24.23200 22.60300
H  48.02300 23.59400 22.26100
H  46.96700 27.78600 23.76600
H  47.40500 27.06700 22.35100
H  49.73600 28.66100 22.96600
H  48.24700 29.60600 23.39900
H  48.59700 29.01400 21.76200
H  51.26000 30.56000 27.93600
H  49.62000 31.35500 27.91200
H  50.40000 30.49900 26.51900
H  47.56500 29.29300 32.12900
H  49.12700 29.18700 36.04600
H  50.56800 28.88700 35.33000
H  49.35100 27.50100 35.56400
Mg 30.61700 58.21700 38.97900
C  27.93200 56.23100 37.97100
C  32.69600 55.43700 38.43100
C  33.32600 60.22600 39.23300
C  28.43100 61.05600 38.79800
N  30.26200 56.07700 38.33900
C  29.11600 55.50800 37.83600
C  29.36600 54.06300 37.32900
C  30.81600 53.74600 37.84900
C  31.33600 55.20900 38.11300
C  30.98100 52.78300 39.08300
C  29.18300 53.86400 35.74600
C  29.15600 55.22100 34.92900
H  27.98200 55.48700 33.98200
N  32.74100 57.84600 38.98200
C  33.34100 56.62400 38.75200
C  34.80200 56.82900 38.75500
C  34.97000 58.22900 38.98100
C  33.68600 58.83800 39.01300
C  35.78400 55.69500 38.45500
C  36.31400 58.95700 39.05600
O  37.36400 58.27600 39.00500
C  36.52700 60.40100 39.46100
N  30.84200 60.23900 39.05300
C  32.03400 60.87100 39.32000
C  31.93000 62.40100 39.39600
C  30.40300 62.56600 39.14100
C  29.85500 61.19100 38.97700
C  32.43300 63.11800 40.71200
C  30.13100 63.50000 37.86600
C  30.51200 64.98400 38.06200
N  28.57000 58.61400 38.67000
C  27.85000 59.75100 38.58900
C  26.41600 59.38900 38.29000
C  26.50000 57.98400 38.11000
C  27.80000 57.60900 38.29200
C  25.26200 60.30300 38.18400
C  25.69100 56.90700 37.63900
O  24.48400 56.99400 37.36900
C  26.57500 55.64100 37.50900
C  26.01700 54.65500 38.59700
O  26.29900 54.64600 39.82400
O  25.38300 53.59900 37.97600
C  25.25400 52.43200 38.81500
H  33.38100 54.59600 38.30400
H  34.09900 60.98100 39.39400
H  27.64200 61.81000 38.81600
H  28.63700 53.33500 37.68500
H  31.40700 53.30200 37.04700
H  29.99000 52.44900 39.38900
H  31.29900 53.47600 39.86200
H  31.80600 52.11000 38.85100
H  28.16000 53.51200 35.62000
H  29.98200 53.25700 35.32000
H  30.04500 55.30000 34.30300
H  29.16800 56.13000 35.53000
H  35.40700 55.27900 37.52100
H  35.80200 54.95900 39.25800
H  36.75300 56.09600 38.15800
H  35.89300 60.69500 40.29800
H  36.38300 61.02600 38.58000
H  37.58500 60.50300 39.70100
H  32.56900 62.86300 38.64400
H  29.84300 63.06100 39.93300
H  31.65600 63.72400 41.17700
H  33.28300 63.72200 40.39300
H  32.72300 62.25800 41.31500
H  29.04400 63.50600 37.78800
H  30.61700 63.16200 36.95100
H  31.11000 64.98900 38.97300
H  29.61900 65.60600 38.12800
H  31.17300 65.60800 37.45900
H  24.28900 59.81400 38.13900
H  25.45300 60.96000 37.33600
H  25.20800 61.00800 39.01300
H  26.66800 55.23500 36.50200
H  26.27400 52.19300 39.11700
H  24.77200 51.64200 38.23900
H  24.63500 52.53800 39.70600

