158

Mg 41.06100 9.24200 29.82500
C  42.93100 10.35400 32.56700
C  38.81300 7.88500 31.86100
C  39.71400 7.96100 27.10700
C  44.05400 9.91800 27.88900
N  40.83500 9.18600 31.96000
C  41.70300 9.80800 32.93900
C  41.00000 9.68100 34.33300
C  39.84900 8.64700 34.02000
C  39.80200 8.55300 32.54000
C  39.93200 7.25800 34.74500
C  40.56700 11.09500 34.84700
C  39.78800 11.10500 36.19600
H  40.31400 11.79700 37.42000
N  39.37800 8.16500 29.50600
C  38.50900 7.67700 30.44300
C  37.39200 7.12200 29.82100
C  37.57900 7.21300 28.36400
C  38.95600 7.75300 28.28400
C  36.21000 6.47700 30.63200
C  36.61500 6.90700 27.25200
O  36.91800 6.85300 26.04500
C  35.11200 6.54500 27.56900
N  41.80500 9.05800 27.72900
C  40.95400 8.50600 26.77600
C  41.66700 8.52800 25.41700
C  43.00700 9.39800 25.71100
C  42.98200 9.39500 27.21400
C  41.86500 7.04700 24.74800
C  43.09400 10.86500 25.15600
C  41.86500 11.81200 25.41300
N  43.00400 10.04200 30.09700
C  44.09200 10.26000 29.21600
C  45.13900 10.91900 29.85000
C  44.73100 10.98900 31.17900
C  43.43200 10.45100 31.26900
C  46.36300 11.42400 29.22600
C  45.04700 11.45000 32.56800
O  46.02900 12.13200 32.89900
C  43.93800 11.04100 33.53000
C  44.50900 10.16200 34.50100
O  45.13300 9.17900 34.22300
O  44.14700 10.52300 35.78300
C  44.22900 9.59100 36.90500
H  38.07100 7.55100 32.59000
H  39.26800 7.57300 26.18900
H  44.87800 10.13700 27.20700
H  41.71000 9.17200 34.98400
H  38.86300 8.99700 34.32500
H  39.50100 7.35800 35.74200
H  40.97700 6.97700 34.87200
H  39.41400 6.48400 34.17900
H  39.95700 11.57500 34.08200
H  41.49000 11.65700 34.98800
H  39.55900 10.05400 36.36600
H  38.84300 11.53500 35.86400
H  35.98300 5.48500 30.24300
H  35.33200 7.12300 30.65500
H  36.51200 6.32000 31.66800
H  34.62300 6.42800 26.60300
H  34.59000 7.40000 27.99900
H  35.05600 5.55600 28.02200
H  41.09500 9.01800 24.62900
H  43.94100 8.90200 25.44500
H  41.32000 7.04500 23.80500
H  41.55200 6.27500 25.45100
H  42.94100 6.91800 24.63700
H  43.05600 10.78000 24.07000
H  43.98900 11.41800 25.43900
H  42.10600 12.56700 26.16100
H  41.09200 11.15600 25.81400
H  41.65900 12.23700 24.43100
H  46.13200 11.99600 28.32800
H  47.06700 10.66200 28.89300
H  46.96800 12.01600 29.91200
H  43.58800 11.96100 33.99700
H  45.30200 9.50100 37.07400
H  43.69300 8.67000 36.67600
H  43.77700 9.96600 37.82400
Mg 35.47800 48.13200 24.78300
C  36.28000 46.55800 27.87200
C  34.48300 50.91400 26.57700
C  34.41600 49.46500 21.88200
C  36.65400 45.29100 23.20700
N  35.36100 48.63300 27.05600
C  35.74500 47.84700 28.08500
C  35.46700 48.61900 29.37400
C  34.76400 49.95300 29.00300
C  34.88600 49.86600 27.46000
C  33.23400 50.04400 29.40900
C  36.72900 48.88600 30.22700
C  36.73900 48.70500 31.85800
H  35.34800 48.66200 32.50400
N  34.61700 49.95200 24.30100
C  34.33700 51.00200 25.15500
C  33.69200 52.04000 24.47400
C  33.46500 51.61000 23.12700
C  34.20300 50.35300 22.99100
C  33.39300 53.34100 25.10400
C  32.63100 52.23200 22.05400
O  32.45600 51.78400 20.94700
C  31.88500 53.55100 22.37200
N  35.32000 47.42700 22.87200
C  34.98200 48.18400 21.76400
C  35.52200 47.59200 20.48200
C  36.40800 46.40800 20.86200
C  36.21200 46.37100 22.40800
C  34.35100 47.20600 19.48500
C  37.90400 46.30800 20.44800
C  39.09900 46.80700 21.30400
N  36.32300 46.24700 25.35500
C  36.69700 45.17600 24.67900
C  37.11500 44.15300 25.47800
C  36.91200 44.59800 26.83500
C  36.42900 45.91400 26.65600
C  37.73600 42.94500 24.94700
C  37.06300 44.27100 28.23200
O  37.41600 43.25400 28.83300
C  36.44300 45.52300 28.96400
C  35.17200 45.10000 29.59800
O  34.04300 45.34800 29.08300
O  35.42400 44.67900 30.80900
C  34.24800 44.44600 31.62900
H  34.37400 51.85700 27.11700
H  34.10800 49.89600 20.92700
H  37.14500 44.40500 22.79900
H  34.74500 47.96500 29.86400
H  35.22100 50.88700 29.33000
H  33.21400 50.89300 30.09200
H  32.95900 49.15300 29.97400
H  32.65500 50.21000 28.50100
H  37.16300 49.88600 30.19000
H  37.52900 48.22800 29.88900
H  37.22800 49.56700 32.31100
H  37.40400 47.84900 31.97300
H  33.76300 54.13800 24.45900
H  33.85900 53.55800 26.06500
H  32.33500 53.47100 25.32800
H  32.52400 54.42200 22.51600
H  31.27900 53.46800 23.27400
H  31.26600 53.79900 21.50900
H  36.13100 48.37500 20.02900
H  36.01600 45.44100 20.54800
H  34.19400 47.99300 18.74800
H  33.44600 47.14000 20.08800
H  34.67000 46.31900 18.93600
H  37.84100 46.88900 19.52800
H  38.14800 45.29800 20.11700
H  39.59500 47.65300 20.82800
H  39.87700 46.07200 21.51400
H  38.75400 47.25300 22.23700
H  37.86400 42.23900 25.76800
H  38.76300 43.19500 24.68200
H  37.13900 42.62800 24.09200
H  37.08400 45.86900 29.77500
H  33.66600 43.70800 31.07600
H  33.71300 45.39300 31.70200
H  34.47400 44.02700 32.60900

