158

Mg 8.92800 2.95000 27.12600
C  10.23600 1.48100 30.04300
C  7.28800 5.17600 29.23900
C  7.52900 4.33100 24.43900
C  10.56000 0.66500 25.20600
N  8.62500 3.18200 29.51000
C  9.41300 2.55500 30.41900
C  9.19600 3.16700 31.83800
C  8.05200 4.28200 31.58300
C  7.94900 4.26900 30.03200
C  6.69900 4.14100 32.27400
C  10.53500 3.66500 32.52700
C  10.42600 4.33900 33.86700
H  11.16300 3.66900 35.03200
N  7.59000 4.43400 26.87200
C  7.01600 5.25300 27.86200
C  6.16400 6.30200 27.22800
C  6.27500 6.15100 25.82400
C  7.12500 4.92200 25.64200
C  5.19300 7.19600 28.00800
C  5.62100 6.94300 24.74900
O  5.79600 6.65900 23.53500
C  4.86600 8.22500 25.07400
N  9.15200 2.64900 25.06000
C  8.37100 3.28600 24.18100
C  8.57100 2.67000 22.78800
C  9.68100 1.61600 22.97600
C  9.85200 1.65100 24.49900
C  7.25200 2.10400 22.24000
C  11.11000 2.02300 22.31300
C  11.31900 1.26600 20.98400
N  9.95700 1.24200 27.48300
C  10.60400 0.45600 26.63300
C  11.38400 -0.55500 27.36800
C  11.28300 -0.17800 28.73100
C  10.43900 0.99100 28.71500
C  11.94700 -1.85000 26.89000
C  11.63800 -0.54100 30.14200
O  12.30600 -1.38300 30.64000
C  11.08700 0.57600 30.94600
C  10.27100 0.00900 32.10300
O  9.13500 -0.30700 32.06500
O  11.02800 0.01100 33.26800
C  10.36300 -0.26400 34.49400
H  6.95700 6.05700 29.79300
H  7.22400 4.76600 23.48500
H  11.25200 0.04300 24.63500
H  8.73000 2.50100 32.56400
H  8.41400 5.24200 31.95100
H  5.81100 4.02600 31.65300
H  6.42100 4.98300 32.90800
H  6.81700 3.33100 32.99500
H  11.07900 4.26000 31.79400
H  11.12100 2.75700 32.67300
H  9.34900 4.40200 34.02100
H  10.84200 5.34000 33.75100
H  4.19900 6.96900 27.62300
H  5.21500 8.27800 27.87400
H  5.22700 6.97300 29.07400
H  5.45700 8.87100 25.72400
H  3.91700 7.92200 25.51500
H  4.57100 8.84300 24.22600
H  8.81100 3.43100 22.04500
H  9.21100 0.69600 22.62700
H  6.42400 2.68100 22.65200
H  7.11400 1.05400 22.50000
H  7.22100 2.30100 21.16900
H  11.99700 1.78700 22.90100
H  11.07500 3.11300 22.31400
H  11.30600 2.08700 20.26800
H  10.49500 0.65400 20.61700
H  12.33000 0.86400 20.91500
H  11.53800 -2.71200 27.41800
H  13.02400 -1.90100 27.05300
H  11.71100 -2.06000 25.84700
H  11.90900 1.10000 31.43400
H  9.32000 -0.58100 34.49000
H  10.33900 0.70900 34.98400
H  10.97800 -0.93100 35.09800
Mg 44.14700 3.36600 47.25900
C  43.33600 6.62400 46.22200
C  40.97700 2.34000 45.94900
C  45.22700 0.22500 47.33700
C  47.44900 4.42700 47.78300
N  42.37900 4.37100 46.24400
C  42.35200 5.73600 45.91600
C  41.03900 5.94300 45.13200
C  40.18000 4.70500 45.49900
C  41.21900 3.75200 45.86200
C  39.10100 4.96000 46.49700
C  41.24600 6.23800 43.62200
C  40.38200 7.35800 42.96800
H  39.32000 6.90800 41.94200
N  43.20400 1.56300 46.83700
C  41.91900 1.33600 46.39500
C  41.57400 -0.07000 46.38000
C  42.86200 -0.73200 46.81700
C  43.83700 0.35600 47.00500
C  40.28300 -0.69000 45.89600
C  43.02900 -2.26700 47.01200
O  42.07100 -3.05200 46.83700
C  44.27300 -2.91200 47.45800
N  46.01000 2.40700 47.69700
C  46.23000 1.11700 47.68700
C  47.62800 0.69600 48.04100
C  48.40300 2.02000 48.14300
C  47.20000 3.05400 47.88700
C  47.63400 -0.12100 49.35600
C  49.59600 2.14200 47.23200
C  50.66600 3.00700 47.80300
N  45.16000 5.17300 47.22500
C  46.51500 5.42000 47.40100
C  46.71600 6.84100 47.30100
C  45.47800 7.37800 46.88100
C  44.57700 6.30000 46.70200
C  47.95400 7.67900 47.66800
C  44.77700 8.57900 46.57100
O  45.15700 9.73500 46.55500
C  43.28700 8.17500 46.16400
C  42.42200 8.81200 47.20300
O  42.56100 8.77500 48.38900
O  41.21900 9.25100 46.63600
C  40.40200 9.99000 47.55600
H  39.97800 1.92800 45.79000
H  45.53900 -0.82200 47.35800
H  48.43500 4.86900 47.94300
H  40.47200 6.75800 45.58200
H  39.66400 4.47800 44.56600
H  38.90300 3.96700 46.90200
H  38.22000 5.45000 46.08200
H  39.58800 5.53200 47.28700
H  40.96600 5.35200 43.05200
H  42.30000 6.27500 43.34800
H  41.02700 8.18600 42.67300
H  39.82800 7.84100 43.77200
H  39.49200 0.05000 46.02200
H  40.03700 -1.52400 46.55200
H  40.34400 -1.07800 44.87900
H  44.73900 -2.60100 48.39300
H  45.02200 -2.92400 46.66600
H  43.97100 -3.95500 47.54900
H  47.96500 0.03800 47.24000
H  48.74500 2.09000 49.17600
H  48.30300 0.38700 50.05100
H  47.92200 -1.16900 49.26800
H  46.65300 -0.09700 49.83200
H  49.29300 2.59700 46.28900
H  49.96300 1.13600 47.03000
H  51.55900 2.46400 48.11100
H  50.32500 3.65200 48.61200
H  50.96500 3.78600 47.10200
H  48.35000 7.60800 48.68100
H  47.70200 8.70900 47.41500
H  48.70200 7.42300 46.91700
H  43.01900 8.51000 45.16200
H  40.68600 11.04200 47.52500
H  40.50900 9.70700 48.60300
H  39.39200 9.77000 47.20900

