158

Mg 54.49400 24.18600 45.43600
C  51.71200 26.26500 44.92100
C  52.70900 21.46600 44.25700
C  57.25700 22.43700 45.56500
C  56.28100 27.12900 46.31500
N  52.44200 23.99900 44.59800
C  51.53100 24.96000 44.37800
C  50.25400 24.36200 43.73800
C  50.49700 22.81500 44.01700
C  51.98600 22.75800 44.21700
C  49.94700 22.23600 45.30000
C  50.25700 24.76000 42.19200
C  48.94400 25.13800 41.44000
H  48.44900 24.18000 40.27400
N  54.85000 22.16900 45.02700
C  54.03000 21.22200 44.52000
C  54.78000 19.96100 44.41600
C  56.09000 20.19600 44.93000
C  56.07500 21.64000 45.24000
C  54.04300 18.64100 44.01000
C  57.18400 19.12300 45.13900
O  56.89800 18.00200 44.74400
C  58.51900 19.48900 45.61600
N  56.55200 24.73900 45.79900
C  57.47300 23.73300 45.87500
C  58.82800 24.35300 46.31700
C  58.52900 25.89400 46.31900
C  57.01300 25.87600 46.24400
C  59.33000 23.62700 47.61600
C  59.06200 26.86000 45.08100
C  60.54100 26.63700 44.70800
N  54.17100 26.28300 45.60400
C  54.97400 27.34900 46.03000
C  54.20600 28.50300 46.10900
C  52.94800 28.16000 45.67000
C  52.91700 26.77100 45.40700
C  54.67400 29.79500 46.50100
C  51.62100 28.75400 45.40300
O  51.15800 29.84100 45.61800
C  50.79700 27.51900 44.82300
C  50.35900 27.89700 43.44200
O  51.20500 28.26000 42.60800
O  48.98700 27.81400 43.27400
C  48.49800 28.30200 41.99600
H  52.00500 20.67600 43.98900
H  58.22300 21.94300 45.68400
H  56.80300 28.03200 46.64000
H  49.38200 24.68400 44.30600
H  50.25100 22.18100 43.16600
H  49.08100 22.78400 45.67200
H  50.65300 22.11100 46.12100
H  49.61100 21.22300 45.07600
H  50.66800 23.88700 41.68500
H  50.90800 25.61800 42.02100
H  49.09000 26.05000 40.86100
H  48.18700 25.29400 42.20800
H  53.56700 18.82700 43.04700
H  53.28600 18.15300 44.62500
H  54.74100 17.83100 43.79700
H  59.13000 20.07300 44.92800
H  59.05700 18.58900 45.91700
H  58.34000 20.00000 46.56200
H  59.55100 24.21000 45.51300
H  58.63500 26.34800 47.30500
H  59.74900 24.37400 48.29000
H  60.08200 22.85300 47.46500
H  58.51700 23.21800 48.21600
H  58.77100 27.87300 45.36100
H  58.54900 26.74000 44.12700
H  60.54900 26.14600 43.73500
H  61.00300 26.04700 45.50000
H  61.15000 27.51700 44.49800
H  54.19400 30.01300 47.45500
H  54.36600 30.35500 45.61800
H  55.73600 30.03000 46.55700
H  49.95300 27.27100 45.46600
H  49.09800 28.01900 41.13100
H  48.63400 29.38400 41.99900
H  47.46000 28.14900 41.69900
Mg 26.53300 50.67500 25.89700
C  24.39300 51.81600 28.56700
C  28.88700 49.97300 28.21800
C  28.57500 49.81300 23.24600
C  24.22900 51.81900 23.67400
N  26.60500 51.03500 28.15900
C  25.55000 51.29200 29.01300
C  25.96000 51.19900 30.48200
C  27.49200 50.74200 30.30300
C  27.74500 50.65500 28.80200
C  28.42700 51.78100 30.85300
C  25.13200 50.10400 31.21300
C  24.88400 50.31800 32.69100
H  26.08000 50.50800 33.68400
N  28.53900 49.98200 25.73200
C  29.31300 49.80200 26.83500
C  30.63600 49.24700 26.41400
C  30.48100 49.05000 24.97300
C  29.16500 49.64500 24.55300
C  31.81700 48.92800 27.38000
C  31.39000 48.35500 23.96500
O  31.28500 48.35300 22.75400
C  32.51800 47.59700 24.49400
N  26.47400 50.83200 23.76800
C  27.37300 50.36800 22.92000
C  26.93800 50.45800 21.48500
C  25.42100 50.84700 21.69500
C  25.38400 51.20900 23.17500
C  27.71000 51.53100 20.58200
C  24.30000 49.73500 21.34400
C  24.70000 48.26400 21.54400
N  24.77400 51.69500 26.04300
C  23.96100 52.07000 24.99300
C  22.81600 52.70100 25.55000
C  22.98900 52.70100 26.92200
C  24.14200 52.05300 27.19500
C  21.58700 53.13200 24.70500
C  22.33600 52.97700 28.20700
O  21.28300 53.46300 28.48300
C  23.25200 52.41500 29.31500
C  23.62200 53.55300 30.14000
O  24.11000 54.60200 29.67600
O  23.47900 53.28600 31.46800
C  23.79000 54.30800 32.40400
H  29.54600 49.55900 28.98400
H  29.11300 49.39000 22.39500
H  23.51500 52.21400 22.94800
H  25.86800 52.11100 31.07200
H  27.63200 49.79900 30.83200
H  28.88700 51.20700 31.65800
H  27.89900 52.61400 31.31700
H  29.20600 52.08100 30.15300
H  25.63700 49.14000 31.27600
H  24.18000 49.94400 30.70600
H  24.54700 49.34200 33.04100
H  24.09300 51.03400 32.91400
H  32.04100 49.79100 28.00600
H  32.72000 48.60500 26.86100
H  31.53200 48.11600 28.04900
H  32.77800 46.91300 23.68600
H  32.24200 46.99900 25.36200
H  33.25700 48.35900 24.74000
H  27.03800 49.45300 21.07600
H  25.22400 51.77900 21.16500
H  28.40700 52.06500 21.22700
H  27.08500 52.27600 20.08800
H  28.28700 50.91900 19.88900
H  24.16100 49.79100 20.26500
H  23.35300 50.06500 21.77200
H  23.86100 47.97900 22.17800
H  25.69600 48.19300 21.97900
H  24.77500 47.67400 20.63100
H  20.65500 53.05600 25.26600
H  21.36000 52.57700 23.79500
H  21.78500 54.12900 24.31000
H  22.51900 51.74300 29.76000
H  24.14400 55.19100 31.87200
H  24.64500 54.02700 33.01900
H  23.00800 54.65300 33.08100

