158

Mg -11.12000 38.82500 42.53600
C  -9.22500 36.32800 41.19500
C  -9.17100 41.21600 40.85100
C  -13.25900 41.27700 43.45300
C  -13.42200 36.49600 43.54100
N  -9.52300 38.78600 41.07800
C  -8.82000 37.63600 40.72800
C  -7.72300 37.93200 39.71100
C  -7.58700 39.46900 39.81600
C  -8.83800 39.85200 40.58100
C  -6.27500 39.87200 40.52600
C  -7.80200 37.34000 38.31200
C  -6.52200 36.60400 37.74400
H  -5.75800 37.42000 36.64700
N  -11.14600 40.99300 42.32000
C  -10.28800 41.77100 41.52800
C  -10.70900 43.08700 41.61400
C  -11.78400 43.22600 42.48600
C  -12.06300 41.81800 42.83000
C  -10.04800 44.13700 40.71800
C  -12.56600 44.49700 42.80900
O  -12.13100 45.53000 42.33300
C  -13.81800 44.57600 43.58000
N  -13.08200 38.90000 43.55700
C  -13.73100 40.00900 43.77200
C  -15.18800 39.68700 44.09500
C  -15.28000 38.21900 44.10000
C  -13.82000 37.84700 43.72200
C  -15.77600 40.25200 45.44700
C  -16.30200 37.57700 43.11400
C  -17.30200 36.61700 43.76300
N  -11.27000 36.79200 42.37200
C  -12.19100 36.01300 43.03400
C  -11.78800 34.64200 42.98000
C  -10.66200 34.66500 42.15400
C  -10.35900 36.01000 41.90500
C  -12.51100 33.37600 43.59900
C  -9.68100 33.90200 41.43800
O  -9.64100 32.69100 41.27700
C  -8.67000 34.89500 40.84100
C  -7.26400 34.66300 41.31700
O  -6.61600 35.29900 42.06500
O  -6.75600 33.55900 40.63600
C  -5.28900 33.42600 40.76400
H  -8.61900 41.90500 40.20900
H  -13.99500 42.01800 43.77100
H  -14.06700 35.63500 43.73100
H  -6.81600 37.48800 40.12400
H  -7.44600 39.88700 38.82000
H  -5.48300 39.17700 40.24500
H  -6.41800 39.89100 41.60600
H  -5.90000 40.86700 40.28500
H  -7.94500 38.13300 37.57800
H  -8.65900 36.66700 38.35600
H  -6.95900 35.70500 37.30900
H  -5.84700 36.27600 38.53500
H  -10.74400 44.86000 40.29200
H  -9.48600 43.76700 39.86000
H  -9.35800 44.73100 41.31700
H  -14.50000 44.11500 42.86600
H  -13.98800 45.63600 43.76500
H  -13.79800 44.05700 44.53900
H  -15.75600 40.22700 43.33700
H  -15.45000 37.89300 45.12600
H  -15.98400 41.31700 45.34800
H  -14.95700 40.17600 46.16300
H  -16.66300 39.72500 45.79800
H  -15.83800 37.03600 42.29000
H  -16.90600 38.35300 42.64500
H  -18.33700 36.95400 43.70800
H  -17.15000 36.33100 44.80400
H  -17.11200 35.65400 43.28900
H  -11.98100 32.42600 43.53200
H  -13.52500 33.38700 43.20000
H  -12.48400 33.84600 44.58200
H  -8.56100 34.74300 39.76800
H  -4.85100 34.41600 40.63500
H  -5.04100 32.79100 39.91400
H  -4.90700 33.01100 41.69600
Mg -6.38700 25.92500 25.69600
C  -4.37700 26.98100 28.31200
C  -7.76800 23.59300 27.85500
C  -7.87700 24.25500 22.96900
C  -4.73100 28.01300 23.62500
N  -6.03600 25.30000 27.81500
C  -5.29200 26.02800 28.74800
C  -5.45400 25.41900 30.12800
C  -6.31300 24.16200 29.80200
C  -6.82500 24.48900 28.41900
C  -5.48100 22.91600 29.85500
C  -6.15000 26.51000 30.98400
C  -5.63200 26.59000 32.43300
H  -4.91600 25.41900 33.12800
N  -7.81900 24.26000 25.49800
C  -8.27800 23.49400 26.53700
C  -9.29900 22.52000 26.06000
C  -9.30500 22.65200 24.60700
C  -8.26400 23.76300 24.29700
C  -10.02500 21.67900 27.02700
C  -10.18400 21.98300 23.50900
O  -10.05500 22.09700 22.31100
C  -11.31700 21.07500 24.02800
N  -6.35900 26.05300 23.64400
C  -6.97200 25.25700 22.70200
C  -6.89800 25.82300 21.27800
C  -5.78200 26.92000 21.51200
C  -5.64300 27.05000 23.01500
C  -6.40100 24.68500 20.20100
C  -6.11100 28.35600 20.87200
C  -5.18100 28.90300 19.76200
N  -4.86000 27.33300 25.86900
C  -4.36900 28.15000 24.94200
C  -3.49900 29.08300 25.61300
C  -3.42000 28.65900 26.92300
C  -4.29300 27.57900 27.04100
C  -2.84500 30.24700 24.93700
C  -2.83400 28.84300 28.22700
O  -1.97900 29.62700 28.66700
C  -3.46400 27.81200 29.18400
C  -2.32400 27.05200 29.73100
O  -1.67700 26.21200 29.13900
O  -2.13700 27.47400 31.03500
C  -1.11800 26.77100 31.81000
H  -8.31600 23.04900 28.62700
H  -8.38000 23.84400 22.09100
H  -4.06700 28.52800 22.92800
H  -4.51000 25.08100 30.55400
H  -7.23600 24.05400 30.37100
H  -5.37500 22.36300 28.92200
H  -5.81600 22.12900 30.53000
H  -4.46300 23.11700 30.19100
H  -7.20700 26.24900 31.03300
H  -6.11200 27.53600 30.61800
H  -6.49300 26.88900 33.03100
H  -4.93400 27.42100 32.53200
H  -9.56200 20.70400 27.17500
H  -11.06200 21.45700 26.77600
H  -10.04900 22.07500 28.04300
H  -11.75600 20.60500 23.14800
H  -11.96700 21.78100 24.54400
H  -10.98800 20.25300 24.66400
H  -7.84900 26.29000 21.01900
H  -4.90200 26.52400 21.00500
H  -5.48600 24.25500 20.60800
H  -6.18200 25.14500 19.23800
H  -7.15000 23.89400 20.14300
H  -6.03200 29.04100 21.71600
H  -7.13900 28.31400 20.51300
H  -4.76900 29.87700 20.02300
H  -5.73700 29.09300 18.84400
H  -4.33100 28.26300 19.52700
H  -2.29200 30.70400 25.75800
H  -3.47700 31.04400 24.54600
H  -2.10500 29.87400 24.22800
H  -4.09600 28.38800 29.86000
H  -0.34700 27.45000 32.17400
H  -0.68000 25.94900 31.24400
H  -1.61800 26.41000 32.70800

