158

Mg 23.71700 -6.22600 47.35600
C  26.30800 -4.41800 46.00700
C  21.54500 -5.08300 44.90200
C  21.37700 -8.74600 48.12600
C  26.02700 -7.83000 49.34800
N  24.06500 -5.01800 45.50000
C  25.15400 -4.36500 45.18800
C  24.89700 -3.27700 44.15200
C  23.35800 -3.61700 43.68300
C  22.92100 -4.63600 44.79400
C  22.48000 -2.31300 43.49900
C  25.88800 -3.44100 43.01200
C  26.83800 -2.18800 42.75500
H  26.78100 -1.62500 41.28500
N  21.65400 -6.72400 46.72700
C  20.95900 -6.04700 45.73200
C  19.63500 -6.64200 45.62400
C  19.57500 -7.79000 46.49000
C  20.87900 -7.78900 47.18300
C  18.59700 -6.25000 44.56300
C  18.44100 -8.81000 46.41400
O  17.51400 -8.63600 45.56300
C  18.38700 -10.08100 47.34900
N  23.74100 -8.10100 48.54000
C  22.63000 -8.85900 48.78800
C  22.99000 -10.02300 49.59900
C  24.43600 -9.66000 50.17200
C  24.80300 -8.50700 49.25700
C  21.93400 -10.36300 50.70000
C  25.45100 -10.87000 50.03100
C  26.72700 -10.91000 50.90400
N  25.78300 -6.09900 47.69600
C  26.48400 -6.69100 48.64800
C  27.78700 -6.01600 48.72700
C  27.72000 -5.06400 47.68600
C  26.51400 -5.22600 47.08100
C  28.89100 -6.31800 49.75100
C  28.49400 -4.02900 47.13500
O  29.64100 -3.63100 47.36300
C  27.52800 -3.50100 45.92400
C  27.29500 -2.08400 46.24100
O  26.40200 -1.64300 46.97300
O  28.12700 -1.22100 45.55600
C  28.02800 0.17600 45.76600
H  20.86800 -4.59600 44.19600
H  20.63900 -9.49500 48.42200
H  26.65100 -8.17000 50.17700
H  24.97700 -2.29000 44.60700
H  23.40500 -4.15300 42.73500
H  23.08700 -1.43400 43.71700
H  21.77400 -2.33600 44.32800
H  22.13600 -2.25500 42.46600
H  25.28200 -3.39700 42.10700
H  26.46800 -4.36200 43.06400
H  27.91300 -2.35800 42.81700
H  26.56400 -1.33300 43.37200
H  18.95500 -5.34000 44.08100
H  17.58900 -6.27300 44.97600
H  18.65200 -7.01900 43.79200
H  17.44000 -10.57400 47.13000
H  18.46300 -9.67400 48.35800
H  19.15200 -10.82900 47.14000
H  23.09500 -10.79900 48.84100
H  24.73700 -9.32000 51.16300
H  21.07600 -9.69200 50.67300
H  22.45500 -10.25800 51.65200
H  21.50700 -11.36500 50.65400
H  25.71300 -11.08100 48.99400
H  24.86900 -11.73900 50.33900
H  26.72400 -11.79600 51.53900
H  27.04400 -9.99800 51.41000
H  27.45600 -10.98300 50.09700
H  29.01800 -7.36200 49.46300
H  28.52500 -6.22800 50.77400
H  29.83000 -5.77000 49.68000
H  28.02200 -3.66900 44.96700
H  27.98300 0.33700 46.84300
H  27.11900 0.64300 45.38800
H  28.88100 0.65200 45.28200
Mg 7.29600 53.62700 42.22200
C  6.85700 50.15100 41.48500
C  10.52500 53.29800 41.08400
C  7.51300 57.04500 42.10900
C  3.90000 53.89300 42.97100
N  8.47700 51.92400 41.35300
C  8.13300 50.60500 41.22700
C  9.30000 49.83000 40.69000
C  10.53500 50.75200 40.99200
C  9.79900 52.07200 41.15900
C  11.49800 50.33600 42.16800
C  9.16500 49.47400 39.17000
C  8.65100 50.51200 38.14800
H  8.07500 50.05200 36.85600
N  8.71500 54.98500 41.46700
C  10.06600 54.65000 41.16500
C  10.81900 55.88000 40.94300
C  9.94500 56.98300 41.32100
C  8.65500 56.36500 41.64500
C  12.29600 55.93000 40.44300
C  10.40100 58.43500 41.29600
O  11.55400 58.75700 40.96500
C  9.43300 59.57900 41.57500
N  5.91500 55.21400 42.48600
C  6.26700 56.52200 42.47500
C  5.03500 57.41500 42.66700
C  3.89700 56.46800 42.87700
C  4.59100 55.06900 42.80200
C  5.09400 58.50900 43.71600
C  2.67900 56.54100 41.91700
C  1.35300 55.84900 42.21300
N  5.74400 52.32600 42.38300
C  4.41600 52.57700 42.80600
C  3.77400 51.33200 42.97200
C  4.63800 50.33400 42.43700
C  5.85400 51.00000 42.08400
C  2.38100 51.05000 43.52300
C  4.83600 48.92900 42.12400
O  4.03400 48.00200 42.34800
C  6.27500 48.72200 41.54800
C  6.11800 48.13900 40.19400
O  5.43600 48.62400 39.28000
O  6.87900 47.03000 40.12800
C  6.64400 46.26400 38.95600
H  11.60700 53.20500 40.96900
H  7.62300 58.12800 42.19500
H  2.83000 53.90800 43.19000
H  9.43100 48.89500 41.23400
H  11.10600 50.80000 40.06500
H  12.18500 49.51200 41.97700
H  10.89600 50.19900 43.06600
H  12.04500 51.24500 42.42000
H  8.59800 48.55400 39.02300
H  10.17600 49.38900 38.77200
H  9.41800 51.23000 37.85800
H  7.83000 51.09700 38.56400
H  12.30000 56.37900 39.45000
H  12.70200 54.91900 40.41900
H  13.01400 56.53900 40.99200
H  8.63500 59.46500 40.84100
H  10.11400 60.42000 41.44400
H  9.02400 59.55900 42.58500
H  4.91900 57.87500 41.68600
H  3.55600 56.54700 43.90900
H  6.07600 58.97500 43.63100
H  5.00000 58.06400 44.70700
H  4.49700 59.40800 43.55800
H  3.05500 56.06900 41.00900
H  2.51700 57.53900 41.50900
H  0.51400 56.50600 41.98500
H  1.43500 55.51000 43.24600
H  1.29500 54.93300 41.62500
H  1.79900 51.97000 43.57500
H  2.48100 50.66500 44.53800
H  1.69100 50.46100 42.91900
H  7.00900 48.10200 42.06300
H  7.17000 46.59500 38.06000
H  5.55900 46.21800 38.85700
H  6.80300 45.18800 39.01800

