158

Mg 25.38700 1.28400 29.86500
C  27.26200 1.40500 32.79200
C  22.56000 1.87200 31.91200
C  23.50900 1.17000 27.09700
C  28.19100 0.52200 27.86500
N  24.96000 1.46700 32.19600
C  25.92700 1.61900 33.13100
C  25.40500 1.88900 34.51000
C  23.78900 1.84600 34.20900
C  23.71100 1.75900 32.63900
C  22.93800 0.70500 34.73000
C  25.90500 3.20100 35.21900
C  26.84900 3.09000 36.45000
H  26.65800 4.06100 37.56900
N  23.34700 1.48600 29.55600
C  22.39000 1.67700 30.54500
C  21.13300 1.60400 29.89800
C  21.35000 1.45300 28.48000
C  22.78300 1.37400 28.27900
C  19.80200 1.53200 30.65800
C  20.36300 1.25800 27.40600
O  20.64800 0.99400 26.24300
C  18.92900 1.37500 27.70500
N  25.80300 0.66300 27.67700
C  24.80500 0.81800 26.76800
C  25.32500 0.83600 25.33500
C  26.90500 0.65200 25.58300
C  27.01900 0.50200 27.12200
C  24.73800 -0.22000 24.38200
C  27.82400 1.66000 24.86700
C  28.71500 1.11300 23.75000
N  27.32000 0.96600 30.23000
C  28.40800 0.68800 29.28800
C  29.68100 0.67000 30.03500
C  29.25900 0.94200 31.37500
C  27.81300 1.06300 31.50100
C  31.09000 0.45100 29.55500
C  29.76500 1.05800 32.69200
O  30.88600 0.91800 33.08000
C  28.49900 1.37500 33.65600
C  28.40300 0.33600 34.61300
O  27.68800 -0.67600 34.62400
O  29.08300 0.64200 35.76100
C  28.77800 -0.23000 37.01100
H  21.66900 2.05300 32.51800
H  22.92800 1.05900 26.17900
H  28.98800 0.60900 27.12400
H  25.66200 0.99200 35.07200
H  23.29300 2.74000 34.58800
H  22.23700 0.29400 34.00300
H  22.45000 1.12500 35.61000
H  23.57200 -0.14100 34.99400
H  25.03500 3.79000 35.50900
H  26.48400 3.74600 34.47300
H  27.88100 3.21500 36.12400
H  26.84100 2.07700 36.85400
H  19.43000 0.52700 30.46200
H  19.09900 2.31100 30.36200
H  19.90900 1.55800 31.74200
H  18.65200 0.48700 28.27300
H  18.38000 1.45400 26.76600
H  18.64600 2.22100 28.33100
H  25.04100 1.81500 24.94700
H  27.28100 -0.28000 25.16100
H  25.48100 -0.88600 23.94400
H  24.05700 0.02800 23.56800
H  24.02600 -0.70900 25.04700
H  28.42900 2.10900 25.65500
H  27.28800 2.51100 24.44600
H  29.76300 1.16000 24.04600
H  28.62900 1.79300 22.90200
H  28.48000 0.11700 23.37400
H  31.26000 0.90800 28.58000
H  31.36100 -0.60400 29.54100
H  31.65300 1.00500 30.30600
H  28.74100 2.36100 34.05300
H  28.91400 -1.29100 36.80200
H  27.74600 -0.01500 37.28800
H  29.43600 0.06100 37.83000
Mg 42.64700 41.70000 26.64800
C  41.60400 44.09400 29.03700
C  43.56900 39.75300 29.34300
C  43.32400 39.45800 24.44300
C  41.66000 44.01000 24.17400
N  42.49100 41.86800 28.93600
C  42.08300 42.94000 29.70000
C  42.13600 42.66100 31.26400
C  42.92000 41.30600 31.22800
C  42.99000 40.93000 29.77900
C  44.44400 41.27400 31.86500
C  40.70300 42.52500 31.95000
C  40.18700 43.44800 33.10200
H  39.96900 42.81100 34.46700
N  43.45800 39.94400 26.83300
C  43.76500 39.25200 28.01100
C  44.35900 38.01200 27.67500
C  44.37000 37.88000 26.29000
C  43.75400 39.11800 25.79000
C  44.71600 36.90000 28.77800
C  44.91500 36.74900 25.42200
O  44.79400 36.74900 24.23200
C  45.61800 35.55500 26.00000
N  42.54800 41.75300 24.58600
C  42.80500 40.62500 23.86200
C  42.57900 40.90200 22.36200
C  41.94700 42.32300 22.24600
C  42.01600 42.73600 23.74200
C  43.76000 40.59900 21.38600
C  40.54100 42.38000 21.50300
C  40.43400 43.48900 20.41200
N  41.91000 43.65000 26.58200
C  41.56600 44.51100 25.45800
C  40.93600 45.76000 25.96100
C  40.91100 45.56800 27.30500
C  41.57000 44.30600 27.65200
C  40.13700 46.81900 25.18500
C  40.56300 46.16200 28.60000
O  39.96500 47.19000 28.77300
C  41.09300 45.23800 29.86300
C  42.16500 45.97600 30.63300
O  43.27900 46.10200 30.31100
O  41.61100 46.44800 31.73600
C  42.44500 46.89400 32.86600
H  43.84600 39.06400 30.14300
H  43.63000 38.81300 23.61700
H  41.32100 44.59900 23.32000
H  42.61200 43.48600 31.79500
H  42.33400 40.55300 31.75400
H  44.28400 40.73700 32.80000
H  44.76800 42.29900 32.04300
H  45.10700 40.69200 31.22400
H  40.76600 41.60200 32.52600
H  39.92600 42.39300 31.19700
H  39.23100 43.94000 32.92500
H  40.93600 44.23600 33.18400
H  44.33400 36.97400 29.79700
H  45.78800 36.72000 28.84400
H  44.17700 36.08300 28.30000
H  46.04100 35.00700 25.15800
H  44.82600 34.94200 26.43100
H  46.43500 35.96500 26.59400
H  41.81300 40.17500 22.09000
H  42.68400 42.86200 21.65100
H  43.42800 39.94100 20.58200
H  44.54700 40.10400 21.95500
H  44.18300 41.53100 21.01000
H  39.81600 42.64600 22.27200
H  40.12800 41.44600 21.12200
H  41.42300 43.91000 20.23000
H  39.82700 44.29300 20.82800
H  39.95100 43.03100 19.54900
H  40.70500 47.74500 25.27100
H  39.23400 46.97600 25.77500
H  39.97800 46.49200 24.15800
H  40.28500 44.96200 30.54100
H  42.36000 47.95800 33.08900
H  43.50300 46.70200 32.68800
H  42.14100 46.32000 33.74100

