158

Mg 41.12100 9.42900 29.72100
C  43.10800 10.76100 32.31000
C  38.95200 8.29900 32.06700
C  39.64500 7.78500 27.21200
C  43.86600 10.13300 27.47400
N  41.23200 9.34200 31.94400
C  42.00400 10.13300 32.76300
C  41.59700 9.91300 34.21000
C  40.27400 9.05300 34.12600
C  40.12500 8.86200 32.63500
C  40.23300 7.73500 34.96600
C  41.44100 11.29800 34.97600
C  40.59200 11.32000 36.26800
H  41.06000 12.27500 37.44400
N  39.46200 8.33400 29.59900
C  38.68500 7.92900 30.69700
C  37.52400 7.12200 30.22300
C  37.63400 7.08000 28.80100
C  38.99000 7.75400 28.47200
C  36.50800 6.48800 31.19000
C  36.66600 6.46600 27.83600
O  36.89700 6.40300 26.65100
C  35.30500 6.13600 28.30700
N  41.74300 8.82700 27.62000
C  40.91600 8.21500 26.78400
C  41.39300 8.38800 25.30600
C  42.63000 9.26100 25.48700
C  42.73500 9.46200 26.98400
C  41.51500 7.08400 24.44700
C  42.67700 10.50300 24.61600
C  43.83300 10.54600 23.58700
N  43.12000 10.25000 29.77200
C  44.07300 10.51800 28.79900
C  45.19800 11.17800 29.42000
C  44.83400 11.32000 30.76600
C  43.55300 10.74900 30.93800
C  46.44300 11.64900 28.73300
C  45.34300 11.78500 32.00900
O  46.41600 12.29400 32.33600
C  44.24700 11.41100 33.08700
C  44.89100 10.49300 34.03000
O  44.94800 9.28100 33.84500
O  45.32600 11.03100 35.17300
C  45.86100 10.07000 36.24300
H  38.17200 8.16500 32.82000
H  39.08000 7.26800 26.43300
H  44.64000 10.52300 26.81000
H  42.36900 9.38500 34.77100
H  39.42000 9.66900 34.40700
H  40.10100 6.85300 34.33900
H  39.44800 7.82600 35.71700
H  41.19000 7.68400 35.48500
H  41.26100 12.09600 34.25700
H  42.42300 11.45400 35.42400
H  40.37800 10.32600 36.66200
H  39.61400 11.70300 35.97700
H  36.79600 6.58700 32.23700
H  36.39100 5.45700 30.85900
H  35.53600 6.97400 31.11300
H  34.98800 6.91900 28.99500
H  35.21200 5.14200 28.74400
H  34.58200 6.12600 27.49100
H  40.58400 8.89400 24.77800
H  43.50700 8.68100 25.19800
H  42.31400 6.41100 24.75700
H  41.60200 7.40000 23.40700
H  40.55700 6.61200 24.66800
H  42.80600 11.40700 25.21100
H  41.74300 10.62900 24.06900
H  44.70200 11.09500 23.94800
H  43.57000 10.96400 22.61500
H  44.25800 9.58400 23.30000
H  46.66400 10.93700 27.93800
H  47.19500 11.52400 29.51100
H  46.36300 12.64700 28.30200
H  43.85300 12.30800 33.56400
H  46.51200 10.73100 36.81500
H  46.52700 9.34800 35.76900
H  45.08600 9.60800 36.85500
Mg 31.26900 58.35800 38.99300
C  28.41100 56.51300 38.13600
C  33.18000 55.61400 38.27500
C  33.87100 60.37300 39.25000
C  29.16200 61.20400 39.20600
N  30.81400 56.32300 38.09600
C  29.60900 55.80900 37.88600
C  29.71700 54.31000 37.57800
C  31.25900 54.04000 37.60300
C  31.84300 55.41000 37.96200
C  31.75400 52.85900 38.50500
C  28.97400 53.84900 36.24900
C  29.38300 54.61000 34.97900
H  28.33700 55.24200 34.08300
N  33.30200 57.97600 38.91600
C  33.87600 56.78100 38.66600
C  35.25400 56.90300 38.66200
C  35.55200 58.28400 38.80600
C  34.22700 58.98500 39.06400
C  36.11600 55.66400 38.46500
C  37.00800 58.86100 38.70400
O  37.96300 58.11000 38.53600
C  37.23500 60.36200 38.74200
N  31.46200 60.46200 39.19900
C  32.68000 60.95900 39.47300
C  32.64100 62.50600 39.59900
C  31.06200 62.75500 39.87000
C  30.50400 61.42800 39.36600
C  33.49100 63.08900 40.79300
C  30.56900 64.09900 39.11600
C  29.76900 65.02400 39.96800
N  29.21700 58.82700 38.78800
C  28.51800 59.96000 38.92500
C  27.07600 59.74700 38.79800
C  27.02300 58.39200 38.54600
C  28.29200 57.84900 38.53200
C  25.94900 60.75500 38.61500
C  26.09600 57.28400 38.17200
O  24.86100 57.35800 37.96300
C  26.93000 55.98100 37.97600
C  26.44900 54.99900 38.97300
O  26.58500 55.07900 40.20900
O  25.74800 54.01000 38.31600
C  24.78600 53.29200 39.11300
H  33.81000 54.75600 38.03100
H  34.67600 61.11100 39.27300
H  28.49800 62.07100 39.20800
H  29.29800 53.79200 38.44000
H  31.62600 53.74500 36.62000
H  30.88300 52.42400 38.99500
H  32.38600 53.16600 39.33800
H  32.21600 52.12900 37.84000
H  27.92200 54.01400 36.48200
H  29.11900 52.77000 36.21100
H  29.90300 53.86000 34.38300
H  29.96300 55.49100 35.25300
H  36.53600 55.75000 37.46200
H  35.62900 54.69600 38.57800
H  36.95000 55.64900 39.16600
H  37.02800 60.86600 39.68600
H  36.70600 60.90900 37.96200
H  38.21400 60.56500 38.30800
H  33.07700 62.80300 38.64500
H  30.90700 62.89800 40.94000
H  34.18500 63.87200 40.48600
H  34.02100 62.32500 41.36200
H  32.88800 63.53000 41.58700
H  29.87800 63.81700 38.32200
H  31.44700 64.58100 38.68600
H  30.33100 65.93200 40.18500
H  29.59500 64.55300 40.93600
H  28.79800 65.29800 39.55500
H  24.97600 60.26600 38.56900
H  26.06800 61.35500 37.71300
H  25.93900 61.53600 39.37500
H  26.67700 55.63100 36.97500
H  25.29400 52.81300 39.95000
H  24.27200 52.54100 38.51300
H  24.08800 53.89000 39.69800

