158

Mg 25.10700 -5.25700 45.90700
C  26.95500 -2.76900 44.40200
C  22.29700 -4.22000 44.07700
C  23.59700 -8.11900 46.87000
C  28.07900 -6.47900 47.54100
N  24.66300 -3.68000 44.43600
C  25.65800 -2.80300 43.94400
C  25.06600 -1.96700 42.84700
C  23.48200 -2.08500 43.17900
C  23.43700 -3.41300 43.96600
C  22.93400 -0.99900 44.12000
C  25.52400 -2.55600 41.45300
C  26.37400 -1.62500 40.52000
H  25.95600 -1.54000 39.02000
N  23.24900 -6.01700 45.54500
C  22.21500 -5.44300 44.82300
C  21.13000 -6.32700 44.80700
C  21.34700 -7.45500 45.56500
C  22.79500 -7.24000 46.04400
C  19.81800 -5.92700 44.18200
C  20.50800 -8.65800 45.75800
O  19.34200 -8.63800 45.35300
C  20.82500 -9.73700 46.66300
N  25.75600 -7.16700 46.94600
C  24.87100 -8.10200 47.26700
C  25.48800 -9.04000 48.30300
C  26.87800 -8.44300 48.62400
C  26.97500 -7.27500 47.62500
C  24.65800 -9.58400 49.58400
C  28.10800 -9.42000 48.63600
C  28.76900 -9.50500 49.97800
N  27.07500 -4.78600 46.03100
C  28.14900 -5.34700 46.72200
C  29.35400 -4.49300 46.48700
C  28.87300 -3.61800 45.48900
C  27.52800 -3.72800 45.35100
C  30.67800 -4.61100 46.99300
C  29.38000 -2.63100 44.57500
O  30.44100 -2.22000 44.43600
C  28.12000 -1.99600 43.83500
C  28.06900 -0.58400 44.16200
O  27.85600 -0.13300 45.27500
O  28.35400 0.20600 43.08700
C  28.85000 1.50600 43.41100
H  21.42100 -3.78800 43.58900
H  23.12300 -9.00000 47.30900
H  28.92600 -6.74500 48.17700
H  25.42600 -0.95800 43.05200
H  22.78700 -2.29400 42.36600
H  22.40600 -0.28100 43.49200
H  23.73500 -0.42200 44.58200
H  22.32500 -1.37800 44.94000
H  24.65000 -2.92000 40.91100
H  26.02100 -3.51900 41.56900
H  27.41800 -1.93300 40.55500
H  26.28600 -0.58700 40.83900
H  19.16300 -6.78900 44.05100
H  19.95400 -5.60300 43.15000
H  19.27600 -5.17600 44.75700
H  19.89700 -10.28300 46.83600
H  21.09600 -9.28600 47.61700
H  21.65000 -10.36000 46.31800
H  25.61900 -9.96700 47.74300
H  26.79800 -8.01100 49.62200
H  25.21300 -9.62200 50.52100
H  24.24200 -10.58200 49.44500
H  23.84700 -8.85600 49.58700
H  28.82300 -9.11300 47.87200
H  27.90100 -10.45800 48.37500
H  28.02200 -9.57800 50.76900
H  29.27000 -8.56300 50.20000
H  29.51700 -10.29700 50.00000
H  31.36400 -3.85400 46.61300
H  30.92500 -5.63000 46.69600
H  30.62600 -4.55400 48.08100
H  28.30200 -2.12600 42.76800
H  28.99800 2.12000 42.52200
H  29.87000 1.37600 43.77400
H  28.27100 2.17200 44.05000
Mg 49.41800 36.16500 28.41600
C  46.91900 34.57500 30.35600
C  49.18600 38.79100 30.59200
C  51.28200 37.80200 26.29600
C  48.79400 33.69500 25.92800
N  48.34400 36.54200 30.39600
C  47.40300 35.71000 31.00300
C  46.93100 36.41900 32.34200
C  47.70400 37.79800 32.31100
C  48.54000 37.68800 31.05200
C  46.73800 39.03700 32.38500
C  47.02300 35.61700 33.75000
C  48.31000 34.76900 33.90300
H  49.37000 35.42500 34.82300
N  50.16400 38.07300 28.48200
C  49.93500 39.04700 29.41900
C  50.55500 40.29400 29.02800
C  51.15400 40.01600 27.81900
C  50.96400 38.59300 27.49900
C  50.42700 41.62100 29.71500
C  52.03400 40.95400 26.93200
O  52.56900 40.59100 25.85900
C  52.26800 42.37300 27.31600
N  49.99500 35.71200 26.46100
C  50.79200 36.56300 25.78200
C  51.04600 36.06000 24.37000
C  50.20500 34.85000 24.25500
C  49.68800 34.65400 25.65600
C  50.81100 37.05900 23.19800
C  50.91800 33.55800 23.61100
C  50.17300 33.08500 22.43500
N  48.19500 34.46600 28.17200
C  48.07800 33.54400 27.08600
C  47.11100 32.56300 27.41400
C  46.55300 32.90900 28.65200
C  47.29500 34.05900 29.07200
C  46.62100 31.45100 26.55500
C  45.53000 32.60500 29.70500
O  44.68100 31.76500 29.79800
C  45.76900 33.64600 30.85800
C  46.13300 32.90500 31.99900
O  47.20400 32.29200 32.20700
O  45.10200 32.87300 32.88200
C  45.46400 32.32400 34.21100
H  49.31800 39.69100 31.19800
H  51.87900 38.38900 25.59600
H  48.63600 32.90400 25.19100
H  45.86800 36.59000 32.17400
H  48.31300 37.91800 33.20600
H  46.41700 39.28100 31.37200
H  47.14300 39.92700 32.86800
H  45.85600 38.75000 32.95600
H  46.16200 34.95100 33.79900
H  46.96800 36.30600 34.59200
H  48.75000 34.67300 32.91100
H  48.03800 33.85300 34.42700
H  50.25100 42.42200 28.99700
H  51.35000 41.90100 30.22300
H  49.53600 41.58300 30.34200
H  51.35200 42.96200 27.35500
H  52.66700 42.87500 26.43400
H  52.94900 42.39600 28.16600
H  52.10500 35.80500 24.33800
H  49.33200 35.14100 23.67100
H  50.84600 38.07200 23.60100
H  49.91900 36.88600 22.59600
H  51.63700 36.91100 22.50400
H  50.98700 32.78400 24.37600
H  51.94200 33.85800 23.38800
H  50.75700 32.77100 21.56900
H  49.42900 33.77300 22.03500
H  49.60100 32.23100 22.79700
H  45.94400 31.93800 25.85300
H  46.17000 30.65200 27.14400
H  47.48500 31.10500 25.98900
H  44.88600 34.26400 31.01800
H  45.45500 31.23600 34.26900
H  44.77300 32.74400 34.94100
H  46.42900 32.66500 34.58600

