158

Mg 0.49600 7.57300 26.10300
C  1.36200 9.46900 28.84700
C  0.65000 4.81900 28.25700
C  0.57000 5.52300 23.41300
C  1.31800 10.33800 23.97100
N  1.24900 7.19400 28.33700
C  1.03900 8.14800 29.22900
C  1.07100 7.60600 30.61800
C  1.10800 6.11200 30.38400
C  1.02700 6.01400 28.86300
C  2.33300 5.23700 30.83900
C  -0.16300 8.10600 31.39800
C  0.06900 8.17000 32.90500
H  1.28700 7.37300 33.51800
N  0.27300 5.52700 25.88000
C  0.28000 4.57600 26.88400
C  -0.12700 3.34300 26.30000
C  -0.11300 3.45700 24.89800
C  0.32800 4.85500 24.66100
C  -0.55100 2.18000 27.09000
C  -0.34200 2.36100 23.75400
O  -0.08500 2.53100 22.57500
C  -0.93700 1.15000 24.22200
N  0.97800 7.97600 23.96100
C  0.72200 6.94200 23.11500
C  0.59400 7.50800 21.67900
C  0.68300 9.05100 21.87700
C  1.03100 9.13100 23.31700
C  1.67500 7.02100 20.65500
C  -0.59700 9.81800 21.51300
C  -0.40000 11.01300 20.61200
N  1.12800 9.46800 26.32900
C  1.35300 10.51700 25.37200
C  1.63200 11.76500 26.09300
C  1.65300 11.30500 27.43500
C  1.35500 9.99200 27.54400
C  1.89100 13.17700 25.54200
C  1.78500 11.83100 28.79600
O  1.98000 12.95900 29.22100
C  1.59100 10.62600 29.79600
C  2.73000 10.46200 30.69900
O  3.80700 9.89000 30.46400
O  2.40300 11.11500 31.86500
C  3.44800 10.83400 32.89100
H  0.59800 4.03300 29.01300
H  0.31600 4.87000 22.57500
H  1.41500 11.27000 23.41100
H  2.00500 7.83000 31.13300
H  0.16700 5.69500 30.74400
H  2.79100 4.64900 30.04300
H  1.98200 4.61600 31.66300
H  3.16500 5.89600 31.08700
H  -0.96800 7.37700 31.30800
H  -0.47200 9.01100 30.87500
H  -0.84300 7.78000 33.35700
H  0.04800 9.18500 33.30200
H  -1.49800 1.73000 26.79400
H  -0.61100 2.48500 28.13500
H  0.30400 1.50300 27.09400
H  -1.11900 0.54400 23.33400
H  -1.93100 1.36400 24.61300
H  -0.26200 0.65600 24.92000
H  -0.39500 7.21600 21.32600
H  1.47100 9.45600 21.24300
H  1.37400 6.13000 20.10300
H  2.62200 6.92000 21.18400
H  1.85100 7.76000 19.87400
H  -0.93700 10.26700 22.44700
H  -1.39100 9.16300 21.15400
H  -0.80300 10.87400 19.60900
H  0.66300 11.25000 20.58000
H  -0.91900 11.92400 20.91200
H  2.92100 13.31900 25.21400
H  1.68200 13.96200 26.26900
H  1.25100 13.45600 24.70500
H  0.74800 10.99800 30.37800
H  2.98900 11.22300 33.80000
H  4.37000 11.34300 32.60900
H  3.47500 9.74400 32.90900
Mg 42.48700 41.63500 26.35500
C  42.08900 43.84800 29.08500
C  43.47400 39.29400 28.67600
C  43.91500 39.77900 23.82600
C  42.10200 44.29000 24.16400
N  42.68200 41.55100 28.71000
C  42.47300 42.55500 29.57700
C  42.44000 42.06700 31.04600
C  42.91200 40.59600 30.82500
C  43.08700 40.42300 29.33000
C  44.17800 40.11100 31.61500
C  40.98400 42.30500 31.65200
C  40.65800 41.34200 32.79500
H  39.83700 41.77600 34.06800
N  43.39700 39.78300 26.21000
C  43.62300 38.92500 27.32500
C  43.97900 37.60900 26.79500
C  44.16800 37.76400 25.40300
C  43.78500 39.15200 25.07900
C  44.14100 36.41200 27.69100
C  44.62500 36.76500 24.40800
O  45.00700 37.05900 23.28500
C  44.61200 35.32800 24.77400
N  42.92300 42.04900 24.22600
C  43.45500 41.03800 23.44100
C  43.34100 41.44900 21.92100
C  42.56600 42.85500 22.01200
C  42.47200 43.08600 23.54100
C  44.61500 41.44700 20.98500
C  41.17700 42.94500 21.37700
C  40.28700 41.74000 21.71400
N  42.06300 43.56600 26.54900
C  41.81900 44.51100 25.59300
C  41.40500 45.73300 26.22600
C  41.50400 45.48000 27.55700
C  41.92300 44.17400 27.72700
C  41.09200 46.97300 25.46100
C  41.39700 46.21700 28.83500
O  41.14800 47.33700 29.11800
C  41.65900 45.05300 29.93100
C  42.78200 45.51000 30.80000
O  43.95600 45.63900 30.40400
O  42.46200 45.67100 32.12500
C  43.45900 46.31500 32.95600
H  43.56500 38.45300 29.36600
H  44.26600 39.12500 23.02600
H  41.94700 45.18100 23.55200
H  43.16000 42.63500 31.63500
H  42.12600 39.85500 30.97400
H  45.08000 40.19300 31.00900
H  44.10300 39.05300 31.86400
H  44.24200 40.73800 32.50500
H  40.18200 42.52800 30.94800
H  41.09000 43.23800 32.20500
H  41.54700 40.73300 32.95700
H  39.90100 40.70700 32.33400
H  43.33900 35.68100 27.58800
H  44.03700 36.66100 28.74700
H  45.11700 35.95500 27.52700
H  43.75500 35.02900 25.37800
H  45.48300 35.21400 25.41900
H  44.76100 34.72800 23.87600
H  42.67500 40.80000 21.35300
H  43.30100 43.50500 21.53700
H  44.38100 41.10200 19.97700
H  45.43000 40.80200 21.31500
H  45.07000 42.40300 20.72700
H  41.29900 43.08900 20.30300
H  40.82400 43.82800 21.90900
H  40.24600 40.97300 20.94100
H  39.34800 42.22900 21.97600
H  40.70300 41.12200 22.51000
H  40.83100 47.76100 26.16700
H  40.23800 46.84100 24.79600
H  41.99300 47.33900 24.96900
H  40.85100 44.83800 30.63000
H  44.31400 45.64800 33.07300
H  42.87000 46.51000 33.85200
H  43.83500 47.26300 32.57200

