158

Mg 50.84800 46.93000 41.24600
C  47.62800 47.47700 40.23200
C  50.44100 43.66600 40.09500
C  54.18000 46.44800 41.53700
C  51.13100 50.14800 42.36600
N  49.17400 45.75000 40.21300
C  47.99100 46.18600 39.83300
C  47.09600 45.12900 39.19900
C  47.96800 43.80400 39.46400
C  49.27100 44.41500 39.99600
C  47.35800 42.78200 40.41600
C  46.79800 45.41100 37.71900
C  45.37400 45.24200 37.32200
H  45.04100 44.15300 36.27700
N  52.06300 45.29000 40.92900
C  51.72000 43.99900 40.52500
C  52.85200 43.13900 40.58000
C  53.94000 43.85200 41.04000
C  53.41200 45.26400 41.26000
C  52.92200 41.66000 40.05000
C  55.27800 43.33600 41.21200
O  55.59100 42.18000 40.88200
C  56.35800 44.17700 41.70100
N  52.46000 48.15400 41.74300
C  53.72800 47.69800 41.87100
C  54.65300 48.87300 42.35000
C  53.62200 50.04100 42.59300
C  52.29700 49.39900 42.27100
C  55.59700 48.71700 43.55600
C  53.85400 51.35600 41.81900
C  53.98100 52.65400 42.71600
N  49.57800 48.54000 41.39600
C  49.82900 49.82500 41.86700
C  48.58900 50.64000 41.65700
C  47.72300 49.75700 41.01900
C  48.32700 48.50500 40.89900
C  48.44000 52.04200 41.86800
C  46.42500 49.59100 40.34400
O  45.67900 50.46500 40.01200
C  46.28200 48.18200 39.83400
C  45.02500 47.51900 40.30800
O  44.97500 46.78900 41.27700
O  43.91900 47.97300 39.58500
C  42.64600 47.28300 39.81200
H  50.34900 42.62400 39.77800
H  55.25600 46.26500 41.56900
H  51.23000 51.20800 42.60800
H  46.18100 45.08500 39.79000
H  48.14900 43.32900 38.50000
H  46.43000 43.21000 40.79600
H  48.06500 42.61600 41.22900
H  47.16600 41.86600 39.85800
H  47.40500 44.84600 37.01100
H  47.09700 46.44900 37.57300
H  44.86900 46.13800 36.96200
H  44.88600 45.03600 38.27500
H  53.23900 41.69800 39.00800
H  51.88000 41.34500 40.09700
H  53.56900 40.96700 40.58900
H  56.17000 44.82200 42.55900
H  56.66800 44.81600 40.87400
H  57.19400 43.56200 42.03500
H  55.18800 49.00400 41.41000
H  53.68700 50.18000 43.67200
H  55.38100 47.65900 43.70100
H  55.29500 49.29400 44.43000
H  56.61800 48.83700 43.19300
H  53.07400 51.54700 41.08100
H  54.75000 51.24000 41.20800
H  53.14600 53.30800 42.46500
H  54.92800 53.13100 42.46400
H  53.93100 52.35300 43.76200
H  49.33700 52.56500 42.20000
H  47.74400 52.23000 42.68700
H  48.07600 52.58600 40.99600
H  46.22700 48.16800 38.74500
H  41.94200 47.54000 39.02100
H  42.35700 47.60700 40.81100
H  42.82100 46.20800 39.86400
Mg 6.33000 54.13900 41.31600
C  5.93800 50.55200 41.00300
C  9.39700 54.03100 39.97300
C  6.28400 57.47800 41.27400
C  2.94000 54.13100 42.44700
N  7.41200 52.44100 40.55100
C  7.14400 51.07600 40.48400
C  8.38700 50.30500 39.93100
C  9.54000 51.40000 39.90400
C  8.74500 52.72000 40.17400
C  10.71200 51.25200 40.92600
C  8.21600 49.58800 38.54400
C  7.50000 50.34100 37.37600
H  6.81800 49.53300 36.19100
N  7.71400 55.62600 40.72600
C  8.94500 55.38300 40.18500
C  9.59700 56.58600 39.98900
C  8.70200 57.60400 40.31700
C  7.48900 56.91100 40.80500
C  11.00700 56.60100 39.44200
C  8.93500 59.12500 40.17600
O  9.98700 59.60800 39.70500
C  7.86800 60.22300 40.37500
N  4.71500 55.59200 41.66300
C  5.04200 56.90400 41.69500
C  3.81200 57.78600 41.94100
C  2.67900 56.64800 42.12500
C  3.49000 55.39600 42.09900
C  3.97500 58.77500 43.16400
C  1.59500 56.79900 41.00300
C  0.38000 57.59500 41.43500
N  4.71300 52.66800 41.60000
C  3.50600 52.82300 42.19500
C  2.95300 51.50900 42.59900
C  3.85600 50.54900 42.01200
C  4.90200 51.37400 41.43300
C  1.68900 51.26800 43.40400
C  4.17100 49.14500 41.89800
O  3.52000 48.22600 42.42100
C  5.55400 49.09700 41.21100
C  5.43300 48.17100 40.00600
O  4.88800 48.47500 38.89900
O  5.90200 46.89800 40.26700
C  5.50400 45.97000 39.21100
H  10.42600 54.01700 39.60900
H  6.29200 58.55300 41.46500
H  1.89700 54.06500 42.76300
H  8.66000 49.56800 40.68700
H  9.98500 51.40900 38.90900
H  11.70500 51.26600 40.47600
H  10.60400 50.24500 41.32800
H  10.63000 52.11200 41.59100
H  7.88000 48.56900 38.73700
H  9.20400 49.40000 38.12500
H  8.19800 51.04600 36.92500
H  6.73500 50.94000 37.87000
H  11.67300 56.08800 40.13600
H  11.28500 57.65000 39.34000
H  11.12500 56.20500 38.43400
H  8.21400 61.17000 39.96300
H  7.54000 60.27700 41.41300
H  7.03300 59.98400 39.71500
H  3.52700 58.36300 41.06100
H  2.24200 56.88000 43.09600
H  3.73900 59.82900 43.01200
H  5.03900 58.81400 43.39700
H  3.50800 58.56900 44.12700
H  1.28400 55.80900 40.66800
H  2.01600 57.33800 40.15400
H  0.15300 58.31400 40.64800
H  0.58800 58.18800 42.32500
H  -0.50000 56.97400 41.60400
H  1.71900 51.87100 44.31100
H  1.77700 50.26500 43.82300
H  0.78000 51.41200 42.82100
H  6.34100 48.60600 41.78400
H  4.41900 45.98900 39.10900
H  5.68400 44.93400 39.49900
H  5.97500 46.08000 38.23400

