158

Mg 1.76100 -2.19500 43.58200
C  5.11600 -1.26400 43.48600
C  0.92600 0.66800 41.92000
C  -1.34000 -3.40900 43.22500
C  2.69000 -5.33200 44.94200
N  2.88500 -0.51300 42.71000
C  4.23000 -0.44400 42.74300
C  4.68200 0.89300 42.03900
C  3.31500 1.64400 41.80600
C  2.32400 0.59400 42.21900
C  3.12000 3.02200 42.55000
C  5.62400 0.72700 40.82700
C  6.58600 1.90800 40.60300
H  6.36800 2.76300 39.32500
N  0.07400 -1.49000 42.75800
C  -0.09100 -0.29800 42.14300
C  -1.46600 -0.16600 41.72100
C  -2.14600 -1.33100 42.09200
C  -1.11800 -2.14200 42.69400
C  -2.06000 1.02300 41.04200
C  -3.63200 -1.59900 41.80400
O  -4.23900 -0.66100 41.32000
C  -4.32100 -2.91500 42.03800
N  0.87600 -4.16100 43.83300
C  -0.46300 -4.31800 43.76300
C  -0.93800 -5.75600 44.09500
C  0.40800 -6.35100 44.72800
C  1.38500 -5.17300 44.51200
C  -2.22400 -5.94000 44.92000
C  0.89000 -7.74500 44.32800
C  1.30100 -8.64300 45.49000
N  3.51600 -3.16200 44.21700
C  3.72900 -4.37200 44.78500
C  5.18600 -4.48000 45.08300
C  5.67600 -3.27400 44.68000
C  4.62500 -2.50800 44.10800
C  5.85500 -5.72000 45.65900
C  6.90200 -2.49400 44.65800
O  7.97600 -2.76500 45.12100
C  6.63900 -1.14500 43.82700
C  6.86400 0.06000 44.69800
O  6.52400 0.19400 45.82500
O  7.53100 0.98300 43.94200
C  7.71500 2.32200 44.45400
H  0.67800 1.62900 41.46600
H  -2.35300 -3.80700 43.30800
H  2.90700 -6.21300 45.55000
H  5.20300 1.45600 42.81300
H  3.22500 1.83600 40.73700
H  2.23400 3.54500 42.19000
H  3.94500 3.71400 42.37900
H  2.99000 2.82700 43.61500
H  4.90000 0.66200 40.01400
H  6.33500 -0.09600 40.89600
H  7.60800 1.53400 40.55000
H  6.42200 2.55800 41.46300
H  -2.51600 0.87100 40.06400
H  -1.29200 1.79400 40.97800
H  -2.79400 1.34700 41.78000
H  -5.27300 -2.87300 41.50900
H  -4.47900 -3.18400 43.08200
H  -3.67600 -3.66800 41.58400
H  -1.18700 -6.08500 43.08700
H  0.29600 -6.35400 45.81200
H  -2.83500 -6.69900 44.43100
H  -2.71700 -4.96800 44.91700
H  -2.05400 -6.31600 45.92900
H  1.74400 -7.69500 43.65100
H  0.05000 -8.07600 43.71700
H  0.77900 -9.57700 45.28300
H  1.04000 -8.26700 46.47900
H  2.37900 -8.80200 45.52600
H  5.71200 -6.56900 44.99100
H  5.27400 -6.01800 46.53200
H  6.92000 -5.59400 45.85100
H  7.24700 -1.21200 42.92500
H  7.51700 2.49200 45.51300
H  6.94200 2.93300 43.98800
H  8.70000 2.67300 44.15000
Mg -10.91700 16.82700 40.90100
C  -7.43600 16.29500 40.47800
C  -10.30300 20.15200 39.98400
C  -14.22400 17.48800 40.73200
C  -11.38200 13.44600 40.81200
N  -9.08400 18.07700 40.27500
C  -7.74300 17.64900 40.35200
C  -6.74900 18.81400 40.13100
C  -7.72400 20.05800 40.45900
C  -9.12500 19.42400 40.20800
C  -7.48400 20.72300 41.86300
C  -6.21000 18.78200 38.71900
C  -4.67100 18.53500 38.45500
H  -4.32700 17.72200 37.20200
N  -12.13100 18.64900 40.52200
C  -11.70000 19.79300 40.03600
C  -12.76000 20.70600 39.69100
C  -13.91700 19.99900 40.09000
C  -13.45500 18.65300 40.44800
C  -12.54100 22.18000 39.22900
C  -15.31500 20.59100 40.10000
O  -15.46000 21.80200 39.85500
C  -16.57800 19.81000 40.40300
N  -12.57400 15.64700 40.81600
C  -13.82900 16.17300 40.84100
C  -14.82400 14.93000 40.98600
C  -13.88600 13.68400 40.62000
C  -12.52800 14.24400 40.79800
C  -15.50400 14.98700 42.37100
C  -14.11000 13.20900 39.14800
C  -14.18800 14.13000 37.98000
N  -9.68200 15.18800 40.85000
C  -10.01600 13.84700 40.84800
C  -8.84300 12.98500 40.69900
C  -7.83000 13.95900 40.55600
C  -8.40000 15.27700 40.64700
C  -8.90400 11.51200 40.75600
C  -6.42300 14.11700 40.39700
O  -5.59700 13.29300 40.02800
C  -6.10300 15.56400 40.43000
C  -5.18400 15.78500 41.57900
O  -4.27800 16.59900 41.52300
O  -5.45000 14.91600 42.65900
C  -4.37200 14.91200 43.74800
H  -10.12300 21.18200 39.66800
H  -15.30200 17.48900 40.55900
H  -11.60700 12.38700 40.67300
H  -5.91200 18.87700 40.82600
H  -7.55500 20.85300 39.73400
H  -6.86700 20.04500 42.45200
H  -8.46900 20.52900 42.28700
H  -7.08000 21.73500 41.89000
H  -6.59700 19.70800 38.29300
H  -6.71200 17.97100 38.19200
H  -4.21900 18.10100 39.34800
H  -4.24900 19.53700 38.37500
H  -11.71900 22.23300 38.51500
H  -12.21100 22.76500 40.08800
H  -13.50400 22.54100 38.86700
H  -16.71700 19.16400 39.53600
H  -17.42200 20.49700 40.46800
H  -16.41100 19.28000 41.34100
H  -15.63600 14.92700 40.25900
H  -14.08200 12.76800 41.17800
H  -16.57100 15.19200 42.27400
H  -15.00800 15.87400 42.76500
H  -15.22300 14.15200 43.01300
H  -14.86900 12.42600 39.14600
H  -13.21600 12.62400 38.92900
H  -13.26600 14.23800 37.40900
H  -14.49700 15.14500 38.22900
H  -15.02400 13.73600 37.40100
H  -8.02500 10.91600 40.51100
H  -9.72400 11.09600 40.17000
H  -8.99600 11.23300 41.80600
H  -5.46300 15.78700 39.57600
H  -4.83300 14.87000 44.73500
H  -3.84900 15.86600 43.82100
H  -3.73500 14.04200 43.58900

