158

Mg 8.71500 2.98900 27.77900
C  10.12100 1.59100 30.71200
C  6.91200 5.22800 29.90800
C  7.29400 4.44500 25.14400
C  10.18300 0.55600 25.83200
N  8.42000 3.27000 30.07500
C  9.13700 2.60500 31.08200
C  8.83300 3.14500 32.48300
C  7.90800 4.32400 32.16700
C  7.60600 4.27500 30.60400
C  6.62500 4.36500 33.06900
C  10.15300 3.63000 33.10300
C  10.07500 4.28500 34.47100
H  10.35600 3.41900 35.69500
N  7.30300 4.61700 27.51400
C  6.71300 5.34100 28.51900
C  5.91400 6.38900 27.90800
C  6.19600 6.38200 26.48600
C  6.95400 5.13800 26.28400
C  5.18900 7.52100 28.70700
C  5.85100 7.33300 25.38400
O  6.10600 7.12600 24.21100
C  5.21900 8.60800 25.74500
N  8.75100 2.59100 25.73700
C  8.02400 3.32100 24.83300
C  8.19200 2.74800 23.46800
C  9.33500 1.64600 23.63600
C  9.39500 1.52000 25.16000
C  6.89100 2.17200 22.72400
C  10.68900 1.91400 22.96800
C  11.48900 0.85200 22.31900
N  9.87100 1.35800 28.11500
C  10.40700 0.46100 27.25800
C  11.28000 -0.49400 27.92300
C  11.15600 -0.09200 29.29600
C  10.35700 1.06300 29.34900
C  12.00100 -1.66500 27.32200
C  11.56900 -0.45300 30.61200
O  12.20900 -1.42900 30.99600
C  10.94700 0.63400 31.61600
C  10.12200 0.10300 32.68900
O  9.02400 -0.41900 32.56900
O  10.89600 0.02000 33.87100
C  10.22200 -0.66000 34.99600
H  6.44400 6.06300 30.43400
H  6.88400 4.94100 24.26200
H  10.83800 -0.07300 25.22600
H  8.41200 2.36900 33.12300
H  8.47700 5.23900 32.32800
H  5.95600 5.01100 32.50000
H  6.76100 4.68700 34.10100
H  6.30000 3.32700 32.99200
H  10.68600 4.20700 32.34800
H  10.88000 2.82000 33.15800
H  9.00600 4.33400 34.67400
H  10.62500 5.22600 34.48200
H  5.79000 8.43000 28.67400
H  5.05400 7.32100 29.77000
H  4.32500 7.79100 28.10000
H  5.20700 9.25700 24.87000
H  5.64200 9.07700 26.63300
H  4.22500 8.31600 26.08400
H  8.66400 3.63100 23.03800
H  8.95200 0.72200 23.20100
H  6.86200 1.11600 22.45400
H  6.66700 2.70300 21.79900
H  6.00800 2.28100 23.35400
H  11.33600 2.21600 23.79100
H  10.62800 2.71700 22.23400
H  11.01200 -0.12800 22.35800
H  12.47500 0.80700 22.78100
H  11.71500 1.10400 21.28200
H  11.83300 -1.65000 26.24500
H  11.57700 -2.60700 27.67000
H  13.07400 -1.66900 27.51300
H  11.74100 1.24200 32.05100
H  10.04200 -1.69100 34.69100
H  9.22700 -0.29000 35.24000
H  10.81600 -0.59400 35.90700
Mg 24.89000 -6.07900 46.62400
C  27.24100 -3.86900 45.45400
C  22.54200 -4.58200 44.65500
C  22.81200 -8.60400 47.41100
C  27.52500 -7.78600 48.26900
N  24.99900 -4.49800 45.16700
C  26.02600 -3.70400 44.86200
C  25.62200 -2.62800 43.89000
C  24.04000 -2.60000 44.05900
C  23.79000 -3.98800 44.66400
C  23.57900 -1.52500 45.10500
C  25.98700 -2.99100 42.41000
C  26.38500 -1.80000 41.50000
H  25.53000 -1.75800 40.24400
N  22.89900 -6.46300 46.19900
C  22.11200 -5.75700 45.29400
C  20.74000 -6.34200 45.20500
C  20.78000 -7.51800 46.04600
C  22.22100 -7.58700 46.60200
C  19.57300 -5.77600 44.44500
C  19.60600 -8.48700 46.22700
O  18.52700 -8.26500 45.70400
C  19.68500 -9.68200 47.02900
N  25.24000 -8.08400 47.52900
C  24.13700 -8.82200 47.84600
C  24.65800 -10.18000 48.40800
C  26.02700 -9.75500 48.96800
C  26.32300 -8.45300 48.24700
C  23.86500 -10.98800 49.48000
C  27.04700 -10.90700 48.78700
C  28.02900 -11.06100 49.92900
N  27.02300 -5.86400 46.85900
C  27.88800 -6.60900 47.57700
C  29.16800 -5.96700 47.54000
C  28.92100 -4.78000 46.78800
C  27.64600 -4.86900 46.35500
C  30.46300 -6.40600 48.11800
C  29.54100 -3.65500 46.17100
O  30.70200 -3.24900 46.12600
C  28.42900 -2.92600 45.35800
C  28.23200 -1.47400 45.85000
O  29.11100 -0.58800 45.84200
O  27.03000 -1.38300 46.55800
C  26.65300 -0.06700 47.12300
H  21.89600 -3.99700 43.99700
H  22.09000 -9.38600 47.65600
H  28.25500 -8.28500 48.91000
H  25.99500 -1.65200 44.20200
H  23.44900 -2.43400 43.15800
H  24.40200 -0.87900 45.41200
H  23.12000 -2.02300 45.95800
H  22.76700 -1.01100 44.58900
H  25.15200 -3.45200 41.88200
H  26.81600 -3.69500 42.32900
H  27.42600 -1.90800 41.19500
H  26.11500 -0.80700 41.86100
H  18.82000 -6.49900 44.13200
H  19.92600 -5.23500 43.56700
H  19.04100 -4.99800 44.99400
H  19.84100 -9.34800 48.05500
H  20.49700 -10.23700 46.55900
H  18.71700 -10.17700 46.96000
H  24.68600 -10.87500 47.56900
H  25.98600 -9.55400 50.03800
H  24.01800 -12.04000 49.24100
H  22.83200 -10.64400 49.42000
H  24.22100 -10.71800 50.47400
H  27.58900 -10.60900 47.88900
H  26.66000 -11.90400 48.58000
H  27.83400 -10.37700 50.75500
H  29.05600 -10.82500 49.65100
H  28.01800 -12.10100 50.25600
H  30.22800 -6.42100 49.18200
H  31.33300 -5.77800 47.92600
H  30.69400 -7.44000 47.86100
H  28.81300 -2.80300 44.34500
H  26.87000 -0.07800 48.19200
H  25.57800 0.08500 47.03400
H  27.06100 0.80700 46.61600

