158

Mg 15.94200 -2.22500 28.64200
C  15.02900 0.18000 31.05900
C  17.97900 -3.77900 31.00000
C  17.49000 -4.07800 26.23800
C  14.48100 -0.24100 26.23800
N  16.61400 -1.68600 30.80100
C  16.03500 -0.75700 31.54700
C  16.61100 -1.02400 32.94600
C  17.64400 -2.19200 32.86100
C  17.40600 -2.63100 31.46600
C  19.10400 -1.63500 33.22600
C  15.55600 -1.20100 34.01000
C  15.61500 -0.18400 35.15000
H  16.90300 0.52100 35.55500
N  17.33700 -3.83500 28.66800
C  17.88800 -4.46000 29.74900
C  18.63700 -5.63800 29.31800
C  18.55200 -5.67600 27.85700
C  17.76600 -4.50700 27.51200
C  19.57500 -6.40200 30.20500
C  19.14200 -6.66500 26.91400
O  19.03000 -6.56500 25.73200
C  19.93000 -7.84900 27.45200
N  16.19500 -2.04200 26.62000
C  16.80800 -2.94600 25.81700
C  16.58100 -2.61600 24.31300
C  15.44500 -1.61300 24.37600
C  15.36600 -1.28200 25.85900
C  17.88900 -2.00600 23.68200
C  14.04800 -2.09300 23.91600
C  13.23900 -1.17200 22.98000
N  14.87000 -0.50400 28.58800
C  14.36300 0.22800 27.53200
C  13.53300 1.26600 28.06400
C  13.80800 1.27000 29.43000
C  14.67600 0.27600 29.70800
C  12.64000 2.21900 27.32700
C  13.41500 1.98900 30.64600
O  12.67400 2.98200 30.78400
C  14.23600 1.31800 31.78900
C  15.05500 2.43900 32.30900
O  16.13700 2.77500 31.88700
O  14.30100 3.05500 33.32300
C  14.87200 4.22800 33.93100
H  18.58200 -4.30500 31.74300
H  17.97300 -4.52700 25.36700
H  13.82900 0.15800 25.45800
H  17.10800 -0.08400 33.18500
H  17.54500 -3.03600 33.54400
H  19.05400 -0.89300 34.02300
H  19.53700 -1.18100 32.33500
H  19.88800 -2.34100 33.50100
H  15.76200 -2.23400 34.29000
H  14.57300 -1.25900 33.54300
H  15.31900 -0.77600 36.01600
H  14.90500 0.62800 34.99000
H  20.61500 -6.15400 29.99300
H  19.36700 -7.46300 30.06600
H  19.33200 -6.32600 31.26500
H  19.35900 -8.38100 28.21300
H  20.90800 -7.54600 27.82600
H  20.14200 -8.60600 26.69700
H  16.24700 -3.45100 23.69800
H  15.63400 -0.74400 23.74500
H  18.10800 -1.03100 24.11900
H  17.57800 -1.89300 22.64400
H  18.82500 -2.56100 23.62000
H  13.40300 -2.37700 24.74700
H  14.18400 -3.01400 23.34900
H  12.20600 -1.50900 23.06100
H  13.74000 -1.22200 22.01300
H  13.36800 -0.11200 23.19800
H  12.61400 1.93100 26.27600
H  13.11800 3.18100 27.14700
H  11.68200 2.35200 27.83100
H  13.66800 0.84300 32.58900
H  14.25700 4.57400 34.76200
H  15.23000 5.08300 33.35700
H  15.73700 3.78200 34.42200
Mg 24.53900 1.35900 29.87100
C  26.82900 0.98700 32.54700
C  22.07100 1.69700 32.18300
C  22.40900 1.19100 27.37800
C  27.13300 0.77700 27.65100
N  24.46700 1.34700 32.16500
C  25.53800 1.28200 33.03400
C  25.03400 1.61500 34.48500
C  23.47300 1.76200 34.31700
C  23.29400 1.56600 32.81000
C  22.56100 0.80200 35.24800
C  25.84300 2.90300 35.04200
C  26.53800 2.71600 36.36600
H  26.12200 3.57600 37.55000
N  22.56200 1.38700 29.77000
C  21.71800 1.58200 30.88300
C  20.30800 1.58600 30.38100
C  20.40900 1.26200 28.96400
C  21.85500 1.25400 28.63900
C  19.07600 1.85300 31.22500
C  19.25300 0.96200 28.00800
O  19.51000 0.49800 26.88100
C  17.74800 1.14700 28.37600
N  24.73700 0.93200 27.80400
C  23.71200 1.09600 26.99200
C  24.14500 1.28900 25.46600
C  25.74600 1.15000 25.60200
C  25.87800 1.00000 27.11500
C  23.43000 0.36700 24.41900
C  26.52200 2.39100 25.09000
C  26.49000 3.75000 26.00000
N  26.57000 0.83500 30.04200
C  27.51400 0.63900 29.04800
C  28.79500 0.44600 29.59800
C  28.60900 0.54500 30.95900
C  27.20200 0.80200 31.21700
C  30.10900 0.29400 28.80800
C  29.27000 0.59100 32.17900
O  30.46000 0.44700 32.29500
C  28.16500 0.84200 33.29100
C  28.17500 -0.22800 34.31200
O  27.94500 -1.42200 34.01800
O  28.46800 0.20900 35.58400
C  28.48700 -0.87100 36.61100
H  21.22900 1.91600 32.84300
H  21.75900 1.13300 26.50200
H  27.89700 0.70500 26.87300
H  25.36300 0.78200 35.10500
H  23.23700 2.77500 34.64100
H  22.61200 1.23000 36.24900
H  22.96100 -0.21200 35.25200
H  21.51500 0.72100 34.95400
H  24.99100 3.58100 35.10300
H  26.40600 3.29600 34.19600
H  27.60600 2.93800 36.37200
H  26.50000 1.65600 36.61700
H  18.60300 0.88100 31.36500
H  18.50800 2.60700 30.67800
H  19.32400 2.30600 32.18500
H  17.51900 0.62900 29.30800
H  17.09500 0.96500 27.52300
H  17.70800 2.22800 28.51400
H  23.78600 2.28000 25.18700
H  26.00800 0.23200 25.07500
H  22.77300 0.83900 23.68900
H  22.77700 -0.23700 25.04900
H  24.20900 -0.27400 24.00700
H  26.22100 2.58000 24.05900
H  27.55200 2.03500 25.06900
H  25.86000 3.53100 26.86200
H  26.01500 4.55300 25.43500
H  27.50100 4.10800 26.19800
H  29.73700 -0.39900 28.05400
H  30.75600 -0.35200 29.40100
H  30.70000 1.16500 28.52500
H  28.37400 1.81100 33.74400
H  28.64300 -0.35100 37.55600
H  29.37900 -1.47000 36.42900
H  27.60300 -1.50600 36.65000

