158

Mg 26.61700 50.49100 26.68000
C  24.94400 52.03000 29.42400
C  29.12300 49.60100 28.98300
C  28.57400 49.20400 24.10100
C  24.57000 52.00700 24.48400
N  26.89400 50.71100 29.00500
C  26.05300 51.27800 29.91500
C  26.50300 51.12900 31.39900
C  27.90900 50.32700 31.19500
C  27.98400 50.17100 29.64600
C  29.02500 50.97900 31.88800
C  25.50400 50.27300 32.30500
C  24.82900 51.16700 33.40300
H  25.73200 51.58900 34.58800
N  28.53700 49.54400 26.48900
C  29.34200 49.22300 27.60200
C  30.59600 48.49800 27.11500
C  30.45000 48.51700 25.65100
C  29.10200 49.06900 25.34600
C  31.67500 48.14300 28.02900
C  31.44700 48.08700 24.57400
O  31.31500 48.24100 23.35200
C  32.65800 47.31500 24.97100
N  26.58100 50.66000 24.58200
C  27.47100 49.98800 23.73200
C  27.03300 50.12100 22.29500
C  25.73800 51.06700 22.33400
C  25.54200 51.18700 23.89600
C  28.29700 50.69500 21.48100
C  24.35500 50.65600 21.62000
C  23.94100 51.60800 20.45100
N  24.99200 51.67400 26.87700
C  24.30800 52.30700 25.84500
C  23.25200 53.10800 26.48800
C  23.47700 53.07000 27.90300
C  24.55700 52.18000 28.04700
C  22.22600 53.88400 25.81300
C  23.06900 53.64000 29.16800
O  22.38200 54.60600 29.40700
C  24.00600 52.94500 30.22400
C  24.67900 54.13700 30.70700
O  25.67400 54.63100 30.21000
O  24.07000 54.59400 31.86000
C  24.62500 55.55200 32.79500
H  29.82400 49.32300 29.77200
H  29.00400 48.72200 23.22000
H  23.88400 52.32400 23.69600
H  26.68600 52.11800 31.81900
H  27.76400 49.33700 31.62800
H  29.23100 50.33000 32.74000
H  28.86800 51.99000 32.26200
H  29.94900 51.05800 31.31600
H  25.99200 49.43900 32.81000
H  24.88500 49.82000 31.53100
H  24.00700 50.54100 33.75100
H  24.38000 52.10300 33.06900
H  31.33000 48.08600 29.06200
H  32.47100 48.87200 27.87800
H  31.95800 47.18600 27.59100
H  33.27600 47.91500 25.63900
H  33.22800 47.10900 24.06500
H  32.39500 46.33500 25.36800
H  26.70300 49.12300 22.00800
H  25.97400 52.04600 21.91700
H  28.84800 49.93000 20.93400
H  28.98900 51.09700 22.22100
H  28.08500 51.50100 20.77900
H  23.53800 50.57000 22.33600
H  24.36300 49.72700 21.05100
H  24.74600 52.30100 20.20700
H  23.16800 52.26800 20.84500
H  23.68900 51.02900 19.56300
H  22.63000 54.53500 25.03800
H  21.71900 54.56000 26.50100
H  21.46300 53.16000 25.52800
H  23.46800 52.47700 31.04900
H  24.92100 56.54600 32.45700
H  25.55900 55.10600 33.13800
H  23.83600 55.54700 33.54700
Mg -5.48000 25.42500 26.26300
C  -4.04500 26.81600 29.10000
C  -7.46900 23.32700 28.31000
C  -6.49300 23.88200 23.50800
C  -3.10700 27.22900 24.35900
N  -5.67600 25.01000 28.44400
C  -5.00300 25.76800 29.38900
C  -5.54700 25.50400 30.83200
C  -6.48000 24.21000 30.51900
C  -6.58000 24.18000 29.01500
C  -5.88200 22.89800 31.18100
C  -6.36300 26.58900 31.52500
C  -6.01400 26.75100 32.98700
H  -5.94100 25.58000 33.93900
N  -6.86000 23.82700 25.92100
C  -7.60900 23.18000 26.87000
C  -8.44800 22.21800 26.16500
C  -8.08600 22.26000 24.77000
C  -7.08000 23.31600 24.69000
C  -9.36300 21.27300 26.88100
C  -8.53600 21.43500 23.59000
O  -7.86900 21.44200 22.54700
C  -9.67900 20.62800 23.67800
N  -4.76200 25.45900 24.17800
C  -5.40100 24.78300 23.31200
C  -4.87200 25.11600 21.92200
C  -3.86900 26.22100 22.11400
C  -3.96300 26.40000 23.63000
C  -4.14900 23.89200 21.23500
C  -4.25500 27.54100 21.40700
C  -3.39100 27.81700 20.21200
N  -3.86200 26.67600 26.58500
C  -3.03100 27.39500 25.75300
C  -2.21400 28.32000 26.45200
C  -2.59800 28.08400 27.83900
C  -3.50800 27.04700 27.81400
C  -1.26600 29.32100 25.92200
C  -2.26800 28.49900 29.20400
O  -1.58400 29.42400 29.64700
C  -3.24800 27.60700 30.10800
C  -2.38700 26.73400 30.99300
O  -1.88500 25.74900 30.61200
O  -2.50800 27.14800 32.25900
C  -1.88900 26.32300 33.34400
H  -8.25800 22.79100 28.84100
H  -6.71800 23.36000 22.57600
H  -2.52600 27.92200 23.74800
H  -4.71400 25.16800 31.44900
H  -7.44200 24.33900 31.01500
H  -6.60700 22.28100 31.71300
H  -5.01600 23.10800 31.80800
H  -5.57200 22.29200 30.33000
H  -7.44700 26.48800 31.46500
H  -6.18700 27.56800 31.07900
H  -6.80400 27.35100 33.43700
H  -5.09000 27.30600 33.15100
H  -10.38900 21.63400 26.96100
H  -8.94000 20.87500 27.80300
H  -9.59700 20.35400 26.34500
H  -10.08500 20.55700 22.66900
H  -10.39400 21.20300 24.26700
H  -9.58900 19.58600 23.98600
H  -5.68100 25.40300 21.25000
H  -2.81900 25.99900 21.92200
H  -3.06200 23.95000 21.16900
H  -4.67600 23.72800 20.29500
H  -4.34900 23.02700 21.86800
H  -4.08200 28.38600 22.07300
H  -5.29600 27.58700 21.08600
H  -3.96500 27.88800 19.28700
H  -2.51800 27.17900 20.07300
H  -2.92700 28.79500 20.34200
H  -1.81100 30.26400 25.88100
H  -0.98200 29.03000 24.91100
H  -0.36500 29.50100 26.50900
H  -3.84400 28.28100 30.72300
H  -1.75300 26.85700 34.28400
H  -0.95200 25.86700 33.02500
H  -2.65200 25.60100 33.63500

