158

Mg 2.08600 -0.66000 44.23200
C  5.41500 0.44700 44.04300
C  1.15200 2.10400 42.32500
C  -0.80100 -2.15300 43.63000
C  3.34700 -3.74200 45.35700
N  3.19400 1.07100 43.24100
C  4.50900 1.30400 43.30100
C  4.84400 2.64700 42.63600
C  3.41700 3.21000 42.34800
C  2.53900 2.10300 42.61200
C  3.10500 4.50800 43.11700
C  5.67100 2.39500 41.31300
C  6.98100 3.21400 41.27300
H  7.90700 2.89500 40.03100
N  0.40000 -0.02400 43.30100
C  0.16200 1.14400 42.61100
C  -1.18700 1.22300 42.26600
C  -1.84900 0.03200 42.75200
C  -0.71900 -0.80200 43.24600
C  -1.75100 2.46000 41.56200
C  -3.37700 -0.21200 42.73200
O  -4.09100 0.65300 42.17400
C  -3.98700 -1.45600 43.32700
N  1.32500 -2.69800 44.42000
C  0.09100 -3.04800 44.15200
C  -0.18400 -4.53500 44.39500
C  1.19800 -4.98700 44.99400
C  2.06000 -3.75800 44.89400
C  -1.35100 -4.86700 45.33000
C  1.94800 -6.26900 44.43100
C  2.53600 -7.25300 45.46900
N  4.00400 -1.47600 44.65300
C  4.31500 -2.66600 45.27300
C  5.66400 -2.66500 45.60600
C  6.20100 -1.45900 45.11300
C  5.17200 -0.81800 44.53300
C  6.47900 -3.76100 46.23600
C  7.36100 -0.60900 45.05400
O  8.49000 -0.76500 45.55200
C  6.88400 0.70100 44.32500
C  7.18500 1.86400 45.17400
O  6.43900 2.34600 46.01700
O  8.37200 2.39700 44.61400
C  8.71600 3.75700 45.11200
H  0.93700 2.99300 41.72800
H  -1.78200 -2.50900 43.30900
H  3.72900 -4.67700 45.77200
H  5.41500 3.31200 43.28400
H  3.29600 3.44400 41.29100
H  3.92800 4.90000 43.71400
H  2.24800 4.50900 43.79000
H  2.85500 5.34700 42.46800
H  5.05500 2.69600 40.46600
H  5.82400 1.32800 41.15200
H  7.48100 2.98100 42.21300
H  6.86900 4.29800 41.25300
H  -2.76500 2.69800 41.88100
H  -1.88300 2.16900 40.52000
H  -1.18000 3.35100 41.82400
H  -5.03200 -1.21800 43.12900
H  -3.75200 -1.50100 44.39000
H  -3.75300 -2.26600 42.63700
H  -0.34600 -5.10000 43.47700
H  1.09900 -5.08700 46.07500
H  -1.08700 -5.07000 46.36800
H  -1.97400 -5.66600 44.92700
H  -1.96400 -3.97600 45.46800
H  2.68000 -6.01900 43.66200
H  1.09300 -6.78800 43.99800
H  2.28200 -8.28600 45.23200
H  2.21800 -7.05600 46.49300
H  3.61500 -7.13600 45.36400
H  6.71300 -4.41800 45.39800
H  5.95700 -4.35100 46.98900
H  7.37900 -3.37400 46.71500
H  7.44200 0.95100 43.42300
H  9.73000 4.04300 44.83500
H  8.58400 3.91400 46.18300
H  8.07100 4.39400 44.50700
Mg 24.17800 -4.35800 46.06900
C  26.59900 -2.40200 44.72400
C  21.98700 -3.18100 43.68300
C  22.25300 -6.92600 46.76600
C  26.65500 -5.70400 48.39900
N  24.30500 -2.95400 44.46700
C  25.36500 -2.21900 44.11700
C  25.03100 -1.30800 42.87500
C  23.47000 -1.23400 43.03900
C  23.22100 -2.52800 43.85100
C  23.04600 0.03600 43.85600
C  25.65400 -1.91400 41.60100
C  26.15100 -0.85800 40.60200
H  25.55000 -0.87500 39.15500
N  22.29700 -4.89600 45.29200
C  21.57600 -4.32200 44.29500
C  20.42400 -5.11500 44.19700
C  20.50500 -6.28200 44.95200
C  21.72600 -6.09600 45.71300
C  19.34500 -4.77300 43.11300
C  19.49700 -7.39100 44.94000
O  18.56500 -7.43800 44.10900
C  19.59200 -8.55200 45.89900
N  24.54800 -6.09900 47.39000
C  23.48200 -6.90800 47.53500
C  23.65800 -7.86800 48.75200
C  24.96700 -7.33500 49.40300
C  25.44400 -6.38500 48.33800
C  22.39400 -7.92600 49.67900
C  26.01800 -8.47800 49.61100
C  27.02300 -8.38000 50.75800
N  26.21600 -4.04400 46.56900
C  27.05600 -4.67400 47.48000
C  28.41400 -4.09500 47.34300
C  28.26700 -3.16300 46.29600
C  26.90300 -3.27600 45.83100
C  29.59900 -4.56000 48.16900
C  28.99400 -2.24500 45.49600
O  30.16600 -1.85100 45.59100
C  27.96500 -1.69600 44.46100
C  27.89000 -0.24000 44.70500
O  27.07600 0.35700 45.44100
O  28.83400 0.36000 43.96000
C  29.14600 1.78300 44.08300
H  21.33800 -2.71900 42.93600
H  21.62200 -7.77600 47.03500
H  27.42400 -6.01300 49.10900
H  25.53100 -0.37300 43.12700
H  23.07400 -1.28900 42.02500
H  23.80700 0.81600 43.88700
H  22.77600 -0.27000 44.86700
H  22.17300 0.47700 43.37500
H  24.85600 -2.45000 41.08500
H  26.35400 -2.74500 41.68500
H  27.23700 -0.88700 40.69100
H  25.77000 0.05400 41.06200
H  18.38700 -5.04400 43.55800
H  19.49000 -5.32000 42.18200
H  19.26100 -3.71300 42.87100
H  18.89300 -9.33300 45.59900
H  19.27000 -8.39400 46.92900
H  20.55500 -9.06000 45.84800
H  23.85300 -8.84200 48.30400
H  24.72100 -6.74400 50.28400
H  21.61800 -7.25000 49.32300
H  22.46500 -7.59600 50.71500
H  21.97300 -8.92400 49.80200
H  26.54800 -8.48100 48.65900
H  25.57600 -9.46300 49.76100
H  26.82700 -9.05400 51.59100
H  27.03300 -7.34600 51.10300
H  27.99600 -8.68900 50.37600
H  29.91900 -5.51100 47.74200
H  29.37300 -4.71900 49.22300
H  30.44000 -3.87000 48.09300
H  28.27500 -1.84400 43.42600
H  30.08700 2.07800 43.61900
H  29.26700 1.99800 45.14400
H  28.29000 2.35700 43.72800

