158

Mg 2.13500 -2.19100 44.99100
C  5.47300 -1.24300 44.62600
C  1.32500 0.67500 43.07800
C  -1.08700 -3.14800 45.17800
C  3.21300 -5.26400 46.25500
N  3.22100 -0.44500 44.02700
C  4.64200 -0.29500 43.96400
C  5.11200 0.93700 43.18300
C  3.76500 1.51400 42.75800
C  2.72000 0.53100 43.34600
C  3.56800 2.99400 43.32500
C  6.15800 0.62700 41.97300
C  7.30600 1.64300 41.72500
H  7.35500 2.38700 40.37000
N  0.38700 -1.40100 44.19600
C  0.22600 -0.17700 43.56700
C  -1.18700 0.03300 43.36300
C  -1.89200 -1.08100 43.90200
C  -0.87200 -1.93700 44.50400
C  -1.76500 1.27600 42.81900
C  -3.38700 -1.18300 43.94000
O  -4.10200 -0.25100 43.58600
C  -4.24000 -2.34700 44.52500
N  1.22300 -3.98600 45.47800
C  -0.14100 -4.08700 45.65800
C  -0.54500 -5.45800 46.17400
C  0.81200 -6.16600 46.50800
C  1.81400 -5.03700 46.11100
C  -1.47700 -5.42900 47.36800
C  1.01600 -7.50900 45.76600
C  1.02300 -8.75100 46.59300
N  3.91800 -3.05300 45.46300
C  4.21100 -4.33900 45.93900
C  5.65200 -4.52600 46.06800
C  6.19900 -3.30400 45.62600
C  5.07700 -2.47800 45.20100
C  6.44700 -5.73200 46.58600
C  7.44700 -2.50700 45.54400
O  8.64300 -2.76800 45.82200
C  7.02100 -1.17400 44.82000
C  7.30900 0.05600 45.52500
O  6.68100 0.49400 46.48500
O  8.30100 0.76600 44.88000
C  8.61600 2.07700 45.47100
H  1.02500 1.50400 42.43400
H  -2.13100 -3.40000 45.37500
H  3.38100 -6.26700 46.65400
H  5.49000 1.64600 43.92000
H  3.69400 1.46800 41.67100
H  4.45500 3.62700 43.29800
H  3.08800 2.86800 44.29600
H  2.76000 3.30000 42.66000
H  5.64000 0.54900 41.01700
H  6.60800 -0.36200 42.05500
H  8.26400 1.26900 42.08500
H  7.13600 2.45700 42.42900
H  -2.26600 2.01600 43.44300
H  -2.50000 1.03600 42.05100
H  -0.88600 1.81100 42.46000
H  -4.38500 -2.39100 45.60500
H  -3.89700 -3.26900 44.05600
H  -5.22400 -2.26000 44.06400
H  -1.01200 -5.95000 45.32100
H  0.99900 -6.35100 47.56600
H  -1.10300 -6.10700 48.13500
H  -2.52500 -5.68500 47.21400
H  -1.40200 -4.40000 47.72200
H  1.97500 -7.40200 45.25900
H  0.38100 -7.74200 44.91200
H  1.75600 -9.39800 46.11000
H  0.06500 -9.25800 46.48100
H  1.27200 -8.50400 47.62500
H  7.33100 -5.26300 47.01900
H  6.72300 -6.41400 45.78100
H  5.90500 -6.25100 47.37600
H  7.53200 -1.18700 43.85700
H  7.87500 2.71100 44.98400
H  9.66000 2.30200 45.25000
H  8.36300 2.26100 46.51600
Mg 27.02400 50.60100 26.40300
C  24.85200 51.32900 29.17000
C  29.21700 49.29500 28.63200
C  29.14400 50.14000 23.87200
C  24.46700 51.71000 24.23200
N  26.94300 50.19200 28.62800
C  25.92400 50.57500 29.53300
C  26.39100 50.26900 30.95500
C  27.87700 49.80900 30.75700
C  27.98800 49.64500 29.22800
C  28.98100 50.73400 31.38900
C  25.35100 49.27300 31.68200
C  24.49500 49.75600 32.86600
H  24.34200 48.74300 33.99700
N  28.92800 49.87400 26.24300
C  29.68700 49.38000 27.31800
C  30.99700 48.96500 26.88300
C  31.07700 49.33500 25.51400
C  29.70300 49.79700 25.13800
C  31.99400 48.13400 27.70200
C  32.20600 49.36100 24.55600
O  31.97900 49.67500 23.38000
C  33.63300 49.02600 25.05400
N  26.84900 50.86300 24.37500
C  27.84600 50.58100 23.57200
C  27.39100 50.81100 22.13100
C  25.83600 51.13100 22.22700
C  25.66800 51.13300 23.67400
C  28.33200 51.87000 21.43500
C  24.93800 50.04000 21.50000
C  23.51700 50.46600 21.09100
N  25.08700 51.35600 26.60500
C  24.20800 51.84000 25.64300
C  23.01700 52.39400 26.22700
C  23.36100 52.30100 27.60200
C  24.55400 51.60000 27.78500
C  21.79400 52.96200 25.60700
C  22.80200 52.62400 28.94000
O  21.86400 53.35200 29.25900
C  23.77300 51.89900 30.00000
C  24.24400 53.01100 30.86400
O  25.15500 53.76500 30.63100
O  23.59700 52.84600 32.05800
C  23.98400 53.94700 33.03000
H  30.06300 49.16800 29.31000
H  29.72200 49.90700 22.97500
H  23.69400 51.94100 23.49700
H  26.37100 51.19100 31.53600
H  27.95500 48.81300 31.19400
H  29.76800 50.08600 31.77600
H  28.51800 51.23700 32.23800
H  29.41000 51.40600 30.64500
H  26.01000 48.47400 32.02200
H  24.79100 48.73800 30.91500
H  23.48300 50.00400 32.54700
H  24.97800 50.65900 33.23800
H  32.73400 48.81200 28.12700
H  32.51200 47.34500 27.15700
H  31.43500 47.64400 28.50000
H  33.62900 47.96100 25.28200
H  33.80000 49.66800 25.91900
H  34.22500 49.28300 24.17500
H  27.54000 49.95300 21.47500
H  25.66200 52.12700 21.81800
H  27.81100 52.78000 21.13900
H  28.81500 51.45600 20.55000
H  29.19900 52.09000 22.05800
H  24.83000 49.28400 22.27700
H  25.52800 49.56500 20.71700
H  23.46600 51.49500 21.44700
H  22.75800 49.85300 21.57600
H  23.28000 50.52800 20.02900
H  21.80000 54.05100 25.55900
H  20.93400 52.63500 26.19200
H  21.72800 52.54700 24.60100
H  23.25500 51.10400 30.53700
H  23.94700 54.99900 32.74900
H  24.94500 53.68100 33.47100
H  23.16400 53.86100 33.74300

