158

Mg 0.41500 7.57400 25.75100
C  1.23000 9.72600 28.51200
C  0.92200 4.88800 27.71800
C  -0.28100 5.78100 23.03000
C  0.74100 10.56500 23.65300
N  1.06800 7.35000 27.91100
C  1.18200 8.39200 28.83300
C  1.25000 7.74300 30.24600
C  1.38300 6.17500 29.95300
C  1.02000 6.11900 28.47500
C  2.72400 5.52200 30.34900
C  -0.08500 8.15400 31.08600
C  0.06700 8.16800 32.56000
H  1.33000 7.54400 33.20000
N  0.29800 5.69600 25.40600
C  0.61800 4.71800 26.35700
C  0.34700 3.42400 25.83200
C  -0.05400 3.56400 24.47300
C  -0.09100 5.04500 24.20200
C  0.62100 2.13700 26.61800
C  -0.39900 2.53800 23.38500
O  -0.67900 2.86600 22.25800
C  -0.29900 1.09500 23.69000
N  0.22400 8.18500 23.67700
C  -0.12800 7.16500 22.78900
C  -0.07600 7.75500 21.32300
C  0.22700 9.28000 21.56600
C  0.38000 9.39200 23.04500
C  1.02100 7.10300 20.41200
C  -0.80100 10.17300 20.88200
C  -2.17900 10.13000 21.50800
N  0.85100 9.68400 25.99200
C  0.94200 10.78600 25.06000
C  1.24600 12.05300 25.76600
C  1.26800 11.63500 27.12100
C  1.10400 10.23100 27.20400
C  1.28900 13.49200 25.23100
C  1.50900 12.17000 28.44300
O  1.76700 13.28300 28.83100
C  1.37100 10.94000 29.42900
C  2.57500 10.97000 30.25000
O  3.69800 10.79500 29.80200
O  2.15100 11.18000 31.61100
C  3.13900 11.11100 32.62100
H  1.00400 4.06900 28.43600
H  -0.52000 5.17400 22.15400
H  0.65300 11.44200 23.00900
H  2.04200 8.10000 30.90500
H  0.62200 5.67400 30.55100
H  3.42300 6.23800 30.78000
H  3.15500 4.95500 29.52400
H  2.55400 4.87500 31.21000
H  -0.80900 7.37100 30.86100
H  -0.49300 9.08800 30.70200
H  -0.81700 7.63900 32.91900
H  0.01900 9.13900 33.05200
H  0.69600 1.14500 26.17400
H  0.03800 2.09700 27.53800
H  1.59100 2.19500 27.11100
H  -0.85600 0.77400 22.80900
H  -0.91800 0.73500 24.51200
H  0.74600 0.78800 23.72300
H  -1.01700 7.54600 20.81500
H  1.24700 9.54300 21.28800
H  0.87900 7.46700 19.39500
H  1.03600 6.01600 20.33700
H  2.02200 7.35200 20.76500
H  -0.94900 9.89000 19.84000
H  -0.48000 11.21300 20.93800
H  -2.87200 10.62000 20.82500
H  -2.15800 10.74800 22.40600
H  -2.45800 9.09700 21.71700
H  1.08400 13.43500 24.16200
H  2.20600 13.94700 25.60700
H  0.40400 13.88900 25.72800
H  0.51000 11.16700 30.05900
H  3.44300 12.15400 32.71000
H  3.94700 10.44300 32.32000
H  2.75300 10.78500 33.58700
Mg 49.03700 45.26100 43.11800
C  45.66000 45.63600 41.88900
C  48.87600 41.92200 42.32500
C  52.35000 45.09400 43.31500
C  49.20700 48.82500 43.07200
N  47.46300 44.02400 42.02500
C  46.13400 44.32100 41.83400
C  45.45800 42.97600 41.36700
C  46.41100 41.83300 41.80000
C  47.64600 42.64800 42.12300
C  45.86900 40.78600 42.79500
C  45.08900 42.82900 39.81900
C  46.09500 43.48200 38.89000
H  45.46900 43.93200 37.61200
N  50.45100 43.69800 43.05200
C  50.17800 42.39700 42.65600
C  51.46700 41.67800 42.63500
C  52.48400 42.56400 43.07100
C  51.80000 43.83800 43.16500
C  51.56900 40.19100 42.32800
C  53.84800 42.17500 43.29700
O  54.28900 41.06300 43.07200
C  54.88900 43.20900 43.78300
N  50.56600 46.73900 43.17000
C  51.86400 46.38800 43.31900
C  52.81600 47.63200 43.11300
C  51.72700 48.84100 43.10600
C  50.39900 48.08900 43.09600
C  53.92200 47.78100 44.24000
C  51.90600 49.72400 41.79000
C  52.10200 51.20800 42.02400
N  47.75000 46.87800 42.87200
C  47.89500 48.27600 42.87200
C  46.62800 48.94500 42.68200
C  45.74000 47.92000 42.26900
C  46.47700 46.73400 42.41400
C  46.39200 50.46600 42.54800
C  44.43200 47.68300 41.83800
O  43.44400 48.40500 41.71900
C  44.34700 46.14600 41.53000
C  43.23800 45.55800 42.32000
O  42.34900 44.91500 41.83900
O  43.22100 45.92000 43.71600
C  41.95300 45.56900 44.48800
H  48.74600 40.90700 41.94500
H  53.43800 45.18000 43.35700
H  49.34700 49.90700 43.10400
H  44.52400 42.92500 41.92800
H  46.69800 41.26100 40.91700
H  45.79200 39.82100 42.29400
H  44.89400 41.18400 43.07700
H  46.45700 40.74900 43.71200
H  44.12000 43.26800 39.58100
H  45.07400 41.77400 39.54700
H  47.00100 42.88200 38.80800
H  46.44100 44.41800 39.32900
H  51.66500 39.62200 43.25300
H  52.46200 39.88100 41.78600
H  50.74000 39.76100 41.76600
H  55.10200 43.86600 42.94000
H  55.75400 42.83200 44.32900
H  54.46700 43.76500 44.62000
H  53.38700 47.45200 42.20200
H  51.62900 49.43300 44.01600
H  54.72700 48.42500 43.88500
H  54.18500 46.79100 44.61100
H  53.55800 48.35900 45.09000
H  51.06500 49.60000 41.10800
H  52.79300 49.37400 41.26300
H  51.31200 51.79200 41.55300
H  53.02900 51.63100 41.63700
H  52.02100 51.39000 43.09600
H  47.21400 51.06100 42.15000
H  46.17200 50.76800 43.57200
H  45.49000 50.64300 41.96400
H  44.10700 45.92700 40.49000
H  41.06200 45.35200 43.89900
H  41.63100 46.44500 45.05100
H  42.05500 44.73200 45.17900

