158

Mg 15.96400 -1.92700 28.29000
C  15.21000 0.33300 30.77000
C  18.21000 -3.36100 30.48300
C  17.09700 -3.75100 25.76600
C  13.97400 -0.09400 26.06900
N  16.55100 -1.54200 30.44000
C  16.09400 -0.59000 31.27000
C  16.61600 -0.76600 32.69000
C  17.74700 -1.82500 32.53900
C  17.55500 -2.20300 31.03200
C  19.14300 -1.29500 33.00600
C  15.43800 -1.24200 33.64000
C  15.57500 -1.08400 35.19700
H  16.82100 -0.43100 35.75100
N  17.48300 -3.40500 28.17400
C  18.16700 -3.88300 29.16800
C  18.90500 -5.04300 28.63500
C  18.66200 -5.21400 27.23600
C  17.71400 -4.09400 26.98800
C  19.76500 -5.85100 29.54400
C  19.21700 -6.16400 26.27800
O  18.93400 -6.12300 25.09500
C  20.09700 -7.33400 26.74500
N  15.67000 -1.87800 26.21200
C  16.11100 -2.86300 25.38000
C  15.61400 -2.57100 23.88500
C  14.45000 -1.54300 24.06800
C  14.71600 -1.14400 25.51800
C  16.78700 -2.09200 22.97300
C  13.05900 -2.14500 23.76500
C  12.17800 -1.60000 22.64100
N  14.82300 -0.28100 28.33700
C  14.06500 0.38300 27.41700
C  13.52600 1.63400 27.93500
C  13.94600 1.56700 29.30200
C  14.68300 0.39900 29.49700
C  12.80100 2.71900 27.13600
C  13.81100 2.34300 30.55000
O  13.26400 3.38700 30.81600
C  14.60300 1.48200 31.60300
C  15.53900 2.34700 32.32100
O  16.67900 2.58800 31.97500
O  14.91000 2.92200 33.36900
C  15.63400 3.88900 34.12000
H  18.88500 -3.85500 31.18500
H  17.46700 -4.29600 24.89500
H  13.18100 0.36600 25.47500
H  16.88300 0.21700 33.07800
H  17.45400 -2.74100 33.05100
H  19.42200 -1.78800 33.93800
H  19.11900 -0.21600 33.15700
H  19.84200 -1.53400 32.20500
H  15.20600 -2.29600 33.49000
H  14.51100 -0.69200 33.47800
H  15.30400 -2.00600 35.71100
H  14.80400 -0.47900 35.67500
H  19.56800 -5.62500 30.59100
H  20.82800 -5.73700 29.32900
H  19.52600 -6.91300 29.48700
H  20.18400 -8.12400 25.99900
H  19.63000 -7.70200 27.65800
H  21.08600 -7.01800 27.07800
H  15.39700 -3.50900 23.37400
H  14.70700 -0.67900 23.45500
H  16.89400 -1.01900 23.13000
H  16.54900 -2.28800 21.92700
H  17.65700 -2.63000 23.35100
H  12.41100 -2.16300 24.64000
H  13.22700 -3.19100 23.50500
H  11.39300 -2.30800 22.37700
H  12.83300 -1.26600 21.83600
H  11.66100 -0.68400 22.92600
H  11.73900 2.47900 27.19700
H  13.09100 2.62400 26.08900
H  13.01600 3.70300 27.55200
H  13.81600 1.10700 32.25700
H  16.57600 3.58900 34.57900
H  15.00000 4.22500 34.94100
H  15.70200 4.84600 33.60300
Mg -2.13700 33.98700 27.10400
C  -3.93100 32.40100 29.49700
C  -1.06300 36.20100 29.53900
C  -0.64500 35.89600 24.65400
C  -3.74400 32.17100 24.64500
N  -2.49800 34.23900 29.25100
C  -3.20400 33.41000 30.03400
C  -3.11100 33.79700 31.53400
C  -2.39000 35.21600 31.46100
C  -1.99900 35.20400 29.97100
C  -3.17900 36.44300 31.98400
C  -2.35100 32.74500 32.35400
C  -3.17300 32.17000 33.53700
H  -2.49800 31.70800 34.87600
N  -0.92500 35.65500 27.15300
C  -0.54200 36.40300 28.25000
C  0.50500 37.27900 27.90900
C  0.57100 37.24200 26.46500
C  -0.38300 36.27300 25.98600
C  1.37400 38.06500 28.91500
C  1.64600 37.91300 25.63800
O  1.71400 37.71200 24.44600
C  2.72400 38.85300 26.15600
N  -2.28600 34.09900 24.98100
C  -1.53000 34.93100 24.19700
C  -1.44300 34.40100 22.75500
C  -2.52000 33.28800 22.71800
C  -2.83700 33.12300 24.21400
C  -1.47400 35.35200 21.59000
C  -1.92700 32.04000 21.90700
C  -1.03300 31.08900 22.78300
N  -3.61400 32.61200 26.97600
C  -4.11500 31.87300 25.94100
C  -5.09500 30.88600 26.51000
C  -4.99000 31.05700 27.88300
C  -4.06100 32.07000 28.15800
C  -5.87400 29.81100 25.79500
C  -5.59200 30.55700 29.13300
O  -6.44200 29.74900 29.29500
C  -4.91200 31.43300 30.22500
C  -5.92300 32.20600 30.92400
O  -6.72700 32.95000 30.40300
O  -6.10500 31.77700 32.21300
C  -7.32300 32.24800 32.94000
H  -0.80600 36.88000 30.35500
H  -0.20800 36.49100 23.84900
H  -4.05900 31.57300 23.78700
H  -4.12100 33.95000 31.91500
H  -1.47900 35.26400 32.05600
H  -4.13200 36.25300 32.47900
H  -3.35000 37.08900 31.12300
H  -2.60200 37.06800 32.66500
H  -1.53900 33.27000 32.85700
H  -1.98000 31.91300 31.75600
H  -3.70700 31.32900 33.09600
H  -3.96500 32.87400 33.79200
H  2.23300 37.44600 29.17600
H  0.80100 38.36400 29.79200
H  1.75100 38.95400 28.41000
H  2.28600 39.75700 26.58000
H  3.53400 39.04600 25.45300
H  3.29600 38.25400 26.86500
H  -0.44100 33.97800 22.68800
H  -3.37300 33.67100 22.15700
H  -2.32300 35.09800 20.95500
H  -0.59600 35.22300 20.95700
H  -1.61400 36.37100 21.95100
H  -1.37700 32.37500 21.02800
H  -2.82300 31.48400 21.62800
H  -0.23800 30.54500 22.27400
H  -1.64400 30.28600 23.19600
H  -0.65400 31.74000 23.57100
H  -5.79100 28.87100 26.34200
H  -5.43800 29.83500 24.79700
H  -6.91300 30.13900 25.77000
H  -4.38000 30.72100 30.85500
H  -7.87400 33.04900 32.44700
H  -6.96400 32.76900 33.82800
H  -7.84000 31.34000 33.25100

