158

Mg -1.19700 17.36800 27.56400
C  -1.73500 15.14400 30.12300
C  -1.57500 19.90100 29.78500
C  -1.11500 19.53800 24.96500
C  -1.20400 14.68700 25.27600
N  -1.60500 17.43000 29.69800
C  -1.62300 16.43400 30.61400
C  -1.58400 16.92800 32.07200
C  -1.67700 18.48500 31.89500
C  -1.51800 18.63200 30.38700
C  -2.95400 19.19300 32.47800
C  -0.30300 16.50500 32.86300
C  -0.11500 17.27000 34.18700
H  0.41500 16.51400 35.46800
N  -1.25200 19.46700 27.39900
C  -1.43700 20.34000 28.43900
C  -1.34400 21.66300 27.91300
C  -1.08900 21.61300 26.57000
C  -1.09300 20.17900 26.19600
C  -1.44700 22.90000 28.86700
C  -0.81300 22.69700 25.47700
O  -0.59200 22.38100 24.29900
C  -0.73700 24.10800 25.80000
N  -0.98400 17.16700 25.49100
C  -1.09600 18.16100 24.62900
C  -1.13700 17.72200 23.16900
C  -1.11600 16.20500 23.23800
C  -1.14800 15.98700 24.77400
C  -2.37100 18.35200 22.35300
C  -0.03500 15.37500 22.51800
C  1.44500 15.67700 22.81400
N  -1.45100 15.31200 27.62100
C  -1.43200 14.35500 26.59900
C  -1.77400 13.06100 27.19900
C  -1.76700 13.35400 28.54700
C  -1.69700 14.73400 28.74100
C  -2.01300 11.75300 26.50800
C  -2.07300 12.71800 29.80900
O  -2.31300 11.55400 30.11300
C  -2.02600 13.80900 30.90000
C  -0.96500 13.40800 31.84400
O  0.26800 13.37400 31.62900
O  -1.48800 12.92900 33.04000
C  -0.44500 12.42200 33.97300
H  -1.69000 20.62800 30.59300
H  -0.96400 20.20600 24.11500
H  -1.17400 13.81100 24.62400
H  -2.46500 16.51200 32.56100
H  -0.86100 19.02400 32.37600
H  -2.69800 20.22300 32.72600
H  -3.28100 18.62200 33.34700
H  -3.78500 19.24000 31.77300
H  0.42300 16.70100 32.07400
H  -0.32800 15.45000 33.13500
H  -0.92200 17.94500 34.47200
H  0.72400 17.95100 34.03900
H  -0.41200 23.24000 28.85700
H  -1.76200 22.61800 29.87100
H  -2.10900 23.71700 28.57800
H  -1.63600 24.48900 26.28600
H  -0.61900 24.73500 24.91600
H  0.17500 24.34000 26.34900
H  -0.19900 18.06900 22.73500
H  -2.10400 15.79900 23.02500
H  -2.95200 18.86500 23.11900
H  -2.83200 17.54000 21.79000
H  -2.02600 19.18400 21.73900
H  -0.29600 15.37900 21.46000
H  -0.19000 14.34900 22.85300
H  1.78600 15.99700 21.82900
H  1.96000 14.76400 23.11400
H  1.66200 16.38700 23.61100
H  -2.32900 11.96800 25.48700
H  -2.72300 11.14300 27.06600
H  -1.07800 11.19500 26.46400
H  -3.05300 13.75300 31.26200
H  0.10800 11.58900 33.53800
H  -0.84900 12.13500 34.94400
H  0.16600 13.26700 34.28900
Mg 27.04300 51.68400 26.52000
C  24.91400 53.09900 28.95200
C  29.01500 50.48300 29.08600
C  29.16300 50.37200 24.19500
C  25.01600 52.86500 23.96200
N  27.02100 51.89100 28.69700
C  26.03300 52.38500 29.49700
C  26.24200 52.15100 30.96400
C  27.65500 51.50000 30.98000
C  27.86300 51.20200 29.51600
C  28.90800 52.28900 31.59000
C  25.09300 51.39500 31.75800
C  24.38500 52.17600 32.84100
H  25.21000 52.64100 33.98200
N  28.95800 50.73500 26.65200
C  29.58100 50.29700 27.80300
C  30.77600 49.57400 27.43000
C  30.86200 49.51500 25.99100
C  29.65000 50.26000 25.50700
C  31.63500 49.09900 28.53900
C  31.86700 48.77200 25.10500
O  31.75900 48.81200 23.89400
C  32.89500 47.95400 25.66900
N  27.13300 51.69600 24.42900
C  28.09300 51.03300 23.71100
C  27.63400 50.74700 22.30400
C  26.27900 51.57200 22.23100
C  26.12800 52.11000 23.60300
C  28.67300 51.07000 21.23900
C  25.14600 50.87800 21.49200
C  24.57800 49.61000 22.28600
N  25.33200 52.82300 26.42100
C  24.57200 53.22600 25.28900
C  23.49500 54.03100 25.79100
C  23.56400 53.92200 27.20000
C  24.69100 53.21000 27.54200
C  22.42000 54.73700 24.85000
C  22.81000 54.27400 28.42900
O  21.70400 54.79200 28.64000
C  23.74900 53.73900 29.57200
C  24.22100 54.80900 30.44100
O  25.30400 55.38500 30.30000
O  23.24400 55.07600 31.34300
C  23.65000 55.97500 32.42100
H  29.59100 49.97000 29.85900
H  29.64000 49.74800 23.43700
H  24.34700 53.12500 23.13900
H  26.26000 53.13600 31.43200
H  27.70500 50.59200 31.58200
H  28.58000 53.32000 31.72300
H  29.73600 52.32100 30.88200
H  29.27300 51.82400 32.50600
H  25.31100 50.44300 32.24200
H  24.38700 50.96900 31.04500
H  23.54200 51.59800 33.22100
H  23.94200 53.07000 32.40200
H  32.67500 49.15400 28.21500
H  31.41700 48.06500 28.80500
H  31.45600 49.63700 29.47100
H  33.63100 48.60900 26.13500
H  33.46000 47.45200 24.88400
H  32.53500 47.27800 26.44400
H  27.33400 49.71300 22.13500
H  26.44700 52.51700 21.71500
H  29.64400 51.36400 21.63600
H  28.49000 51.86500 20.51700
H  28.83900 50.10900 20.75200
H  25.54300 50.48900 20.55400
H  24.36200 51.63000 21.40000
H  24.52200 49.84600 23.34800
H  25.15900 48.75300 21.94600
H  23.51500 49.38900 22.18700
H  22.61400 54.65100 23.78100
H  22.60500 55.76300 25.16700
H  21.46200 54.40500 25.24900
H  23.22700 52.99000 30.16700
H  24.13500 56.85500 31.99800
H  24.30000 55.43100 33.10700
H  22.74300 56.22500 32.97200

