158

Mg 53.27300 23.96200 44.83300
C  50.60100 26.19100 44.09100
C  51.21700 21.39100 43.67200
C  55.98700 22.05700 44.56500
C  55.23400 26.80600 45.24100
N  51.30800 23.81500 43.81200
C  50.33900 24.87100 43.66300
C  49.12300 24.31100 42.90800
C  49.17500 22.84400 43.32900
C  50.69800 22.67300 43.57100
C  48.32700 22.52900 44.58900
C  49.32500 24.54200 41.37400
C  48.01600 24.68300 40.61500
H  48.02700 25.01300 39.12600
N  53.56400 21.97600 44.36600
C  52.60600 21.02400 43.97700
C  53.17500 19.79300 44.14500
C  54.59400 19.91400 44.31500
C  54.76800 21.35000 44.39700
C  52.38400 18.53700 44.21500
C  55.69700 18.79100 44.39300
O  55.41200 17.64100 44.38800
C  57.08900 18.99500 44.65000
N  55.35900 24.40100 44.67900
C  56.26200 23.43600 44.76400
C  57.70600 23.84700 44.94100
C  57.49500 25.45500 45.10500
C  55.90500 25.57000 44.99400
C  58.58000 23.15300 45.97600
C  58.25400 26.42800 44.12100
C  58.27200 26.14400 42.61800
N  52.98100 26.04400 44.95900
C  53.84100 27.00600 45.29700
C  53.13500 28.28200 45.42000
C  51.86400 28.02200 45.02000
C  51.83400 26.68300 44.62100
C  53.69000 29.61800 45.88100
C  50.61800 28.61900 44.72900
O  50.11900 29.68700 44.97200
C  49.74200 27.38000 44.12500
C  49.14400 27.81700 42.83200
O  49.77000 27.67000 41.76300
O  47.80400 28.17800 42.90500
C  47.15500 28.29300 41.60300
H  50.51800 20.57500 43.47300
H  56.86200 21.40500 44.61700
H  55.94000 27.61200 45.45500
H  48.21900 24.82400 43.23400
H  48.93300 22.22200 42.46700
H  48.98400 22.00600 45.28300
H  47.70000 21.71900 44.21700
H  47.84700 23.35200 45.11900
H  49.96700 23.80800 40.88700
H  49.88900 25.47400 41.34400
H  47.42300 25.49000 41.04600
H  47.39600 23.83000 40.89200
H  52.42500 18.13300 43.20400
H  51.38200 18.84900 44.51000
H  52.83700 17.92500 44.99400
H  57.61400 18.08300 44.93500
H  57.10000 19.64400 45.52600
H  57.27100 19.35400 43.63800
H  58.21100 23.69000 43.98800
H  57.86200 25.73900 46.09100
H  59.34600 22.63600 45.39900
H  58.04300 22.30100 46.39300
H  58.90200 23.77000 46.81500
H  59.27200 26.52800 44.49700
H  57.74000 27.38200 44.23900
H  58.07300 27.05200 42.04900
H  57.51200 25.42100 42.31800
H  59.18300 25.58800 42.39700
H  54.24100 29.36000 46.78500
H  52.88900 30.27700 46.21600
H  54.22600 30.05200 45.03600
H  48.89200 27.25900 44.79700
H  47.66100 27.70700 40.83600
H  47.31000 29.33000 41.30600
H  46.07000 28.21300 41.53100
Mg 0.38200 42.71100 25.08600
C  2.71600 42.37900 27.91300
C  -2.06600 41.82800 27.20200
C  -1.70000 42.46000 22.38500
C  3.12300 43.31200 23.12700
N  0.40800 42.09100 27.31100
C  1.37800 42.16600 28.31800
C  0.78400 42.07900 29.66700
C  -0.70600 41.76400 29.32000
C  -0.82700 41.88100 27.85400
C  -1.11900 40.32600 29.84200
C  0.97700 43.36700 30.53300
C  1.33100 43.20200 32.02200
H  0.88300 42.02900 32.75600
N  -1.58600 42.12400 24.79200
C  -2.46600 41.79500 25.82500
C  -3.77100 41.49900 25.26500
C  -3.66600 41.67600 23.82500
C  -2.29800 42.12100 23.61300
C  -4.98400 41.15400 26.07300
C  -4.73000 41.62900 22.74000
O  -4.45000 41.90500 21.62100
C  -6.09000 41.21700 23.08100
N  0.65800 42.94900 23.11100
C  -0.37600 42.93900 22.24100
C  0.08100 43.42900 20.86700
C  1.56300 44.02400 21.20800
C  1.84300 43.36400 22.58100
C  -0.03000 42.50200 19.60200
C  1.64900 45.60600 21.34200
C  0.96100 46.59500 20.43600
N  2.52200 42.78700 25.32500
C  3.48600 42.90700 24.40000
C  4.77000 42.90900 24.92100
C  4.50000 42.68700 26.31200
C  3.11000 42.68400 26.53000
C  6.09700 43.10900 24.28200
C  5.11300 42.54700 27.58800
O  6.26500 42.38700 27.83600
C  3.98300 42.52100 28.71900
C  4.28600 41.30400 29.51800
O  4.03200 40.13400 29.17200
O  4.90500 41.72300 30.69900
C  5.06200 40.64300 31.64700
H  -2.89400 41.61000 27.88000
H  -2.29300 42.66200 21.49000
H  4.01900 43.54600 22.54800
H  1.33300 41.19900 30.00400
H  -1.49500 42.40100 29.72000
H  -0.48200 39.79600 30.54900
H  -1.11100 39.63100 29.00200
H  -2.14500 40.37400 30.20700
H  0.02300 43.85900 30.34300
H  1.73600 43.95600 30.01800
H  0.84100 44.04200 32.51400
H  2.40500 43.33300 32.15800
H  -4.68700 41.18400 27.12100
H  -5.31400 40.18400 25.70200
H  -5.84200 41.82300 26.02800
H  -6.63200 41.17000 22.13700
H  -6.60300 42.05400 23.55500
H  -6.30100 40.33200 23.68200
H  -0.62200 44.22500 20.62100
H  2.35800 43.65600 20.56000
H  -0.28500 41.50200 19.95400
H  0.84500 42.60500 18.95900
H  -0.87700 42.85000 19.01000
H  2.71800 45.80200 21.25500
H  1.29200 45.83000 22.34700
H  0.20600 47.11500 21.02500
H  0.51400 46.02000 19.62500
H  1.78700 47.23100 20.11700
H  6.35400 44.15700 24.43600
H  6.14300 42.82900 23.23000
H  6.78500 42.43000 24.78700
H  3.99400 43.41800 29.33900
H  5.28100 41.07700 32.62300
H  5.89200 39.97000 31.42900
H  4.16400 40.03000 31.71200

