158

Mg 30.15400 58.62400 39.46800
C  27.09300 57.13500 38.80000
C  31.72100 55.71500 38.50700
C  33.06800 60.35500 39.38500
C  28.48600 61.67100 40.12100
N  29.46400 56.72400 38.54100
C  28.16500 56.27300 38.45000
C  28.13800 54.95300 37.75100
C  29.53700 54.37900 38.00800
C  30.29200 55.62900 38.41600
C  29.51300 53.28800 39.12000
C  27.81500 55.21700 36.25100
C  26.61000 54.62500 35.55100
H  25.93700 55.55400 34.51000
N  32.12400 58.10800 39.10000
C  32.55300 56.87000 38.76300
C  34.03200 56.86600 38.66200
C  34.43000 58.22300 38.77400
C  33.21900 58.96500 39.16200
C  34.80200 55.68900 38.13300
C  35.81300 58.73000 38.49800
O  36.63700 57.91400 38.13800
C  36.22000 60.10300 38.52000
N  30.67800 60.60700 39.68600
C  31.95400 61.11000 39.61400
C  32.03100 62.65100 39.70000
C  30.64700 62.96400 40.32000
C  29.88400 61.68200 40.00400
C  33.26800 63.28100 40.38300
C  30.07100 64.27500 39.70400
C  29.52400 65.30000 40.67000
N  28.10000 59.27400 39.62800
C  27.61600 60.58200 39.85000
C  26.14100 60.47900 39.78100
C  25.89900 59.10700 39.46100
C  27.13900 58.43000 39.27900
C  25.06700 61.54700 40.26600
C  24.86700 58.14300 39.22900
O  23.65100 58.13000 39.38300
C  25.60300 56.88200 38.67700
C  25.06600 55.69700 39.36700
O  25.42200 55.26800 40.45600
O  24.13100 55.06200 38.56600
C  23.56900 53.78600 39.07200
H  32.22500 54.75500 38.37800
H  33.91300 61.04600 39.39400
H  27.98600 62.62800 40.28800
H  27.38900 54.29500 38.19100
H  29.92500 53.95400 37.08200
H  28.58200 53.18400 39.67700
H  30.20300 53.63000 39.89200
H  29.83600 52.31100 38.76000
H  28.68700 54.92500 35.66500
H  27.55200 56.27400 36.20100
H  25.88200 54.28700 36.28800
H  27.01000 53.84200 34.90700
H  35.03800 55.89200 37.08800
H  34.29400 54.73000 38.23700
H  35.70100 55.62300 38.74600
H  37.06700 60.23000 37.84600
H  36.31000 60.42900 39.55600
H  35.49400 60.62000 37.89300
H  31.88100 63.01000 38.68200
H  30.75600 62.93000 41.40400
H  32.93000 64.05800 41.07000
H  33.71400 63.67400 39.47000
H  34.05600 62.62400 40.75100
H  29.26400 64.02400 39.01500
H  30.80100 64.83000 39.11600
H  30.17200 66.15600 40.85700
H  29.42800 64.75700 41.61000
H  28.57300 65.67900 40.29500
H  25.61000 62.29300 40.84600
H  24.29600 61.01700 40.82600
H  24.59400 62.08200 39.44300
H  25.30400 56.84700 37.63000
H  24.44000 53.16600 39.28200
H  22.97900 53.30700 38.29100
H  23.00000 54.01200 39.97400
Mg 8.87700 47.55000 27.56700
C  6.68500 47.16300 30.22800
C  11.27100 48.42600 29.75300
C  10.73500 48.46300 25.02000
C  5.94700 47.52800 25.40300
N  8.88200 47.74400 29.73100
C  7.97300 47.48200 30.65200
C  8.51100 47.60500 32.06200
C  9.95200 48.09300 31.94400
C  10.02800 48.16600 30.38200
C  10.35000 49.46600 32.67200
C  8.42700 46.32300 32.95400
C  9.16700 46.22800 34.34200
H  8.50000 45.64100 35.55900
N  10.80900 48.14700 27.36000
C  11.68300 48.38400 28.39100
C  12.96100 48.81100 27.88200
C  12.86300 48.72600 26.46400
C  11.46900 48.37000 26.17700
C  14.16200 48.99000 28.73200
C  13.91200 48.94000 25.32400
O  13.80700 48.67500 24.13100
C  15.21000 49.53200 25.61300
N  8.39300 47.88700 25.57600
C  9.36700 48.34100 24.74200
C  8.81200 48.73700 23.33700
C  7.28200 48.31200 23.41500
C  7.18100 47.89800 24.83100
C  8.99000 50.24100 23.05300
C  6.97900 47.02400 22.52500
C  6.57300 47.37200 21.09300
N  6.73000 47.24700 27.71200
C  5.71000 47.28400 26.77900
C  4.44100 46.91000 27.37300
C  4.78900 46.79900 28.71700
C  6.17700 47.11200 28.86300
C  3.24100 46.72800 26.58000
C  4.25400 46.48700 30.01200
O  3.13200 46.11200 30.36900
C  5.42200 46.65900 30.98600
C  5.70300 45.22300 31.44300
O  6.47800 44.42300 30.92700
O  4.97200 45.01300 32.61100
C  5.15500 43.70600 33.33100
H  11.98700 48.68500 30.53600
H  11.41000 48.87400 24.26600
H  5.05000 47.58400 24.78200
H  8.02900 48.41800 32.60400
H  10.68800 47.37500 32.30700
H  10.12000 50.28100 31.98500
H  11.41700 49.31700 32.83300
H  9.74600 49.68400 33.55400
H  8.75800 45.45600 32.38200
H  7.37900 46.21100 33.23000
H  9.40700 47.24300 34.66000
H  10.10200 45.77400 34.01300
H  14.94600 48.31300 28.39300
H  14.00100 48.79400 29.79200
H  14.53600 50.00400 28.59200
H  15.12100 50.37900 26.29500
H  15.55200 49.90400 24.64700
H  15.90800 48.92400 26.18900
H  9.30400 48.07300 22.62700
H  6.67800 49.21700 23.34500
H  9.70400 50.61800 23.78600
H  8.06600 50.80400 23.18300
H  9.46200 50.53200 22.11500
H  6.22700 46.38900 22.99200
H  7.83100 46.34400 22.53200
H  7.29300 46.87100 20.44700
H  6.40300 48.41400 20.82300
H  5.68100 46.82800 20.78200
H  3.42600 46.10100 25.70800
H  2.92200 47.72800 26.28700
H  2.52200 46.27200 27.26000
H  5.16200 47.24100 31.87000
H  6.12500 43.78500 33.82200
H  5.31700 42.86900 32.65100
H  4.26900 43.57200 33.95200

