158

Mg 2.71600 -0.07700 43.66600
C  6.03700 0.39700 42.75000
C  1.99300 2.92900 42.13700
C  -0.57600 -0.81000 43.72400
C  3.51900 -3.17900 44.88700
N  3.93400 1.46700 42.58000
C  5.24000 1.48200 42.27700
C  5.62300 2.64900 41.50200
C  4.40600 3.58000 41.67100
C  3.37500 2.61300 42.18800
C  4.53400 4.85100 42.56700
C  6.11100 2.39500 39.97000
C  7.28400 3.25200 39.45300
H  6.98400 3.95200 38.16200
N  0.93100 0.94600 43.00300
C  0.88800 2.17700 42.41300
C  -0.45100 2.66700 42.29800
C  -1.24500 1.54300 42.74200
C  -0.34400 0.50000 43.20700
C  -0.89900 3.87900 41.65400
C  -2.79200 1.39800 42.65900
O  -3.49400 2.20500 42.15600
C  -3.60900 0.27000 43.44800
N  1.65700 -1.71500 44.07800
C  0.27900 -1.86900 44.05400
C  -0.22100 -3.33800 44.22500
C  1.11400 -3.99800 44.70800
C  2.18900 -2.85800 44.57200
C  -1.51400 -3.58800 45.12600
C  1.55700 -5.25300 43.83300
C  1.73800 -6.59300 44.55700
N  4.43000 -1.15100 43.95100
C  4.60700 -2.43400 44.44100
C  6.04300 -2.72400 44.57600
C  6.58400 -1.69100 43.77600
C  5.55200 -0.70700 43.50200
C  6.66600 -4.05000 45.18100
C  7.82600 -1.29200 43.24000
O  8.93200 -1.78700 43.30500
C  7.51700 0.07700 42.50100
C  8.42300 1.20800 43.06300
O  8.51700 1.57500 44.20400
O  9.22300 1.63900 42.00400
C  10.05600 2.83800 42.17000
H  1.80200 3.89600 41.66800
H  -1.58200 -1.23600 43.72600
H  3.77700 -4.05600 45.48400
H  6.45200 3.02900 42.09800
H  4.24600 3.92300 40.64900
H  5.55900 4.79100 42.93300
H  3.84200 4.77900 43.40600
H  4.35100 5.77700 42.02100
H  5.23400 2.60800 39.35800
H  6.34900 1.35500 39.74700
H  8.14200 2.58400 39.38000
H  7.47400 4.02500 40.19800
H  -1.87200 3.78500 41.17300
H  -0.26600 4.26300 40.85400
H  -0.91900 4.66000 42.41400
H  -4.66500 0.50800 43.57700
H  -3.15400 0.12200 44.42700
H  -3.53700 -0.68700 42.93200
H  -0.48700 -3.76600 43.25900
H  1.09900 -4.30800 45.75300
H  -1.17800 -4.04100 46.05900
H  -2.09700 -4.32900 44.57900
H  -2.04900 -2.65800 45.31700
H  2.44600 -5.01700 43.24800
H  0.85000 -5.46100 43.03000
H  1.03800 -7.31700 44.14000
H  1.44100 -6.50500 45.60200
H  2.79300 -6.84300 44.44800
H  6.32200 -4.27500 46.19000
H  7.75300 -4.00400 45.24700
H  6.54500 -4.89300 44.50000
H  7.52200 -0.05100 41.41800
H  10.08400 3.40600 41.24000
H  11.07000 2.53600 42.43300
H  9.72200 3.41600 43.03200
Mg 26.21000 50.24200 26.19600
C  24.13100 51.51100 28.47900
C  28.65800 49.65400 28.57900
C  28.38300 49.52300 23.70700
C  23.93600 51.50800 23.57600
N  26.35100 50.39400 28.29400
C  25.37700 51.05000 29.06600
C  25.75500 50.95400 30.55800
C  27.31300 50.68700 30.52500
C  27.46200 50.13200 29.07500
C  28.22700 51.87200 30.97600
C  24.92500 49.81500 31.30900
C  24.17400 50.22400 32.61100
H  24.41500 49.36600 33.81700
N  28.13900 49.49500 26.19700
C  28.94000 49.30400 27.26400
C  30.18600 48.72400 26.76500
C  30.22200 48.76900 25.37500
C  28.90600 49.29900 25.07600
C  31.26400 48.19500 27.72100
C  31.33400 48.36200 24.40500
O  31.32900 48.65700 23.21200
C  32.57600 47.53800 24.71000
N  26.20300 50.62700 23.97400
C  27.22800 50.14100 23.24600
C  27.05800 50.41000 21.71900
C  25.53400 50.77700 21.70100
C  25.17700 51.04400 23.14300
C  27.93700 51.59100 21.25400
C  24.52500 49.72900 21.11500
C  23.35100 50.24000 20.17800
N  24.41500 51.29100 26.00600
C  23.55800 51.77100 24.94200
C  22.27400 52.10800 25.49300
C  22.48900 51.99400 26.87400
C  23.77400 51.55100 27.09600
C  21.18400 52.53100 24.60300
C  21.85300 52.36800 28.11000
O  20.72500 52.85800 28.25500
C  22.88100 51.91800 29.22100
C  23.00700 53.05800 30.21600
O  23.57000 54.15000 30.01100
O  22.34700 52.67900 31.28600
C  22.42800 53.57400 32.48500
H  29.36900 49.41300 29.37200
H  29.15700 49.36100 22.95400
H  23.25100 51.81400 22.78300
H  25.56800 51.93000 31.00500
H  27.56600 49.89000 31.22400
H  28.71200 52.27200 30.08500
H  28.98200 51.60700 31.71500
H  27.68600 52.69800 31.43700
H  25.60600 48.98600 31.50300
H  24.12700 49.36100 30.72200
H  23.10300 50.32100 32.43500
H  24.44500 51.25100 32.85600
H  32.19800 48.70000 27.47400
H  31.49500 47.15000 27.51200
H  31.06300 48.50600 28.74600
H  33.27100 48.11700 25.31700
H  33.02900 47.33000 23.74000
H  32.35600 46.65300 25.30700
H  27.27300 49.57500 21.05300
H  25.41800 51.72300 21.17200
H  27.29100 52.41100 20.93900
H  28.49600 51.31100 20.36100
H  28.56900 51.91400 22.08200
H  24.16800 49.07800 21.91300
H  25.17200 49.15700 20.45000
H  23.25500 49.63500 19.27700
H  23.54100 51.27000 19.87400
H  22.37500 50.22200 20.66300
H  20.31200 52.22900 25.18300
H  21.09900 52.16700 23.57900
H  21.22400 53.61900 24.55500
H  22.39200 51.10900 29.76400
H  23.15500 54.37500 32.35200
H  22.78000 52.95400 33.30900
H  21.40200 53.86500 32.71000

