158

Mg 40.78000 8.41500 28.30900
C  42.34600 9.85900 31.03700
C  38.64500 6.91600 30.55800
C  39.03900 7.24700 25.59300
C  43.07900 9.63700 26.22500
N  40.46800 8.56900 30.62700
C  41.16700 9.24100 31.46400
C  40.74100 8.95000 32.91600
C  39.69200 7.84700 32.72000
C  39.61000 7.69300 31.19200
C  39.82000 6.52200 33.50400
C  40.31600 10.27500 33.66800
C  41.17500 10.71800 34.91400
H  40.51600 11.74700 35.85600
N  39.20100 7.22600 28.11100
C  38.41600 6.75600 29.17400
C  37.27900 5.96600 28.67500
C  37.33600 5.99100 27.25600
C  38.58200 6.85400 26.91500
C  36.17100 5.37600 29.56300
C  36.42200 5.48600 26.09400
O  36.69700 5.50400 24.89600
C  35.09300 4.84000 26.45400
N  41.14600 8.24100 26.11200
C  40.15800 7.97500 25.26200
C  40.49400 8.25500 23.82700
C  41.89400 8.91700 23.97200
C  42.04700 8.99400 25.50100
C  40.45500 7.04300 22.85400
C  42.08300 10.26000 23.14200
C  41.57400 11.57100 23.73900
N  42.47900 9.39300 28.52500
C  43.33200 9.82700 27.60500
C  44.48400 10.51100 28.20400
C  44.06500 10.62000 29.57800
C  42.85200 9.91600 29.69800
C  45.55300 11.10400 27.50000
C  44.43000 11.13100 30.89000
O  45.36500 11.78400 31.16500
C  43.31800 10.54600 31.88600
C  44.03900 9.66800 32.88700
O  44.08800 8.43600 32.78800
O  44.40500 10.43600 33.96500
C  44.87600 9.67400 35.09900
H  37.95600 6.53600 31.31500
H  38.35900 6.96100 24.78800
H  43.89000 10.04500 25.62000
H  41.56700 8.59900 33.53500
H  38.71800 8.19700 33.06000
H  38.85200 6.34900 33.97400
H  40.67400 6.56900 34.18000
H  39.94800 5.67200 32.83300
H  39.27000 10.26900 33.97300
H  40.44400 11.09800 32.96500
H  42.08900 11.16900 34.52600
H  41.50600 9.81400 35.42600
H  36.15800 5.48800 30.64700
H  35.90600 4.33900 29.35800
H  35.37500 6.02300 29.19300
H  35.05000 4.32700 27.41400
H  34.72700 4.15500 25.68900
H  34.33700 5.62500 26.50400
H  39.73800 8.88100 23.35300
H  42.57100 8.17300 23.55200
H  41.40200 7.08600 22.31500
H  39.72300 7.08400 22.04700
H  40.30300 6.06300 23.30800
H  41.63900 10.17900 22.15000
H  43.14900 10.38200 22.94900
H  42.42000 12.24700 23.85900
H  41.00100 11.51100 24.66500
H  40.80000 12.07400 23.15900
H  45.14600 11.87900 26.85100
H  45.98300 10.37500 26.81400
H  46.26300 11.41100 28.26800
H  42.75400 11.34200 32.37300
H  45.79700 9.20200 34.75600
H  44.14400 8.91800 35.38500
H  45.21600 10.16500 36.01200
Mg 53.89500 23.68600 43.43300
C  51.14300 25.76100 42.82500
C  52.20300 21.12000 42.03900
C  56.89100 22.01600 43.18700
C  55.76800 26.52500 44.63200
N  51.92000 23.53500 42.55800
C  50.96400 24.50200 42.49200
C  49.66200 23.93400 41.79100
C  49.93800 22.36500 41.84800
C  51.42600 22.29100 42.18000
C  49.12800 21.52800 42.87000
C  49.27100 24.49900 40.35100
C  50.46600 24.73100 39.31400
H  50.07700 25.19000 37.88500
N  54.35300 21.78500 42.79700
C  53.54000 20.88500 42.27400
C  54.25200 19.61400 42.08400
C  55.65200 19.82300 42.44200
C  55.68500 21.30800 42.76800
C  53.53000 18.39900 41.48500
C  56.70300 18.67900 42.46500
O  56.25700 17.52800 42.40000
C  58.11000 18.90100 42.63900
N  56.01400 24.28200 43.69900
C  57.06000 23.32000 43.56000
C  58.46100 23.96100 43.96100
C  58.06100 25.39600 44.44400
C  56.49200 25.42600 44.24900
C  59.15300 23.10700 45.10200
C  58.88800 26.52600 43.66200
C  60.29900 26.84200 44.20400
N  53.56800 25.72800 43.82700
C  54.39500 26.76100 44.33100
C  53.55400 27.99400 44.47800
C  52.32000 27.70400 43.87400
C  52.38900 26.28900 43.40500
C  53.91600 29.25900 45.13400
C  50.96800 28.18200 43.51300
O  50.53200 29.30100 43.71000
C  50.13300 26.95200 42.95200
C  49.69000 27.36000 41.60100
O  50.40100 27.80900 40.63500
O  48.30000 27.46600 41.68000
C  47.75900 28.19900 40.59500
H  51.66600 20.20000 41.80100
H  57.70400 21.28900 43.13200
H  56.40100 27.33100 45.01100
H  48.93800 24.19300 42.56300
H  49.84700 21.82100 40.90800
H  48.13500 21.42000 42.43400
H  48.83000 22.07800 43.76300
H  49.61500 20.60000 43.17200
H  48.63200 25.36200 40.16100
H  48.60000 23.76500 39.90500
H  51.11300 23.85400 39.32300
H  51.02500 25.57500 39.71700
H  53.80700 18.30100 40.43500
H  52.44700 18.35400 41.59100
H  53.80600 17.44400 41.93000
H  58.50900 19.20600 43.60600
H  58.46500 19.67200 41.95400
H  58.58800 17.98600 42.29200
H  59.14900 23.97300 43.11600
H  58.27500 25.46500 45.51000
H  59.84400 22.46000 44.56200
H  58.33900 22.57400 45.59300
H  59.66000 23.66600 45.88800
H  58.28300 27.43200 43.63100
H  58.89300 26.20800 42.61900
H  61.10000 26.28600 43.71700
H  60.24600 26.60200 45.26600
H  60.56400 27.90000 44.20700
H  53.26200 29.46100 45.98200
H  53.87200 30.01100 44.34600
H  54.93400 29.14000 45.50600
H  49.26100 26.73500 43.56800
H  46.71100 28.34000 40.85800
H  47.75000 27.58200 39.69700
H  48.22300 29.18500 40.56200

