158

Mg 40.53500 9.62100 29.67600
C  42.47400 10.77000 32.25800
C  38.18400 8.40200 31.96600
C  38.83400 8.13300 27.15100
C  43.15700 10.44700 27.42200
N  40.32100 9.69300 31.85000
C  41.22700 10.19600 32.73000
C  40.73600 10.20700 34.19100
C  39.53600 9.18500 34.10700
C  39.31500 9.10400 32.58700
C  39.67200 7.74100 34.62500
C  40.43700 11.69200 34.68400
C  40.85100 12.13700 36.04700
H  39.61100 12.59600 36.91700
N  38.69400 8.49100 29.59900
C  37.83600 8.17400 30.61500
C  36.68300 7.48600 30.08300
C  36.93400 7.26100 28.74800
C  38.25900 7.93600 28.41700
C  35.53600 6.84200 30.88400
C  36.20400 6.43900 27.70900
O  36.65600 6.29900 26.52800
C  34.85400 5.85100 28.02500
N  41.04600 9.29600 27.61000
C  40.06100 8.71100 26.80500
C  40.53900 8.72800 25.33400
C  41.63400 9.81100 25.33900
C  41.98600 9.83000 26.84700
C  41.04300 7.39900 24.85200
C  41.17900 11.20200 24.75400
C  40.67000 12.20300 25.74700
N  42.45900 10.43700 29.81100
C  43.39300 10.74300 28.76400
C  44.58900 11.34900 29.39700
C  44.17200 11.39300 30.74800
C  42.92600 10.85400 30.94300
C  45.86900 11.85600 28.72900
C  44.60000 11.97300 32.01700
O  45.62000 12.60000 32.32200
C  43.53000 11.58000 33.07400
C  44.25000 10.74600 34.07000
O  44.81000 9.66100 33.76700
O  44.30200 11.37500 35.31400
C  45.09600 10.69900 36.43700
H  37.44600 8.14300 32.72800
H  38.28700 7.73600 26.29300
H  43.86400 10.88300 26.71300
H  41.46100 9.85200 34.92400
H  38.66100 9.62400 34.58400
H  39.83200 6.97700 33.86400
H  38.77600 7.43500 35.16500
H  40.52200 7.72600 35.30700
H  39.36100 11.77000 34.52500
H  40.90500 12.43400 34.03800
H  41.40300 13.05900 35.86100
H  41.47200 11.45800 36.63200
H  35.77800 7.03600 31.92900
H  35.35500 5.77100 30.79600
H  34.54100 7.25000 30.70400
H  34.12600 6.60300 28.33000
H  34.92700 5.04700 28.75800
H  34.35900 5.46600 27.13400
H  39.71300 9.14900 24.76200
H  42.58700 9.62500 24.84300
H  41.44600 6.83100 25.69100
H  41.73700 7.57500 24.03000
H  40.13400 6.91600 24.49500
H  40.47800 11.11600 23.92400
H  42.09300 11.48100 24.23000
H  41.49500 12.65200 26.29900
H  39.92800 11.70800 26.37400
H  40.18600 13.09200 25.34200
H  45.74300 12.76000 28.13200
H  46.10300 11.05000 28.03300
H  46.60300 11.97400 29.52500
H  43.20100 12.46000 33.62700
H  44.39800 10.40500 37.22100
H  45.72600 11.44900 36.91600
H  45.59900 9.81400 36.04700
Mg 48.32500 35.38300 27.16400
C  46.34900 33.73200 29.72100
C  48.70800 37.86800 29.60300
C  49.98600 37.07200 24.82700
C  47.75000 32.74200 25.03700
N  47.61800 35.71400 29.42300
C  46.97100 34.85600 30.22600
C  47.04200 35.36100 31.69900
C  47.35100 36.83400 31.55900
C  47.99100 36.82200 30.13400
C  46.27700 37.88300 31.70900
C  48.21700 34.60700 32.47300
C  48.14200 34.61000 33.96900
H  47.22000 35.61900 34.73900
N  49.32200 37.17900 27.18400
C  49.36600 38.04000 28.34100
C  50.26400 39.19400 27.98400
C  50.60200 39.01800 26.58600
C  49.92800 37.75200 26.10500
C  50.57000 40.28900 28.96400
C  51.48700 39.83200 25.62400
O  51.72500 39.67200 24.44100
C  52.07600 41.13600 26.24000
N  48.70100 35.01900 25.22700
C  49.47900 35.85700 24.47100
C  49.74100 35.23600 23.06700
C  49.15100 33.82700 23.13000
C  48.48800 33.84200 24.57900
C  49.30300 36.15300 21.92100
C  50.19900 32.57500 22.91200
C  50.05200 31.93600 21.54200
N  47.31400 33.59500 27.33000
C  47.23400 32.59500 26.36100
C  46.45000 31.51200 26.89100
C  46.02600 31.89700 28.24300
C  46.58300 33.20700 28.45700
C  46.22700 30.18400 26.20400
C  45.22900 31.58400 29.39000
O  44.56600 30.55400 29.70300
C  45.34400 32.81000 30.37000
C  45.53700 32.48900 31.78700
O  46.53200 32.00000 32.26500
O  44.36500 32.66500 32.52100
C  44.40900 32.01600 33.83100
H  48.76000 38.74500 30.25200
H  50.48800 37.56800 23.99400
H  47.56600 31.87300 24.40200
H  46.12800 35.09200 32.22800
H  48.07100 37.25500 32.26100
H  45.33500 37.37800 31.92400
H  46.07800 38.54700 30.86700
H  46.42300 38.50800 32.59100
H  49.18600 35.06800 32.28100
H  48.37000 33.58700 32.12000
H  49.15900 34.65800 34.35600
H  47.75100 33.61300 34.17200
H  51.62700 40.54900 28.90900
H  50.28500 39.95000 29.96000
H  50.08400 41.25800 28.84800
H  52.52200 41.85000 25.54900
H  52.91100 40.80400 26.85700
H  51.26800 41.75400 26.63300
H  50.81400 35.16500 22.89000
H  48.29400 33.79400 22.45700
H  48.65300 35.68700 21.18000
H  50.14600 36.39400 21.27300
H  48.83300 37.02900 22.36800
H  50.01100 31.88600 23.73500
H  51.18700 33.02800 22.99300
H  49.80500 32.73200 20.84000
H  49.22200 31.23000 21.53500
H  50.91000 31.36300 21.18900
H  47.17200 29.82100 25.80100
H  45.56700 30.47200 25.38600
H  45.66300 29.42300 26.74500
H  44.38500 33.32900 30.36900
H  44.99900 31.10800 33.95400
H  43.45400 31.58200 34.12900
H  44.86300 32.73700 34.51000

