158

Mg -2.00100 17.17100 25.80300
C  -2.70700 14.72500 28.49800
C  -2.28800 19.56400 28.12900
C  -1.96400 19.11100 23.29700
C  -2.66800 14.35700 23.61600
N  -2.49100 17.11600 28.10200
C  -2.51500 16.06900 28.96600
C  -2.50900 16.47000 30.39200
C  -2.68300 18.05500 30.26000
C  -2.48300 18.29700 28.74100
C  -4.10500 18.61100 30.64100
C  -1.23200 16.19100 31.31700
C  -0.91100 17.08600 32.48800
H  -0.61600 16.43400 33.82700
N  -2.03700 19.05600 25.73100
C  -2.18600 19.97600 26.72600
C  -2.30200 21.31400 26.27400
C  -2.21300 21.16500 24.85000
C  -2.05900 19.71600 24.57600
C  -2.59300 22.59600 27.18000
C  -2.23900 22.27900 23.76500
O  -2.12700 22.07400 22.55700
C  -2.30100 23.69700 24.24400
N  -2.40400 16.78900 23.73800
C  -2.09200 17.80200 22.91300
C  -2.06200 17.37300 21.38700
C  -2.48400 15.85800 21.49500
C  -2.42000 15.59700 23.03800
C  -3.04700 18.25300 20.65900
C  -1.52500 14.81000 20.67600
C  -2.17400 13.68300 19.81800
N  -2.46800 14.98100 25.97800
C  -2.70400 14.05300 24.97500
C  -2.92300 12.74000 25.52300
C  -2.90700 12.95700 26.95600
C  -2.73000 14.36700 27.11300
C  -2.96100 11.31700 24.83600
C  -2.90200 12.31500 28.19000
O  -3.06500 11.13500 28.48700
C  -3.05000 13.41300 29.26000
C  -2.08200 13.09100 30.33500
O  -0.91000 13.30100 30.21500
O  -2.69700 12.40200 31.35800
C  -1.79600 11.95400 32.37400
H  -2.10000 20.37300 28.83800
H  -1.96600 19.82000 22.46700
H  -2.76600 13.52500 22.91600
H  -3.37300 16.12400 30.95900
H  -1.94600 18.69300 30.74800
H  -4.52000 19.26700 29.87600
H  -4.10000 19.15300 31.58700
H  -4.72300 17.72000 30.74900
H  -0.31400 16.13700 30.73000
H  -1.31000 15.20300 31.77100
H  -1.83000 17.64400 32.66800
H  -0.19100 17.85800 32.21500
H  -1.98100 23.45000 26.88900
H  -2.43400 22.42000 28.24400
H  -3.63900 22.87300 27.04700
H  -2.52500 24.18100 23.29400
H  -1.35000 24.03800 24.65300
H  -3.06300 23.94100 24.98500
H  -1.02400 17.53200 21.09400
H  -3.45000 15.66500 21.02900
H  -3.99200 18.28700 21.20000
H  -3.18800 17.66400 19.75300
H  -2.64300 19.25300 20.50100
H  -0.99800 14.23600 21.43800
H  -0.86000 15.40500 20.05100
H  -2.11800 12.68600 20.25600
H  -1.85600 13.57500 18.78100
H  -3.25000 13.84800 19.85200
H  -3.12600 11.31100 23.75800
H  -3.74100 10.76500 25.36000
H  -2.00300 10.80000 24.89200
H  -4.05400 13.41700 29.68300
H  -0.87900 11.49100 32.00900
H  -2.27100 11.17400 32.96800
H  -1.42600 12.76300 33.00300
Mg 23.47600 -6.92500 46.95900
C  25.87000 -4.64800 45.70700
C  21.11200 -5.33400 44.98200
C  21.37600 -9.20900 47.88100
C  26.08300 -8.26500 49.03100
N  23.53000 -5.21700 45.46000
C  24.66600 -4.51100 45.07100
C  24.27300 -3.42700 44.08600
C  22.68200 -3.37900 44.15000
C  22.37300 -4.75800 44.91500
C  21.98900 -2.10400 44.69800
C  24.91100 -3.72400 42.69700
C  26.03500 -2.79900 42.24600
H  25.64000 -1.82000 41.23000
N  21.46400 -7.28800 46.55400
C  20.72500 -6.50000 45.67100
C  19.39500 -6.99300 45.63300
C  19.40000 -8.15100 46.46500
C  20.79900 -8.26000 47.07000
C  18.26800 -6.34100 44.78800
C  18.17100 -9.10800 46.72500
O  17.10900 -9.08000 46.11100
C  18.36100 -10.21600 47.74400
N  23.77700 -8.67100 48.19700
C  22.63400 -9.42500 48.50300
C  23.02900 -10.60300 49.43100
C  24.52100 -10.15600 49.95000
C  24.83700 -8.99800 49.02400
C  21.99600 -10.97400 50.53300
C  25.62900 -11.22300 49.84200
C  26.63500 -11.27700 50.99900
N  25.62600 -6.58000 47.38100
C  26.51400 -7.16000 48.27500
C  27.82000 -6.55900 48.16800
C  27.61600 -5.57400 47.15200
C  26.26500 -5.61800 46.70000
C  29.04600 -7.00700 48.82000
C  28.32600 -4.58400 46.32600
O  29.49200 -4.20800 46.43400
C  27.18600 -3.81500 45.52400
C  26.97500 -2.53400 46.23200
O  26.08100 -2.27900 47.03100
O  27.92800 -1.62800 45.77100
C  27.80800 -0.21100 46.05900
H  20.33000 -4.71700 44.53700
H  20.77700 -10.05100 48.23700
H  26.91200 -8.52700 49.69300
H  24.66500 -2.47500 44.44300
H  22.19900 -3.51200 43.18200
H  22.69100 -1.41000 45.16000
H  21.40700 -2.40700 45.56800
H  21.36600 -1.59400 43.96300
H  24.15700 -3.73800 41.91000
H  25.23600 -4.76400 42.65500
H  26.81900 -3.35800 41.73500
H  26.37500 -2.33600 43.17200
H  17.38400 -6.88800 45.11600
H  18.45000 -6.51900 43.72800
H  18.12300 -5.28200 45.00500
H  17.42300 -10.68500 48.04000
H  18.72200 -9.71500 48.64300
H  18.96100 -11.04400 47.36600
H  23.13400 -11.43500 48.73500
H  24.46500 -9.76200 50.96400
H  22.48900 -11.05100 51.50200
H  21.48700 -11.91800 50.33500
H  21.34000 -10.11700 50.68500
H  26.23700 -11.19900 48.93700
H  25.10300 -12.17600 49.79000
H  26.44200 -10.57700 51.81200
H  27.66400 -11.04400 50.72400
H  26.65600 -12.23500 51.51800
H  29.48200 -7.89300 48.35600
H  28.99500 -7.04300 49.90800
H  29.90200 -6.34800 48.67700
H  27.60500 -3.56700 44.54800
H  27.92100 -0.10000 47.13800
H  26.88100 0.26700 45.74200
H  28.68700 0.27900 45.64100

