158

Mg 5.76800 53.07300 41.35200
C  4.67200 49.82400 41.01900
C  8.65500 52.17700 39.45500
C  6.65200 56.30700 41.36200
C  2.70500 53.92400 42.76900
N  6.42100 51.25000 40.19400
C  5.83200 50.01600 40.30800
C  6.62200 48.94300 39.52100
C  8.05100 49.65600 39.42600
C  7.70800 51.14100 39.68600
C  9.14700 49.18700 40.47700
C  5.94300 48.55300 38.09700
C  5.54600 49.70000 37.17400
H  5.62300 49.44700 35.66300
N  7.50300 54.09000 40.66300
C  8.58800 53.54600 39.88100
C  9.46600 54.63500 39.65800
C  8.94100 55.78700 40.21500
C  7.66200 55.44200 40.81600
C  10.80300 54.41500 38.82100
C  9.64700 57.04600 40.13700
O  10.84800 57.14100 39.71200
C  9.10300 58.34100 40.69600
N  4.82300 54.91100 41.80800
C  5.40600 56.14100 41.89200
C  4.55500 57.25500 42.54800
C  3.23600 56.37500 42.81700
C  3.59500 54.97900 42.40000
C  5.18900 57.78900 43.81900
C  1.97500 56.91100 42.11200
C  1.24300 58.01900 42.80000
N  4.01600 52.12000 41.85700
C  2.92000 52.49600 42.58500
C  2.16300 51.32500 42.95200
C  2.86600 50.29500 42.45500
C  3.88000 50.82500 41.67300
C  0.87600 51.31600 43.73300
C  2.88900 48.88000 42.28300
O  2.04000 48.07100 42.63000
C  4.02600 48.52300 41.34600
C  3.47400 47.73600 40.26100
O  2.48900 48.07200 39.63000
O  4.09100 46.55100 40.14000
C  3.75600 45.63900 39.07100
H  9.61000 51.82300 39.06100
H  6.96400 57.34900 41.45300
H  1.82700 54.16700 43.37200
H  6.61200 48.06400 40.16600
H  8.53800 49.55200 38.45600
H  8.81500 48.55100 41.29700
H  9.46000 50.05900 41.05000
H  9.96900 48.77400 39.89200
H  5.07400 47.93000 38.30800
H  6.60700 47.81900 37.64000
H  5.98100 50.63800 37.52000
H  4.48400 49.89700 37.31500
H  10.61700 54.66600 37.77700
H  11.07400 53.37400 38.99700
H  11.61400 55.01700 39.23000
H  9.90800 59.07100 40.62000
H  8.86400 58.27300 41.75700
H  8.24100 58.61800 40.08900
H  4.26300 57.98600 41.79400
H  2.97400 56.44000 43.87300
H  4.54100 57.47200 44.63600
H  5.30100 58.87100 43.89500
H  6.19300 57.39400 43.97500
H  1.19100 56.18000 41.91400
H  2.36200 57.20700 41.13700
H  1.78800 58.39600 43.66500
H  0.25700 57.64300 43.07400
H  1.17600 58.82600 42.07100
H  0.17500 51.90400 43.14000
H  1.02300 51.78200 44.70700
H  0.52800 50.28600 43.80900
H  4.52500 47.85100 42.04400
H  4.54100 44.88400 39.03600
H  3.71000 46.08400 38.07700
H  2.91300 45.01600 39.37000
Mg -11.95600 16.15200 42.30900
C  -9.03700 14.61500 41.42500
C  -10.94500 18.95800 40.56000
C  -15.30500 17.48000 42.29500
C  -13.26400 13.21100 43.44300
N  -10.19800 16.67000 41.00900
C  -9.10000 15.92100 40.86100
C  -7.97400 16.66600 40.25700
C  -8.57400 18.11700 40.12500
C  -10.01100 17.92000 40.54500
C  -7.86900 19.09900 41.07300
C  -7.43200 16.05900 38.90000
C  -6.03900 15.60900 38.84900
H  -5.21600 16.14100 37.72200
N  -12.97200 18.03800 41.63600
C  -12.25800 19.05200 41.08500
C  -13.18300 20.21800 40.94900
C  -14.42000 19.82800 41.51300
C  -14.29200 18.40500 41.82200
C  -12.79200 21.59200 40.30200
C  -15.60800 20.75200 41.78700
O  -15.53000 21.93300 41.49100
C  -16.85700 20.24400 42.48100
N  -13.95000 15.45500 42.88100
C  -15.12300 16.20100 42.80400
C  -16.26400 15.40700 43.25800
C  -15.64900 14.06100 43.72700
C  -14.19200 14.21900 43.31700
C  -17.14700 15.99700 44.37600
C  -16.22700 12.70900 43.04000
C  -16.56200 11.65300 44.04200
N  -11.30900 14.29400 42.46300
C  -11.88500 13.22700 43.06700
C  -10.88000 12.13300 43.11200
C  -9.69800 12.65500 42.54800
C  -10.03700 13.93900 42.12300
C  -11.25300 10.77900 43.66200
C  -8.32600 12.34100 42.33600
O  -7.65200 11.37900 42.63100
C  -7.79200 13.68300 41.52000
C  -6.71900 14.27500 42.41700
O  -6.89100 15.26100 43.16900
O  -5.52000 13.71900 42.21300
C  -4.38800 14.12100 43.04200
H  -10.46300 19.86800 40.19700
H  -16.36900 17.71600 42.21900
H  -13.54700 12.24600 43.86700
H  -7.10400 16.72800 40.91200
H  -8.46800 18.52000 39.11700
H  -8.63300 19.47700 41.75200
H  -7.32800 19.90400 40.57600
H  -7.16100 18.58000 41.71800
H  -7.53000 16.85700 38.16400
H  -8.12200 15.31500 38.50100
H  -6.19800 14.53100 38.88200
H  -5.57300 16.00600 39.75100
H  -13.43900 21.77700 39.44500
H  -11.72800 21.66700 40.07300
H  -12.99000 22.32500 41.08400
H  -16.57300 19.51200 43.23700
H  -17.57100 19.85100 41.75700
H  -17.31000 21.06500 43.03600
H  -16.88500 15.23000 42.37900
H  -15.74500 14.14600 44.81000
H  -16.77200 16.94200 44.76900
H  -17.25900 15.26300 45.17400
H  -18.10600 16.24400 43.92100
H  -15.44400 12.37600 42.35900
H  -17.18500 12.95000 42.58000
H  -17.63500 11.46900 43.98100
H  -16.30500 11.97800 45.05000
H  -15.99200 10.77800 43.73100
H  -10.30700 10.40200 44.05200
H  -11.70900 10.19800 42.86000
H  -11.90200 10.75000 44.53700
H  -7.29900 13.43700 40.57900
H  -3.92000 13.20600 43.40500
H  -4.53700 14.76700 43.90700
H  -3.75400 14.66400 42.34200

