158

Mg 35.92300 48.46100 24.97200
C  35.46700 46.53100 27.83300
C  34.63900 51.23600 26.81900
C  35.68000 50.23000 22.21600
C  36.78300 45.70200 23.20800
N  35.07700 48.70200 27.05000
C  35.23100 47.87100 28.13200
C  35.04600 48.56100 29.51000
C  34.67800 50.03800 29.06000
C  34.82300 50.02100 27.52900
C  33.27000 50.54500 29.57000
C  36.34400 48.56200 30.39600
C  36.16800 48.42900 31.98400
H  34.77000 48.66300 32.59600
N  35.17500 50.43400 24.59100
C  34.71200 51.38800 25.43300
C  34.38800 52.60200 24.69500
C  34.46400 52.28900 23.29200
C  35.10800 50.90100 23.31500
C  33.75600 53.83700 25.31800
C  34.04900 52.99900 22.04600
O  34.28500 52.54300 20.90600
C  33.46400 54.37300 22.05900
N  36.02900 48.04100 22.93300
C  36.12700 49.00400 22.03500
C  36.45300 48.44400 20.70000
C  37.16200 47.03700 21.06200
C  36.63200 46.87500 22.51800
C  35.25000 48.35400 19.73200
C  38.73900 47.00200 21.08600
C  39.49100 46.98100 19.76500
N  36.05100 46.51200 25.37200
C  36.49100 45.48700 24.57600
C  36.64900 44.23700 25.28600
C  36.22000 44.61200 26.58300
C  35.78500 45.95800 26.55500
C  37.11900 42.91300 24.80200
C  36.07600 44.11200 27.97900
O  36.16600 42.96300 28.43200
C  35.69600 45.42800 28.82900
C  34.60000 45.04100 29.78600
O  33.38700 44.97000 29.56500
O  35.18000 44.87300 31.04800
C  34.23000 44.44000 32.10100
H  34.45500 52.14000 27.40400
H  35.74100 50.88100 21.34200
H  37.28900 44.91400 22.64600
H  34.19800 48.11300 30.02800
H  35.39900 50.75100 29.45900
H  32.65000 51.04700 28.82700
H  33.54500 51.19600 30.40000
H  32.66700 49.73700 29.98500
H  36.86000 49.51300 30.27300
H  37.10500 47.82300 30.14500
H  36.80800 49.11000 32.54600
H  36.46400 47.38700 32.10400
H  32.67200 53.72400 25.27400
H  34.07900 54.77400 24.86500
H  33.94100 53.88400 26.39200
H  32.62000 54.30600 22.74600
H  33.22300 54.79300 21.08300
H  34.21700 55.02200 22.50700
H  37.09600 49.22500 20.29300
H  36.80400 46.28800 20.35700
H  35.35500 47.44300 19.14300
H  35.16600 49.17100 19.01600
H  34.31400 48.26300 20.28300
H  39.03200 46.08100 21.59000
H  39.17800 47.82600 21.64900
H  40.22700 47.78000 19.85400
H  38.79400 47.07400 18.93200
H  39.89200 45.97900 19.61200
H  37.09000 42.79000 23.71900
H  36.43800 42.19200 25.25400
H  38.17800 42.77700 25.02300
H  36.55300 45.76800 29.40900
H  34.40300 43.49700 32.61900
H  33.16700 44.43500 31.85900
H  34.21500 45.15900 32.92100
Mg 5.52000 54.31400 41.53800
C  4.92200 50.90900 41.07900
C  8.55600 54.05400 39.95300
C  5.61600 57.75500 41.59200
C  2.06800 54.62100 42.62500
N  6.55200 52.65100 40.54900
C  6.18500 51.32000 40.58100
C  7.30900 50.44300 40.09700
C  8.57500 51.45000 40.13600
C  7.84400 52.79500 40.17800
C  9.64300 51.21900 41.24300
C  7.03700 49.83000 38.72000
C  6.30200 50.62800 37.65500
H  5.50100 49.70800 36.67400
N  6.90800 55.67300 40.91100
C  8.10300 55.35400 40.30200
C  8.68400 56.53800 39.93400
C  7.94100 57.65200 40.47400
C  6.75700 57.04500 41.12100
C  9.96100 56.49400 39.01700
C  8.28500 59.15500 40.19200
O  9.33800 59.39100 39.62700
C  7.34900 60.33700 40.45900
N  4.06400 56.01300 42.12800
C  4.32800 57.33000 41.89700
C  3.16200 58.23400 42.19800
C  2.00700 57.18100 42.53900
C  2.73500 55.85100 42.43500
C  3.41400 59.25900 43.27200
C  0.59100 57.41700 41.83000
C  -0.67600 57.41500 42.79800
N  3.82200 53.03800 41.86200
C  2.59900 53.29200 42.32300
C  1.94300 52.01500 42.50600
C  2.81100 51.04400 42.07600
C  3.95500 51.74700 41.65200
C  0.64900 51.68300 43.08700
C  3.08700 49.67000 42.06700
O  2.47700 48.75000 42.55100
C  4.38400 49.48300 41.29500
C  3.97000 48.74700 40.11100
O  3.49800 49.28000 39.12100
O  4.12000 47.37400 40.30200
C  3.49200 46.46500 39.33100
H  9.58000 54.01200 39.57600
H  5.63300 58.84500 41.53000
H  0.97800 54.63000 42.69500
H  7.49600 49.56800 40.71900
H  9.19100 51.41600 39.23800
H  9.55400 50.28800 41.80300
H  9.76400 52.10000 41.87400
H  10.62600 51.11000 40.78700
H  6.49100 48.89100 38.81800
H  8.04900 49.54800 38.42900
H  7.11200 51.13700 37.13200
H  5.55800 51.31100 38.06500
H  10.41200 57.47900 38.89200
H  9.74800 56.07500 38.03400
H  10.76600 55.94600 39.50600
H  7.86000 61.29900 40.44100
H  7.12400 60.32000 41.52600
H  6.54300 60.33900 39.72600
H  2.92600 58.72600 41.25400
H  1.85600 57.28400 43.61400
H  3.65500 60.20800 42.79400
H  4.40600 59.18000 43.71800
H  2.55600 59.27800 43.94300
H  0.49000 56.63800 41.07500
H  0.60700 58.36800 41.29600
H  -1.50800 56.85900 42.36700
H  -1.10700 58.40800 42.91800
H  -0.30600 56.85500 43.65800
H  0.05500 51.41200 42.21400
H  0.20700 52.54600 43.58300
H  0.86800 50.91100 43.82500
H  5.11500 48.98900 41.93500
H  2.46000 46.36000 39.66800
H  4.01400 45.50800 39.33600
H  3.34600 46.74300 38.28700

