158

Mg 47.43500 25.45900 28.07400
C  48.53300 27.81200 30.53900
C  46.07300 23.63800 30.48500
C  47.07300 22.96300 25.77600
C  49.35100 27.29700 25.71500
N  47.48400 25.70800 30.31100
C  47.73000 26.79800 31.06400
C  47.16600 26.58700 32.52200
C  46.40800 25.27100 32.41200
C  46.65000 24.83400 30.99100
C  46.86000 24.15800 33.46500
C  46.36700 27.79900 33.05300
C  47.00500 28.38900 34.41900
H  45.88200 28.72000 35.43800
N  46.56900 23.62700 28.06900
C  46.06600 23.05800 29.20300
C  45.48000 21.77900 28.84000
C  45.62900 21.64200 27.45200
C  46.44400 22.77200 27.02500
C  44.84800 20.83000 29.81900
C  45.02700 20.61100 26.42700
O  45.32100 20.57300 25.23700
C  44.02800 19.72200 27.00700
N  47.93000 25.31200 25.95300
C  47.74600 24.11700 25.32300
C  48.28500 24.21400 23.88100
C  48.88600 25.68800 23.79700
C  48.68300 26.16300 25.25300
C  49.46300 23.17900 23.55600
C  48.04800 26.56700 22.73800
C  48.70300 26.98800 21.37200
N  48.58100 27.18200 28.03600
C  49.29600 27.79200 27.02800
C  49.91000 29.02900 27.51600
C  49.53800 29.10900 28.83700
C  48.84400 27.90300 29.16900
C  50.80800 29.94800 26.78700
C  49.73600 29.83800 30.04300
O  50.46800 30.81600 30.15000
C  49.04400 29.09500 31.17200
C  49.96600 28.85600 32.33800
O  50.76200 27.98900 32.30000
O  49.87800 29.84400 33.36500
C  50.67600 29.80800 34.62900
H  45.42100 23.10500 31.18000
H  47.03700 22.21700 24.97900
H  50.03600 27.90700 25.12200
H  48.06200 26.44500 33.12700
H  45.33800 25.34400 32.60900
H  47.17300 24.60800 34.40800
H  47.65300 23.50300 33.10400
H  45.97200 23.57500 33.70700
H  45.37100 27.42400 33.28700
H  46.36300 28.60300 32.31700
H  47.46000 29.35100 34.18500
H  47.68900 27.74000 34.96600
H  45.30100 20.94900 30.80300
H  45.07200 19.80900 29.51000
H  43.76200 20.91300 29.77600
H  44.54900 18.96500 27.59300
H  43.54900 19.15000 26.21300
H  43.29100 20.26500 27.59900
H  47.41900 24.01100 23.25200
H  49.94600 25.80100 23.57000
H  50.31100 23.59700 23.01400
H  49.05500 22.37400 22.94500
H  49.82600 22.63300 24.42600
H  47.73300 27.54800 23.09500
H  47.14400 25.99900 22.52200
H  49.77500 26.78900 21.38300
H  48.65000 28.03500 21.07400
H  48.29000 26.35700 20.58500
H  51.74500 29.40300 26.67400
H  50.95200 30.90400 27.29100
H  50.28500 30.03800 25.83500
H  48.22500 29.65600 31.62300
H  51.69800 29.62600 34.29500
H  50.30600 28.95400 35.19600
H  50.58200 30.76800 35.13500
Mg 48.99100 46.59500 42.03800
C  45.94300 47.14700 40.48700
C  49.15600 43.46300 40.35900
C  52.37100 46.48400 42.50000
C  49.07800 50.04400 42.69800
N  47.67200 45.49300 40.60000
C  46.51100 45.94900 40.13800
C  45.99700 44.92400 39.05500
C  46.83900 43.64100 39.29900
C  47.98000 44.18800 40.13200
C  46.26400 42.28400 39.75200
C  46.16700 45.44500 37.60600
C  45.05300 45.12700 36.60200
H  45.28700 44.91700 35.09300
N  50.51900 45.08700 41.72700
C  50.39000 43.93700 41.06200
C  51.55600 43.13800 41.34900
C  52.52000 43.93600 41.87300
C  51.85500 45.24000 42.05800
C  51.66300 41.66100 40.85000
C  53.92300 43.41600 42.33300
O  54.35800 42.25200 42.28700
C  55.00500 44.48300 42.90600
N  50.49200 48.09500 42.42700
C  51.77400 47.76000 42.60000
C  52.59600 48.95800 43.18700
C  51.59800 50.12300 43.06400
C  50.28400 49.40000 42.83500
C  53.04000 48.60600 44.66400
C  51.95400 51.07600 41.87000
C  52.27600 52.52100 42.29300
N  47.68500 48.22400 41.90200
C  47.84400 49.53200 42.22700
C  46.60000 50.25500 42.05800
C  45.87200 49.33900 41.22800
C  46.61200 48.14700 41.19500
C  46.28700 51.64100 42.41700
C  44.62600 49.21500 40.49600
O  43.73900 50.01800 40.23100
C  44.66600 47.65200 39.95900
C  43.40100 46.92500 40.46100
O  43.24300 46.22000 41.45400
O  42.34700 47.31700 39.66600
C  41.15700 46.49200 39.95100
H  49.22400 42.44000 39.98500
H  53.40600 46.48800 42.84600
H  49.01000 51.11000 42.92800
H  44.95700 44.71200 39.30400
H  47.34500 43.48800 38.34600
H  45.17500 42.27100 39.80200
H  46.64100 42.03400 40.74300
H  46.65300 41.52900 39.06800
H  47.13200 45.11300 37.22500
H  46.25000 46.53200 37.58900
H  44.35200 45.95800 36.67100
H  44.51600 44.27600 37.02000
H  52.55200 41.09700 41.13100
H  51.41100 41.54400 39.79600
H  50.87600 41.18000 41.43100
H  55.12700 45.36900 42.28300
H  55.95100 43.95400 43.01900
H  54.59000 44.90300 43.82200
H  53.51900 49.10400 42.62700
H  51.35400 50.60900 44.00900
H  52.56900 47.70400 45.05500
H  52.91000 49.55000 45.19300
H  54.11500 48.42400 44.63200
H  51.16500 51.19000 41.12700
H  52.88000 50.78500 41.37300
H  51.87000 53.19200 41.53600
H  53.34300 52.73000 42.36100
H  51.91500 52.68600 43.30800
H  47.03800 52.31000 41.99600
H  46.12000 51.88700 43.46500
H  45.32000 51.87400 41.97200
H  44.67700 47.75400 38.87300
H  40.96100 46.31800 41.00900
H  41.30000 45.50200 39.51800
H  40.25000 46.89100 39.49600

