158

Mg 48.93200 45.68700 42.29000
C  45.61600 46.51500 41.62300
C  48.67900 42.84500 40.43500
C  52.28200 45.19000 42.51500
C  49.33600 49.06600 43.47800
N  47.35700 44.82700 41.17300
C  46.04600 45.27300 41.06200
C  45.22600 44.36900 40.13300
C  46.14400 43.07400 40.08000
C  47.50100 43.62200 40.56100
C  45.55700 41.84600 40.87200
C  44.99500 44.89100 38.71500
C  43.64800 44.55800 37.98300
H  43.75100 43.51900 36.87200
N  50.33200 44.12500 41.64400
C  49.93500 42.99400 40.97700
C  51.07300 42.13100 40.90600
C  52.21600 42.82700 41.38800
C  51.62500 44.11300 41.90500
C  51.04900 40.76000 40.24500
C  53.53400 42.32800 41.36100
O  53.79300 41.23700 40.87400
C  54.64900 43.12900 41.86600
N  50.59200 46.93700 42.86300
C  51.86000 46.50600 42.88500
C  52.78100 47.64800 43.32900
C  51.77500 48.67900 43.89400
C  50.45200 48.25900 43.35200
C  53.95500 47.28300 44.38400
C  52.14100 50.17600 43.70000
C  51.73000 51.10200 44.87300
N  47.69400 47.44200 42.64200
C  48.02800 48.70200 43.07700
C  46.80200 49.54800 43.15300
C  45.82200 48.62400 42.63500
C  46.41000 47.42400 42.32000
C  46.59500 50.93400 43.69200
C  44.42500 48.50900 42.39100
O  43.53600 49.26600 42.64700
C  44.29900 47.19400 41.55600
C  43.03600 46.41000 42.06900
O  41.83800 46.53500 41.73400
O  43.51200 45.43500 42.95900
C  42.55500 44.61600 43.76000
H  48.58800 41.92500 39.85500
H  53.33500 44.99400 42.72700
H  49.39700 50.07300 43.89500
H  44.27900 44.16900 40.63500
H  46.20600 42.70200 39.05700
H  45.38000 41.15300 40.04900
H  44.66800 42.20900 41.38800
H  46.21600 41.42800 41.63300
H  45.79600 44.61600 38.02900
H  45.01300 45.97000 38.86800
H  43.28900 45.50900 37.58800
H  42.88000 44.09800 38.60500
H  51.86400 40.60400 39.53800
H  50.09600 40.50800 39.78000
H  51.24500 40.02400 41.02500
H  54.72800 43.09600 42.95300
H  54.57800 44.15000 41.49200
H  55.58100 42.82800 41.38800
H  53.25400 47.96000 42.39800
H  51.82200 48.46000 44.96100
H  54.89100 46.93300 43.94900
H  53.65300 46.51300 45.09500
H  54.20500 48.17300 44.96200
H  51.80100 50.57600 42.74500
H  53.21600 50.34500 43.64100
H  51.34300 50.57600 45.74500
H  50.90900 51.74900 44.56300
H  52.52400 51.72300 45.28800
H  45.53600 50.95400 43.94900
H  46.77000 51.69900 42.93600
H  47.17600 51.32500 44.52700
H  44.16200 47.44400 40.50400
H  41.67700 45.24000 43.92800
H  43.05000 44.24500 44.65700
H  42.28000 43.77800 43.12000
Mg -10.53400 17.15700 41.19100
C  -7.12000 16.80800 41.07100
C  -10.04800 20.54500 40.47900
C  -13.80200 17.36800 40.36100
C  -10.80500 13.63400 41.09100
N  -8.84700 18.50400 40.92700
C  -7.48500 18.10200 40.84600
C  -6.56200 19.25300 40.54600
C  -7.52700 20.50100 40.77000
C  -8.87000 19.81200 40.68800
C  -7.48000 21.24000 42.16500
C  -6.03100 19.31000 39.08700
C  -4.50100 19.19900 38.99700
H  -3.85900 18.23000 37.95600
N  -11.78500 18.77500 40.65300
C  -11.43700 20.05300 40.53100
C  -12.59500 20.88200 40.37400
C  -13.67600 20.01600 40.04800
C  -13.13700 18.62900 40.37300
C  -12.51100 22.44900 40.27000
C  -15.15300 20.37600 39.64600
O  -15.53300 21.50700 39.66300
C  -16.14800 19.25800 39.39700
N  -12.01600 15.69100 40.56300
C  -13.32700 16.06400 40.53900
C  -14.20900 14.87500 40.70500
C  -13.20000 13.70200 40.35600
C  -11.92800 14.36200 40.75300
C  -14.83200 14.72900 42.08800
C  -13.21200 13.33400 38.90700
C  -14.19700 12.19000 38.43700
N  -9.22100 15.55800 41.23300
C  -9.48400 14.14800 41.24600
C  -8.23500 13.43500 41.45200
C  -7.26300 14.43100 41.28500
C  -7.93600 15.68100 41.27100
C  -8.19700 12.01100 41.57300
C  -5.84700 14.66600 41.24800
O  -4.92600 13.84300 41.27400
C  -5.66400 16.28800 41.23300
C  -4.97400 16.72100 42.52000
O  -3.94900 17.30200 42.50400
O  -5.71800 16.46300 43.62900
C  -5.25200 17.02500 44.89600
H  -9.86400 21.61500 40.36200
H  -14.89000 17.29400 40.30200
H  -10.97200 12.55600 41.04600
H  -5.77100 19.39200 41.28200
H  -7.42600 21.29400 40.02800
H  -6.73400 20.73000 42.77500
H  -8.45100 21.39700 42.63400
H  -7.07900 22.24200 42.01600
H  -6.28100 20.25500 38.60500
H  -6.47400 18.49000 38.52100
H  -4.03500 18.90700 39.93800
H  -4.20900 20.22500 38.77200
H  -13.51100 22.88400 40.29100
H  -12.06500 22.58800 39.28500
H  -11.87100 22.77700 41.08900
H  -15.68200 18.48500 38.78500
H  -17.01800 19.68100 38.89600
H  -16.39700 18.77000 40.33900
H  -15.01700 14.92500 39.97400
H  -13.31600 12.73300 40.84300
H  -14.56700 13.78500 42.56500
H  -15.92100 14.69300 42.09900
H  -14.37300 15.50800 42.69800
H  -12.20500 12.99200 38.66600
H  -13.46500 14.22300 38.33000
H  -14.92700 12.53600 37.70600
H  -14.86900 11.81000 39.20600
H  -13.60300 11.36400 38.04400
H  -8.38900 11.69900 40.54600
H  -9.04600 11.55100 42.07800
H  -7.26500 11.59900 41.95900
H  -5.06500 16.52100 40.35300
H  -4.21000 16.73000 45.02000
H  -5.86600 16.67400 45.72600
H  -5.29000 18.11200 44.95800

