158

Mg 9.34100 4.32700 27.90900
C  10.71200 2.67600 30.66700
C  7.24000 5.92500 29.95600
C  7.84900 5.72100 25.11100
C  10.93900 2.02000 25.74200
N  8.97700 4.20600 30.16700
C  9.71800 3.57800 31.13500
C  9.14800 3.88700 32.51900
C  7.93400 4.83900 32.23900
C  8.09300 5.03300 30.69800
C  6.48800 4.35000 32.59600
C  10.20800 4.30500 33.63400
C  9.58400 4.27200 35.03300
H  10.48000 4.37600 36.21900
N  7.85800 5.77600 27.63800
C  7.03500 6.20500 28.56800
C  6.11700 7.22300 28.02200
C  6.24000 7.16200 26.60300
C  7.42500 6.25900 26.37700
C  5.19300 8.06300 28.78800
C  5.45200 7.87400 25.44800
O  5.78300 7.82700 24.29600
C  4.32300 8.85000 25.69300
N  9.35600 3.98300 25.76500
C  8.63600 4.62100 24.84200
C  8.80100 4.00500 23.44300
C  9.80900 2.85200 23.67400
C  10.12400 3.02700 25.16600
C  7.49600 3.57400 22.73600
C  11.05300 2.75000 22.75500
C  11.04800 1.69500 21.63800
N  10.59700 2.66900 28.06200
C  11.20900 1.84300 27.12300
C  11.98900 0.90200 27.85700
C  11.98600 1.30900 29.22700
C  10.96700 2.29300 29.28800
C  12.80000 -0.23700 27.20400
C  12.46600 0.96300 30.55900
O  13.23000 0.08400 30.93700
C  11.72600 1.92700 31.50200
C  11.10800 1.16200 32.55800
O  10.11400 0.42200 32.44700
O  11.73400 1.41800 33.73000
C  11.22700 0.67700 34.85700
H  6.57600 6.47200 30.62800
H  7.31800 6.10800 24.23900
H  11.23700 1.24100 25.03600
H  8.89400 2.90500 32.91700
H  8.10500 5.85200 32.60300
H  6.43700 3.54200 33.32500
H  5.90000 4.09200 31.71500
H  5.88100 5.19700 32.91700
H  10.55300 5.31600 33.42000
H  11.07900 3.65600 33.54100
H  9.04200 3.32600 35.03600
H  8.80600 5.02900 35.13000
H  5.76300 8.98800 28.87000
H  4.86200 7.61500 29.72400
H  4.28500 8.33300 28.24900
H  3.88600 9.26300 24.78400
H  4.61000 9.72400 26.27800
H  3.51300 8.32000 26.19500
H  9.29200 4.81000 22.89600
H  9.25200 1.91700 23.62300
H  6.69900 3.64500 23.47700
H  7.52200 2.55200 22.35800
H  7.50100 4.35900 21.98000
H  11.94500 2.70500 23.38100
H  11.11500 3.73900 22.30100
H  10.06100 1.25200 21.50500
H  11.69400 0.88400 21.97400
H  11.33700 2.06300 20.65300
H  12.52500 -1.20300 27.62900
H  13.83800 0.07600 27.31500
H  12.54400 -0.38000 26.15400
H  12.43200 2.57700 32.01800
H  10.18700 0.36200 34.76500
H  11.23300 1.21000 35.80700
H  11.82000 -0.23500 34.92200
Mg -10.57600 39.94300 39.81100
C  -9.59400 36.83700 39.00400
C  -7.62200 41.23600 38.76600
C  -11.91600 43.06100 39.99100
C  -13.86700 38.61700 40.11300
N  -8.83000 39.14600 38.99000
C  -8.62200 37.77900 38.76500
C  -7.24700 37.56900 38.13500
C  -6.48400 38.93900 38.48900
C  -7.71200 39.82500 38.82800
C  -5.45700 38.84400 39.66300
C  -7.48800 37.48200 36.54100
C  -6.98800 36.15800 35.89100
H  -8.00100 35.62200 34.77400
N  -9.87000 41.87500 39.50800
C  -8.58400 42.19800 39.10400
C  -8.43600 43.66100 39.13700
C  -9.68400 44.22900 39.45000
C  -10.56200 43.04900 39.72200
C  -7.00600 44.29000 38.71000
C  -9.90400 45.66900 39.48300
O  -9.01700 46.50800 39.32800
C  -11.34300 46.33400 39.64900
N  -12.70200 40.70600 39.82500
C  -12.94300 42.09300 40.01800
C  -14.48000 42.40100 40.23500
C  -15.06800 40.92600 40.24000
C  -13.76800 40.01400 40.08200
C  -14.80000 43.25300 41.49500
C  -16.29200 40.50200 39.31000
C  -17.48100 39.83000 40.02300
N  -11.50200 38.08300 39.90200
C  -12.81800 37.74600 40.05400
C  -12.96900 36.35400 39.78600
C  -11.68000 35.91400 39.42900
C  -10.86000 37.03500 39.51400
C  -14.21100 35.54800 39.68300
C  -10.88000 34.77300 38.93000
O  -11.29600 33.64200 38.71900
C  -9.47700 35.29900 38.74800
C  -8.45000 34.40900 39.49700
O  -8.47400 34.23900 40.72800
O  -7.48500 33.87900 38.65200
C  -6.40400 33.16800 39.35200
H  -6.66500 41.66500 38.46400
H  -12.31900 44.06300 40.15000
H  -14.85600 38.16000 40.18200
H  -6.71600 36.65500 38.40100
H  -6.02600 39.37700 37.60200
H  -5.27100 37.79000 39.86700
H  -6.05500 39.23900 40.48500
H  -4.53400 39.34700 39.37400
H  -7.09800 38.33400 35.98300
H  -8.54600 37.60000 36.30700
H  -6.86100 35.40000 36.66500
H  -5.96700 36.22300 35.51400
H  -6.90100 45.26000 39.19600
H  -6.82600 44.25500 37.63500
H  -6.27900 43.70700 39.27600
H  -11.32100 47.42300 39.63300
H  -11.73700 46.01600 40.61400
H  -11.91500 45.99200 38.78600
H  -14.76400 43.00600 39.37400
H  -15.28200 40.62500 41.26500
H  -13.88800 43.69800 41.89200
H  -15.26700 42.64800 42.27200
H  -15.43100 44.10300 41.23600
H  -16.07100 39.91800 38.41700
H  -16.73600 41.46300 39.05000
H  -18.04000 39.09700 39.44200
H  -18.24800 40.53800 40.33800
H  -17.08700 39.43100 40.95700
H  -13.96200 34.48700 39.66100
H  -14.86500 35.68700 38.82200
H  -14.79200 35.73300 40.58700
H  -9.11900 35.20300 37.72300
H  -6.67500 32.24700 39.86900
H  -5.89100 33.87300 40.00600
H  -5.63400 32.77200 38.69000

