158

Mg 1.22300 -2.62400 44.74300
C  4.56600 -2.20700 44.08300
C  0.68800 0.02700 42.57600
C  -1.95300 -3.50900 44.57400
C  1.99200 -5.67100 46.23400
N  2.54100 -1.28100 43.40100
C  3.82400 -1.25800 43.37800
C  4.38000 0.01900 42.66800
C  3.06600 0.82400 42.38700
C  1.99100 -0.17500 42.83400
C  2.90900 2.17000 43.21400
C  5.23600 -0.25500 41.43000
C  6.36900 0.74200 41.28400
H  6.56200 1.34600 39.87600
N  -0.42200 -1.75300 43.81800
C  -0.46900 -0.74800 42.96200
C  -1.86700 -0.40200 42.59300
C  -2.66300 -1.36200 43.25700
C  -1.69900 -2.26900 43.92800
C  -2.14600 0.73400 41.59300
C  -4.19300 -1.38700 43.33600
O  -4.85700 -0.52400 42.72600
C  -4.98400 -2.45300 43.99100
N  0.16100 -4.39700 45.25900
C  -1.12800 -4.45700 45.22700
C  -1.68500 -5.72000 45.89100
C  -0.41600 -6.49900 46.33100
C  0.68000 -5.42500 45.97700
C  -2.52100 -5.42600 47.09900
C  -0.28700 -7.86300 45.54500
C  -0.30000 -7.92000 43.97100
N  2.90800 -3.68900 45.26700
C  3.05100 -4.93300 45.92400
C  4.43300 -5.20100 46.14500
C  5.09700 -4.04800 45.46900
C  4.12600 -3.31000 44.84300
C  4.92600 -6.42700 46.81400
C  6.40100 -3.51900 45.14500
O  7.52200 -3.94700 45.47000
C  6.13600 -2.29300 44.21600
C  6.73900 -1.01600 44.81900
O  6.62700 -0.73600 45.98100
O  7.44400 -0.23100 43.87300
C  7.81200 1.13300 44.32200
H  0.51800 0.85600 41.88600
H  -3.00100 -3.81100 44.51700
H  2.22000 -6.64200 46.67700
H  4.97600 0.56400 43.39900
H  2.90500 1.08000 41.34000
H  3.78600 2.29700 43.84900
H  2.01200 2.16100 43.83300
H  2.82000 2.98800 42.49900
H  4.52600 -0.27900 40.60300
H  5.64600 -1.26300 41.48600
H  7.26700 0.17700 41.53100
H  6.24000 1.54000 42.01500
H  -3.10800 0.50200 41.13600
H  -1.43400 0.86400 40.77800
H  -2.23400 1.67600 42.13400
H  -4.85500 -2.34000 45.06800
H  -4.77700 -3.47100 43.66100
H  -6.04700 -2.29500 43.81000
H  -2.33600 -6.24700 45.19200
H  -0.47700 -6.75900 47.38800
H  -1.92300 -5.32900 48.00500
H  -3.27000 -6.21300 47.18800
H  -3.21100 -4.60200 46.91700
H  -0.98300 -8.64900 45.83600
H  0.64500 -8.33700 45.85500
H  0.71400 -8.04200 43.59000
H  -0.67300 -6.95800 43.61700
H  -0.90400 -8.69500 43.49800
H  5.98000 -6.24900 47.02700
H  4.86100 -7.26000 46.11400
H  4.34000 -6.68000 47.69800
H  6.47200 -2.47300 43.19500
H  8.53000 1.09700 45.14100
H  6.83000 1.55800 44.52800
H  8.29800 1.65000 43.49400
Mg 40.81800 9.89600 28.80800
C  42.73400 10.83000 31.60700
C  38.64300 8.36800 30.97300
C  39.03200 8.92900 26.10700
C  43.36600 11.14100 26.73200
N  40.72500 9.64200 31.06300
C  41.51100 10.20600 31.96700
C  40.95700 10.02500 33.43700
C  39.83000 9.00300 33.11200
C  39.64000 9.03500 31.63700
C  39.98900 7.54000 33.60900
C  40.68800 11.44400 34.15300
C  39.79300 11.38800 35.36500
H  40.32900 11.99100 36.78000
N  39.09100 8.85300 28.57400
C  38.38800 8.29300 29.62300
C  37.25600 7.49300 28.98400
C  37.26400 7.73100 27.55500
C  38.45700 8.61000 27.38200
C  36.20200 6.76600 29.73900
C  36.20800 7.28200 26.50300
O  36.30900 7.62100 25.31500
C  34.92900 6.45400 26.89400
N  41.26100 9.87100 26.72400
C  40.27100 9.49300 25.81800
C  40.66800 9.87400 24.35500
C  41.99800 10.73300 24.56100
C  42.27400 10.55800 26.06600
C  40.75400 8.63300 23.39700
C  41.92100 12.29100 24.17600
C  40.76400 13.04300 24.80900
N  42.70300 10.63700 29.04300
C  43.67100 11.18700 28.19300
C  44.72800 11.78700 28.93700
C  44.37500 11.59900 30.27200
C  43.15600 10.89900 30.27200
C  45.94000 12.47900 28.38300
C  44.81900 11.98600 31.56800
O  45.83700 12.53700 31.97300
C  43.72900 11.50300 32.44500
C  44.27800 10.67700 33.50100
O  44.83400 9.58700 33.38000
O  44.14100 11.28600 34.71100
C  44.50700 10.54500 35.91700
H  38.08800 7.73400 31.66700
H  38.47500 8.75000 25.18500
H  44.08000 11.74700 26.17200
H  41.62200 9.48000 34.10700
H  38.93900 9.40600 33.59300
H  40.03500 6.80300 32.80700
H  39.29700 7.32600 34.42400
H  40.94100 7.42200 34.12800
H  40.22700 12.08000 33.39800
H  41.58000 11.92300 34.55700
H  39.40500 10.40200 35.62200
H  38.98000 12.06200 35.09500
H  36.62700 6.63400 30.73500
H  36.19100 5.80300 29.22900
H  35.24100 7.27500 29.66300
H  34.31400 6.31700 26.00500
H  34.26700 6.93500 27.61300
H  35.32800 5.50100 27.24300
H  39.88000 10.56000 24.04100
H  42.80200 10.29100 23.97300
H  40.49100 7.69700 23.89000
H  41.75200 8.57200 22.96500
H  40.03100 8.79600 22.59700
H  41.94600 12.48400 23.10300
H  42.90700 12.67000 24.44500
H  40.21000 13.41900 23.94900
H  41.20400 13.92500 25.27400
H  40.07000 12.47800 25.43100
H  45.71600 12.91600 27.41000
H  46.76000 11.77500 28.24800
H  46.30100 13.25100 29.06300
H  43.22000 12.32300 32.95200
H  45.58800 10.41000 35.96100
H  44.15700 9.51300 35.91500
H  44.12500 11.07500 36.79000

