158

Mg 46.93900 34.74800 27.73200
C  45.47200 33.11000 30.48600
C  46.94500 37.50400 29.72400
C  47.83300 36.34100 25.12000
C  46.31200 31.79900 25.81100
N  46.28800 35.21400 29.94500
C  45.86300 34.36900 30.89200
C  45.97700 34.96800 32.27500
C  46.03000 36.46000 31.90700
C  46.41800 36.44300 30.41600
C  44.78900 37.35600 32.16600
C  47.22000 34.52600 33.04300
C  46.98600 34.39800 34.61300
H  45.87800 35.11900 35.36600
N  47.50600 36.57100 27.50100
C  47.54000 37.59200 28.44200
C  48.23700 38.74900 27.86400
C  48.41000 38.42200 26.48000
C  47.91200 37.09200 26.30300
C  48.61600 40.05300 28.63900
C  49.03400 39.33100 25.45900
O  49.15300 39.00300 24.28600
C  49.55900 40.74500 25.83600
N  47.09800 34.11400 25.75200
C  47.49900 35.01000 24.81700
C  47.58900 34.33600 23.44300
C  47.31400 32.83000 23.76300
C  46.92200 32.87000 25.19500
C  46.78800 35.06300 22.35300
C  48.36900 31.64400 23.55300
C  47.78000 30.35000 23.00300
N  46.14600 32.78100 28.02100
C  45.92900 31.70500 27.17600
C  45.31000 30.59000 27.85500
C  45.06300 31.12600 29.14900
C  45.66400 32.41100 29.22700
C  45.14200 29.18100 27.31700
C  44.48900 30.90300 30.47500
O  43.81100 29.98500 30.81200
C  44.55400 32.17100 31.30300
C  44.92200 31.71700 32.75800
O  46.00000 31.25500 33.10100
O  43.67200 31.54200 33.42300
C  43.87900 30.88400 34.69800
H  46.85800 38.43400 30.29000
H  48.08600 36.88200 24.20500
H  46.05600 30.94700 25.17900
H  45.08100 34.76300 32.86100
H  46.82400 36.89900 32.51100
H  44.68000 38.08500 31.36400
H  44.86600 37.85100 33.13400
H  43.86300 36.78200 32.21000
H  48.06400 35.18700 32.84700
H  47.44800 33.50500 32.74000
H  47.88200 34.53900 35.21700
H  46.84600 33.32400 34.73300
H  47.94000 40.89600 28.49800
H  49.62300 40.42200 28.44400
H  48.52300 39.90200 29.71500
H  50.35600 40.79400 26.57800
H  48.72600 41.40400 26.08400
H  49.97400 41.23200 24.95400
H  48.62100 34.44400 23.10900
H  46.44100 32.45200 23.23000
H  46.21000 35.87200 22.79800
H  46.17600 34.40900 21.73200
H  47.40400 35.53700 21.58900
H  48.86500 31.30100 24.46100
H  49.13600 32.08000 22.91300
H  48.36400 30.18900 22.09700
H  46.70100 30.26000 22.88500
H  47.92600 29.57300 23.75400
H  45.30000 28.40000 28.06000
H  45.88400 29.01400 26.53600
H  44.16100 28.95300 26.90000
H  43.52700 32.53500 31.31500
H  42.89800 30.82900 35.16800
H  44.51500 31.50500 35.32900
H  44.37800 29.92500 34.83500
Mg -5.31400 24.97500 26.52500
C  -3.86100 26.99600 29.02200
C  -6.52900 22.73600 28.94500
C  -6.90700 23.46700 24.04100
C  -4.20900 27.50000 24.19100
N  -5.28100 24.99500 28.67100
C  -4.61400 25.87900 29.54100
C  -4.90300 25.50600 31.02700
C  -5.65700 24.08800 30.91000
C  -5.86100 23.89300 29.38200
C  -4.81600 22.98300 31.67100
C  -5.82300 26.61400 31.73900
C  -5.49700 26.88600 33.15200
H  -6.53000 26.45400 34.18500
N  -6.41600 23.30600 26.46700
C  -6.84500 22.48500 27.54000
C  -7.64400 21.40500 27.05600
C  -7.69900 21.59000 25.61500
C  -6.92300 22.84800 25.31200
C  -8.28000 20.36500 27.80700
C  -8.46300 20.74000 24.53900
O  -8.53700 21.12300 23.37900
C  -9.14800 19.50200 24.88200
N  -5.53100 25.42100 24.43100
C  -6.25500 24.60200 23.67300
C  -6.41600 25.14900 22.21600
C  -5.76200 26.60700 22.39400
C  -5.19100 26.58400 23.81400
C  -5.63500 24.39300 21.08500
C  -6.81200 27.75200 22.19500
C  -6.55800 28.75700 21.12000
N  -4.09800 26.81900 26.48000
C  -3.70200 27.65500 25.50400
C  -2.83800 28.71400 25.99900
C  -2.91600 28.55000 27.41500
C  -3.74900 27.37100 27.65800
C  -2.13200 29.64500 25.10100
C  -2.55300 29.08300 28.68800
O  -1.90000 30.05200 28.98100
C  -3.08700 28.11500 29.80100
C  -1.99300 27.53300 30.69400
O  -1.21100 26.62000 30.49400
O  -2.09200 28.21900 31.84900
C  -1.21000 27.68600 32.89000
H  -6.79700 22.06400 29.76300
H  -7.45600 23.01300 23.21300
H  -3.93100 28.31400 23.51700
H  -3.94100 25.25800 31.47500
H  -6.60100 24.20800 31.44100
H  -5.10300 22.92600 32.72100
H  -3.74000 22.98700 31.50000
H  -5.07100 22.02500 31.21900
H  -6.88200 26.44900 31.53900
H  -5.55100 27.56900 31.29000
H  -5.32200 27.93800 33.38000
H  -4.56100 26.47500 33.53100
H  -9.36000 20.32000 27.67100
H  -7.98600 20.56900 28.83700
H  -7.89400 19.41900 27.42700
H  -9.94200 19.82000 25.55800
H  -8.36100 18.87200 25.29700
H  -9.64300 19.07900 24.00800
H  -7.47300 25.17600 21.95000
H  -4.96300 26.81100 21.68100
H  -6.13500 23.43900 20.91400
H  -4.62100 24.10600 21.36300
H  -5.68000 25.09600 20.25300
H  -6.95600 28.38100 23.07400
H  -7.78000 27.33300 21.92100
H  -6.91100 28.36700 20.16500
H  -5.51000 29.04100 21.02900
H  -7.23900 29.59000 21.29700
H  -2.55600 30.63900 25.24200
H  -2.07700 29.28000 24.07600
H  -1.11700 29.61400 25.49600
H  -3.71100 28.70300 30.47400
H  -0.13100 27.60300 32.76600
H  -1.58100 26.66500 32.98700
H  -1.44900 28.13600 33.85400

