158

Mg 17.19900 -1.38500 27.78100
C  15.92600 0.73500 30.32500
C  18.90400 -3.00000 30.25000
C  18.37900 -3.26600 25.39700
C  15.58500 0.74500 25.42100
N  17.42600 -1.09200 30.05900
C  16.86600 -0.18300 30.83100
C  17.19300 -0.33800 32.36400
C  18.34800 -1.36200 32.22200
C  18.20600 -1.90300 30.79300
C  19.83500 -0.89700 32.64900
C  16.00100 -0.70800 33.22800
C  15.97400 -0.27400 34.74500
H  16.52000 -1.32000 35.73100
N  18.42000 -3.00000 27.80800
C  19.02800 -3.53900 28.95300
C  19.80000 -4.62900 28.55400
C  19.60100 -4.79800 27.16200
C  18.74300 -3.68500 26.71000
C  20.78700 -5.46900 29.53000
C  20.15100 -5.89400 26.25500
O  19.91100 -5.90100 25.05100
C  20.76800 -7.12300 26.86400
N  17.13700 -1.10400 25.76200
C  17.72300 -2.08200 24.96300
C  17.59000 -1.75000 23.43900
C  16.53500 -0.61400 23.46800
C  16.37200 -0.34900 24.97200
C  18.96100 -1.29000 22.77700
C  15.15800 -0.85100 22.85700
C  14.17100 -1.78900 23.51100
N  15.88600 0.30500 27.79100
C  15.39500 1.06700 26.77900
C  14.44400 2.14200 27.32200
C  14.71800 2.10200 28.70000
C  15.60200 0.98400 28.92400
C  13.57800 3.09300 26.56800
C  14.54800 2.77100 29.96300
O  13.98300 3.80700 30.27000
C  15.21600 1.85400 30.99700
C  15.93300 2.76200 31.85400
O  16.94500 3.36900 31.55600
O  15.33500 2.85100 33.11500
C  16.00700 3.83300 34.05200
H  19.55000 -3.57000 30.92000
H  18.78400 -3.89500 24.60100
H  15.01400 1.37000 24.73000
H  17.66100 0.58800 32.69800
H  18.14800 -2.21900 32.86500
H  20.01000 0.08300 33.09300
H  20.37200 -0.81300 31.70400
H  20.36900 -1.72700 33.11200
H  15.92000 -1.79100 33.14100
H  15.07000 -0.36200 32.77900
H  14.91400 -0.14700 34.96500
H  16.58700 0.62700 34.74200
H  21.78200 -5.36900 29.09600
H  20.40700 -6.48700 29.61100
H  20.81700 -5.07900 30.54700
H  21.72300 -6.96600 27.36400
H  20.89900 -7.85900 26.07000
H  19.98100 -7.53900 27.49300
H  17.22900 -2.68200 23.00400
H  17.00900 0.26300 23.02800
H  19.39700 -0.49500 23.38300
H  18.80400 -1.02600 21.73100
H  19.63100 -2.14900 22.74900
H  15.23600 -1.16700 21.81600
H  14.61700 0.09500 22.86500
H  13.27600 -1.29400 23.88700
H  14.69900 -2.35800 24.27700
H  13.83500 -2.49500 22.75200
H  14.06900 3.15700 25.59700
H  13.64700 4.12700 26.90600
H  12.55700 2.75000 26.40200
H  14.44000 1.40400 31.61700
H  15.31800 3.97400 34.88500
H  16.04100 4.88200 33.76000
H  16.95200 3.39700 34.37800
Mg 30.30800 58.25200 39.53900
C  27.24200 56.39200 38.55000
C  32.02600 55.51700 38.37600
C  32.94900 60.20800 39.86300
C  28.10200 61.04500 40.08800
N  29.54000 56.19200 38.66100
C  28.37100 55.66500 38.29800
C  28.56500 54.24300 37.68000
C  30.10300 54.06300 37.61000
C  30.63600 55.36200 38.26100
C  30.64200 52.74800 38.24700
C  27.67800 53.88500 36.47100
C  27.42300 55.01300 35.47100
H  28.05000 54.90300 34.08000
N  32.26000 57.94300 39.18300
C  32.77600 56.71500 38.77500
C  34.18000 56.87600 38.74300
C  34.57800 58.19500 39.16800
C  33.24400 58.84900 39.47400
C  35.08900 55.87200 38.32000
C  36.00800 58.69800 39.25700
O  37.02900 58.12500 38.96500
C  36.15700 60.04100 39.72900
N  30.47000 60.28300 40.09700
C  31.75900 60.86100 40.18800
C  31.60200 62.37600 40.30600
C  30.08500 62.59300 40.63400
C  29.47100 61.27200 40.19700
C  32.57000 62.97900 41.34400
C  29.54200 63.91500 40.00900
C  28.24800 64.57900 40.46300
N  28.15600 58.64500 39.58700
C  27.40700 59.82500 39.78300
C  26.01700 59.60500 39.58300
C  25.90800 58.30600 39.14300
C  27.21700 57.74800 39.15400
C  24.97700 60.64400 39.81200
C  24.93800 57.29800 38.71300
O  23.73500 57.31000 38.72600
C  25.76500 56.00800 38.47500
C  25.28500 54.83700 39.37700
O  25.55000 54.68400 40.57300
O  24.59800 53.89900 38.62500
C  23.98500 52.75800 39.27000
H  32.59500 54.64000 38.06000
H  33.75300 60.94400 39.93300
H  27.44400 61.91500 40.13800
H  28.23300 53.51300 38.41700
H  30.43200 53.97900 36.57400
H  31.36100 52.42600 37.49300
H  29.79300 52.09300 38.44300
H  31.14800 53.03600 39.16800
H  26.75600 53.46900 36.87700
H  28.06300 52.98500 35.99000
H  27.89000 55.95800 35.74700
H  26.34700 55.08200 35.30900
H  34.61500 54.96300 37.95200
H  35.65200 55.52400 39.18700
H  35.84300 56.10900 37.56900
H  35.54900 60.15200 40.62600
H  35.71100 60.58100 38.89400
H  37.19800 60.25300 39.97400
H  31.89000 62.81500 39.35000
H  30.00200 62.58100 41.72000
H  33.44500 63.45000 40.89700
H  32.81100 62.31200 42.17200
H  32.02900 63.74400 41.90000
H  29.49600 63.77200 38.92900
H  30.30500 64.64200 40.28500
H  27.45300 64.51200 39.72000
H  28.35200 65.66000 40.55100
H  27.89100 64.08000 41.36500
H  24.06000 60.29800 39.33400
H  25.33800 61.58100 39.38700
H  24.88700 60.73800 40.89400
H  25.57300 55.58000 37.49200
H  24.61000 51.86500 39.25300
H  23.06900 52.48500 38.74600
H  23.70100 53.02700 40.28700

