158

Mg -9.54100 40.67700 42.73300
C  -8.59500 37.39400 41.63700
C  -6.76600 41.95400 41.02500
C  -10.81200 43.71900 43.07300
C  -12.54100 39.23500 43.78400
N  -7.98400 39.78300 41.39900
C  -7.79700 38.38600 41.12200
C  -6.41800 38.19700 40.43900
C  -5.78800 39.63500 40.50500
C  -6.93900 40.54800 40.98600
C  -4.43400 39.82900 41.30200
C  -6.46400 37.63300 39.03600
C  -5.51800 36.37800 38.74600
H  -4.38400 36.61100 37.70900
N  -8.92200 42.55100 42.16400
C  -7.74500 42.81900 41.51700
C  -7.59100 44.27500 41.38500
C  -8.71100 44.87800 42.04200
C  -9.56000 43.76800 42.48900
C  -6.38400 44.98300 40.72500
C  -9.01400 46.46400 42.17900
O  -8.27800 47.32000 41.73000
C  -10.26000 46.96400 42.89100
N  -11.49200 41.40700 43.40900
C  -11.65500 42.74700 43.47800
C  -13.20000 42.97700 43.73600
C  -13.77000 41.52400 44.00200
C  -12.52300 40.65700 43.81600
C  -13.40800 44.00500 44.87500
C  -15.05700 41.12400 43.16900
C  -15.78300 39.85900 43.62300
N  -10.45900 38.70800 42.69200
C  -11.59800 38.34400 43.23500
C  -11.69100 36.92600 43.24800
C  -10.50000 36.53300 42.66100
C  -9.78600 37.63700 42.34800
C  -12.87100 36.12600 43.60800
C  -9.78200 35.37200 42.23700
O  -10.01000 34.15200 42.33200
C  -8.53500 35.89200 41.55100
C  -7.32300 35.23400 42.18800
O  -7.06200 35.20500 43.34300
O  -6.71600 34.44800 41.25300
C  -5.63800 33.51300 41.77900
H  -5.86600 42.34400 40.54400
H  -11.26700 44.70800 43.16500
H  -13.44000 38.76100 44.18400
H  -5.88200 37.53800 41.12100
H  -5.57900 39.99100 39.49600
H  -3.89000 38.89000 41.41200
H  -4.75000 40.16000 42.29100
H  -3.83100 40.66100 40.93800
H  -6.14100 38.34400 38.27600
H  -7.47400 37.37700 38.71600
H  -6.11500 35.52600 38.41900
H  -5.06300 36.03500 39.67600
H  -6.67600 45.22600 39.70300
H  -5.54700 44.29300 40.83300
H  -6.10100 45.87200 41.28800
H  -10.08800 48.02200 43.08800
H  -10.30500 46.44900 43.85100
H  -11.15300 46.84100 42.27700
H  -13.70700 43.35100 42.84600
H  -13.92600 41.41900 45.07600
H  -12.47900 44.04300 45.44400
H  -14.26700 43.73200 45.48700
H  -13.46700 45.01900 44.47800
H  -14.79600 40.98400 42.12100
H  -15.82800 41.89000 43.24600
H  -15.40800 39.64800 44.62400
H  -15.73100 38.97400 42.98900
H  -16.82400 40.17100 43.71000
H  -13.50000 36.68200 44.30300
H  -12.65600 35.20100 44.14400
H  -13.34700 35.84800 42.66700
H  -8.54400 35.74400 40.47100
H  -5.92700 32.99300 42.69300
H  -4.67500 34.00200 41.92100
H  -5.36600 32.79000 41.01100
Mg -5.18700 25.15500 25.92300
C  -3.38300 26.31900 28.63500
C  -6.21200 22.51200 28.11900
C  -6.87300 23.64300 23.41400
C  -3.65500 27.31500 23.88400
N  -4.87000 24.51900 28.18500
C  -4.16500 25.30800 29.04300
C  -4.55000 24.95900 30.45500
C  -4.95600 23.51900 30.25300
C  -5.34900 23.45100 28.78800
C  -3.81200 22.55100 30.56100
C  -5.79700 25.82700 30.90900
C  -6.15700 25.91900 32.43500
H  -5.69400 24.83500 33.35300
N  -6.44100 23.44100 25.74700
C  -6.73000 22.45800 26.76100
C  -7.64900 21.54400 26.27900
C  -7.89200 21.84300 24.88200
C  -7.10700 23.07500 24.65300
C  -8.13000 20.38000 27.18800
C  -8.78900 21.09300 23.92400
O  -9.01900 21.51400 22.81500
C  -9.43000 19.77300 24.26100
N  -5.12700 25.28000 23.87400
C  -5.88200 24.57100 22.98100
C  -5.64900 25.11400 21.54300
C  -4.82100 26.48100 21.83700
C  -4.55500 26.33100 23.32800
C  -4.88600 24.15600 20.60200
C  -5.59600 27.80700 21.61000
C  -6.32900 28.00100 20.29700
N  -3.69400 26.46200 26.08200
C  -3.07300 27.34200 25.12300
C  -2.17000 28.19000 25.85000
C  -2.19000 27.83800 27.20000
C  -3.15000 26.75300 27.27800
C  -1.39400 29.42800 25.28600
C  -1.76800 28.19600 28.51100
O  -0.86800 28.94800 28.86500
C  -2.57000 27.30100 29.47200
C  -1.60000 26.63000 30.32200
O  -0.95600 25.65800 29.97200
O  -1.65100 27.23100 31.60900
C  -0.70200 26.74500 32.57800
H  -6.51900 21.64200 28.70300
H  -7.42200 23.27400 22.54500
H  -3.42300 28.18500 23.26700
H  -3.76000 25.15300 31.18000
H  -5.79900 23.27800 30.89900
H  -2.91600 22.88200 30.03500
H  -3.96800 21.54100 30.18300
H  -3.51100 22.45700 31.60400
H  -6.65200 25.47600 30.33100
H  -5.62700 26.82000 30.49300
H  -7.21900 26.11100 32.58300
H  -5.75500 26.91000 32.64500
H  -7.61700 19.43900 26.99000
H  -9.10300 19.95200 26.94500
H  -8.13000 20.65000 28.24400
H  -8.64300 19.11600 24.63100
H  -9.87400 19.38100 23.34600
H  -10.08800 19.99600 25.10100
H  -6.62000 25.35200 21.10700
H  -3.92200 26.56100 21.22600
H  -5.29100 23.15800 20.76900
H  -3.81900 24.17200 20.82500
H  -4.98700 24.58000 19.60300
H  -4.93400 28.65800 21.77100
H  -6.41700 27.67600 22.31500
H  -6.10400 29.04000 20.05300
H  -7.40500 28.00400 20.46900
H  -6.02000 27.27300 19.54700
H  -0.57000 29.59700 25.97800
H  -1.91000 30.36800 25.09300
H  -0.78800 29.22500 24.40300
H  -3.11900 27.79600 30.27400
H  -0.55400 27.50700 33.34300
H  0.29700 26.62500 32.15700
H  -0.96200 25.83700 33.12200

