158

Mg 6.86300 53.90400 41.73800
C  6.24500 50.39400 41.65800
C  10.06000 53.33600 41.12800
C  7.16800 57.25500 41.29500
C  3.43900 54.37700 42.54200
N  7.89600 52.06500 41.31800
C  7.57400 50.78500 41.49500
C  8.79600 49.87600 41.33400
C  9.99300 50.83400 41.53000
C  9.27800 52.20400 41.38100
C  10.79500 50.72600 42.81100
C  8.87000 49.13100 39.96900
C  8.75200 49.96200 38.70700
H  7.36200 49.96800 38.12000
N  8.34900 55.06500 41.03600
C  9.64000 54.67400 40.96000
C  10.46800 55.80000 40.58300
C  9.69400 56.97600 40.76200
C  8.31000 56.47700 40.94600
C  11.93400 55.63800 40.14400
C  10.22700 58.42500 40.59300
O  11.39300 58.57000 40.34900
C  9.49700 59.69600 40.83400
N  5.36900 55.62700 41.66200
C  5.89900 56.87200 41.77000
C  4.83000 57.82200 42.32200
C  3.49900 56.95900 42.44100
C  4.12200 55.55100 42.30200
C  5.21500 58.62000 43.60600
C  2.46200 57.34400 41.32300
C  1.19200 56.49200 41.31200
N  5.20200 52.72000 42.00200
C  3.89100 53.03900 42.35100
C  3.11500 51.84100 42.57400
C  4.00700 50.71800 42.30600
C  5.20700 51.35500 41.97300
C  1.66500 51.67600 42.88400
C  4.14300 49.29300 42.35800
O  3.35400 48.39300 42.69300
C  5.57500 49.01400 41.80900
C  5.29900 48.35400 40.45000
O  4.59500 48.83800 39.49900
O  5.83700 47.06100 40.50200
C  5.52600 46.20100 39.40300
H  11.13000 53.11800 41.10000
H  7.25900 58.34000 41.37800
H  2.45500 54.43300 43.01500
H  8.85200 49.24200 42.22000
H  10.58500 50.68100 40.62800
H  11.75900 50.22200 42.74700
H  10.37300 50.16800 43.64600
H  10.98000 51.74500 43.15100
H  8.07300 48.38800 39.97700
H  9.73300 48.46700 39.89900
H  9.49600 49.57600 38.01000
H  9.03700 50.99900 38.88100
H  12.31400 54.62600 40.00400
H  12.51200 56.38700 40.68500
H  11.91100 56.11200 39.16300
H  8.86100 59.91200 39.97600
H  10.25100 60.47700 40.93500
H  8.98900 59.66300 41.79800
H  4.54900 58.48300 41.50200
H  2.98500 57.00200 43.40200
H  4.89200 58.18500 44.55100
H  4.87800 59.65300 43.68400
H  6.30200 58.56700 43.66400
H  2.87500 57.39700 40.31600
H  2.22800 58.39200 41.51100
H  1.47200 55.68900 40.63000
H  0.45200 57.10700 40.79900
H  0.76900 56.13700 42.25100
H  1.35400 50.80800 42.30300
H  1.28400 52.68900 42.75600
H  1.66500 51.35500 43.92600
H  5.94300 48.31300 42.55800
H  4.45900 45.99200 39.49200
H  6.07300 45.26400 39.50900
H  5.80700 46.75200 38.50500
Mg -6.11300 25.26500 25.68100
C  -4.59200 26.66600 28.60200
C  -7.79200 22.95000 27.74500
C  -7.32200 23.81200 22.85000
C  -4.20500 27.52000 23.71400
N  -6.05100 24.83200 27.96300
C  -5.51000 25.67000 28.91200
C  -6.08500 25.26000 30.21100
C  -6.93100 23.93100 29.94500
C  -6.92800 23.86600 28.44600
C  -6.30600 22.66000 30.73000
C  -6.87400 26.43000 30.88700
C  -6.63900 26.56200 32.37600
H  -6.12400 25.35400 33.19700
N  -7.41800 23.70200 25.36300
C  -8.00200 22.87000 26.30100
C  -8.75800 21.85500 25.66200
C  -8.61800 22.06500 24.22200
C  -7.78900 23.29900 24.09500
C  -9.50400 20.85300 26.44800
C  -9.26400 21.30400 23.07800
O  -9.09300 21.65500 21.90900
C  -10.11400 20.06200 23.30000
N  -5.96600 25.71300 23.54300
C  -6.37000 24.87200 22.61700
C  -5.84300 25.22500 21.24400
C  -5.13200 26.58800 21.48500
C  -5.01700 26.62300 23.00600
C  -4.93800 24.18300 20.56300
C  -5.82000 27.86300 20.94000
C  -5.27900 28.22200 19.50600
N  -4.65500 26.72000 25.98100
C  -4.08900 27.63200 25.07900
C  -3.28600 28.60200 25.84100
C  -3.45400 28.28600 27.22500
C  -4.26800 27.08900 27.25300
C  -2.42100 29.63800 25.22500
C  -3.07400 28.67900 28.53500
O  -2.33100 29.56700 28.91100
C  -3.85800 27.64800 29.53500
C  -2.76700 27.12900 30.48300
O  -1.85900 26.41200 30.10200
O  -2.91100 27.54000 31.73700
C  -2.02200 26.99100 32.72300
H  -8.42600 22.33300 28.38500
H  -7.76400 23.42700 21.92900
H  -3.54800 28.06400 23.03200
H  -5.21700 25.00100 30.81800
H  -7.98800 23.94400 30.21200
H  -6.05600 21.81900 30.08300
H  -7.08500 22.22900 31.35900
H  -5.41300 22.95100 31.28300
H  -7.94700 26.25700 30.80700
H  -6.66200 27.33400 30.31600
H  -7.58100 26.77100 32.88300
H  -5.91400 27.36400 32.51600
H  -8.80900 20.33600 27.11000
H  -10.05300 20.13900 25.83500
H  -10.22900 21.30200 27.12700
H  -10.34800 19.71800 22.29300
H  -10.82500 20.44900 24.03000
H  -9.42300 19.37200 23.78500
H  -6.73700 25.27300 20.62200
H  -4.15100 26.39300 21.05200
H  -3.88700 24.45900 20.64700
H  -5.16800 24.07800 19.50200
H  -5.14700 23.29900 21.16400
H  -5.76300 28.67400 21.66500
H  -6.87700 27.72000 20.71600
H  -4.64000 27.41300 19.14900
H  -4.88400 29.23600 19.45500
H  -6.16000 28.22000 18.86500
H  -1.63900 30.03300 25.87300
H  -3.04400 30.50300 24.99400
H  -1.94700 29.19000 24.35100
H  -4.60900 28.22300 30.07700
H  -1.10100 27.55000 32.89300
H  -1.76800 25.93500 32.62600
H  -2.53700 27.04900 33.68200

