158

Mg 24.30600 -4.58600 45.51800
C  26.43500 -2.45100 43.64900
C  21.56900 -3.68200 43.35500
C  22.76300 -7.43400 46.24500
C  27.21800 -5.67900 47.24100
N  24.06800 -3.19300 43.75800
C  25.06200 -2.40800 43.23500
C  24.47700 -1.55100 42.07600
C  22.97800 -1.79300 42.22100
C  22.87100 -2.98400 43.14300
C  22.15700 -0.49700 42.75800
C  25.14800 -2.15300 40.73900
C  25.84600 -1.26400 39.72500
H  25.38900 -1.35900 38.25500
N  22.32100 -5.41800 44.94200
C  21.34900 -4.88800 44.11200
C  20.20200 -5.77600 44.15400
C  20.56800 -6.90900 44.88800
C  21.98700 -6.62400 45.40400
C  18.90400 -5.46700 43.49700
C  19.59700 -8.07500 45.13700
O  18.45700 -8.08500 44.64500
C  20.02800 -9.19300 45.94000
N  24.81900 -6.23400 46.65100
C  23.98500 -7.22300 46.87000
C  24.64000 -8.33300 47.76000
C  25.95300 -7.68900 48.25500
C  26.05300 -6.45800 47.37300
C  23.71300 -8.95200 48.83000
C  27.28000 -8.66600 48.07700
C  28.29600 -8.63200 49.18400
N  26.42400 -4.13800 45.59200
C  27.42400 -4.70100 46.32800
C  28.69900 -4.00200 45.98400
C  28.33000 -3.20300 44.87400
C  26.94100 -3.26200 44.71600
C  30.04000 -4.32100 46.53200
C  28.87000 -2.25800 43.93100
O  29.97300 -1.89900 43.83300
C  27.60500 -1.70800 43.09400
C  27.58500 -0.13600 43.32200
O  27.48600 0.41000 44.39900
O  27.67700 0.58800 42.11800
C  27.52300 2.03200 42.10300
H  20.73500 -3.29800 42.76200
H  22.31500 -8.40000 46.48700
H  28.11700 -5.88000 47.82700
H  24.80300 -0.51100 42.10700
H  22.48900 -2.10400 41.29800
H  22.65600 0.41700 42.43900
H  22.22400 -0.50200 43.84600
H  21.13000 -0.50200 42.39300
H  24.43700 -2.81000 40.23900
H  25.86900 -2.93100 40.99200
H  26.87700 -1.61600 39.70200
H  25.95000 -0.20300 39.95000
H  18.46600 -6.24600 42.87300
H  19.07000 -4.51700 42.98900
H  18.18800 -5.27500 44.29700
H  20.80100 -9.70500 45.36700
H  19.20100 -9.89700 46.04000
H  20.44400 -8.77000 46.85400
H  24.91600 -9.18500 47.13900
H  25.91700 -7.34900 49.29000
H  22.67600 -8.61600 48.85700
H  24.18600 -8.79900 49.80000
H  23.60600 -10.03500 48.76900
H  27.67700 -8.31400 47.12500
H  27.01200 -9.70100 47.86600
H  28.36400 -9.64200 49.58800
H  28.06300 -7.99300 50.03600
H  29.15200 -8.47600 48.52700
H  29.90700 -5.40200 46.47400
H  30.26100 -4.15300 47.58600
H  30.86100 -3.85200 45.99000
H  27.79500 -1.83600 42.02900
H  27.46700 2.28000 43.16300
H  26.63400 2.27900 41.52200
H  28.35000 2.59300 41.66900
Mg 46.51100 25.44900 28.14200
C  47.38100 27.88100 30.76700
C  45.11300 23.53600 30.66700
C  46.25100 23.08200 25.84800
C  48.21400 27.56700 25.84600
N  46.35100 25.74000 30.40700
C  46.70600 26.75500 31.26600
C  46.13800 26.56700 32.70800
C  45.65400 25.10900 32.69700
C  45.65600 24.74300 31.15700
C  46.49000 24.07700 33.56900
C  45.00900 27.56900 33.10200
C  45.29400 28.54400 34.23400
H  44.14000 28.83000 35.16100
N  45.65100 23.60000 28.23100
C  45.14300 22.95400 29.34300
C  44.60400 21.68600 28.95400
C  44.99400 21.51400 27.57900
C  45.70400 22.75900 27.13800
C  43.90300 20.74300 29.91600
C  44.73100 20.38200 26.67700
O  45.09100 20.47300 25.51000
C  44.11200 19.12100 27.11700
N  47.01800 25.40900 26.11200
C  46.81500 24.29600 25.32600
C  47.32200 24.47600 23.92200
C  47.81500 25.95200 23.91400
C  47.71700 26.29600 25.34900
C  48.40100 23.52100 23.36400
C  47.13800 26.91000 22.92400
C  45.82300 27.65200 23.42900
N  47.52200 27.40900 28.20500
C  48.15500 28.08300 27.15100
C  48.77400 29.24900 27.76200
C  48.39100 29.25000 29.13100
C  47.75800 28.05200 29.38700
C  49.60200 30.18800 26.98900
C  48.53300 30.00100 30.32500
O  48.95600 31.11200 30.57800
C  47.89500 29.06900 31.47400
C  48.86800 28.75200 32.54300
O  49.62500 27.74500 32.61200
O  48.82900 29.76500 33.46800
C  49.16500 29.30000 34.80600
H  44.65600 22.92400 31.44700
H  46.17800 22.44600 24.96400
H  48.88500 28.11600 25.18200
H  46.99300 26.60700 33.38200
H  44.59900 25.02500 32.95500
H  46.83700 23.29100 32.89800
H  45.79800 23.60200 34.26500
H  47.26700 24.36500 34.27800
H  44.16500 26.97300 33.44900
H  44.62700 28.05600 32.20400
H  45.45600 29.49500 33.72800
H  46.21400 28.35000 34.78500
H  43.15300 20.21200 29.33000
H  43.47600 21.22100 30.79700
H  44.78500 20.19000 30.24100
H  44.66400 18.78900 27.99700
H  44.25700 18.37900 26.33200
H  43.07600 19.24600 27.43000
H  46.42600 24.38600 23.30800
H  48.87100 25.95600 23.64400
H  48.77500 22.94600 24.21200
H  49.21600 23.94900 22.78000
H  47.94200 22.88800 22.60400
H  46.83300 26.56100 21.93700
H  47.85300 27.70100 22.69600
H  45.92400 28.72900 23.55900
H  45.60700 27.22400 24.40800
H  45.00700 27.46400 22.73100
H  49.59500 31.13900 27.52100
H  48.97800 30.36300 26.11300
H  50.63400 29.86300 26.85000
H  47.09500 29.68100 31.89000
H  50.17100 28.88200 34.78900
H  48.46400 28.52800 35.12600
H  49.11100 30.21300 35.39900

