158

Mg 26.09300 50.54300 25.60200
C  24.05100 51.66000 28.09300
C  28.55500 49.91200 27.88200
C  27.99600 49.63000 23.02200
C  23.60100 51.63000 23.14900
N  26.24400 50.69900 27.70900
C  25.21900 51.12700 28.57100
C  25.63400 50.95100 30.05700
C  27.09500 50.64300 30.02000
C  27.30300 50.40800 28.43400
C  28.03900 51.69300 30.63600
C  24.63200 49.94600 30.80400
C  24.12300 50.52900 32.12200
H  23.94400 49.56800 33.25500
N  28.05900 49.90000 25.54300
C  28.91100 49.64500 26.56400
C  30.16600 49.12100 26.02800
C  30.04000 49.09000 24.57000
C  28.61600 49.52000 24.29300
C  31.41200 48.89700 26.87500
C  31.10700 48.80200 23.53700
O  30.84500 48.74200 22.35700
C  32.52000 48.52200 23.90400
N  25.94900 50.77900 23.32700
C  26.82000 50.15100 22.51800
C  26.34100 50.10700 21.12200
C  24.87900 50.59700 21.20100
C  24.82800 51.12400 22.63900
C  27.28900 50.89700 20.19800
C  23.78200 49.44000 20.84800
C  22.59800 49.90100 19.97700
N  24.22500 51.35700 25.53600
C  23.36000 51.76500 24.53300
C  22.14400 52.18000 25.02600
C  22.42000 52.26900 26.34200
C  23.66400 51.77500 26.65600
C  20.96900 52.69000 24.27300
C  21.81700 52.66100 27.64500
O  20.64400 53.00400 27.91000
C  22.82000 52.25500 28.76200
C  23.31900 53.38300 29.70800
O  24.35800 54.07900 29.65300
O  22.31700 53.54100 30.68200
C  22.87900 54.02000 31.94200
H  29.28500 49.73400 28.67500
H  28.57500 49.22300 22.19000
H  22.81200 51.82200 22.42000
H  25.62800 51.97200 30.43800
H  27.28700 49.69200 30.51700
H  27.62400 52.40900 31.34500
H  28.63500 52.23200 29.90000
H  28.75800 51.08300 31.18300
H  25.11500 48.97700 30.92900
H  23.79300 49.78400 30.12600
H  23.16100 51.01400 31.95400
H  24.81300 51.34500 32.33600
H  31.12300 48.59800 27.88300
H  31.96200 49.83400 26.96200
H  32.15800 48.17700 26.53900
H  32.71500 47.50200 24.23400
H  32.75400 49.25400 24.67700
H  33.16900 48.77700 23.06700
H  26.43300 49.07200 20.79300
H  24.73300 51.46800 20.56200
H  27.89600 51.62700 20.73400
H  26.61800 51.55300 19.64300
H  27.93100 50.32900 19.52500
H  23.30600 49.06900 21.75600
H  24.36100 48.67200 20.33400
H  22.83300 50.95800 19.85900
H  21.59500 49.88400 20.40400
H  22.50700 49.38000 19.02400
H  20.84500 52.11700 23.35400
H  21.13600 53.71600 23.94500
H  20.09000 52.64000 24.91600
H  22.42300 51.48800 29.42700
H  22.15100 53.84200 32.73300
H  22.93400 55.10600 31.87200
H  23.87800 53.61300 32.10200
Mg 8.48100 47.46600 28.01000
C  6.95500 46.72900 30.99700
C  11.42300 47.72100 29.83100
C  9.86800 48.82000 25.28100
C  5.29400 47.71200 26.41200
N  9.05600 47.43500 30.22300
C  8.31300 46.93400 31.19900
C  8.99800 47.00800 32.57300
C  10.44900 47.52100 32.15700
C  10.30000 47.57300 30.64400
C  11.07000 48.78300 32.75200
C  8.85200 45.70200 33.41900
C  9.92800 45.51800 34.50000
H  9.80200 44.44100 35.59100
N  10.47100 48.06100 27.55600
C  11.49800 48.11800 28.46000
C  12.71500 48.29200 27.66600
C  12.31300 48.61400 26.34000
C  10.82100 48.54200 26.29600
C  14.15900 48.33400 28.26900
C  13.09900 48.94900 25.13300
O  12.50200 49.20700 24.05100
C  14.51900 48.94300 25.17800
N  7.74300 47.93700 26.05900
C  8.50900 48.66200 25.21900
C  7.65400 49.32200 24.10700
C  6.32500 48.49300 24.27400
C  6.43500 47.97400 25.61400
C  7.44600 50.86100 24.26900
C  5.99000 47.49300 23.20700
C  7.02000 46.38500 22.93400
N  6.58100 47.20900 28.51600
C  5.31300 47.33500 27.82400
C  4.21000 47.00300 28.70300
C  4.83700 46.79900 29.88700
C  6.23500 46.87900 29.73300
C  2.78700 47.13200 28.39600
C  4.54100 46.60100 31.30300
O  3.46200 46.52000 31.88200
C  5.85100 46.47900 32.07300
C  5.85900 45.11400 32.71800
O  6.25300 44.06700 32.27200
O  5.52000 45.37200 34.00300
C  5.54800 44.20500 34.84800
H  12.41200 47.63000 30.28500
H  10.14700 49.43400 24.42200
H  4.29600 47.68700 25.96800
H  8.38100 47.77400 33.04300
H  11.13800 46.73900 32.47500
H  12.01900 48.33900 33.05500
H  10.46900 49.07200 33.61400
H  11.29800 49.62900 32.10400
H  8.73400 44.83000 32.77700
H  7.92900 45.83600 33.98300
H  10.15100 46.49600 34.92700
H  10.81800 45.14000 33.99700
H  14.89600 49.07100 27.95000
H  14.62700 47.38800 27.99600
H  14.18100 48.38700 29.35700
H  14.98200 49.59200 25.92100
H  14.91700 49.18200 24.19200
H  14.82700 47.95100 25.50600
H  8.04600 49.16800 23.10100
H  5.46000 49.15200 24.35100
H  6.46500 51.17200 24.62900
H  7.68500 51.33300 23.31600
H  8.06800 51.33600 25.02700
H  5.89800 48.01300 22.25400
H  5.11000 46.91300 23.48500
H  7.39700 46.43900 21.91300
H  6.63000 45.37200 23.03500
H  7.83600 46.55100 23.63700
H  2.33600 47.84700 29.08400
H  2.26600 46.17500 28.42400
H  2.64400 47.42700 27.35600
H  5.90400 47.34000 32.74000
H  4.90900 44.39000 35.71100
H  6.55200 43.98400 35.20900
H  5.04900 43.31600 34.46200

