158

Mg 48.87200 35.62100 28.31800
C  46.96700 33.73700 30.64500
C  48.91000 38.13600 30.66000
C  50.49400 37.39100 26.10000
C  48.70000 32.93200 26.20400
N  48.25100 35.84500 30.56400
C  47.54100 34.87400 31.24100
C  47.33900 35.33300 32.72800
C  47.70000 36.90300 32.58500
C  48.36300 36.96400 31.19800
C  46.55400 37.87200 32.80000
C  48.31600 34.45000 33.45800
C  47.97300 34.11000 34.92600
H  47.04200 35.10500 35.70300
N  49.67100 37.48900 28.35700
C  49.55000 38.37700 29.39200
C  50.19100 39.58900 29.06600
C  50.72400 39.45500 27.73100
C  50.25800 38.07600 27.28400
C  50.26000 40.72400 29.98700
C  51.62900 40.37800 26.95900
O  52.08200 40.09000 25.84000
C  52.15800 41.63800 27.61900
N  49.24800 35.27400 26.33100
C  50.11400 36.14500 25.65200
C  50.51600 35.52700 24.29800
C  50.16100 34.06500 24.46900
C  49.31300 34.03200 25.74500
C  49.94800 36.22000 23.05900
C  51.32500 33.02700 24.51300
C  51.87400 32.50900 23.17600
N  47.77100 33.81200 28.23000
C  47.88700 32.79800 27.31400
C  47.06600 31.68200 27.69500
C  46.58900 32.07400 29.01100
C  47.10600 33.31400 29.31600
C  46.94900 30.48200 27.00500
C  45.76400 31.68600 30.08600
O  45.09800 30.65300 30.21500
C  45.88200 32.79300 31.14700
C  46.04500 32.16600 32.51400
O  46.88600 31.31200 32.75400
O  44.99100 32.58400 33.37700
C  44.85700 31.92000 34.73200
H  48.80100 38.94900 31.38200
H  51.13600 37.87400 25.36000
H  48.82100 32.02300 25.61000
H  46.32400 35.18500 33.09800
H  48.53600 37.25900 33.18600
H  46.38400 38.45000 31.89200
H  46.79500 38.53200 33.63300
H  45.69500 37.22700 32.98600
H  49.23700 35.03000 33.39500
H  48.51300 33.55000 32.87500
H  48.96300 34.34100 35.32000
H  47.85500 33.05100 35.15900
H  51.21000 41.25100 30.07500
H  50.14300 40.39900 31.02100
H  49.53800 41.46000 29.63300
H  51.48100 42.37700 28.04900
H  52.67500 42.05100 26.75200
H  52.96700 41.33000 28.28100
H  51.59300 35.69600 24.30600
H  49.48600 33.77900 23.66300
H  49.70300 37.22700 23.39800
H  49.07600 35.72700 22.63000
H  50.67000 36.31600 22.24800
H  50.88900 32.17600 25.03600
H  52.13300 33.43800 25.11900
H  51.22600 32.87300 22.37800
H  51.79300 31.42400 23.24400
H  52.93700 32.73200 23.07500
H  47.70600 30.36300 26.22900
H  46.01300 30.42000 26.45000
H  47.04900 29.64400 27.69300
H  45.00800 33.43300 31.26300
H  45.73100 31.35200 35.04900
H  44.06000 31.17800 34.77200
H  44.77300 32.60100 35.57900
Mg 0.76300 42.87300 25.02500
C  2.26800 42.97800 28.06000
C  -2.11200 41.47100 26.55000
C  -0.47000 41.91100 21.96400
C  3.79900 43.63200 23.46800
N  0.11200 42.39800 26.99400
C  0.89700 42.64000 28.09300
C  0.13000 42.54400 29.44700
C  -1.21800 41.88300 28.97100
C  -1.10600 41.85300 27.46900
C  -1.49300 40.47400 29.61100
C  0.00000 43.90200 30.21800
C  0.49700 43.72000 31.60500
H  -0.56200 43.70700 32.66000
N  -1.05600 41.93800 24.31500
C  -2.05800 41.40700 25.11700
C  -3.04500 40.83500 24.27300
C  -2.65200 40.99800 22.96600
C  -1.36200 41.71400 23.00300
C  -4.28100 40.06100 24.79100
C  -3.32500 40.62000 21.67300
O  -2.88000 40.81400 20.51400
C  -4.60000 39.83700 21.74700
N  1.48100 42.95600 23.02600
C  0.82500 42.47400 21.92100
C  1.74500 42.36500 20.69900
C  2.98700 43.09700 21.11300
C  2.76200 43.26100 22.60300
C  1.91600 40.93400 20.02300
C  3.28600 44.46300 20.43800
C  2.41300 45.69600 20.75400
N  2.57500 43.47000 25.55800
C  3.76500 43.71500 24.90900
C  4.90000 43.98300 25.79900
C  4.33300 43.60300 27.03400
C  2.96400 43.36200 26.85400
C  6.34000 44.37300 25.35100
C  4.61100 43.37800 28.44400
O  5.68600 43.40600 28.98200
C  3.28600 43.11000 29.17600
C  3.48000 41.91800 30.03300
O  3.71200 40.80900 29.67600
O  3.65900 42.30300 31.34000
C  4.13400 41.40200 32.39700
H  -2.95000 41.11000 27.15000
H  -0.76300 41.66400 20.94200
H  4.69800 43.98900 22.96200
H  0.51000 41.76000 30.10100
H  -2.06900 42.51600 29.22300
H  -1.80100 39.81100 28.80300
H  -2.32600 40.50900 30.31300
H  -0.62600 39.97900 30.05100
H  -1.01000 44.30900 30.25600
H  0.57400 44.75600 29.85800
H  1.14400 44.57500 31.79700
H  1.23200 42.93100 31.76800
H  -5.22600 40.59400 24.68000
H  -4.22600 39.68700 25.81300
H  -4.43700 39.14400 24.22200
H  -4.41800 38.83300 22.12900
H  -4.77200 39.71700 20.67800
H  -5.34700 40.48900 22.19900
H  1.24700 43.06200 20.02500
H  3.81800 42.39200 21.07600
H  2.95300 40.66700 19.82000
H  1.46900 41.00400 19.03200
H  1.31300 40.22900 20.59500
H  3.37200 44.42200 19.35300
H  4.26100 44.81600 20.77300
H  1.82800 45.61200 19.83800
H  2.95700 46.63200 20.88300
H  1.69600 45.50900 21.55300
H  6.69600 45.15600 26.02000
H  6.40100 44.70700 24.31500
H  7.08200 43.62500 25.63200
H  3.17600 44.00800 29.78500
H  5.08400 41.79700 32.75600
H  4.22900 40.34900 32.13200
H  3.51600 41.41800 33.29500

