158

Mg 17.11200 51.96700 25.81300
C  18.82000 50.45000 28.48400
C  14.82000 53.20600 28.14400
C  15.30400 53.05000 23.28900
C  19.33600 50.39400 23.62200
N  16.89600 51.87800 28.00600
C  17.69600 51.14700 28.87800
C  17.22200 51.36400 30.35100
C  15.80500 51.93500 30.14800
C  15.79600 52.32400 28.65500
C  14.73800 50.93200 30.40200
C  18.23500 52.33200 31.11100
C  18.39600 52.24000 32.63300
H  17.22400 51.68100 33.48800
N  15.35300 53.10300 25.72500
C  14.60100 53.53700 26.79900
C  13.57200 54.43900 26.27200
C  13.66800 54.40900 24.82800
C  14.77700 53.45100 24.53100
C  12.60000 55.15000 27.11700
C  12.82500 55.14800 23.77600
O  13.00100 55.14800 22.55800
C  11.78500 56.07000 24.34700
N  17.26400 51.61600 23.72400
C  16.34400 52.17900 22.87300
C  16.67400 51.90300 21.41000
C  18.14500 51.28300 21.49200
C  18.32500 51.15000 23.05700
C  15.64300 51.17900 20.53600
C  19.21000 52.23700 20.82500
C  20.68600 51.82200 20.69000
N  18.74600 50.69700 25.96700
C  19.50500 50.11100 24.98900
C  20.55100 49.34000 25.61600
C  20.39700 49.47200 27.00300
C  19.24400 50.32300 27.18800
C  21.68600 48.72700 24.91800
C  20.89800 49.13400 28.29400
O  21.87200 48.51600 28.64100
C  19.95500 49.82700 29.29400
C  19.56000 48.76900 30.27500
O  18.89800 47.77300 29.99700
O  19.93000 49.01000 31.55700
C  19.16800 48.16100 32.57100
H  14.07100 53.44400 28.90200
H  14.65600 53.50200 22.53600
H  20.07700 50.00000 22.92400
H  17.18200 50.40200 30.86300
H  15.61900 52.77100 30.82200
H  13.81500 51.50900 30.46400
H  14.79300 50.45400 31.38100
H  14.63400 50.31400 29.51000
H  18.01400 53.37000 30.86300
H  19.18000 52.08500 30.62700
H  18.54100 53.25100 33.01400
H  19.31000 51.67700 32.82400
H  12.49300 56.20700 26.87200
H  12.90400 55.27000 28.15700
H  11.68400 54.56400 27.18800
H  11.11400 55.70600 25.12600
H  11.14700 56.19200 23.47200
H  12.31000 56.99600 24.58100
H  16.80600 52.93500 21.08500
H  18.25100 50.33800 20.95800
H  16.08900 50.65600 19.68900
H  14.95600 51.88700 20.07400
H  15.10200 50.40600 21.08200
H  19.20100 53.10500 21.48400
H  18.81700 52.53100 19.85200
H  21.01100 52.17100 19.71000
H  20.93200 50.78400 20.91600
H  21.23100 52.34700 21.47500
H  22.15500 49.28000 24.10400
H  21.32900 47.71200 24.74400
H  22.42100 48.69200 25.72300
H  20.53500 50.60600 29.78900
H  19.15800 47.07200 32.52400
H  18.14000 48.52300 32.58800
H  19.66500 48.37300 33.51800
Mg 0.36400 43.89000 26.16800
C  2.34200 43.91300 29.18500
C  -2.34400 43.46300 28.14800
C  -1.46200 43.24500 23.36300
C  3.29500 43.77300 24.39800
N  0.04700 43.75300 28.44700
C  1.00900 43.79800 29.46000
C  0.25800 43.74800 30.85000
C  -1.22700 43.32400 30.53500
C  -1.15400 43.54200 28.97600
C  -1.69300 41.91400 30.84900
C  0.46200 45.03300 31.72400
C  0.75400 44.90900 33.20000
H  0.39200 43.60800 33.89400
N  -1.64200 43.70000 25.84500
C  -2.60800 43.55600 26.81600
C  -3.91600 43.51400 26.26200
C  -3.65800 43.42000 24.90000
C  -2.21100 43.49300 24.64100
C  -5.22000 43.55900 27.12000
C  -4.71200 43.36400 23.81800
O  -4.37600 43.37100 22.60900
C  -6.12900 43.46000 24.10200
N  0.79200 43.35300 24.19200
C  -0.07600 43.19100 23.16200
C  0.62400 43.18200 21.80100
C  2.15500 43.44700 22.14500
C  2.11800 43.57700 23.69600
C  0.36100 41.79300 21.12800
C  2.81400 44.61600 21.46100
C  2.43600 46.00300 21.95300
N  2.37800 43.85300 26.63100
C  3.48600 43.82800 25.77400
C  4.74100 43.87400 26.49500
C  4.32000 44.01000 27.86900
C  2.87700 43.89300 27.86300
C  6.20400 43.89900 25.86700
C  4.79800 44.23400 29.28100
O  5.95000 44.33700 29.67800
C  3.50800 43.99600 30.14800
C  3.73100 42.79900 31.03200
O  4.04300 41.70600 30.62400
O  3.75000 43.17700 32.32200
C  4.19400 42.25000 33.34100
H  -3.11600 43.24900 28.89000
H  -2.05300 43.07700 22.46100
H  4.28500 43.72600 23.94000
H  0.72500 42.91400 31.37400
H  -1.91200 43.96600 31.08900
H  -2.57500 41.85900 31.48700
H  -0.95200 41.47800 31.51800
H  -1.77600 41.32600 29.93500
H  -0.34800 45.75400 31.61400
H  1.25700 45.60000 31.23900
H  0.18900 45.67800 33.72800
H  1.80100 45.20500 33.26200
H  -5.69900 42.58300 27.19900
H  -5.93600 44.26800 26.70500
H  -5.05700 44.00200 28.10200
H  -6.37800 42.55900 24.66200
H  -6.41700 43.70300 23.07900
H  -6.28600 44.40200 24.62800
H  0.25200 44.03400 21.23100
H  2.72700 42.59700 21.77300
H  1.31500 41.32000 20.89300
H  -0.10800 41.96600 20.15900
H  -0.15000 41.11500 21.81100
H  2.48100 44.52000 20.42700
H  3.89200 44.45900 21.42300
H  2.18200 46.71400 21.16700
H  3.34900 46.53600 22.22100
H  1.67300 46.00700 22.73100
H  6.91200 44.42700 26.50700
H  6.10300 44.26600 24.84600
H  6.50300 42.85300 25.92600
H  3.46800 44.80900 30.87300
H  3.39300 41.52800 33.49700
H  4.32100 42.85700 34.23800
H  5.17100 41.93100 32.97800

