158

Mg 1.59400 8.36000 26.17300
C  1.74500 10.54400 28.86500
C  2.34300 5.77800 28.31900
C  1.50000 6.43300 23.47400
C  1.72500 11.16900 24.05200
N  2.02900 8.17900 28.32400
C  1.91400 9.20800 29.26900
C  1.84300 8.68400 30.74000
C  2.12100 7.14900 30.54500
C  2.17200 6.97700 28.97600
C  3.44400 6.65200 31.16300
C  0.51500 9.02500 31.37500
C  0.35500 8.94900 32.86700
H  1.51600 8.30300 33.67500
N  1.96100 6.39800 25.94900
C  2.32300 5.52800 26.91900
C  2.56900 4.22700 26.20800
C  2.45000 4.43300 24.79100
C  1.90500 5.76400 24.67100
C  2.79200 2.99300 26.98200
C  2.64700 3.51100 23.67100
O  2.54100 3.75400 22.46100
C  3.08700 2.10800 24.01900
N  1.43400 8.76100 24.08100
C  1.37000 7.76500 23.16900
C  1.25700 8.23200 21.72500
C  1.25600 9.84500 21.94800
C  1.46600 9.95300 23.47900
C  2.38500 7.77100 20.73900
C  -0.08400 10.59200 21.54800
C  0.00100 12.04200 20.91400
N  1.64500 10.46500 26.40600
C  1.79400 11.47700 25.46000
C  1.87600 12.72500 26.11500
C  1.83400 12.44700 27.49000
C  1.75700 11.03000 27.58300
C  2.03700 14.08100 25.50400
C  1.90300 13.01800 28.79600
O  2.03000 14.21600 29.05500
C  1.70900 11.81100 29.77400
C  2.88900 11.96100 30.64000
O  4.05200 12.21900 30.38600
O  2.49600 11.75100 31.97700
C  3.49400 12.01500 33.06400
H  2.60700 4.97900 29.01600
H  1.48600 5.87000 22.53800
H  1.91000 11.97000 23.33300
H  2.69000 9.15400 31.24000
H  1.37800 6.52600 31.04300
H  3.99400 7.46600 31.63500
H  4.06900 6.13700 30.43300
H  3.25300 5.84100 31.86500
H  -0.25000 8.40900 30.90300
H  0.19600 10.04500 31.16000
H  -0.64800 8.55600 33.03800
H  0.20600 9.90500 33.36800
H  2.62500 3.28800 28.01800
H  3.81300 2.61100 26.99100
H  2.07400 2.22300 26.69900
H  3.21800 1.53900 23.09900
H  2.27000 1.66300 24.58800
H  3.99800 2.12600 24.61700
H  0.26200 7.94600 21.38500
H  2.06900 10.41900 21.50200
H  3.23700 7.30200 21.23000
H  2.69900 8.56600 20.06300
H  1.82300 7.06300 20.12900
H  -0.84300 10.48500 22.32300
H  -0.50200 10.02900 20.71300
H  0.83800 12.12800 20.22100
H  0.25600 12.69000 21.75300
H  -0.93300 12.37600 20.46200
H  2.73500 14.70200 26.06600
H  1.08500 14.60600 25.57700
H  2.41000 13.99900 24.48300
H  0.72200 11.77300 30.23700
H  3.08500 12.51800 33.94000
H  4.42900 12.53700 32.86000
H  3.80300 11.03400 33.42300
Mg 41.16300 41.76000 26.92400
C  40.38100 44.01800 29.67000
C  41.83200 39.41000 29.34500
C  41.84000 39.82500 24.51600
C  40.41000 44.42600 24.81300
N  41.27200 41.83700 29.32100
C  40.86400 42.82200 30.18400
C  40.93000 42.33000 31.66300
C  41.58500 40.89000 31.46400
C  41.56900 40.67800 29.96300
C  43.00200 40.61100 32.08000
C  39.64300 42.28100 32.49300
C  39.84100 42.32100 33.98500
H  38.83400 42.99700 34.85900
N  41.78100 39.83400 26.91200
C  41.98300 39.01900 27.96700
C  42.38400 37.68200 27.42000
C  42.35100 37.77400 26.02800
C  42.00800 39.16900 25.76200
C  42.72800 36.50600 28.33600
C  42.62700 36.74500 24.94600
O  42.68700 36.90400 23.73100
C  42.77400 35.28800 25.38100
N  41.41200 42.19200 24.84000
C  41.55900 41.13900 24.05300
C  41.38900 41.58900 22.62400
C  40.72300 43.02200 22.75000
C  40.82700 43.23600 24.20100
C  42.67200 41.36600 21.72300
C  39.27300 43.24900 22.19900
C  38.31000 42.04700 22.55400
N  40.77400 43.88700 27.13700
C  40.43400 44.81200 26.16300
C  40.16700 46.03700 26.77600
C  39.96800 45.68000 28.13100
C  40.44000 44.39300 28.31300
C  39.93400 47.29400 26.04600
C  39.46600 46.24300 29.39000
O  38.92900 47.28300 29.67700
C  39.65700 45.11800 30.45400
C  40.56300 45.71700 31.44400
O  41.74100 46.05300 31.25800
O  39.84000 45.85300 32.63200
C  40.64400 46.40100 33.76100
H  41.96600 38.60300 30.06800
H  41.81000 39.13200 23.67300
H  40.02800 45.19900 24.14300
H  41.64300 42.95100 32.20500
H  40.97600 40.11300 31.92600
H  43.35300 41.57000 32.46100
H  43.79200 40.25600 31.41900
H  42.90700 39.88600 32.88800
H  39.21500 41.28000 32.44600
H  38.81900 42.93800 32.21400
H  40.82200 42.76900 34.14800
H  40.00200 41.30300 34.34100
H  42.01800 35.68600 28.23000
H  42.77900 36.77600 29.39100
H  43.68400 36.10000 28.00700
H  42.88600 34.64400 24.50900
H  41.84700 35.00700 25.88100
H  43.64900 35.32400 26.03100
H  40.64100 40.96100 22.14000
H  41.37700 43.80400 22.36600
H  43.55100 41.50200 22.35300
H  42.43700 42.10900 20.96000
H  42.61800 40.34800 21.33700
H  39.25800 43.19400 21.11100
H  38.74000 44.06000 22.69500
H  38.55000 41.25100 21.84900
H  37.27100 42.34900 22.42300
H  38.49700 41.70900 23.57300
H  40.40600 47.39400 25.06800
H  40.25400 48.07600 26.73500
H  38.85200 47.29900 25.91300
H  38.73800 44.73000 30.89400
H  41.39200 45.70500 34.14100
H  39.95300 46.78200 34.51300
H  41.15800 47.27700 33.36500

