158

Mg 25.09200 1.17800 29.72600
C  27.21500 1.05400 32.67100
C  22.43700 1.27700 31.87900
C  23.30100 1.43100 27.11900
C  27.98800 0.48300 27.90100
N  24.83000 1.13400 31.99300
C  25.78400 1.23500 32.92000
C  25.20800 1.42500 34.31000
C  23.67100 1.41000 34.04900
C  23.63800 1.17500 32.54800
C  22.78500 0.53000 35.01500
C  25.67800 2.68200 35.10500
C  26.23300 2.47300 36.53600
H  25.93000 3.69600 37.51400
N  23.05700 1.30100 29.51200
C  22.07800 1.28500 30.52900
C  20.77600 1.39900 29.89000
C  21.02800 1.52400 28.51200
C  22.52000 1.41700 28.31400
C  19.50200 1.41400 30.64500
C  20.00400 1.72000 27.43300
O  20.44900 1.80600 26.28600
C  18.51400 2.01000 27.68500
N  25.62900 0.98300 27.78900
C  24.64400 1.25100 26.83800
C  25.15900 1.38100 25.39600
C  26.72400 1.11100 25.61000
C  26.82100 0.84100 27.16100
C  24.31000 0.62700 24.26800
C  27.71600 2.31500 25.37600
C  27.25000 3.64400 26.09900
N  27.10600 0.62900 30.21500
C  28.15700 0.37800 29.33000
C  29.40300 0.18000 30.05400
C  29.02900 0.41900 31.36200
C  27.65400 0.66100 31.38700
C  30.75100 -0.22500 29.53700
C  29.55300 0.63900 32.76200
O  30.69000 0.51900 33.24500
C  28.35100 0.97900 33.61600
C  28.15400 0.05500 34.77400
O  27.64000 -1.03000 34.63400
O  28.74300 0.50100 35.93900
C  28.91100 -0.41600 37.07600
H  21.57100 1.52600 32.49600
H  22.84700 1.68800 26.16000
H  28.93300 0.49100 27.35300
H  25.45700 0.53600 34.88900
H  23.37600 2.43500 34.27100
H  22.21100 -0.26900 34.54500
H  22.14700 1.23700 35.54500
H  23.33300 0.04300 35.82200
H  24.87000 3.41300 35.08300
H  26.56800 3.12800 34.66000
H  27.31000 2.53100 36.37900
H  26.05600 1.48700 36.96500
H  19.10000 2.42700 30.62100
H  19.67200 1.08400 31.67000
H  18.83600 0.71400 30.14000
H  17.88000 1.14700 27.48200
H  18.30900 2.65200 26.82800
H  18.38200 2.58800 28.60000
H  24.97400 2.39100 25.03100
H  26.95600 0.18500 25.08500
H  23.46800 0.08200 24.69300
H  25.04600 -0.06800 23.86300
H  23.94100 1.28900 23.48400
H  27.51600 2.40600 24.30800
H  28.72500 1.95400 25.57400
H  26.55100 3.29600 26.85900
H  26.63100 4.25200 25.43900
H  28.08300 4.19800 26.53300
H  31.28800 0.67700 29.24500
H  30.85400 -1.00200 28.77900
H  31.23900 -0.77000 30.34500
H  28.53100 1.96400 34.04700
H  28.01900 -0.26100 37.68300
H  29.86300 -0.23600 37.57500
H  28.95300 -1.45200 36.73800
Mg 1.02100 42.93900 25.57500
C  3.32000 42.54500 28.22200
C  -1.52200 42.03400 27.48400
C  -0.89600 42.80100 22.83100
C  3.88100 43.47600 23.50400
N  0.99200 42.41100 27.62600
C  1.95700 42.36700 28.55700
C  1.36900 41.90400 29.90500
C  -0.16400 41.55400 29.52200
C  -0.25600 42.04600 28.11800
C  -0.60500 40.11900 29.86400
C  1.52900 43.02200 30.94400
C  1.88600 42.56500 32.34800
H  1.00100 42.96000 33.47700
N  -1.00000 42.67600 25.21800
C  -1.88100 42.35100 26.18900
C  -3.18100 42.36700 25.68900
C  -3.05200 42.45300 24.27500
C  -1.65400 42.61200 24.03600
C  -4.38700 42.30500 26.53600
C  -4.11200 42.39200 23.21200
O  -4.03000 42.61200 22.01300
C  -5.50000 42.12600 23.59400
N  1.46000 43.04200 23.44200
C  0.43200 43.05100 22.52600
C  0.92500 43.39100 21.15400
C  2.30700 44.01200 21.49000
C  2.61000 43.48800 22.89300
C  0.93400 42.14500 20.13600
C  2.33200 45.54700 21.33700
C  3.37100 46.08000 20.38000
N  3.08000 42.98600 25.76300
C  4.06400 43.25000 24.82600
C  5.37300 43.29000 25.42800
C  5.09000 43.00800 26.83100
C  3.72500 42.84200 26.94100
C  6.73700 43.38500 24.77500
C  5.70300 42.66800 28.13200
O  6.89800 42.48100 28.43500
C  4.58700 42.46600 29.16000
C  4.66900 41.14600 29.76800
O  4.53300 40.05700 29.17700
O  4.99600 41.33900 31.12500
C  5.38200 40.12200 31.86400
H  -2.29700 41.58800 28.11200
H  -1.55900 42.87500 21.96600
H  4.68600 43.83100 22.85700
H  1.90800 40.98600 30.13800
H  -0.92600 42.20100 29.95700
H  0.27100 39.56200 30.19600
H  -0.87700 39.48200 29.02300
H  -1.44000 40.02200 30.55700
H  0.62700 43.63200 30.97700
H  2.34900 43.68500 30.66800
H  2.85900 42.97400 32.62100
H  2.08400 41.49500 32.40800
H  -4.86100 41.34100 26.35200
H  -5.02100 43.17900 26.39000
H  -4.14800 42.48100 27.58500
H  -6.13000 41.96500 22.71900
H  -5.79200 42.94300 24.25200
H  -5.61300 41.19400 24.14900
H  0.25800 44.17100 20.78700
H  2.97600 43.74800 20.67000
H  1.97300 41.93100 19.88600
H  0.37000 42.41300 19.24300
H  0.53100 41.25000 20.61100
H  2.47000 46.01400 22.31200
H  1.43600 46.04000 20.95800
H  2.87300 46.64000 19.58800
H  3.88100 45.32900 19.77600
H  4.08300 46.67800 20.94800
H  7.35500 42.58400 25.18100
H  7.16700 44.38100 24.87800
H  6.60400 43.17600 23.71300
H  4.65400 43.21300 29.95200
H  5.68500 39.40700 31.10000
H  4.58100 39.72800 32.49100
H  6.15400 40.44500 32.56300

