158

Mg 43.37300 41.30800 26.27800
C  42.59500 43.84200 28.60500
C  44.31200 39.36600 28.95300
C  44.19100 39.08000 23.97700
C  42.80100 43.60900 23.69200
N  43.45200 41.64000 28.58400
C  43.10700 42.68900 29.26300
C  43.24400 42.50500 30.77500
C  44.03400 41.12700 30.83400
C  43.88300 40.65800 29.35900
C  45.47000 41.14500 31.34100
C  41.82400 42.33300 31.45100
C  41.69300 41.99800 32.94200
H  41.29000 43.10500 33.89500
N  44.10300 39.49800 26.46300
C  44.35900 38.81700 27.66200
C  44.66000 37.45500 27.35100
C  44.72500 37.31600 25.91100
C  44.39100 38.68700 25.34900
C  45.03200 36.36200 28.43000
C  45.01900 36.00700 25.01200
O  44.94200 36.09000 23.79100
C  45.23500 34.79800 25.72900
N  43.54700 41.42100 24.16100
C  43.87100 40.28200 23.45400
C  43.80000 40.48400 21.84300
C  42.96200 41.79000 21.88300
C  43.08700 42.33600 23.32200
C  45.16600 40.67200 21.27700
C  41.65000 41.55700 21.20100
C  41.37100 42.27900 19.88400
N  42.81800 43.34000 26.11800
C  42.70600 44.16900 25.01400
C  42.12400 45.43900 25.43100
C  42.11400 45.35700 26.81000
C  42.57600 44.04800 27.18400
C  41.90900 46.60500 24.52800
C  41.74700 46.05400 28.04700
O  41.30800 47.24900 28.17300
C  42.03400 45.09200 29.27000
C  43.08400 45.74800 30.07300
O  44.27400 45.82700 29.80800
O  42.44800 46.36400 31.18800
C  43.36300 47.09200 32.03800
H  44.62000 38.66700 29.73300
H  44.38100 38.25200 23.29100
H  42.40000 44.32500 22.97100
H  43.82300 43.27200 31.28800
H  43.49700 40.36000 31.39100
H  46.14700 40.83700 30.54400
H  45.64200 40.55800 32.24300
H  45.62400 42.20400 31.54800
H  41.24100 41.60800 30.88300
H  41.37800 43.30200 31.23000
H  42.69400 41.90300 33.36400
H  41.03900 41.12800 33.00600
H  44.87200 36.65600 29.46700
H  46.08700 36.12200 28.30000
H  44.39300 35.48500 28.33200
H  44.36100 34.56800 26.33800
H  46.16200 35.00700 26.26100
H  45.42400 33.98900 25.02200
H  43.28800 39.64500 21.37200
H  43.53600 42.45500 21.23900
H  45.33400 41.66200 20.85400
H  45.31400 39.94600 20.47700
H  45.82600 40.53900 22.13400
H  40.88300 41.87000 21.91000
H  41.32400 40.54900 20.94400
H  40.69500 41.78200 19.18900
H  42.26700 42.28700 19.26200
H  40.90600 43.23200 20.13700
H  42.77300 46.91500 23.94000
H  41.50300 47.43300 25.10800
H  41.10300 46.26600 23.87700
H  41.16600 45.07600 29.92900
H  43.10800 48.13400 31.85000
H  44.44600 47.11100 31.91700
H  43.27400 46.88300 33.10400
Mg 30.76400 58.65800 39.27600
C  28.17400 56.62200 38.45300
C  32.95900 55.79600 38.53300
C  33.20900 60.72200 39.08900
C  28.41600 61.33000 39.58700
N  30.54900 56.47900 38.58400
C  29.32500 55.89700 38.37500
C  29.47900 54.48800 37.85900
C  30.89300 54.12400 38.44200
C  31.57100 55.55300 38.56000
C  30.91000 53.45000 39.88300
C  29.51900 54.46600 36.34700
C  28.91700 53.27500 35.57500
H  28.22300 53.65300 34.29800
N  32.84000 58.34600 38.83900
C  33.53400 57.08500 38.57900
C  34.95800 57.38200 38.46300
C  35.09400 58.86300 38.61800
C  33.70700 59.39000 38.81500
C  35.99600 56.36000 38.17200
C  36.45300 59.63100 38.50700
O  37.54400 59.05300 38.33100
C  36.41500 61.17200 38.51400
N  30.81800 60.80000 39.33500
C  31.99800 61.39000 39.36100
C  31.78900 62.89800 39.60500
C  30.30000 63.08800 40.00100
C  29.79500 61.67000 39.75600
C  32.72100 63.43000 40.72200
C  29.56200 64.17600 39.24900
C  29.36900 64.01800 37.76100
N  28.72300 58.98500 39.15600
C  27.84300 60.03500 39.32900
C  26.46000 59.66900 39.08200
C  26.59700 58.34000 38.72400
C  27.92200 57.94500 38.83800
C  25.31800 60.57200 38.95400
C  25.77800 57.16900 38.33000
O  24.59800 57.15500 38.13600
C  26.76500 55.99700 38.21900
C  26.27700 55.00500 39.19200
O  26.77500 54.76200 40.28500
O  25.22400 54.37700 38.65700
C  24.50000 53.38200 39.41100
H  33.58600 54.91700 38.69700
H  33.99900 61.47500 39.03100
H  27.65800 62.10900 39.69500
H  28.77900 53.74100 38.23300
H  31.36600 53.41200 37.76500
H  29.90900 53.27300 40.27500
H  31.45800 54.03600 40.62000
H  31.38800 52.47500 39.78200
H  30.56200 54.64400 36.08400
H  28.96200 55.34100 36.01300
H  28.11200 52.74000 36.07900
H  29.69800 52.56600 35.30100
H  36.29800 56.36900 37.12500
H  35.68500 55.33200 38.35500
H  36.88700 56.46900 38.78900
H  36.17700 61.53800 39.51300
H  35.71900 61.51600 37.74900
H  37.45500 61.45700 38.35800
H  32.10200 63.41300 38.69600
H  30.33100 63.18600 41.08600
H  32.91200 62.61700 41.42200
H  32.40200 64.34700 41.21700
H  33.66900 63.71200 40.26500
H  30.10400 65.05600 39.59600
H  28.62400 64.01200 39.78000
H  29.37900 64.96900 37.22800
H  28.38700 63.54500 37.75000
H  30.07900 63.39500 37.21700
H  25.65400 61.58200 38.71800
H  24.72100 60.64500 39.86300
H  24.68300 60.20200 38.15000
H  26.85200 55.58300 37.21400
H  24.46300 52.38700 38.96800
H  23.46700 53.70400 39.54400
H  24.83600 53.23800 40.43800

