158

Mg 25.69500 1.88900 28.70300
C  27.58700 1.45500 31.81700
C  22.92700 2.31400 30.60600
C  23.93800 1.88000 25.98300
C  28.66300 0.90700 26.97400
N  25.28000 1.85300 31.00200
C  26.20600 1.76700 32.10900
C  25.50900 2.01600 33.46400
C  23.97800 2.06300 33.01600
C  24.06300 2.09800 31.47800
C  22.83200 1.11000 33.61200
C  26.02100 3.30600 34.23700
C  26.84500 3.11100 35.53000
H  26.51300 3.84900 36.81800
N  23.66900 2.18000 28.30600
C  22.68300 2.37900 29.19900
C  21.45700 2.58200 28.47800
C  21.70300 2.52500 27.12000
C  23.16900 2.29800 27.04700
C  20.21400 2.87300 29.22200
C  20.81900 2.75000 25.97400
O  21.24300 2.88700 24.84700
C  19.32000 2.93400 26.18800
N  26.19100 1.36200 26.80100
C  25.22700 1.34100 25.82400
C  25.90800 1.16700 24.39400
C  27.35300 0.75400 24.77500
C  27.46800 0.99600 26.21900
C  25.16000 0.17300 23.39700
C  28.42100 1.27100 23.81500
C  29.07300 2.63600 24.08300
N  27.72200 1.43000 29.12300
C  28.81400 1.05000 28.34500
C  29.90200 0.72100 29.15900
C  29.52500 0.92800 30.51500
C  28.15600 1.30400 30.47200
C  31.05600 -0.04400 28.74100
C  29.96200 0.81400 31.86800
O  31.04000 0.35400 32.25600
C  28.74100 1.26700 32.79400
C  28.55500 0.16400 33.80900
O  28.27000 -0.94700 33.44000
O  28.81700 0.64100 35.12100
C  28.50400 -0.35400 36.14700
H  22.09400 2.57600 31.26200
H  23.30500 1.94300 25.09500
H  29.61600 0.64000 26.51300
H  25.61600 1.10100 34.04700
H  23.59700 3.04400 33.30000
H  23.16800 0.60900 34.51900
H  22.79800 0.34800 32.83400
H  21.85300 1.55700 33.78400
H  25.24400 4.03100 34.47900
H  26.76000 3.84100 33.64200
H  27.87000 3.43400 35.35000
H  26.86500 2.05300 35.79400
H  19.80000 1.96300 29.65700
H  19.38900 3.33900 28.68200
H  20.46500 3.67700 29.91500
H  18.88900 2.16900 26.83500
H  18.82300 2.99100 25.22000
H  19.25600 3.93700 26.61100
H  25.97800 2.15400 23.93700
H  27.48000 -0.32800 24.81000
H  24.22900 -0.25300 23.77100
H  25.69300 -0.73100 23.10400
H  24.99900 0.61500 22.41400
H  28.12500 1.23800 22.76600
H  29.28900 0.63200 23.97800
H  30.15100 2.66100 24.24200
H  28.58400 3.08900 24.94600
H  28.87000 3.30600 23.24800
H  31.54100 -0.39100 29.65300
H  31.77500 0.53600 28.16400
H  30.72300 -0.81000 28.04000
H  28.99600 2.21000 33.27800
H  27.45200 -0.55300 36.34800
H  28.99800 -0.07900 37.07800
H  28.84000 -1.34000 35.82600
Mg -2.65100 34.84800 26.95500
C  -4.37200 33.56900 29.80500
C  -1.37300 37.26900 29.05000
C  -1.47900 36.21900 24.28500
C  -4.40700 32.59700 25.06100
N  -2.81700 35.33900 29.23800
C  -3.60300 34.72400 30.16300
C  -3.41100 35.22700 31.64400
C  -2.50100 36.47200 31.28800
C  -2.15700 36.36200 29.79900
C  -3.14700 37.90400 31.65100
C  -2.78900 34.19500 32.66200
C  -2.77900 34.61200 34.19300
H  -3.37800 33.64000 35.25600
N  -1.54300 36.48900 26.69200
C  -1.03500 37.37800 27.69400
C  -0.11100 38.32300 27.06000
C  -0.20800 38.00800 25.61300
C  -1.11700 36.87500 25.42500
C  0.64800 39.40300 27.81700
C  0.69300 38.61200 24.49800
O  0.72200 38.29700 23.32500
C  1.65300 39.61700 24.89100
N  -2.94900 34.43100 24.87000
C  -2.34600 35.15700 23.96500
C  -2.42200 34.49000 22.56700
C  -3.27700 33.25800 22.89100
C  -3.62400 33.42400 24.38900
C  -2.94900 35.37800 21.41200
C  -2.54400 31.83800 22.68200
C  -3.28300 30.75200 21.96800
N  -4.15900 33.42400 27.27800
C  -4.67600 32.55500 26.42700
C  -5.60400 31.67300 27.10500
C  -5.52600 32.03800 28.41700
C  -4.61400 33.09700 28.50100
C  -6.43200 30.59600 26.49300
C  -6.02300 31.77600 29.72000
O  -6.84200 30.91500 30.01500
C  -5.30700 32.78000 30.71900
C  -6.33200 33.54400 31.45500
O  -6.91000 34.55300 31.09600
O  -6.55600 32.93100 32.68000
C  -7.60600 33.51500 33.49000
H  -0.86300 38.03400 29.63900
H  -1.05700 36.64500 23.37300
H  -4.92600 31.86000 24.44400
H  -4.39900 35.53600 31.98700
H  -1.59300 36.48500 31.89100
H  -3.07800 38.61300 30.82600
H  -2.60200 38.13200 32.56800
H  -4.23400 37.86000 31.72200
H  -1.76600 34.03400 32.32200
H  -3.42000 33.30600 32.65900
H  -3.10900 35.64600 34.29600
H  -1.72600 34.65300 34.47000
H  1.70500 39.21200 28.00100
H  0.34100 39.69600 28.82100
H  0.50600 40.27100 27.17200
H  1.14900 40.49800 25.29000
H  2.42400 39.83900 24.15400
H  2.25300 39.16400 25.68000
H  -1.40200 34.19500 22.32000
H  -4.19800 33.39800 22.32500
H  -2.93100 36.41000 21.76300
H  -3.97100 35.05800 21.21100
H  -2.43500 35.23300 20.46200
H  -2.36700 31.37800 23.65400
H  -1.52300 31.90900 22.30700
H  -4.26500 31.16500 21.73900
H  -3.51200 29.89300 22.59900
H  -2.79800 30.47000 21.03400
H  -6.93700 30.06100 27.29800
H  -5.89200 29.88600 25.86600
H  -7.14000 31.14000 25.86900
H  -4.64200 32.20400 31.36200
H  -7.51500 34.58500 33.68000
H  -7.63100 32.98300 34.44100
H  -8.59800 33.38600 33.05900

