158

Mg 54.50600 24.32000 45.36400
C  51.98300 26.63900 44.55700
C  52.51800 21.92800 43.89900
C  57.13000 22.41900 45.28600
C  56.50100 27.06800 46.34400
N  52.44400 24.33600 44.50700
C  51.63300 25.33400 44.21600
C  50.26000 24.85200 43.73000
C  50.40600 23.39600 43.98100
C  51.91400 23.18400 44.07800
C  49.70300 22.76700 45.18300
C  50.05900 25.24000 42.20900
C  48.53800 25.28800 42.01000
H  48.09100 24.71600 40.72900
N  54.79900 22.36900 44.76600
C  53.82800 21.52800 44.26900
C  54.42500 20.28900 44.10300
C  55.83000 20.33800 44.37100
C  55.97600 21.73700 44.84100
C  53.59700 19.04600 43.76400
C  56.87000 19.26600 44.28900
O  56.44300 18.18100 43.85200
C  58.31100 19.35100 44.73300
N  56.50400 24.68200 45.70400
C  57.38800 23.68600 45.73400
C  58.82600 24.08500 46.26300
C  58.59700 25.54300 46.69600
C  57.11500 25.79200 46.21900
C  59.26000 23.17800 47.45600
C  59.65000 26.56200 46.11100
C  60.61900 26.90000 47.20400
N  54.27600 26.35700 45.55000
C  55.16500 27.32600 46.04600
C  54.39700 28.57200 46.28100
C  53.15400 28.33000 45.66000
C  53.17900 27.02300 45.14000
C  54.96400 29.76000 46.97500
C  51.85100 28.94800 45.31600
O  51.41100 30.07700 45.57000
C  51.08300 27.87200 44.55100
C  50.85300 28.30900 43.20600
O  51.74500 28.54000 42.40600
O  49.45200 28.36100 42.93200
C  49.01700 28.89000 41.66100
H  51.78500 21.17800 43.59700
H  57.96600 21.73100 45.43400
H  57.03200 27.89100 46.82700
H  49.56800 25.43500 44.33800
H  49.87700 22.77200 43.26100
H  50.39000 22.20400 45.81600
H  48.94800 22.08700 44.78900
H  49.22600 23.53700 45.78900
H  50.69800 24.51500 41.70500
H  50.43700 26.18900 41.82800
H  48.21200 26.31900 42.14500
H  47.98600 24.73700 42.77100
H  52.60700 19.12900 44.21300
H  54.00100 18.11400 44.16000
H  53.62500 19.04500 42.67400
H  58.73200 20.14800 44.12000
H  58.69900 18.35100 44.54200
H  58.33700 19.55300 45.80400
H  59.45500 24.08800 45.37200
H  58.66200 25.57500 47.78400
H  59.68200 23.78100 48.26000
H  60.05200 22.52900 47.08200
H  58.47300 22.48400 47.75200
H  59.05500 27.42300 45.80500
H  60.27400 26.06100 45.37100
H  60.62200 26.23800 48.07000
H  60.29200 27.90700 47.46100
H  61.62500 26.94000 46.78500
H  54.92700 29.50600 48.03500
H  54.30400 30.60500 46.78100
H  56.01000 29.90100 46.70200
H  50.15200 27.77600 45.11100
H  47.97600 28.57800 41.56600
H  49.66700 28.39900 40.93600
H  48.99700 29.97900 41.64300
Mg -1.74500 34.23100 26.95700
C  -3.68300 32.77500 29.43000
C  -0.63700 36.53500 29.11500
C  -0.16300 35.74200 24.34000
C  -3.22100 32.07400 24.65000
N  -2.20700 34.65400 28.99900
C  -2.89600 33.81600 29.87500
C  -2.70400 34.40600 31.33500
C  -1.83000 35.67500 31.08300
C  -1.54900 35.63200 29.63900
C  -2.27600 37.00900 31.66600
C  -2.06400 33.33200 32.25800
C  -3.00800 32.73400 33.39100
H  -2.27400 32.48800 34.70200
N  -0.46100 35.85700 26.72300
C  -0.09800 36.65800 27.82100
C  0.77800 37.71800 27.26100
C  0.85900 37.50900 25.85500
C  0.05500 36.32600 25.54500
C  1.33300 38.81100 28.15600
C  1.48500 38.44200 24.85400
O  1.46200 38.24800 23.65600
C  2.35500 39.53700 25.29000
N  -1.73400 34.05700 24.72800
C  -0.96400 34.75600 23.91100
C  -1.02600 34.15400 22.46700
C  -1.96500 32.90200 22.61900
C  -2.26700 32.94200 24.10900
C  -1.49000 35.10700 21.23000
C  -1.41000 31.54300 22.14600
C  -0.79300 30.60000 23.14700
N  -3.29400 32.91200 26.92500
C  -3.76200 32.08200 25.93000
C  -4.80600 31.24200 26.43300
C  -4.74900 31.44400 27.87100
C  -3.83700 32.44700 28.06700
C  -5.67900 30.29000 25.67400
C  -5.42100 31.09300 29.11600
O  -6.39300 30.37400 29.28800
C  -4.60200 31.83600 30.25500
C  -5.56300 32.54800 31.19300
O  -6.26400 33.45400 30.85100
O  -5.80600 31.86000 32.35300
C  -6.85900 32.42600 33.23400
H  -0.26500 37.21600 29.88300
H  0.41900 36.09000 23.48400
H  -3.61700 31.32700 23.95900
H  -3.68500 34.68500 31.72000
H  -0.83500 35.55400 31.51200
H  -2.56800 37.81900 30.99800
H  -1.48700 37.38700 32.31700
H  -3.17400 37.01000 32.28400
H  -1.21100 33.79000 32.75900
H  -1.59600 32.50800 31.72100
H  -3.49900 31.79400 33.13800
H  -3.77500 33.50300 33.47900
H  2.42100 38.73500 28.14500
H  1.11300 38.57000 29.19600
H  0.88000 39.79700 28.05800
H  2.66300 40.04400 24.37600
H  3.15300 39.08100 25.87600
H  1.68200 40.18800 25.84900
H  0.02400 33.89400 22.33600
H  -2.89300 33.05200 22.06800
H  -1.79800 36.05400 21.67400
H  -2.24400 34.66700 20.57800
H  -0.59600 35.29100 20.63400
H  -0.74400 31.68000 21.29400
H  -2.34800 31.14000 21.76500
H  -0.06600 29.97800 22.62500
H  -1.60900 30.01500 23.57000
H  -0.31700 31.24300 23.88700
H  -5.35200 30.39200 24.63900
H  -6.72500 30.35500 25.97400
H  -5.30700 29.28200 25.86200
H  -4.06400 31.07500 30.82200
H  -7.85000 32.40000 32.78200
H  -6.79400 33.48700 33.47300
H  -6.78100 31.81200 34.13100

