158

Mg 39.81200 9.98800 31.03500
C  41.83800 11.52800 33.56100
C  38.03600 8.63300 33.55200
C  38.35500 8.13000 28.74600
C  42.26500 10.95200 28.74500
N  39.93200 10.20400 33.33300
C  40.76200 10.84700 34.16300
C  40.45000 10.63000 35.69400
C  39.31000 9.55300 35.54300
C  39.05500 9.41500 34.04300
C  39.75600 8.21500 36.17100
C  39.91600 11.92600 36.45100
C  40.73500 12.23200 37.72900
H  40.05900 12.82900 38.98200
N  38.28400 8.65800 31.10200
C  37.63000 8.30300 32.26800
C  36.58000 7.40000 31.87300
C  36.67500 7.19600 30.45900
C  37.87600 7.96500 30.01800
C  35.72400 6.70900 32.88100
C  35.83200 6.31100 29.50900
O  36.17100 6.07400 28.36300
C  34.74200 5.47100 30.15900
N  40.40700 9.36600 29.05000
C  39.42700 8.83300 28.26100
C  39.73200 9.00500 26.76700
C  41.08100 9.75100 26.76900
C  41.30700 10.07000 28.24200
C  39.65200 7.66600 25.92100
C  41.31700 10.89000 25.66300
C  40.97300 12.30800 26.07700
N  41.68200 11.09300 31.10300
C  42.55600 11.31600 30.12700
C  43.64000 12.13100 30.60900
C  43.40100 12.21200 31.97800
C  42.18600 11.67300 32.21900
C  44.80400 12.57700 29.81400
C  43.92100 12.66800 33.22800
O  44.90700 13.35400 33.46000
C  42.98100 12.22400 34.25100
C  43.70900 11.27200 35.18100
O  44.41000 10.29400 34.91400
O  43.44400 11.74200 36.48500
C  44.09700 10.83200 37.53200
H  37.50400 8.18900 34.39600
H  37.74900 7.68200 27.95700
H  42.89400 11.48100 28.02600
H  41.34100 10.28000 36.21400
H  38.46100 9.85600 36.15500
H  39.02300 7.85800 36.89500
H  40.67000 8.20700 36.76400
H  39.69700 7.43600 35.41000
H  38.86300 11.90100 36.73100
H  39.96900 12.77200 35.76700
H  41.38300 13.03400 37.37400
H  41.45400 11.47400 38.03800
H  36.06300 5.70300 33.12900
H  34.67800 6.66100 32.57700
H  35.67800 7.19300 33.85700
H  35.28100 4.66000 30.64900
H  34.12000 5.03800 29.37500
H  34.06400 5.88800 30.90300
H  38.92300 9.58300 26.32000
H  41.85000 8.99800 26.59300
H  39.59800 6.72800 26.47300
H  40.51200 7.62500 25.25300
H  38.77300 7.70500 25.27700
H  40.70000 10.67400 24.79000
H  42.33700 10.92000 25.28100
H  40.67700 12.91700 25.22300
H  41.71700 12.82200 26.68500
H  40.12000 12.23200 26.75100
H  45.14000 12.00500 28.94900
H  45.58100 12.57700 30.57800
H  44.62400 13.55200 29.36200
H  42.72700 13.18100 34.70800
H  43.49900 9.92100 37.55900
H  44.19900 11.31500 38.50300
H  45.12200 10.60900 37.23500
Mg -5.22900 24.40500 25.32400
C  -4.02400 25.66500 28.35100
C  -7.57900 22.46400 27.20000
C  -6.46700 23.05300 22.41900
C  -2.86600 26.22600 23.63200
N  -5.72800 24.08600 27.55100
C  -5.08300 24.73500 28.58900
C  -5.66200 24.41900 29.96400
C  -6.51000 23.12800 29.57800
C  -6.62000 23.14800 27.98100
C  -6.04600 21.76500 30.21700
C  -6.51300 25.55600 30.56500
C  -6.60000 25.70700 32.07100
H  -6.34700 24.38500 32.81000
N  -6.81900 22.91000 24.89800
C  -7.72200 22.35800 25.75300
C  -8.63900 21.50100 25.01900
C  -8.24800 21.64500 23.68500
C  -7.03500 22.54400 23.68100
C  -9.54700 20.58500 25.66200
C  -8.80400 20.89600 22.45400
O  -8.35700 21.04500 21.36900
C  -9.96400 19.86000 22.73100
N  -4.76600 24.66600 23.33500
C  -5.46700 24.02500 22.26400
C  -4.83400 24.42300 20.87300
C  -3.59400 25.28300 21.35500
C  -3.71200 25.42000 22.87300
C  -4.52100 23.23900 19.88300
C  -3.50900 26.63000 20.68700
C  -2.27900 26.92100 19.80900
N  -3.67200 25.64100 25.85500
C  -2.85100 26.41200 25.10100
C  -2.12100 27.35300 25.88800
C  -2.49100 27.00400 27.20500
C  -3.49800 26.04100 27.11700
C  -1.05000 28.24100 25.42900
C  -2.25900 27.32700 28.58100
O  -1.45800 28.07700 29.15900
C  -3.33000 26.52300 29.34100
C  -2.58200 25.76700 30.33600
O  -1.92700 24.77400 30.10100
O  -2.80700 26.39700 31.57800
C  -2.27300 25.74200 32.76100
H  -8.17300 21.77000 27.79900
H  -6.86500 22.59600 21.51100
H  -2.07500 26.71800 23.06200
H  -4.78200 24.07200 30.50600
H  -7.55000 23.28900 29.86500
H  -6.43300 20.96000 29.59200
H  -6.44100 21.76800 31.23300
H  -4.96100 21.69200 30.14600
H  -7.52800 25.50800 30.16900
H  -6.14700 26.49100 30.14200
H  -7.54400 26.20400 32.29500
H  -5.68800 26.26000 32.29300
H  -10.55700 20.85000 25.34900
H  -9.55500 20.66800 26.74900
H  -9.17200 19.60200 25.37700
H  -9.50300 18.89600 22.94600
H  -10.38700 19.80000 21.72800
H  -10.79500 20.23500 23.32800
H  -5.62100 25.08000 20.50400
H  -2.71800 24.68300 21.11000
H  -5.30900 22.92300 19.20000
H  -4.54600 22.43500 20.61900
H  -3.55200 23.34400 19.39500
H  -3.56900 27.35800 21.49600
H  -4.39500 26.85800 20.09400
H  -1.54700 26.13700 20.00300
H  -1.77800 27.87400 19.98200
H  -2.65800 26.74400 18.80300
H  -0.40000 27.81100 24.66700
H  -0.44900 28.50500 26.30000
H  -1.38200 29.23700 25.13700
H  -4.02200 27.17300 29.87700
H  -3.13300 25.43200 33.35500
H  -1.62300 26.39700 33.34200
H  -1.76300 24.82300 32.47400

