158

Mg 25.84100 1.08100 28.84200
C  27.66200 0.71000 31.75200
C  22.95500 0.70600 30.57200
C  24.07400 0.80000 25.87800
C  28.84800 0.76500 26.97300
N  25.41800 0.70000 30.92800
C  26.27900 0.78200 31.99500
C  25.56500 0.98000 33.31700
C  24.12700 1.04500 32.90000
C  24.15100 0.72400 31.34500
C  23.14600 0.13000 33.69300
C  25.93300 2.24500 34.12600
C  25.64900 2.20300 35.60000
H  26.70000 2.77700 36.59800
N  23.79400 0.76000 28.23200
C  22.73800 0.75000 29.14700
C  21.50600 0.65800 28.50600
C  21.81600 0.76900 27.11900
C  23.26200 0.76100 26.97300
C  20.14100 0.53700 29.06700
C  20.88600 0.69700 25.89400
O  21.32500 0.63800 24.76600
C  19.38400 0.73000 26.07100
N  26.44500 0.83500 26.70000
C  25.50300 0.78200 25.69700
C  26.18100 0.78100 24.31300
C  27.68300 1.22800 24.68500
C  27.68400 0.99600 26.20400
C  26.22100 -0.70600 23.68300
C  28.06000 2.70900 24.35500
C  28.86400 2.96500 23.08400
N  27.86700 0.68900 29.23200
C  28.97100 0.49900 28.35900
C  30.08500 0.17100 29.19500
C  29.72600 0.32400 30.55100
C  28.35600 0.64900 30.49500
C  31.46500 -0.17800 28.61700
C  30.05200 0.23400 31.95900
O  31.11500 0.08300 32.51000
C  28.73300 0.56100 32.80400
C  28.63700 -0.49600 33.79100
O  28.03800 -1.55000 33.64900
O  29.37800 -0.20200 34.91200
C  29.31400 -1.17400 36.04600
H  21.98200 0.85100 31.04600
H  23.62400 0.72100 24.88700
H  29.82300 0.70000 26.48500
H  25.73900 0.13300 33.98000
H  23.71800 2.05600 32.90600
H  23.46100 0.06500 34.73400
H  22.89600 -0.88700 33.39100
H  22.18800 0.61800 33.87500
H  25.45200 3.16800 33.80300
H  26.99700 2.43400 33.98600
H  25.54900 1.17500 35.95000
H  24.69300 2.65100 35.87100
H  20.17100 0.50500 30.15600
H  19.64800 -0.35500 28.67900
H  19.48400 1.30900 28.66700
H  19.05100 1.54800 26.70900
H  18.93500 -0.20500 26.40700
H  18.95800 0.89200 25.08100
H  25.73900 1.46200 23.58600
H  28.39900 0.58200 24.17700
H  25.40500 -1.29400 24.10400
H  27.14400 -1.28000 23.76100
H  25.94400 -0.67800 22.62900
H  28.70200 3.10700 25.14100
H  27.11800 3.25500 24.29600
H  29.95100 2.91600 23.14400
H  28.54900 3.96900 22.79800
H  28.57500 2.26100 22.30400
H  32.00200 0.60600 28.08400
H  31.29800 -0.78100 27.72500
H  31.94600 -0.71400 29.43600
H  28.94700 1.54100 33.23100
H  28.43000 -0.99900 36.65800
H  30.20100 -0.90300 36.61900
H  29.26100 -2.22800 35.77400
Mg 35.45500 2.85200 28.09600
C  33.80300 3.52400 30.98800
C  38.36000 2.61000 29.73300
C  37.00500 2.15600 25.09700
C  32.39800 2.91300 26.39800
N  35.99300 3.11500 30.17900
C  35.14500 3.24200 31.25000
C  35.87100 3.16300 32.59700
C  37.27700 2.77100 32.14100
C  37.27700 2.97500 30.62000
C  38.58100 3.30100 32.89300
C  35.15900 2.11400 33.55100
C  35.02400 2.40000 35.13900
H  35.41300 3.85500 35.59800
N  37.43700 2.50900 27.47900
C  38.45400 2.40000 28.32800
C  39.68200 2.02300 27.68100
C  39.31900 1.87400 26.27900
C  37.83700 2.13200 26.24600
C  41.04500 1.85000 28.36500
C  40.14700 1.62800 25.06000
O  39.73900 1.37400 23.90800
C  41.69100 1.49800 25.26300
N  34.75700 2.37800 26.14900
C  35.58800 2.24500 25.04000
C  34.79900 2.13400 23.76400
C  33.32000 2.03300 24.27700
C  33.49800 2.46200 25.70800
C  34.95300 3.44400 22.90900
C  32.59600 0.65100 24.09400
C  31.50100 0.55300 23.03200
N  33.45900 3.09400 28.52800
C  32.32700 3.18600 27.76700
C  31.24800 3.68300 28.50400
C  31.73900 3.80000 29.82700
C  33.10800 3.42700 29.73500
C  29.84700 3.99100 27.88600
C  31.34500 4.18700 31.14500
O  30.32300 4.58000 31.65300
C  32.71300 3.97400 31.97500
C  33.11300 5.19400 32.72900
O  34.05000 5.98800 32.52000
O  32.18300 5.36600 33.74500
C  32.33100 6.64900 34.45000
H  39.23200 2.45100 30.37000
H  37.60500 2.06600 24.19000
H  31.47400 2.87000 25.81800
H  35.97000 4.10100 33.14200
H  37.41000 1.69200 32.21400
H  39.14800 2.46000 33.29200
H  38.12800 3.86700 33.70700
H  39.21300 3.79500 32.15400
H  35.64700 1.13900 33.54300
H  34.17700 1.80200 33.19500
H  35.60000 1.64400 35.67200
H  33.95600 2.28600 35.32700
H  40.89000 1.97000 29.43700
H  41.84900 2.51400 28.04700
H  41.47500 0.85800 28.22200
H  42.24100 1.41800 24.32600
H  41.91500 0.58800 25.82000
H  41.93500 2.34800 25.90100
H  35.07700 1.19300 23.28900
H  32.71700 2.77200 23.74900
H  35.00000 4.35000 23.51300
H  34.05800 3.55200 22.29500
H  35.94200 3.38200 22.45600
H  32.08100 0.49800 25.04300
H  33.24400 -0.22300 24.03500
H  31.64100 -0.29400 22.36000
H  31.40600 1.43800 22.40300
H  30.58000 0.46600 23.60800
H  29.03300 3.45700 28.37600
H  29.83400 3.71800 26.83100
H  29.53900 5.03500 27.94500
H  32.60700 3.20000 32.73500
H  33.07700 7.36500 34.10700
H  32.57400 6.47500 35.49900
H  31.33400 7.08000 34.35600

