158

Mg 44.29000 4.27000 47.15000
C  42.21900 7.13400 47.10900
C  41.31300 2.45400 46.79800
C  46.09700 1.52000 46.66300
C  47.01200 6.31200 46.40100
N  42.06500 4.76000 46.91100
C  41.52500 5.94600 47.11200
C  39.97500 5.93400 47.22200
C  39.76400 4.42900 47.26100
C  41.09300 3.84900 46.93700
C  39.20400 3.84000 48.57600
C  39.13900 6.61700 46.00600
C  39.84900 7.05200 44.71800
H  39.57400 6.13700 43.62900
N  43.77500 2.20400 46.76400
C  42.50300 1.74300 46.71300
C  42.60200 0.26400 46.63200
C  43.96800 -0.05100 46.56300
C  44.69700 1.25800 46.71700
C  41.36900 -0.73100 46.66600
C  44.49300 -1.46900 46.49400
O  43.72800 -2.37100 46.23100
C  45.96400 -1.74600 46.65200
N  46.18700 4.03800 46.51500
C  46.73300 2.79600 46.64500
C  48.33600 2.90900 46.82200
C  48.55800 4.30200 46.25400
C  47.13300 4.95000 46.38100
C  48.71900 2.71300 48.27300
C  49.12400 4.34700 44.81300
C  50.60500 4.37700 44.73200
N  44.62700 6.29800 46.94300
C  45.77800 7.01300 46.60100
C  45.51700 8.45300 46.70200
C  44.08700 8.50100 46.94100
C  43.62200 7.20100 47.05300
C  46.50700 9.62900 46.48200
C  42.93600 9.41400 47.06100
O  42.91800 10.63800 47.09600
C  41.77900 8.52600 47.30300
C  41.30600 8.73200 48.66700
O  41.84900 8.56800 49.73800
O  40.10200 9.30800 48.57600
C  39.35100 9.69400 49.77600
H  40.44300 1.79500 46.80500
H  46.83700 0.71700 46.68300
H  47.86100 6.97800 46.23500
H  39.59600 6.32500 48.16700
H  39.09800 4.11800 46.45600
H  38.82700 4.59000 49.27100
H  39.78300 3.02900 49.01600
H  38.25400 3.37100 48.31800
H  38.47000 7.37200 46.42000
H  38.38900 5.92400 45.62500
H  40.93000 6.92600 44.78900
H  39.74100 8.07700 44.36600
H  41.42200 -1.40300 45.81000
H  40.38800 -0.25500 46.63700
H  41.47800 -1.27700 47.60300
H  46.20500 -1.18300 47.55300
H  46.61600 -1.32700 45.88600
H  46.10400 -2.81800 46.79100
H  48.87300 2.32600 46.07300
H  49.26600 4.77800 46.93200
H  48.86600 1.64600 48.44000
H  47.97700 3.22500 48.88500
H  49.63100 3.23200 48.56900
H  48.69100 5.26100 44.40600
H  48.89300 3.46900 44.20800
H  51.11900 4.44200 45.69200
H  50.94500 5.19900 44.10200
H  50.94600 3.38400 44.44200
H  46.04000 10.50400 46.02900
H  47.40300 9.32900 45.93900
H  46.88300 10.01100 47.43100
H  40.91700 8.68400 46.65500
H  39.69500 10.67400 50.10900
H  39.37400 8.93900 50.56100
H  38.29400 9.72300 49.51300
Mg 53.46400 24.39600 44.33300
C  50.58800 26.44200 43.84000
C  51.70300 21.64800 43.14200
C  56.24100 22.74200 44.35900
C  55.10600 27.37900 45.52900
N  51.44600 24.11900 43.33200
C  50.40400 25.10800 43.30600
C  49.08400 24.43200 43.03000
C  49.49000 22.92300 42.72100
C  50.98300 22.88300 43.09700
C  48.63900 21.96800 43.62000
C  48.19600 25.01200 41.85600
C  48.98600 25.46700 40.54300
H  48.62300 24.83800 39.23400
N  53.97200 22.42200 43.84000
C  53.08700 21.43400 43.53400
C  53.71800 20.17100 43.60000
C  55.11700 20.42400 43.95400
C  55.16400 21.88300 44.08600
C  52.99100 18.84600 43.31900
C  56.21900 19.38700 44.31100
O  55.98400 18.16900 44.08300
C  57.62000 19.81000 44.85300
N  55.44000 25.00000 44.80900
C  56.42700 24.07600 44.64400
C  57.78400 24.71100 44.92700
C  57.36500 26.16100 45.28700
C  55.84500 26.23200 45.26900
C  58.65900 24.04800 46.02100
C  57.98300 27.22700 44.28200
C  58.81400 28.30900 44.94800
N  52.94800 26.46700 44.67100
C  53.72100 27.52100 45.23100
C  52.79900 28.64700 45.47100
C  51.52700 28.23500 44.95000
C  51.72300 26.92200 44.44000
C  53.21100 29.99000 45.92800
C  50.15700 28.74400 44.58900
O  49.57200 29.81200 44.77700
C  49.44800 27.51700 44.01300
C  48.76900 28.08600 42.75600
O  49.40100 28.48800 41.76200
O  47.42700 28.13800 42.87000
C  46.65300 28.52700 41.66100
H  51.11500 20.76200 42.89200
H  57.23000 22.28200 44.40200
H  55.57900 28.24100 46.00500
H  48.52200 24.51900 43.96000
H  49.39200 22.55300 41.70000
H  47.78600 22.41200 44.13300
H  49.14600 21.43700 44.42600
H  48.24500 21.27300 42.87800
H  47.65800 25.90100 42.18400
H  47.47500 24.24700 41.56600
H  50.07200 25.39800 40.60000
H  48.62700 26.48700 40.40700
H  53.14600 18.51500 42.29200
H  51.93600 18.92400 43.58400
H  53.34100 18.07500 44.00500
H  58.02700 18.92100 45.33500
H  57.38000 20.56100 45.60600
H  58.24600 20.21200 44.05700
H  58.31100 24.64300 43.97500
H  57.62600 26.39800 46.31900
H  58.00900 23.67600 46.81300
H  59.29000 24.76600 46.54500
H  59.33900 23.30900 45.59800
H  57.17300 27.73500 43.75800
H  58.65500 26.71800 43.59000
H  58.34200 29.29000 44.88900
H  59.78900 28.47400 44.48900
H  58.86400 28.12200 46.02100
H  52.75900 30.79300 45.34600
H  54.27900 30.10900 45.74200
H  53.03400 29.97800 47.00300
H  48.68500 27.14500 44.69800
H  47.00000 27.90800 40.83400
H  46.85100 29.57700 41.44500
H  45.59800 28.31300 41.83400

