158

Mg 30.57600 59.58500 38.24500
C  27.66100 57.79800 37.54700
C  32.39400 56.83200 37.26600
C  33.29400 61.50100 38.21300
C  28.56900 62.45500 38.49100
N  30.06100 57.59700 37.43100
C  28.82200 57.04700 37.22800
C  28.94500 55.66600 36.55800
C  30.42800 55.29200 36.77100
C  31.04100 56.62500 37.17000
C  30.56700 54.22100 37.93700
C  28.45500 55.78400 35.08500
C  27.15800 54.91300 34.77500
H  26.13500 55.51000 33.66700
N  32.56400 59.20300 37.87700
C  33.17100 58.00900 37.50200
C  34.62200 58.17300 37.49000
C  34.90000 59.51300 37.88000
C  33.57200 60.11000 37.98400
C  35.64300 57.03400 37.11500
C  36.27500 60.11300 38.13600
O  37.29400 59.46600 37.92400
C  36.52400 61.42100 38.56700
N  30.84200 61.65700 38.35100
C  32.04600 62.15500 38.33000
C  32.05700 63.70300 38.64400
C  30.52300 64.04900 38.68600
C  29.90700 62.62500 38.35300
C  32.72700 64.09400 40.01300
C  30.12000 65.20400 37.57100
C  31.17000 66.37500 37.38900
N  28.54100 60.03600 38.27500
C  27.88300 61.22300 38.44500
C  26.45400 61.00000 38.33600
C  26.38200 59.67800 37.99200
C  27.63600 59.10200 38.01500
C  25.28000 61.97500 38.52800
C  25.42600 58.67000 37.63400
O  24.23500 58.77800 37.51900
C  26.18100 57.37000 37.40200
C  25.82500 56.40300 38.51500
O  26.52400 56.09300 39.46700
O  24.50500 56.02100 38.34100
C  24.06100 55.01000 39.37600
H  32.97900 55.93900 37.03700
H  34.10200 62.22500 38.34400
H  28.00000 63.38300 38.57100
H  28.34200 54.97900 37.15100
H  30.92600 54.95900 35.86100
H  31.39000 54.29900 38.64800
H  30.78500 53.29500 37.40400
H  29.57900 54.09000 38.37900
H  29.27700 55.51800 34.42000
H  28.29400 56.85400 34.94800
H  26.56700 54.52100 35.60200
H  27.52200 54.04900 34.21900
H  35.17200 56.37000 36.39000
H  35.86800 56.39000 37.96500
H  36.56700 57.39500 36.66300
H  37.56000 61.51800 38.89000
H  36.03100 61.75800 39.47900
H  36.30900 62.14000 37.77700
H  32.54800 64.17400 37.79300
H  30.07600 64.40300 39.61400
H  33.31800 63.25700 40.38400
H  32.00500 64.33200 40.79500
H  33.36900 64.95200 39.81300
H  29.13000 65.52000 37.90100
H  30.01800 64.58600 36.67900
H  30.51600 67.23300 37.23500
H  31.67200 66.25500 36.42900
H  31.79400 66.43500 38.28200
H  24.94800 62.32600 37.55100
H  25.52300 62.72700 39.27900
H  24.40000 61.49100 38.95000
H  25.86900 56.99800 36.42600
H  24.00400 55.35900 40.40700
H  24.65000 54.09700 39.28700
H  23.13700 54.62300 38.94800
Mg 0.39800 43.01100 26.53700
C  2.49600 42.24600 29.21000
C  -2.24600 41.89300 28.43900
C  -1.59400 43.39600 23.89100
C  3.12300 44.02000 24.60700
N  0.18600 41.94200 28.57100
C  1.17500 41.88400 29.52300
C  0.55000 41.78000 30.88400
C  -0.96500 41.52300 30.62400
C  -1.03900 41.84500 29.09900
C  -1.54900 40.17800 30.85000
C  0.80700 43.06400 31.75200
C  1.08700 42.83600 33.27800
H  0.53000 41.59800 33.94600
N  -1.63900 42.65100 26.19600
C  -2.60000 42.25600 27.12800
C  -3.89500 42.15600 26.46100
C  -3.72100 42.53400 25.07400
C  -2.29000 42.88600 24.98400
C  -5.14400 41.75200 27.19600
C  -4.67000 42.70500 23.97000
O  -4.44400 43.22700 22.90900
C  -6.05100 42.22800 24.15900
N  0.68100 43.62000 24.55900
C  -0.32200 43.81100 23.65400
C  0.07100 44.49800 22.35100
C  1.52200 44.79300 22.73600
C  1.83700 44.11700 24.05000
C  -0.07300 43.61000 21.12800
C  2.09500 46.24400 22.42900
C  1.98200 47.29500 23.51500
N  2.40400 43.08700 26.75100
C  3.38600 43.51100 25.88400
C  4.67100 43.38900 26.55100
C  4.36800 42.89600 27.81300
C  2.94100 42.74200 27.96400
C  6.03800 43.75000 25.89700
C  4.95500 42.54300 29.05900
O  6.10200 42.34300 29.39700
C  3.74900 42.30200 30.04300
C  4.03800 41.07300 30.85200
O  3.79600 39.92500 30.49300
O  4.64300 41.41400 32.01200
C  5.03000 40.25100 32.86500
H  -3.17300 41.62700 28.95000
H  -2.26600 43.41800 23.03000
H  3.94000 44.45700 24.02900
H  1.08300 40.94000 31.33000
H  -1.60600 42.26800 31.09600
H  -1.08800 39.66100 31.69100
H  -1.28800 39.58100 29.97600
H  -2.63900 40.16700 30.89200
H  -0.09600 43.66900 31.67200
H  1.66600 43.67900 31.48400
H  0.74400 43.71800 33.82000
H  2.17500 42.86600 33.33600
H  -5.87100 42.55800 27.30000
H  -5.03600 41.40300 28.22300
H  -5.61900 40.91500 26.68400
H  -6.42200 42.19100 23.13400
H  -6.61900 42.96500 24.72800
H  -6.05400 41.21300 24.55400
H  -0.53800 45.38600 22.17900
H  2.15000 44.04400 22.25400
H  0.88600 43.29400 20.71800
H  -0.66100 44.14300 20.38100
H  -0.65800 42.71400 21.33900
H  1.51800 46.61400 21.58200
H  3.05400 46.03300 21.95400
H  1.75400 46.90800 24.50800
H  1.36600 48.16000 23.27200
H  3.05400 47.47100 23.60600
H  6.25500 43.02400 25.11300
H  6.73100 43.64800 26.73200
H  6.01700 44.74300 25.44700
H  3.64400 43.05600 30.82300
H  5.00500 40.54400 33.91400
H  6.10500 40.09500 32.77300
H  4.54200 39.31100 32.60700

