158

Mg 2.13000 -3.43800 45.32700
C  4.72900 -1.61100 44.12800
C  0.06200 -1.70400 43.09100
C  -0.33800 -5.69900 46.00700
C  4.42600 -5.59200 46.92400
N  2.44900 -1.97100 43.57600
C  3.58200 -1.27500 43.42400
C  3.38700 -0.02500 42.46400
C  1.86500 -0.06900 42.19300
C  1.42500 -1.35800 42.95000
C  1.08200 1.21000 42.63800
C  4.28300 -0.14500 41.17500
C  5.49400 0.78200 40.80700
H  5.50400 1.33700 39.37100
N  0.11600 -3.62700 44.77200
C  -0.53800 -2.73700 43.90400
C  -1.94900 -3.04400 43.92700
C  -2.07800 -4.23900 44.73500
C  -0.75500 -4.63800 45.16900
C  -3.01000 -2.27000 43.15600
C  -3.40200 -5.06300 44.95200
O  -4.42700 -4.77100 44.36400
C  -3.42300 -6.28300 45.92300
N  2.08000 -5.45800 46.28000
C  0.94600 -6.09600 46.51000
C  1.18200 -7.49100 47.20500
C  2.65100 -7.41500 47.45000
C  3.06900 -6.10000 46.86700
C  0.39800 -7.86200 48.50400
C  3.56000 -8.61900 47.01700
C  3.62900 -8.96300 45.56100
N  4.18200 -3.60200 45.57100
C  4.95900 -4.50000 46.29900
C  6.22700 -3.95700 46.36600
C  6.26000 -2.85100 45.47300
C  4.93000 -2.69700 45.01200
C  7.53500 -4.51500 46.98600
C  7.12700 -1.86800 44.90700
O  8.28000 -1.62800 44.99600
C  6.11900 -0.93400 44.03700
C  6.10200 0.40700 44.65000
O  5.50400 0.68200 45.65900
O  6.67300 1.37600 43.90600
C  6.43000 2.76500 44.18700
H  -0.62600 -1.07500 42.52100
H  -1.09200 -6.34200 46.46700
H  5.16900 -6.22300 47.41500
H  3.71400 0.88300 42.97000
H  1.62700 -0.20100 41.13700
H  0.72700 1.07200 43.65900
H  0.30300 1.50700 41.93500
H  1.81100 2.02000 42.60800
H  3.57900 -0.05300 40.34800
H  4.64100 -1.17400 41.14600
H  6.39500 0.20100 41.00300
H  5.52600 1.65200 41.46300
H  -2.69500 -1.49000 42.46300
H  -3.66900 -1.85200 43.91700
H  -3.64400 -2.94800 42.58500
H  -2.82200 -7.13000 45.59100
H  -4.44300 -6.64200 46.05800
H  -3.05700 -6.00500 46.91200
H  0.93100 -8.31600 46.53900
H  2.73500 -7.14200 48.50200
H  -0.25800 -7.08000 48.88700
H  1.15600 -8.14900 49.23300
H  -0.38700 -8.61700 48.47000
H  3.14700 -9.58000 47.32300
H  4.61800 -8.50400 47.25200
H  4.70000 -9.03900 45.37400
H  3.06600 -8.23800 44.97400
H  3.11300 -9.85600 45.20900
H  8.09500 -3.72700 47.49100
H  8.02500 -5.13600 46.23600
H  7.26100 -5.25400 47.73900
H  6.46400 -0.86900 43.00500
H  6.96100 3.38500 43.46500
H  6.82400 3.05900 45.16000
H  5.35600 2.90000 44.05700
Mg 24.08400 -3.83600 45.91400
C  26.03700 -1.54400 44.20200
C  21.49100 -3.03400 43.72900
C  22.46100 -6.63400 46.87500
C  26.99800 -4.89200 47.64300
N  23.89300 -2.44000 44.05200
C  24.81600 -1.55600 43.60500
C  24.32400 -0.68700 42.50600
C  22.79100 -1.02500 42.60700
C  22.65300 -2.22700 43.55200
C  21.93100 0.24300 43.11800
C  24.91800 -0.98400 41.05600
C  24.39000 0.01700 39.95900
H  24.05100 -0.58500 38.57900
N  22.16100 -4.74100 45.36100
C  21.23200 -4.23500 44.52800
C  20.13000 -5.11800 44.59400
C  20.36600 -6.15700 45.56900
C  21.71200 -5.88600 45.99100
C  18.90400 -4.73900 43.81600
C  19.39600 -7.26400 45.87300
O  18.28200 -7.35400 45.34900
C  19.71200 -8.33900 46.86600
N  24.65300 -5.44100 47.12800
C  23.80000 -6.50000 47.30900
C  24.54000 -7.70000 47.90900
C  25.92900 -7.13300 48.32900
C  25.85400 -5.75200 47.67400
C  23.83200 -8.53800 49.06400
C  27.13300 -8.09100 47.97500
C  27.95900 -8.62700 49.11000
N  26.03400 -3.25500 46.12800
C  27.12000 -3.71000 46.88100
C  28.28900 -2.79900 46.69300
C  27.82900 -1.94100 45.70100
C  26.48800 -2.34900 45.30400
C  29.54400 -2.83300 47.41800
C  28.34000 -0.89300 44.85200
O  29.40100 -0.26100 44.84600
C  27.27200 -0.66300 43.84000
C  26.86500 0.81400 43.91500
O  26.14800 1.33800 44.71900
O  27.30400 1.49600 42.77100
C  27.30300 2.98000 43.00200
H  20.58000 -2.73500 43.20600
H  21.94600 -7.56400 47.12200
H  27.86600 -5.27200 48.18600
H  24.59000 0.35200 42.70100
H  22.48400 -1.43600 41.64500
H  21.53800 0.22100 44.13500
H  21.01800 0.22600 42.52300
H  22.37400 1.23400 43.01900
H  24.97100 -2.03400 40.76600
H  25.93100 -0.60000 41.17900
H  25.17900 0.75800 39.82500
H  23.57800 0.57900 40.41900
H  19.12000 -4.18200 42.90500
H  18.11900 -4.27500 44.41300
H  18.47200 -5.65000 43.40100
H  18.89500 -9.04600 47.01400
H  20.06100 -7.79400 47.74300
H  20.43300 -9.02900 46.42700
H  24.56800 -8.45100 47.11900
H  25.89900 -7.01600 49.41200
H  24.48800 -8.81200 49.89000
H  23.38100 -9.49300 48.79300
H  22.95600 -8.08100 49.52500
H  27.78300 -7.52800 47.30500
H  26.70900 -8.87900 47.35200
H  27.65200 -8.05500 49.98600
H  29.00300 -8.44300 48.85900
H  27.76700 -9.69800 49.16200
H  29.93200 -3.84900 47.48800
H  29.54600 -2.25300 48.34100
H  30.18800 -2.27800 46.73600
H  27.79900 -0.84700 42.90300
H  27.65500 3.50500 42.11400
H  27.89600 3.20500 43.88800
H  26.31400 3.29000 43.33900

