158

Mg 40.80500 40.67900 27.57600
C  39.99200 43.09800 29.92500
C  41.80400 38.65500 30.00500
C  41.85200 38.50400 25.17300
C  40.36600 43.10600 25.04300
N  40.84100 40.90400 29.68600
C  40.42100 41.89300 30.49900
C  40.50800 41.52600 31.96500
C  41.17900 40.15400 31.93700
C  41.40800 39.92000 30.42400
C  42.46000 39.96100 32.77500
C  39.14300 41.73900 32.66100
C  39.02000 42.71100 33.83300
H  38.34200 42.27200 35.13300
N  41.53200 38.81400 27.54100
C  41.85600 38.12800 28.69000
C  42.29600 36.77200 28.35500
C  42.28100 36.66200 26.93800
C  41.86200 38.02900 26.45000
C  42.67800 35.70400 29.30800
C  42.68300 35.51100 25.96900
O  42.54900 35.54700 24.75200
C  43.13100 34.10000 26.57400
N  41.18100 40.84000 25.44100
C  41.51500 39.75400 24.64000
C  41.62100 40.13500 23.14300
C  40.82800 41.45000 23.10800
C  40.78200 41.84800 24.63600
C  43.11800 40.25400 22.65500
C  39.45500 41.45200 22.43200
C  38.30900 40.73200 23.08500
N  40.35400 42.72000 27.45500
C  40.16600 43.57300 26.34000
C  39.67900 44.83100 26.77600
C  39.65000 44.75200 28.22000
C  40.05100 43.42400 28.56300
C  39.28700 45.96400 25.90200
C  39.24500 45.37600 29.49000
O  38.78200 46.46300 29.72200
C  39.50600 44.38600 30.62500
C  40.58700 44.94400 31.42400
O  41.77600 44.96100 31.08300
O  40.05600 45.49500 32.51900
C  41.07600 45.98200 33.45300
H  41.93900 38.05600 30.90800
H  42.14700 37.78700 24.40400
H  40.08400 43.75900 24.21400
H  41.08600 42.38200 32.31300
H  40.46300 39.41600 32.29700
H  43.40700 39.85000 32.24600
H  42.35000 39.05100 33.36400
H  42.70400 40.76900 33.46400
H  38.65500 40.79200 32.89100
H  38.51700 42.20800 31.90200
H  38.32100 43.49800 33.55200
H  40.02000 43.10100 34.02500
H  43.74600 35.48600 29.33300
H  42.12100 34.80300 29.05400
H  42.33100 35.99100 30.30100
H  43.40700 33.45600 25.73900
H  42.24700 33.79400 27.13500
H  44.00000 34.17300 27.22700
H  41.17600 39.31400 22.58200
H  41.31200 42.24800 22.54600
H  43.25000 39.54700 21.83500
H  43.73600 39.77400 23.41400
H  43.36300 41.28000 22.38100
H  39.56500 41.04200 21.42800
H  39.18300 42.49000 22.23900
H  38.59700 40.08300 23.91100
H  37.69800 40.10300 22.43800
H  37.64500 41.47100 23.53300
H  38.75400 45.58900 25.02800
H  40.05800 46.59100 25.45400
H  38.56000 46.54700 26.46600
H  38.54000 44.26700 31.11400
H  41.65500 45.14000 33.83300
H  40.51400 46.54100 34.20100
H  41.65400 46.79800 33.01800
Mg 6.13100 54.98400 41.52000
C  5.76500 51.39000 41.42800
C  9.28400 54.64600 40.43000
C  6.14400 58.40500 41.12200
C  2.71200 55.14100 42.67100
N  7.30000 53.21900 40.92300
C  6.98300 51.89900 40.95900
C  8.19200 51.07100 40.61400
C  9.37900 52.13600 40.52500
C  8.59900 53.45900 40.73400
C  10.56700 51.96000 41.53200
C  8.00600 50.17800 39.31100
C  7.48700 50.87400 37.99600
H  6.44100 50.12100 37.18500
N  7.51300 56.31900 40.94000
C  8.76100 55.97900 40.52100
C  9.50800 57.19800 40.34400
C  8.60400 58.34800 40.43500
C  7.34000 57.70500 40.85900
C  11.02200 57.18900 39.94200
C  8.91700 59.80800 40.12900
O  10.04000 60.19400 39.85100
C  7.87200 60.90500 40.24800
N  4.59400 56.53500 41.66900
C  4.88700 57.88100 41.46200
C  3.72300 58.73500 41.83600
C  2.54500 57.70000 42.25800
C  3.41300 56.39100 42.34100
C  3.95200 59.80100 43.02600
C  1.41800 57.66800 41.19000
C  0.25300 58.70300 41.29600
N  4.53200 53.61600 41.92100
C  3.23000 53.83000 42.42900
C  2.59400 52.56500 42.68400
C  3.60600 51.60300 42.38600
C  4.70500 52.31600 41.85800
C  1.19100 52.19900 43.26200
C  3.90300 50.19400 42.39200
O  3.26300 49.23700 42.77600
C  5.30400 50.00500 41.78500
C  5.08000 49.10000 40.67400
O  4.60500 49.33200 39.55100
O  5.44200 47.85400 41.00000
C  5.19600 46.86000 39.98100
H  10.32500 54.45300 40.16200
H  6.17600 59.49600 41.10700
H  1.71300 55.24200 43.10100
H  8.25300 50.30700 41.38900
H  9.88700 52.17000 39.56100
H  10.72200 52.62800 42.37900
H  11.48800 52.07800 40.96200
H  10.66900 50.95000 41.93000
H  7.42500 49.30100 39.59600
H  9.05300 49.90600 39.18200
H  8.33400 50.90100 37.31100
H  7.13000 51.86700 38.26800
H  11.16500 56.26800 39.37800
H  11.75100 57.07700 40.74500
H  11.38500 57.95300 39.25500
H  7.05100 60.59800 39.60000
H  8.33900 61.78400 39.80400
H  7.58000 61.08900 41.28100
H  3.39200 59.19100 40.90200
H  2.24100 58.01300 43.25700
H  3.77200 59.29300 43.97400
H  3.44300 60.73100 42.77400
H  5.02900 59.95800 43.08500
H  0.78500 56.80300 41.38400
H  1.75400 57.79500 40.16100
H  0.52000 59.28600 42.17800
H  -0.66800 58.20800 41.60300
H  0.11900 59.39500 40.46400
H  0.46100 53.00800 43.26900
H  1.38800 52.05300 44.32400
H  0.75000 51.28700 42.85700
H  6.02900 49.49000 42.41500
H  5.85200 47.11400 39.14900
H  4.22400 46.80800 39.49100
H  5.48500 45.85000 40.27000

