158

Mg 16.76500 -2.34100 28.97800
C  15.60300 -0.20600 31.53200
C  19.06100 -3.67600 31.10800
C  17.98800 -4.10900 26.41300
C  14.61700 -0.63900 26.77300
N  17.13600 -2.01400 31.12200
C  16.57100 -1.08800 31.98700
C  17.13700 -1.32500 33.36600
C  18.40100 -2.12400 33.15300
C  18.16100 -2.69800 31.69800
C  19.78000 -1.40500 33.31200
C  15.99300 -2.05200 34.17400
C  15.63000 -1.45500 35.48900
H  16.69900 -0.52600 36.17800
N  18.19700 -3.83700 28.83200
C  19.03700 -4.27000 29.82700
C  19.80100 -5.40600 29.37400
C  19.54000 -5.52900 27.91000
C  18.52300 -4.45500 27.62200
C  20.66900 -6.23100 30.22600
C  20.02300 -6.56000 26.83000
O  19.79000 -6.59700 25.59400
C  20.93400 -7.70800 27.29200
N  16.41600 -2.32200 26.85700
C  16.97100 -3.22200 26.02900
C  16.44100 -3.00200 24.62000
C  15.32700 -1.97700 24.75400
C  15.44100 -1.60800 26.24200
C  17.55000 -2.65400 23.53600
C  13.87000 -2.53500 24.48200
C  13.33700 -2.04200 23.11600
N  15.48800 -0.76100 29.10200
C  14.61500 -0.17200 28.15000
C  13.76700 0.87200 28.72400
C  14.07000 0.80400 30.07700
C  15.10300 -0.18200 30.23600
C  12.86600 1.78000 27.93200
C  13.83500 1.48600 31.38200
O  13.01400 2.36300 31.64400
C  14.81700 0.77400 32.39100
C  15.58500 1.88500 32.99000
O  16.67300 2.28400 32.60500
O  14.93800 2.34500 34.07500
C  15.58900 3.44600 34.88900
H  19.78000 -4.09700 31.81400
H  18.38000 -4.61700 25.52800
H  13.80800 -0.19700 26.18700
H  17.33800 -0.30900 33.70700
H  18.52700 -2.99600 33.79400
H  20.46900 -1.91900 33.98200
H  19.52100 -0.41400 33.68500
H  20.31100 -1.16700 32.39000
H  16.38600 -3.05500 34.34100
H  15.05600 -2.11200 33.62000
H  15.56500 -2.14400 36.33100
H  14.80400 -0.75000 35.39600
H  21.72800 -6.01800 30.07800
H  20.38600 -7.26300 30.01700
H  20.37900 -6.06100 31.26300
H  21.89100 -7.31400 27.63300
H  21.06900 -8.33400 26.41100
H  20.45400 -8.35700 28.02500
H  16.14600 -3.93100 24.13200
H  15.57400 -1.03800 24.25800
H  17.72100 -1.57800 23.54400
H  17.40900 -2.78000 22.46300
H  18.49700 -3.06400 23.88700
H  13.17300 -2.32600 25.29300
H  13.87400 -3.62000 24.38200
H  12.29000 -1.75100 23.20200
H  13.42900 -2.85900 22.40000
H  13.85000 -1.16200 22.73000
H  12.84200 2.73100 28.46500
H  11.92800 1.22600 27.93400
H  13.24300 1.85000 26.91200
H  14.14700 0.30300 33.11000
H  15.92600 3.07900 35.85800
H  14.89500 4.28500 34.94000
H  16.43000 3.92600 34.38900
Mg 44.96300 5.43600 47.86000
C  42.92100 8.14700 46.85500
C  42.20200 3.33700 47.19700
C  46.98300 2.82600 47.99700
C  47.67700 7.55800 47.70800
N  42.88500 5.70000 47.01000
C  42.21900 6.90700 46.78200
C  40.81100 6.65200 46.22500
C  40.57500 5.23600 46.75100
C  41.97700 4.72800 47.00400
C  39.58400 4.99100 47.89300
C  40.76900 6.83800 44.64200
C  39.60000 7.73000 44.09500
H  38.74100 7.15800 43.00200
N  44.61800 3.33100 47.73400
C  43.43700 2.70700 47.46600
C  43.65700 1.31700 47.66900
C  45.00900 1.15000 47.98600
C  45.63200 2.47800 47.97000
C  42.57700 0.30400 47.38600
C  45.65900 -0.16500 48.33000
O  44.99600 -1.24200 48.19500
C  47.05500 -0.32800 48.93500
N  47.05600 5.22500 47.87500
C  47.66600 4.06500 47.96800
C  49.16100 4.16000 48.08700
C  49.41500 5.74400 48.00400
C  47.93900 6.27000 47.89100
C  49.59600 3.43500 49.31700
C  50.29600 6.09700 46.71800
C  51.81900 6.09100 47.05400
N  45.26100 7.48500 47.70500
C  46.45900 8.20800 47.58400
C  46.16900 9.62500 47.30200
C  44.73200 9.64000 47.17700
C  44.31300 8.29200 47.20400
C  47.18100 10.72800 47.22100
C  43.64700 10.51400 46.84200
O  43.57700 11.70200 46.66500
C  42.38000 9.57100 46.67700
C  41.38700 9.86900 47.64100
O  41.44500 9.39900 48.78900
O  40.21900 10.55800 47.18800
C  39.06800 10.51500 48.00200
H  41.27200 2.77300 47.10600
H  47.63500 1.96200 47.85200
H  48.54500 8.19700 47.53200
H  40.06200 7.30500 46.67400
H  40.09300 4.62500 45.98800
H  40.05600 4.97100 48.87600
H  39.03400 4.05800 47.76700
H  38.86700 5.81100 47.91000
H  40.92200 5.84400 44.22200
H  41.68900 7.38800 44.44600
H  40.09200 8.59300 43.64500
H  38.96000 8.10700 44.89200
H  41.56800 0.68400 47.22600
H  42.37200 -0.42100 48.17300
H  42.78800 -0.39400 46.57500
H  47.74100 -0.43100 48.09400
H  47.12500 -1.23400 49.53800
H  47.28500 0.61400 49.43300
H  49.66400 3.70500 47.23400
H  50.02700 6.04200 48.85500
H  49.79100 2.37700 49.14300
H  48.94400 3.55700 50.18200
H  50.50800 3.99600 49.52600
H  49.96600 7.06900 46.35200
H  50.00000 5.50100 45.85500
H  52.41100 5.87200 46.16600
H  52.09100 5.30100 47.75400
H  52.22100 7.05900 47.35400
H  47.93100 10.36600 46.51900
H  47.54100 11.04200 48.20100
H  46.69600 11.57000 46.72600
H  41.89000 9.74900 45.71900
H  39.05800 11.29000 48.76800
H  39.00500 9.55300 48.51000
H  38.27800 10.73000 47.28200

