158

Mg 47.77800 16.80800 27.61500
C  45.60400 16.86700 30.51900
C  49.96600 18.71300 29.16000
C  49.41700 16.81700 24.82000
C  44.91400 15.28800 25.95700
N  47.66200 17.81000 29.55800
C  46.82400 17.53200 30.64600
C  47.49400 18.05000 31.96300
C  48.78000 18.84300 31.44400
C  48.83700 18.46100 29.94500
C  48.77200 20.36300 31.64400
C  47.91500 16.87000 32.85800
C  47.90100 17.18000 34.42300
H  47.60700 18.61500 35.05500
N  49.42800 17.68700 27.10600
C  50.29400 18.38400 27.87500
C  51.44900 18.86200 27.18500
C  51.32400 18.30000 25.87700
C  50.05700 17.52500 25.89000
C  52.52200 19.80900 27.74700
C  52.23400 18.49800 24.69200
O  51.96000 17.97400 23.60900
C  53.46200 19.32700 24.71500
N  47.28200 15.98200 25.65000
C  48.24000 16.06800 24.70100
C  47.62000 15.61200 23.27400
C  46.14200 15.22600 23.60000
C  46.06800 15.55300 25.15500
C  47.85500 16.60300 22.10500
C  45.74500 13.69100 23.23900
C  45.98800 13.20400 21.84600
N  45.70100 16.28800 28.06600
C  44.72700 15.60700 27.32900
C  43.52800 15.26100 28.16000
C  43.83000 15.76800 29.42500
C  45.13800 16.37800 29.32700
C  42.26200 14.47600 27.72500
C  43.31300 15.95800 30.76500
O  42.22300 15.80000 31.24100
C  44.49800 16.60100 31.54600
C  44.01500 17.76600 32.33600
O  43.77300 18.87500 31.92100
O  43.67700 17.32600 33.57300
C  43.04700 18.21800 34.57100
H  50.65800 19.30800 29.76000
H  49.90700 16.92000 23.85000
H  44.06100 14.78200 25.50000
H  46.83500 18.75000 32.47700
H  49.72700 18.55300 31.89900
H  49.70900 20.62500 32.13500
H  47.92500 20.71400 32.23300
H  48.58900 20.91100 30.72000
H  48.93600 16.55600 32.64200
H  47.30100 16.00200 32.61700
H  48.89100 16.84300 34.72700
H  47.20400 16.52400 34.94400
H  52.47100 19.82200 28.83600
H  52.21900 20.77800 27.35200
H  53.54700 19.48100 27.57300
H  53.20900 20.33600 25.04100
H  53.83100 19.47900 23.70100
H  54.18100 18.93400 25.43400
H  48.19800 14.74800 22.94500
H  45.40900 15.86300 23.10600
H  48.18400 17.55600 22.52100
H  46.92800 16.71100 21.54300
H  48.59400 16.23100 21.39500
H  44.67500 13.63800 23.44200
H  46.26600 13.07100 23.96900
H  46.56200 13.95800 21.30600
H  45.02700 13.17500 21.33400
H  46.58200 12.29100 21.81000
H  41.55200 15.19200 27.31000
H  41.83700 14.00300 28.61000
H  42.47000 13.71400 26.97400
H  44.90600 15.88400 32.25900
H  42.27300 17.81400 35.22300
H  42.60600 19.04800 34.01900
H  43.93500 18.62200 35.05700
Mg 5.60000 55.35500 40.57900
C  3.91000 52.29400 40.14900
C  8.27200 53.99600 38.68000
C  7.03200 58.21300 40.82200
C  2.57200 56.71800 41.67600
N  5.95300 53.41500 39.44300
C  5.16400 52.32300 39.49000
C  5.78800 51.24000 38.61300
C  7.22500 51.72800 38.33400
C  7.15000 53.16800 38.77100
C  8.36700 50.92200 39.09200
C  5.00300 50.97400 37.35900
C  4.70800 49.46600 37.04500
H  5.19500 48.95100 35.70000
N  7.40900 55.96200 39.97000
C  8.38000 55.27500 39.30200
C  9.50900 56.17500 39.08600
C  9.20900 57.44200 39.63100
C  7.83700 57.23900 40.22000
C  10.68500 55.84500 38.16000
C  10.04400 58.69400 39.45600
O  11.16900 58.62800 38.96400
C  9.61600 60.10800 39.99100
N  4.93100 57.27600 41.23600
C  5.76200 58.22700 41.33900
C  5.06500 59.53100 41.82700
C  3.58200 59.05500 42.03800
C  3.63500 57.59500 41.58500
C  5.66900 60.20200 43.05200
C  2.49300 59.76900 41.23500
C  1.21900 60.07100 41.92000
N  3.63400 54.70300 40.92500
C  2.46200 55.37900 41.32200
C  1.29300 54.45600 41.43100
C  1.92000 53.21400 41.19100
C  3.25700 53.42200 40.70900
C  -0.13000 54.82100 41.83900
C  1.69500 51.76800 41.21600
O  0.71800 51.16600 41.66400
C  3.01700 51.11000 40.62700
C  2.73000 49.95800 39.72500
O  2.03800 49.93100 38.73300
O  3.09000 48.86000 40.51800
C  2.91600 47.55100 39.92700
H  9.08700 53.56000 38.09800
H  7.48700 59.16200 41.11300
H  1.61500 57.11600 42.01800
H  5.83000 50.33500 39.21800
H  7.42600 51.76200 37.26300
H  8.62100 51.52500 39.96300
H  9.26800 50.95900 38.48000
H  8.06500 49.89200 39.28500
H  5.58500 51.27700 36.48800
H  4.12900 51.61400 37.48100
H  3.62300 49.41000 36.95800
H  5.01500 48.84700 37.88800
H  11.62900 56.05700 38.66200
H  10.52000 56.39300 37.23300
H  10.85000 54.79700 37.90900
H  8.56000 60.36200 39.90000
H  10.13600 60.85800 39.39500
H  9.94200 60.29300 41.01400
H  5.01500 60.22600 40.98900
H  3.44400 59.02400 43.11800
H  5.00600 60.38600 43.89700
H  6.07200 61.18400 42.80500
H  6.42900 59.59500 43.54300
H  2.34500 59.25500 40.28500
H  2.84400 60.77600 41.00500
H  1.25900 61.04800 42.40200
H  1.11100 59.37700 42.75400
H  0.42200 59.80100 41.22800
H  -0.20000 55.59100 42.60700
H  -0.65800 53.92500 42.16600
H  -0.61400 55.13800 40.91600
H  3.56000 50.79800 41.51900
H  2.46400 47.66800 38.94200
H  2.42000 46.85400 40.60300
H  3.90000 47.20300 39.61100

