158

Mg -0.03300 7.88500 26.19200
C  0.75800 10.19000 28.93700
C  0.12400 5.41600 28.53100
C  -0.02200 5.79800 23.71200
C  0.27800 10.58000 24.02800
N  0.21700 7.88800 28.47300
C  0.46500 8.94700 29.40300
C  0.26200 8.42200 30.82300
C  0.44100 6.91700 30.63800
C  0.10800 6.69800 29.13800
C  1.82000 6.35200 31.07400
C  -1.14900 8.81600 31.42600
C  -1.24900 8.52100 32.92400
H  0.03900 8.30700 33.76400
N  -0.01500 5.88100 26.12800
C  -0.01400 5.00300 27.21600
C  -0.22000 3.68600 26.78400
C  -0.26800 3.80100 25.30200
C  -0.11300 5.19200 25.01900
C  -0.40200 2.56000 27.73500
C  -0.48400 2.74400 24.26400
O  -0.66900 2.93200 23.09500
C  -0.49300 1.24700 24.68300
N  -0.00300 8.13700 24.24200
C  -0.12900 7.15600 23.36200
C  -0.22100 7.57600 21.86100
C  -0.58500 9.10100 22.06800
C  -0.08800 9.28900 23.56400
C  1.08700 7.39300 21.02400
C  -2.10700 9.65100 21.97600
C  -2.27700 11.03200 21.27200
N  0.28400 10.01900 26.38500
C  0.43700 10.95100 25.37500
C  0.85600 12.23800 25.98600
C  1.00200 11.98200 27.35800
C  0.59800 10.65100 27.59700
C  1.33300 13.51500 25.29600
C  1.51700 12.50400 28.64000
O  2.04500 13.62800 28.85800
C  1.18500 11.42100 29.66000
C  2.41000 11.00700 30.43500
O  3.24400 10.22700 30.11800
O  2.31100 11.55400 31.66700
C  3.37500 11.37500 32.68200
H  0.29100 4.61400 29.25300
H  0.09200 5.02800 22.94500
H  0.57900 11.31500 23.27900
H  0.99100 8.90500 31.47400
H  -0.37500 6.45600 31.19400
H  2.37400 7.16000 31.55000
H  2.45800 5.92800 30.29900
H  1.51700 5.56200 31.76100
H  -1.89500 8.15100 30.99000
H  -1.36600 9.87500 31.28700
H  -1.90500 7.65100 32.93000
H  -1.75700 9.36800 33.38500
H  0.58700 2.27500 28.09300
H  -1.03700 1.78700 27.30000
H  -1.04000 2.75300 28.59700
H  -0.39900 0.64900 23.77700
H  -1.38400 0.94200 25.23100
H  0.36200 1.22600 25.35800
H  -1.06000 7.07600 21.37900
H  0.06300 9.76100 21.49100
H  1.27000 8.33100 20.49800
H  0.89200 6.66100 20.24000
H  1.91000 7.00900 21.62600
H  -2.47300 9.80000 22.99200
H  -2.69500 8.97600 21.35300
H  -2.97700 10.72700 20.49400
H  -1.39900 11.34800 20.70800
H  -2.58200 11.83600 21.94200
H  0.70800 14.37900 25.52100
H  1.42600 13.33900 24.22400
H  2.29700 13.77200 25.73500
H  0.38400 11.77100 30.31100
H  3.47300 10.30100 32.84400
H  3.06700 11.95600 33.55100
H  4.28800 11.87400 32.35800
Mg -12.37100 16.26200 41.81400
C  -9.50200 14.33300 41.29600
C  -10.78200 18.96900 40.37100
C  -15.32000 17.58800 41.65800
C  -13.95400 13.10500 42.98200
N  -10.45200 16.54900 40.65400
C  -9.37900 15.61000 40.69700
C  -8.12900 16.19000 40.06000
C  -8.54700 17.64300 39.78600
C  -9.97900 17.79000 40.37400
C  -7.62600 18.76600 40.30300
C  -7.63400 15.47700 38.76500
C  -6.06100 15.30300 38.71200
H  -5.32700 16.16400 37.59300
N  -12.89200 18.07200 41.20000
C  -12.15500 19.09900 40.73100
C  -13.01200 20.28300 40.49000
C  -14.27400 19.90000 40.96300
C  -14.23400 18.48800 41.31400
C  -12.43800 21.68300 40.11100
C  -15.52400 20.84500 41.06400
O  -15.53200 21.99400 40.71100
C  -16.90900 20.35600 41.36100
N  -14.41000 15.38900 42.15500
C  -15.39300 16.25400 41.96500
C  -16.74300 15.48800 42.22900
C  -16.34200 14.14000 42.84400
C  -14.83600 14.20800 42.64800
C  -17.95500 16.16800 42.94400
C  -16.94500 12.86600 42.20100
C  -17.16500 11.61300 43.08800
N  -11.88200 14.10300 42.26000
C  -12.59100 13.01200 42.62900
C  -11.75500 11.85400 42.66400
C  -10.53900 12.35200 42.27200
C  -10.69900 13.71400 41.89300
C  -12.11800 10.51800 43.33600
C  -9.13800 11.98600 42.03700
O  -8.52100 10.92900 42.31400
C  -8.41100 13.27000 41.47000
C  -7.45500 13.81800 42.54300
O  -7.80000 14.64000 43.36000
O  -6.23300 13.32100 42.33600
C  -5.13500 14.06800 43.07600
H  -10.21700 19.86600 40.10900
H  -16.32600 17.97400 41.48400
H  -14.39100 12.12600 43.18700
H  -7.37700 16.21000 40.84900
H  -8.62800 17.82800 38.71500
H  -6.60400 18.53100 40.00700
H  -7.59300 18.85000 41.38900
H  -7.86300 19.70200 39.79700
H  -7.93900 15.96900 37.84200
H  -8.12500 14.50700 38.68700
H  -5.76900 14.28600 38.45300
H  -5.69000 15.49400 39.71900
H  -11.39400 21.61700 39.80400
H  -12.42500 22.38100 40.94800
H  -13.08800 22.07300 39.32800
H  -17.56300 21.22300 41.44800
H  -16.88500 19.81200 42.30500
H  -17.32200 19.72800 40.57200
H  -17.14700 15.28900 41.23700
H  -16.58600 14.16300 43.90600
H  -18.80100 16.24800 42.26100
H  -17.62300 17.10000 43.40300
H  -18.30500 15.48800 43.72000
H  -16.29100 12.54200 41.39200
H  -17.88600 13.23100 41.78900
H  -18.14100 11.15500 42.92300
H  -17.03000 11.74800 44.16100
H  -16.49500 10.89200 42.62100
H  -12.41800 9.79000 42.58200
H  -12.88000 10.79800 44.06200
H  -11.21400 10.15400 43.82400
H  -7.90600 13.16600 40.50900
H  -5.34800 14.07600 44.14500
H  -5.08100 15.10500 42.74400
H  -4.21600 13.49400 42.95800

