158

Mg 0.00800 7.64600 26.62800
C  0.84600 9.63600 29.39500
C  -0.00500 4.95400 28.88800
C  -0.57100 5.42800 24.13600
C  0.36600 10.29400 24.52200
N  0.61300 7.28000 28.77600
C  0.70700 8.30500 29.69000
C  0.57400 7.81000 31.11400
C  0.74600 6.28700 30.94800
C  0.40900 6.09800 29.43900
C  2.12400 5.64500 31.22400
C  -0.79100 8.12100 31.69800
C  -0.92100 8.27300 33.22800
H  0.12100 7.63900 34.06000
N  -0.14300 5.54900 26.49000
C  -0.13900 4.63000 27.52000
C  -0.29700 3.33000 26.96600
C  -0.56300 3.38500 25.60600
C  -0.43900 4.86900 25.38300
C  -0.17100 2.09400 27.82300
C  -0.67600 2.34300 24.59700
O  -0.82000 2.53200 23.39800
C  -0.73000 0.89300 25.02100
N  0.20700 7.81900 24.60500
C  -0.25400 6.79400 23.79600
C  -0.60700 7.37900 22.38600
C  -0.33200 8.92100 22.55400
C  0.09500 9.00200 23.99900
C  0.23700 6.74300 21.18700
C  -1.53100 9.86900 22.22200
C  -1.45800 10.65300 20.85700
N  0.45500 9.58800 26.89500
C  0.57100 10.58100 25.97700
C  0.77600 11.82700 26.65600
C  0.93000 11.47700 28.01500
C  0.71000 10.14900 28.08700
C  0.89100 13.25100 26.02900
C  1.30000 12.00800 29.26700
O  1.77000 13.09600 29.55200
C  1.11200 10.89700 30.29000
C  2.19200 11.03500 31.26300
O  3.35100 10.80000 31.00600
O  1.75100 11.26400 32.48300
C  2.72200 11.23900 33.57200
H  -0.29600 4.22500 29.64700
H  -1.10300 4.94800 23.31200
H  0.63700 11.03600 23.76700
H  1.42000 8.23500 31.65300
H  0.03000 5.77100 31.58900
H  2.70600 6.09900 32.02600
H  2.72400 5.67100 30.31400
H  2.00100 4.59800 31.50300
H  -1.57100 7.42000 31.40200
H  -0.96000 9.13000 31.32200
H  -1.85100 7.82200 33.57300
H  -0.94800 9.34700 33.41300
H  -1.11000 1.55500 27.69600
H  -0.00800 2.21400 28.89400
H  0.69300 1.53200 27.46600
H  0.15500 0.45300 25.48000
H  -0.92900 0.31100 24.12100
H  -1.65100 0.83300 25.60100
H  -1.66300 7.14200 22.26000
H  0.52000 9.29300 21.98600
H  -0.55300 6.43200 20.50300
H  0.77200 5.85700 21.52700
H  0.77000 7.47800 20.58400
H  -1.53000 10.60000 23.03100
H  -2.51600 9.41600 22.33300
H  -2.49300 10.89400 20.61600
H  -1.03400 10.12100 20.00500
H  -0.85200 11.53100 21.08000
H  0.90500 13.25900 24.93900
H  1.78400 13.58000 26.56100
H  0.09300 13.90800 26.37500
H  0.21700 11.19800 30.83500
H  3.41300 10.41500 33.39300
H  2.12500 11.10900 34.47400
H  3.10500 12.25800 33.53100
Mg 46.96000 17.01700 28.39600
C  44.95300 16.69600 31.07300
C  49.18700 18.83800 30.56200
C  48.72600 17.87700 25.67400
C  44.69500 15.43100 26.40500
N  47.06100 17.62800 30.56500
C  46.09200 17.34800 31.46600
C  46.51000 17.74400 32.90500
C  47.71700 18.72500 32.66400
C  48.09200 18.29500 31.21400
C  47.49100 20.30600 32.86400
C  46.80300 16.39200 33.71500
C  46.89400 16.48400 35.27400
H  46.47100 17.74200 35.97400
N  48.73600 18.08000 28.14200
C  49.44300 18.75200 29.15700
C  50.68700 19.26500 28.53400
C  50.64300 19.01900 27.07600
C  49.33500 18.32700 26.92000
C  51.76900 19.89200 29.42500
C  51.64500 19.46600 25.98400
O  51.51500 19.06600 24.86400
C  52.69100 20.55800 26.25500
N  46.85400 16.65100 26.37900
C  47.67100 17.05700 25.37700
C  47.36400 16.42200 24.02600
C  46.07500 15.50300 24.32400
C  45.89200 15.82000 25.81500
C  47.13400 17.52600 22.87000
C  46.40600 14.04600 24.17500
C  45.67100 13.36200 23.05200
N  45.06600 16.29600 28.55000
C  44.30800 15.55400 27.71600
C  43.13600 15.12500 28.42100
C  43.33100 15.56600 29.70800
C  44.53100 16.25600 29.75200
C  42.08000 14.42400 27.80000
C  42.80300 15.53200 30.99700
O  41.77600 14.98800 31.38300
C  43.76100 16.22200 31.94100
C  43.11700 17.29700 32.62800
O  42.61400 18.28700 32.04900
O  43.05200 16.99700 33.96000
C  42.16200 17.70200 34.81900
H  49.83700 19.48200 31.15700
H  49.25900 18.23800 24.79200
H  43.91600 14.89500 25.85900
H  45.64300 18.23900 33.34100
H  48.60300 18.49700 33.25600
H  48.30000 20.88800 33.30600
H  46.64600 20.48000 33.53000
H  47.17200 20.79500 31.94300
H  47.77700 16.13600 33.29600
H  46.12300 15.55500 33.55900
H  47.94200 16.30700 35.51600
H  46.24800 15.67300 35.60900
H  51.47600 20.89000 29.75300
H  52.71800 20.11600 28.93800
H  51.87800 19.27400 30.31600
H  52.87700 21.04300 25.29600
H  53.62700 20.14400 26.62900
H  52.37600 21.33200 26.95500
H  48.13700 15.76700 23.62500
H  45.15400 15.64200 23.75700
H  47.38000 18.49900 23.29500
H  46.08900 17.61700 22.57200
H  47.80700 17.34600 22.03100
H  46.26700 13.52400 25.12200
H  47.45300 13.85700 23.93800
H  45.04900 14.02800 22.45400
H  45.14500 12.53400 23.52700
H  46.34900 12.90800 22.32900
H  41.41900 14.84800 27.04400
H  41.31900 14.02200 28.46900
H  42.57300 13.60100 27.28300
H  44.13100 15.46500 32.63200
H  42.38800 18.76800 34.81200
H  42.29600 17.44200 35.86800
H  41.12000 17.68900 34.49900

