158

Mg -1.72300 17.74700 26.55900
C  -2.32000 15.53100 29.23400
C  -2.38600 20.37800 28.70300
C  -1.91500 19.71800 23.78200
C  -1.80800 14.93400 24.42800
N  -2.47900 17.93900 28.74700
C  -2.34200 16.89600 29.66100
C  -2.51500 17.40500 31.11800
C  -2.73500 18.96600 30.90800
C  -2.49000 19.15700 29.38000
C  -3.95000 19.62600 31.61000
C  -1.30800 16.98200 32.10600
C  -1.01400 17.76100 33.36000
H  -0.48700 17.06100 34.54500
N  -2.00200 19.77900 26.31200
C  -2.15200 20.68500 27.36900
C  -2.05800 22.04900 26.75700
C  -1.87000 21.87200 25.37900
C  -1.97300 20.38700 25.08500
C  -1.87400 23.37700 27.56100
C  -1.50100 22.88900 24.26000
O  -1.39000 22.56900 23.06000
C  -1.21800 24.28700 24.51200
N  -1.73900 17.37800 24.38700
C  -1.83300 18.39100 23.42800
C  -1.98000 17.80400 22.01400
C  -1.80800 16.22400 22.27300
C  -1.87200 16.20600 23.76900
C  -3.23400 18.30000 21.21000
C  -0.56600 15.54700 21.61500
C  0.74300 16.23800 21.80100
N  -1.98100 15.66000 26.80100
C  -1.93100 14.66200 25.85300
C  -2.11700 13.37700 26.49300
C  -2.22400 13.69700 27.86200
C  -2.16300 15.08300 27.96100
C  -2.28600 12.13000 25.79500
C  -2.37700 13.08700 29.05600
O  -2.39900 11.93300 29.40600
C  -2.45200 14.28600 30.04500
C  -1.23400 14.08300 30.85800
O  -0.12400 14.39300 30.47600
O  -1.58300 13.36300 31.93400
C  -0.38100 12.84300 32.75500
H  -2.59600 21.23900 29.34200
H  -2.03000 20.49200 23.02000
H  -1.85700 14.14000 23.68000
H  -3.37000 16.81000 31.43700
H  -1.77400 19.41100 31.16400
H  -4.54300 20.31100 31.00500
H  -3.66400 20.28400 32.43000
H  -4.66300 18.91200 32.02300
H  -0.42800 16.94900 31.46300
H  -1.48100 15.96200 32.45000
H  -1.79000 18.47600 33.62900
H  -0.12500 18.32800 33.08500
H  -0.84500 23.72900 27.63700
H  -2.45400 23.33100 28.48300
H  -2.36500 24.20900 27.05700
H  -2.15400 24.61600 24.96400
H  -1.01000 24.97100 23.69000
H  -0.44400 24.40100 25.27200
H  -1.08400 18.16200 21.50600
H  -2.69500 15.72700 21.87900
H  -3.95600 17.48700 21.12000
H  -3.00100 18.51300 20.16700
H  -3.54900 19.23100 21.68100
H  -0.74800 15.38300 20.55300
H  -0.51800 14.52000 21.97600
H  1.30400 16.50800 20.90600
H  1.26800 15.48500 22.38800
H  0.68000 17.02100 22.55600
H  -3.25600 12.09300 25.30000
H  -2.26600 11.27900 26.47600
H  -1.37400 12.00800 25.21000
H  -3.31500 14.13600 30.69400
H  -0.29200 11.76600 32.90000
H  -0.61500 13.22500 33.74800
H  0.57000 13.30500 32.48800
Mg 42.19700 40.73700 26.50600
C  41.40100 43.36600 28.79600
C  42.93200 38.78800 29.21300
C  43.35100 38.50000 24.33600
C  41.93600 43.17100 23.96300
N  42.15400 41.17900 28.77400
C  41.84600 42.28900 29.50000
C  41.77800 42.02900 31.01200
C  42.35500 40.56500 31.08400
C  42.55400 40.12700 29.56100
C  43.43400 40.38100 32.16600
C  40.43500 42.13100 31.67700
C  40.35000 42.80900 33.05000
H  39.65000 41.94600 34.18000
N  42.95800 38.87300 26.70400
C  43.12200 38.19300 27.90900
C  43.56200 36.83900 27.59200
C  43.65800 36.75800 26.22800
C  43.36300 38.04700 25.65400
C  43.73000 35.92400 28.67000
C  43.99300 35.58200 25.39000
O  44.16200 35.59800 24.15400
C  44.25000 34.24300 26.08900
N  42.73400 40.87300 24.48200
C  43.11800 39.80500 23.82700
C  43.14700 40.13700 22.42700
C  42.83100 41.63900 22.24200
C  42.46900 41.97800 23.65000
C  44.54900 39.78500 21.68500
C  41.68800 41.84900 21.24100
C  41.96900 42.82200 20.15800
N  41.63400 42.77200 26.29000
C  41.54300 43.63600 25.21800
C  41.16400 44.96000 25.66900
C  41.09600 44.86100 27.06100
C  41.40500 43.52600 27.43400
C  40.96500 46.15200 24.77900
C  40.67900 45.59900 28.24800
O  40.30600 46.74900 28.41700
C  40.93800 44.67600 29.48600
C  41.97200 45.27200 30.41800
O  43.11400 45.57800 30.13500
O  41.32300 45.64100 31.59000
C  42.11900 46.32300 32.61800
H  43.14300 38.27600 30.15400
H  43.71400 37.79000 23.59100
H  41.74900 43.86200 23.13800
H  42.43500 42.77000 31.46700
H  41.60800 39.90900 31.53000
H  43.95600 41.29700 32.44000
H  44.21100 39.70800 31.80200
H  43.10200 39.87400 33.07200
H  39.95200 41.15700 31.75300
H  39.71300 42.55000 30.97600
H  39.83500 43.76600 32.95900
H  41.34700 43.02900 33.43100
H  44.64700 35.34600 28.55600
H  42.83200 35.30900 28.74100
H  43.90100 36.35100 29.65800
H  43.44200 34.10600 26.80700
H  45.22800 34.07600 26.54100
H  44.32100 33.47800 25.31600
H  42.42700 39.48400 21.93200
H  43.78400 42.12600 22.03600
H  45.27700 39.56800 22.46700
H  44.92900 40.48100 20.93700
H  44.45900 38.86600 21.10600
H  40.86800 42.30500 21.79600
H  41.39200 40.90900 20.77400
H  42.15300 42.26600 19.23900
H  42.86100 43.37600 20.45200
H  41.13700 43.47300 19.89300
H  40.91000 45.92800 23.71300
H  41.75300 46.89400 24.90500
H  40.06000 46.71000 25.02000
H  39.99600 44.61200 30.03000
H  43.17800 46.08000 32.52900
H  41.84800 45.91300 33.59100
H  41.79200 47.36200 32.66300

