158

Mg 44.13000 4.33700 47.36900
C  42.13900 7.08400 47.05000
C  41.47100 2.36000 47.04600
C  46.24000 1.73400 46.89800
C  46.82000 6.57800 47.77400
N  42.02300 4.73900 46.88700
C  41.48200 5.91700 46.85900
C  39.94600 5.78200 46.69500
C  39.71000 4.28500 46.96600
C  41.13900 3.76700 46.98300
C  39.03100 3.81700 48.33100
C  39.39100 6.23800 45.32100
C  40.37500 6.36700 44.21400
H  39.95700 6.26400 42.74200
N  43.87900 2.30500 47.09400
C  42.63800 1.71400 46.92200
C  42.90200 0.30800 46.68700
C  44.30500 0.08600 46.69900
C  44.92600 1.38000 46.88500
C  41.76600 -0.70500 46.72700
C  44.95600 -1.24700 46.62500
O  44.40600 -2.28900 46.35900
C  46.48400 -1.34300 46.83000
N  46.22800 4.18600 47.30000
C  46.84000 2.97200 47.21200
C  48.35200 3.16600 47.23700
C  48.52600 4.64300 47.80100
C  47.12500 5.19600 47.62900
C  48.98700 2.13000 48.14600
C  49.67600 5.43300 47.14700
C  51.03400 4.80500 46.73000
N  44.50600 6.39500 47.29600
C  45.57500 7.15800 47.58500
C  45.25800 8.57200 47.71000
C  43.90000 8.57300 47.52700
C  43.51600 7.25600 47.23200
C  46.12900 9.70400 48.18400
C  42.70100 9.49100 47.32600
O  42.63200 10.73600 47.30900
C  41.57000 8.53900 47.03500
C  40.59000 8.72000 48.12000
O  40.81700 8.30000 49.26200
O  39.41900 9.30700 47.70800
C  38.36200 9.23100 48.62700
H  40.54300 1.79900 46.91900
H  46.99700 0.99900 46.61700
H  47.59100 7.31000 48.02300
H  39.45300 6.36100 47.47600
H  39.24000 3.82700 46.09600
H  38.74500 4.81300 48.66900
H  39.75200 3.44800 49.06000
H  38.15200 3.17500 48.28600
H  38.87900 7.19900 45.36200
H  38.63700 5.56200 44.91600
H  41.08100 5.54900 44.35400
H  40.89900 7.32100 44.27600
H  41.91600 -1.44000 45.93600
H  40.76400 -0.27700 46.75600
H  41.84900 -1.09500 47.74100
H  47.05700 -0.89200 46.02000
H  46.76700 -2.39600 46.86200
H  46.64600 -0.88900 47.80700
H  48.69500 3.02200 46.21300
H  48.57400 4.64800 48.89000
H  48.18800 1.48700 48.51700
H  49.45300 2.69700 48.95200
H  49.69500 1.57100 47.53500
H  49.84900 6.28800 47.80000
H  49.27100 5.85200 46.22600
H  51.35500 5.21900 45.77400
H  50.76400 3.77400 46.50500
H  51.93400 5.00100 47.31400
H  46.73800 9.99500 47.32900
H  46.69800 9.43600 49.07400
H  45.52900 10.58000 48.42900
H  41.11400 8.75100 46.06800
H  37.38400 9.03900 48.18500
H  38.26800 10.23200 49.04800
H  38.55400 8.51600 49.42700
Mg -11.41400 15.98600 43.74800
C  -7.91400 16.60300 43.60100
C  -12.05400 19.18600 42.85200
C  -14.61600 15.08200 43.90800
C  -10.52900 12.49300 44.09300
N  -10.12100 17.62800 43.24100
C  -8.73300 17.71100 43.18400
C  -8.21900 19.14700 42.74500
C  -9.52800 19.99300 42.85100
C  -10.68200 18.85600 42.94400
C  -9.46300 20.87600 44.12400
C  -7.49600 19.01600 41.37000
C  -6.02700 19.49400 41.26300
H  -5.06400 18.76800 40.35000
N  -13.07200 16.94800 43.36500
C  -13.15000 18.30700 42.92000
C  -14.50700 18.59700 42.70000
C  -15.33800 17.40100 42.94300
C  -14.32400 16.37800 43.37600
C  -14.97700 19.94400 42.26600
C  -16.81600 17.27200 42.74400
O  -17.36300 18.32900 42.34300
C  -17.59000 16.04000 43.03300
N  -12.51100 14.00700 43.91900
C  -13.87500 14.02900 44.21400
C  -14.27600 12.63600 44.68600
C  -13.04200 11.68300 44.49800
C  -11.97900 12.73900 44.17900
C  -14.98200 12.60700 46.06600
C  -13.19400 10.50300 43.46000
C  -12.41700 9.25500 43.96200
N  -9.69500 14.74500 43.99300
C  -9.50200 13.38300 44.06800
C  -8.05800 13.10600 44.28000
C  -7.43000 14.33700 44.06300
C  -8.45800 15.32000 43.89600
C  -7.45900 11.77900 44.59400
C  -6.12500 15.02300 43.90600
O  -4.97100 14.56800 43.94400
C  -6.39500 16.51400 43.74800
C  -6.02100 17.27500 45.01300
O  -6.38400 17.08700 46.15800
O  -5.06500 18.19500 44.56500
C  -4.64500 19.23300 45.61300
H  -12.22200 20.25500 42.70700
H  -15.65000 14.96800 44.24200
H  -10.20800 11.44900 44.06800
H  -7.48000 19.40600 43.50300
H  -9.66000 20.64000 41.98300
H  -9.93200 20.38800 44.97900
H  -10.01400 21.80900 44.01000
H  -8.42900 21.07800 44.40200
H  -8.13200 19.60500 40.71000
H  -7.41900 17.96400 41.09400
H  -5.65100 19.74000 42.25700
H  -6.12600 20.48900 40.83100
H  -15.49200 19.92000 41.30500
H  -14.14900 20.64000 42.13000
H  -15.66300 20.28100 43.04300
H  -18.60400 16.20000 42.66800
H  -17.69900 15.85100 44.10100
H  -17.07200 15.21500 42.54300
H  -14.99200 12.35000 43.91500
H  -12.72000 11.28300 45.46000
H  -15.11000 13.63700 46.39900
H  -14.45500 12.04700 46.83900
H  -15.91900 12.06600 45.93100
H  -13.01800 10.79400 42.42400
H  -14.23400 10.17700 43.44600
H  -13.15900 8.67200 44.50800
H  -11.46100 9.44200 44.45100
H  -12.17100 8.71200 43.04900
H  -6.40800 11.80000 44.87800
H  -7.66500 10.95100 43.91500
H  -8.00500 11.40200 45.45900
H  -5.90600 16.89700 42.85300
H  -5.50400 19.43100 46.25400
H  -4.17800 20.08600 45.12200
H  -3.83400 18.83300 46.22100

