158

Mg 25.31600 1.78000 30.04100
C  27.59200 1.63700 32.94400
C  22.71200 2.18700 32.36500
C  23.33200 1.36300 27.60300
C  28.13600 1.18000 28.07400
N  25.26100 2.00300 32.31900
C  26.25500 1.91900 33.20300
C  25.73800 2.35900 34.65700
C  24.16000 2.39800 34.57600
C  24.02000 2.22000 32.98600
C  23.41400 1.27100 35.40800
C  26.48400 3.71000 35.06000
C  27.02000 3.71300 36.50500
H  26.40700 4.65400 37.55500
N  23.26200 1.94300 29.98000
C  22.33500 2.10500 31.02800
C  21.05700 2.10100 30.54200
C  21.15400 1.80500 29.11900
C  22.59100 1.66200 28.80400
C  19.85900 2.37000 31.38700
C  20.07700 1.58500 28.09800
O  20.24500 1.28300 26.96500
C  18.69300 1.72100 28.46100
N  25.71600 1.50600 28.11800
C  24.66800 1.35800 27.26300
C  25.12400 1.41500 25.67900
C  26.70000 1.59700 25.90500
C  26.89000 1.49600 27.44500
C  24.71400 0.14100 24.90700
C  27.22500 2.98000 25.43700
C  26.66800 3.51800 24.12800
N  27.40600 1.41800 30.37800
C  28.41300 1.14400 29.47600
C  29.63000 0.87600 30.15500
C  29.38000 1.09100 31.50400
C  28.02000 1.41600 31.60000
C  30.92900 0.64500 29.43000
C  29.96600 1.18500 32.82700
O  31.12300 0.99800 33.21800
C  28.82600 1.64200 33.80400
C  28.73200 0.63900 34.88000
O  28.20200 -0.48000 34.92700
O  29.30500 1.18500 36.03700
C  29.15300 0.35700 37.18000
H  22.03300 2.39900 33.19400
H  22.64100 1.33800 26.75800
H  28.93600 1.08700 27.33700
H  25.99000 1.60100 35.39800
H  23.62200 3.30800 34.83800
H  24.14100 0.90100 36.13200
H  23.15700 0.46700 34.71800
H  22.49800 1.60000 35.89800
H  25.74800 4.51100 34.98100
H  27.25400 3.95200 34.32800
H  28.09500 3.88200 36.56500
H  26.81300 2.76600 37.00400
H  19.90600 2.47700 32.47100
H  19.18100 1.52100 31.30100
H  19.30200 3.24800 31.06100
H  18.54700 2.71400 28.88800
H  18.51800 0.92100 29.18000
H  18.11600 1.65100 27.53900
H  24.61500 2.22300 25.15400
H  27.28700 0.83200 25.39700
H  24.13600 0.28900 23.99500
H  23.97200 -0.32500 25.55500
H  25.50200 -0.60200 24.78300
H  28.29400 2.94300 25.23000
H  26.91800 3.63600 26.25100
H  27.36800 4.21900 23.67300
H  25.82500 4.14900 24.40800
H  26.42000 2.75300 23.39200
H  31.52900 0.00600 30.07800
H  31.47100 1.54200 29.13100
H  30.66100 0.04300 28.56200
H  28.90200 2.64300 34.22900
H  30.06800 0.60000 37.72000
H  29.18900 -0.69500 36.89500
H  28.25800 0.61100 37.74800
Mg 49.04700 16.88800 29.27300
C  46.90000 16.75700 31.98300
C  51.30900 18.73400 31.04500
C  50.83600 17.14900 26.44700
C  46.24500 15.62500 27.30900
N  49.02800 17.73400 31.20900
C  48.08900 17.51500 32.19100
C  48.58400 18.02700 33.51600
C  49.85300 18.82700 33.17400
C  50.13100 18.41100 31.76500
C  49.66300 20.38400 33.24700
C  48.83900 16.92000 34.53200
C  48.35800 17.24000 35.97500
H  47.78100 18.60400 36.24300
N  50.95000 17.63500 28.85800
C  51.72100 18.32000 29.76100
C  52.98300 18.70800 29.11300
C  52.92700 18.16000 27.81400
C  51.56200 17.59800 27.61500
C  54.00300 19.64400 29.84000
C  53.97000 18.12900 26.65100
O  53.82800 17.61700 25.54900
C  55.29000 18.91400 26.86200
N  48.46400 16.59900 27.14300
C  49.49400 16.79500 26.22700
C  49.00500 16.61100 24.81600
C  47.72000 15.81000 25.08100
C  47.41400 16.05300 26.60200
C  48.71500 17.77900 23.87300
C  47.87400 14.32100 24.73600
C  46.70600 13.53800 24.00200
N  47.01900 16.20700 29.57000
C  46.02400 15.70400 28.69800
C  44.92900 15.31700 29.50600
C  45.18400 15.75600 30.77600
C  46.48500 16.29900 30.73700
C  43.71100 14.62300 29.06200
C  44.64400 15.80400 32.07100
O  43.58700 15.39900 32.52900
C  45.76200 16.40800 32.98600
C  45.10400 17.63000 33.51700
O  45.08800 18.77300 32.99000
O  44.33000 17.13000 34.57800
C  43.34600 18.12400 35.07700
H  52.03700 19.38200 31.53700
H  51.38400 17.07800 25.50500
H  45.58600 15.05300 26.65200
H  47.76200 18.68800 33.79000
H  50.64300 18.77300 33.92300
H  48.62700 20.53000 33.55200
H  49.72600 20.84800 32.26200
H  50.39900 20.76400 33.95500
H  49.92300 16.83200 34.60600
H  48.41800 15.94500 34.28500
H  49.16100 16.94800 36.65000
H  47.51200 16.62100 36.27300
H  54.65400 18.99000 30.42000
H  53.49700 20.43300 30.39600
H  54.60900 20.32400 29.24200
H  55.97900 18.84100 26.02100
H  55.81700 18.43400 27.68700
H  55.05000 19.95100 27.09800
H  49.70300 15.95800 24.29200
H  46.94300 16.09500 24.37200
H  48.91400 17.52700 22.83200
H  49.42300 18.58300 24.07800
H  47.72100 18.18800 24.05100
H  48.07400 13.88700 25.71600
H  48.76200 14.18900 24.11800
H  47.06800 12.71800 23.38200
H  46.12700 14.21200 23.37100
H  46.00900 13.10800 24.72100
H  43.96600 13.79400 28.40200
H  43.00000 15.26000 28.53600
H  43.24600 14.20900 29.95700
H  46.00700 15.63800 33.71800
H  43.72600 18.99800 35.60700
H  42.61800 17.59200 35.68900
H  42.76300 18.39900 34.19800

