158

Mg 41.16600 40.86600 26.62200
C  40.46400 43.59100 28.90700
C  42.29400 39.08700 29.23500
C  42.30000 38.74400 24.42800
C  40.53400 43.19500 24.01900
N  41.47200 41.44400 28.81900
C  40.87600 42.45300 29.57900
C  40.97200 42.20400 31.00700
C  41.69600 40.77600 31.09600
C  41.87200 40.36100 29.63900
C  43.06300 40.72800 31.81800
C  39.60700 42.38700 31.76700
C  39.67500 43.20000 33.13300
H  38.90200 42.66600 34.42500
N  42.17900 39.12300 26.79900
C  42.50200 38.49200 27.93100
C  43.11200 37.18400 27.68500
C  43.14700 37.10700 26.28600
C  42.54700 38.35100 25.75000
C  43.59200 36.29100 28.76000
C  43.70200 36.00500 25.39800
O  43.99900 36.12100 24.24400
C  43.98500 34.65300 26.07900
N  41.53400 41.02400 24.46500
C  41.86300 39.88400 23.82500
C  41.66300 40.02300 22.32800
C  40.80700 41.33600 22.27600
C  40.97900 41.89300 23.65300
C  43.02900 40.12900 21.48900
C  39.26400 41.12000 22.08000
C  38.46800 40.25700 23.00900
N  40.58700 42.91200 26.45400
C  40.40700 43.69600 25.34600
C  39.95700 44.99500 25.68000
C  40.01500 45.01600 27.08700
C  40.35300 43.71300 27.48600
C  39.78100 46.09600 24.62600
C  39.93100 45.95200 28.23300
O  39.72100 47.16600 28.21400
C  39.91900 44.94200 29.40600
C  40.72600 45.59100 30.50800
O  41.97000 45.65100 30.61400
O  39.89000 46.08300 31.47900
C  40.44900 46.63300 32.64800
H  42.58100 38.51600 30.12000
H  42.59100 37.96500 23.72100
H  40.30300 43.84900 23.17500
H  41.65000 42.88000 31.53000
H  41.02300 40.06700 31.57800
H  43.34700 41.60600 32.39800
H  43.94800 40.57300 31.20100
H  43.13900 39.83700 32.44100
H  39.11700 41.41600 31.83900
H  38.94200 42.99900 31.15700
H  39.09400 44.12100 33.09700
H  40.63600 43.38800 33.61200
H  43.84500 36.69800 29.73900
H  44.50800 35.72500 28.59000
H  42.86000 35.50100 28.92900
H  43.20800 34.43300 26.81000
H  44.97500 34.66600 26.53500
H  43.97900 33.86200 25.32900
H  40.95100 39.29000 21.94800
H  41.30800 41.95100 21.52800
H  43.63100 40.64400 22.23800
H  42.73700 40.68700 20.60000
H  43.34700 39.11100 21.26500
H  39.26500 40.73700 21.06000
H  38.86300 42.12600 21.95500
H  37.86600 40.79600 23.74100
H  39.18700 39.61700 23.52100
H  37.84300 39.57700 22.43000
H  39.60800 47.07800 25.06600
H  39.06800 45.92800 23.81800
H  40.72000 46.19100 24.08000
H  38.89200 44.83200 29.75400
H  39.90800 47.50800 33.01000
H  41.47800 46.96900 32.52600
H  40.42800 45.95700 33.50200
Mg 0.19200 43.68000 25.60100
C  2.22900 43.31700 28.45300
C  -2.42200 42.69000 27.47000
C  -1.50600 43.91500 22.85500
C  3.16900 44.31800 23.62700
N  -0.03900 43.23100 27.73300
C  0.88900 43.12200 28.72400
C  0.32800 42.79100 30.09100
C  -1.20300 42.37800 29.70800
C  -1.26400 42.83800 28.24300
C  -1.54100 40.87700 29.85500
C  0.32900 44.10000 30.93000
C  -0.16400 44.00700 32.43400
H  -0.24700 42.63200 33.14100
N  -1.68400 43.29700 25.22000
C  -2.69500 42.87200 26.08800
C  -3.92000 42.82100 25.37700
C  -3.68400 43.24200 24.09000
C  -2.24100 43.49900 23.99800
C  -5.23500 42.39800 26.14500
C  -4.66500 43.59600 23.00900
O  -4.39300 44.27900 22.03100
C  -6.12400 43.15100 23.19400
N  0.77500 44.04000 23.44100
C  -0.18200 44.20500 22.55100
C  0.38000 44.65300 21.23300
C  1.84200 44.90700 21.52200
C  1.97800 44.32300 22.95500
C  0.19200 43.47300 20.14400
C  2.35600 46.37100 21.59700
C  1.37700 47.43100 22.19700
N  2.31400 43.89700 25.94800
C  3.40400 44.09900 25.02800
C  4.59600 43.97500 25.79100
C  4.18500 43.66600 27.06200
C  2.78600 43.54000 27.16800
C  5.98500 44.14000 25.26000
C  4.73300 43.37700 28.37200
O  5.89900 43.30300 28.74100
C  3.45900 43.20600 29.38000
C  3.63500 42.04000 30.21300
O  3.34800 40.89100 29.87900
O  4.29600 42.35700 31.33000
C  4.81900 41.20500 32.12600
H  -3.29600 42.25900 27.96200
H  -2.11400 43.91900 21.94800
H  4.06800 44.46900 23.02700
H  0.84000 41.95800 30.57400
H  -1.97200 42.86600 30.30600
H  -2.05300 40.55300 28.94900
H  -2.25200 40.72600 30.66700
H  -0.70000 40.22200 30.08500
H  -0.29800 44.86300 30.46800
H  1.35400 44.43800 30.78100
H  -1.15200 44.45600 32.53800
H  0.60000 44.55500 32.98500
H  -6.04500 43.11700 26.02000
H  -5.13500 42.19800 27.21200
H  -5.60200 41.42900 25.80700
H  -6.16000 42.08200 23.40100
H  -6.66400 43.17000 22.24700
H  -6.59000 43.71500 24.00200
H  -0.10400 45.57100 20.89900
H  2.47100 44.34300 20.83200
H  1.14600 43.06900 19.80500
H  -0.24900 43.89100 19.23900
H  -0.37800 42.67000 20.61200
H  2.64800 46.70300 20.60100
H  3.21700 46.40200 22.26500
H  1.80000 48.09200 22.95400
H  0.53400 46.94200 22.68400
H  1.04100 47.98400 21.31900
H  6.02400 45.10800 24.76000
H  6.23900 43.33000 24.57600
H  6.84400 44.15800 25.93100
H  3.56000 44.09900 29.99800
H  5.55600 41.51000 32.86900
H  5.33200 40.46500 31.51100
H  3.94000 40.84400 32.65800

