158

Mg 40.54200 8.02200 29.28400
C  42.19600 9.44200 31.94200
C  38.37600 6.67900 31.51400
C  38.79700 6.86500 26.78300
C  43.25000 8.72500 27.26600
N  40.34900 8.06400 31.51400
C  41.03500 8.84200 32.34800
C  40.43900 8.78700 33.75500
C  39.36300 7.61200 33.59600
C  39.36600 7.37600 32.11000
C  39.73900 6.33700 34.42200
C  39.87100 10.20100 34.21400
C  39.85100 10.43100 35.75500
H  40.92700 11.36200 36.35900
N  38.80600 7.01400 29.18000
C  38.03800 6.45500 30.18800
C  37.00700 5.63300 29.61400
C  37.07800 5.81000 28.20600
C  38.24700 6.63400 27.98400
C  36.05000 4.88400 30.60500
C  36.13300 5.33100 27.13900
O  36.29700 5.74200 25.99400
C  34.97600 4.45800 27.44100
N  40.97000 7.89500 27.30100
C  40.02600 7.51000 26.38700
C  40.67000 7.25800 24.92800
C  41.98300 8.09600 25.07200
C  42.07700 8.29300 26.63000
C  40.88300 5.79900 24.39000
C  41.87700 9.46800 24.30000
C  41.07300 10.61300 25.00600
N  42.41600 8.95200 29.44000
C  43.44000 9.10600 28.61800
C  44.54500 9.76900 29.23600
C  44.11900 9.98900 30.53200
C  42.79300 9.37700 30.64000
C  45.84500 9.99700 28.55700
C  44.41200 10.49300 31.87000
O  45.43300 11.01600 32.19100
C  43.22100 10.24300 32.80200
C  43.72200 9.45300 34.00200
O  44.03800 8.26500 34.04100
O  43.71000 10.27200 35.09400
C  43.88700 9.52500 36.30000
H  37.78900 6.18600 32.29200
H  38.42400 6.41600 25.86000
H  44.11100 8.95100 26.63300
H  41.16800 8.54800 34.52900
H  38.41400 8.03600 33.92400
H  38.99700 6.07000 35.17400
H  40.69700 6.51900 34.91100
H  39.89200 5.58600 33.64700
H  38.79900 10.19000 34.01900
H  40.31400 11.02300 33.65000
H  39.74300 9.45300 36.22500
H  38.87300 10.86400 35.96900
H  36.21400 5.16500 31.64500
H  36.33100 3.83100 30.59900
H  34.98900 4.87100 30.35500
H  35.27900 3.76500 28.22500
H  34.67600 4.00900 26.49500
H  34.15200 5.08300 27.78600
H  40.11700 7.86000 24.20700
H  42.79600 7.49700 24.66200
H  41.04100 5.07000 25.18500
H  41.72600 5.75600 23.70100
H  39.97000 5.43700 23.91800
H  41.44600 9.25800 23.32100
H  42.88400 9.84600 24.12300
H  40.21100 10.95600 24.43500
H  41.78100 11.43600 25.10200
H  40.59200 10.35600 25.95000
H  45.81800 10.99800 28.12700
H  46.09800 9.28700 27.77000
H  46.58100 9.87000 29.35100
H  42.79100 11.18600 33.13900
H  43.53800 10.12500 37.14100
H  44.94500 9.27500 36.37500
H  43.15800 8.71500 36.31900
Mg 47.43200 45.09700 42.93800
C  44.01600 44.61600 42.52500
C  47.99700 41.83900 42.23000
C  50.70600 45.82000 42.77600
C  46.79400 48.62700 43.33800
N  46.12500 43.41900 42.46300
C  44.76300 43.40600 42.42800
C  44.16900 42.06800 42.23100
C  45.44000 41.19200 42.32700
C  46.61600 42.15400 42.26300
C  45.50700 40.29400 43.51000
C  43.32900 41.79100 41.00200
C  43.67800 42.49200 39.66900
H  43.54200 41.71000 38.39400
N  49.13100 44.02100 42.64100
C  49.11400 42.62700 42.33500
C  50.48800 42.16400 42.33300
C  51.35700 43.29800 42.45700
C  50.47100 44.48100 42.68900
C  50.79700 40.71600 42.48000
C  52.87100 43.28600 42.35700
O  53.53600 42.25700 42.07600
C  53.65400 44.55700 42.53600
N  48.54300 46.94700 43.05400
C  49.91000 46.96400 43.00900
C  50.55800 48.43300 43.00100
C  49.32700 49.28300 43.36100
C  48.12400 48.24200 43.26200
C  51.77800 48.64200 44.02900
C  49.02000 50.46200 42.43700
C  48.33900 51.70300 43.17400
N  45.82500 46.38500 42.90000
C  45.72900 47.74600 43.11300
C  44.34400 48.13600 43.04600
C  43.63500 46.90700 42.89400
C  44.57100 45.92600 42.76900
C  43.60100 49.45900 43.21800
C  42.33000 46.40300 42.77800
O  41.25600 46.99100 42.76900
C  42.49100 44.90400 42.53300
C  41.75000 44.29300 43.67500
O  40.71800 43.55200 43.50100
O  42.25700 44.64400 44.89500
C  41.64100 43.96000 46.06900
H  48.11000 40.75500 42.16300
H  51.77900 45.97300 42.63900
H  46.67400 49.68300 43.58700
H  43.54300 41.93400 43.11300
H  45.46500 40.49100 41.49300
H  45.53600 39.22000 43.32500
H  44.64400 40.45600 44.15500
H  46.39500 40.49400 44.11000
H  42.29500 42.06400 41.21400
H  43.20900 40.72000 40.84400
H  44.71500 42.82200 39.72200
H  43.11000 43.41600 39.55500
H  51.86500 40.55800 42.63400
H  50.64400 40.19200 41.53700
H  50.17700 40.26000 43.25100
H  53.72500 45.13200 41.61200
H  54.65400 44.24100 42.83200
H  53.27900 45.13400 43.38100
H  50.98300 48.66800 42.02600
H  49.37200 49.71900 44.35900
H  51.83000 47.97200 44.88700
H  51.80200 49.66000 44.41700
H  52.77700 48.55100 43.60300
H  48.44000 50.14400 41.57100
H  49.96100 50.91100 42.11700
H  48.63400 52.68200 42.79600
H  48.65800 51.77300 44.21400
H  47.25300 51.65500 43.09300
H  42.79200 49.55000 42.49400
H  44.29200 50.23500 42.88800
H  43.44500 49.59300 44.28900
H  41.98200 44.63600 41.60800
H  41.58200 42.88700 45.88600
H  40.64500 44.26400 46.38900
H  42.24700 44.07600 46.96800

