158

Mg 48.51900 34.62500 26.32500
C  46.47200 33.55800 28.95400
C  49.07800 37.49500 28.13000
C  50.04500 35.99900 23.67600
C  47.42400 32.06600 24.30800
N  47.77300 35.46300 28.34800
C  47.10000 34.76800 29.35200
C  47.42400 35.44500 30.73700
C  47.83700 36.86900 30.24600
C  48.36500 36.53700 28.81500
C  46.69900 37.99500 30.13500
C  48.53500 34.64700 31.52400
C  48.38800 34.42200 33.07200
H  47.42300 35.50200 33.71100
N  49.49300 36.42800 26.00000
C  49.67500 37.43500 26.89000
C  50.46600 38.53300 26.30200
C  50.73800 38.11300 24.99600
C  50.00500 36.84000 24.85400
C  50.77900 39.80400 27.09500
C  51.52000 38.81900 23.95900
O  51.39900 38.64300 22.77200
C  52.30800 40.00800 24.36900
N  48.85700 34.00400 24.35600
C  49.46200 34.70000 23.42100
C  49.44100 34.05200 22.06300
C  48.82200 32.62300 22.37600
C  48.40100 32.90600 23.77300
C  48.75500 34.92400 21.01100
C  49.76800 31.36700 22.20900
C  49.39200 30.33300 21.15700
N  47.24000 33.09100 26.54900
C  46.91000 32.08100 25.65600
C  45.96800 31.21600 26.32600
C  45.80900 31.74300 27.59600
C  46.50100 32.95000 27.68100
C  45.41800 29.89700 25.68600
C  45.10500 31.49200 28.86700
O  44.32900 30.58400 29.22300
C  45.58700 32.58600 29.85500
C  46.35000 31.87500 30.87100
O  47.44900 31.42100 30.69300
O  45.63500 31.81200 32.02600
C  46.32700 30.98700 33.01300
H  49.33900 38.38200 28.71200
H  50.46800 36.46800 22.78600
H  47.15000 31.16200 23.76000
H  46.47900 35.50400 31.27600
H  48.59500 37.33300 30.87600
H  46.27200 38.10400 29.13800
H  47.12600 38.95600 30.42300
H  46.02000 37.68800 30.93100
H  49.50300 35.05400 31.23200
H  48.52600 33.63500 31.11900
H  49.35700 34.57200 33.55000
H  48.01300 33.43100 33.32800
H  51.76700 39.71800 27.54600
H  50.07900 40.02300 27.90200
H  50.63200 40.66600 26.44500
H  51.66800 40.88500 24.46600
H  53.10300 40.13300 23.63400
H  52.69500 39.76200 25.35900
H  50.48800 33.92100 21.78900
H  47.92500 32.49500 21.77100
H  48.02100 34.36100 20.43500
H  49.30000 35.55800 20.31200
H  48.21500 35.67700 21.58500
H  49.78200 30.89200 23.19000
H  50.78000 31.71300 21.99600
H  50.22300 30.47700 20.46700
H  48.44700 30.51100 20.64300
H  49.46800 29.32700 21.56900
H  44.86200 29.43200 26.50000
H  46.30100 29.27700 25.53400
H  44.80300 30.01300 24.79300
H  44.79900 33.09500 30.41000
H  45.81200 31.05600 33.97100
H  47.34700 31.29300 33.24400
H  46.29100 29.94000 32.71200
Mg 4.81600 54.45900 40.57900
C  4.67300 50.95800 41.13700
C  7.91300 53.99000 39.08200
C  4.82900 57.72100 39.81100
C  1.80400 54.77900 42.19800
N  5.98400 52.52300 39.84100
C  5.77500 51.22500 40.28100
C  6.84200 50.30500 39.75100
C  8.02400 51.33300 39.40900
C  7.33500 52.75700 39.48900
C  9.19800 51.33500 40.47200
C  6.31400 49.44600 38.63600
C  5.38300 50.11500 37.64000
H  5.76100 50.10700 36.15200
N  6.10300 55.63800 39.40700
C  7.38100 55.31900 38.97100
C  7.99100 56.48300 38.48000
C  7.05300 57.56300 38.57700
C  5.90700 56.98700 39.23300
C  9.40600 56.49900 37.85000
C  7.20500 58.95900 38.00000
O  8.25200 59.25000 37.49300
C  6.08600 59.92200 37.87200
N  3.31000 55.97200 40.67600
C  3.64500 57.27600 40.48100
C  2.57000 58.30100 40.95500
C  1.61800 57.35100 41.67200
C  2.25000 55.90500 41.45300
C  3.15100 59.46800 41.89500
C  0.09300 57.53500 41.23100
C  -0.94600 57.94900 42.38100
N  3.50800 53.18000 41.49700
C  2.34500 53.51700 42.21000
C  1.84100 52.30800 42.83900
C  2.77300 51.30600 42.49100
C  3.69600 51.87000 41.63000
C  0.64000 52.37900 43.73300
C  3.09700 49.88800 42.73800
O  2.51900 49.04800 43.45000
C  4.39800 49.62300 41.87200
C  3.82600 48.66800 40.88300
O  3.02000 48.98700 40.06000
O  4.50500 47.48100 40.93300
C  4.07100 46.41900 40.02200
H  8.96400 53.89700 38.80100
H  4.94500 58.80500 39.88000
H  0.93100 54.90700 42.84000
H  7.15300 49.83000 40.68200
H  8.36100 51.21900 38.37800
H  9.13000 50.44700 41.10000
H  9.20100 52.21300 41.11900
H  10.15700 51.37000 39.95300
H  5.91200 48.53700 39.08300
H  7.16500 49.20000 38.00100
H  4.88800 50.97700 38.08700
H  4.52800 49.44700 37.53600
H  9.59000 56.92400 36.86300
H  9.68900 55.45600 37.71400
H  10.05100 57.02800 38.55100
H  5.96900 60.39100 38.84900
H  5.12500 59.51200 37.56000
H  6.31900 60.81300 37.29000
H  2.03800 58.77600 40.13100
H  1.56900 57.55800 42.74100
H  4.19800 59.70800 41.71200
H  3.06800 59.07700 42.90900
H  2.51200 60.34400 41.77300
H  -0.28800 56.63700 40.74500
H  -0.02500 58.24200 40.40900
H  -1.73200 57.21700 42.19300
H  -1.50800 58.86000 42.17300
H  -0.58900 58.13500 43.39400
H  -0.19500 52.89400 43.25900
H  0.92700 52.92500 44.63300
H  0.33400 51.39100 44.07500
H  5.20500 49.16800 42.44600
H  4.69300 45.55300 40.24700
H  4.36200 46.80800 39.04600
H  3.00600 46.18900 39.99500

