158

Mg -2.17200 16.97900 26.95200
C  -2.72400 15.15000 29.85500
C  -3.03700 19.79700 28.58300
C  -2.39300 18.59300 23.98800
C  -2.09700 13.93400 25.14200
N  -2.70100 17.33200 28.98300
C  -2.73500 16.51500 30.09200
C  -3.14200 17.32600 31.35300
C  -3.73400 18.61600 30.70600
C  -3.02700 18.64900 29.35900
C  -5.29100 18.59800 30.51100
C  -1.92300 17.38000 32.29200
C  -2.24700 17.17600 33.72300
H  -1.11900 16.77000 34.55900
N  -2.42900 18.95600 26.42700
C  -2.71700 19.97700 27.27500
C  -2.49100 21.22100 26.58300
C  -2.29300 20.85800 25.20200
C  -2.45300 19.40200 25.14600
C  -2.60700 22.55600 27.22700
C  -2.12700 21.73600 23.91900
O  -1.95600 21.25500 22.79700
C  -2.02300 23.23300 24.00700
N  -2.58000 16.29000 24.86100
C  -2.48200 17.22200 23.79200
C  -2.41100 16.57800 22.44700
C  -2.09800 15.11800 22.91000
C  -2.20000 15.11800 24.43300
C  -3.71000 16.74000 21.58700
C  -0.67500 14.61400 22.47000
C  0.50900 15.54800 22.82800
N  -2.25800 14.94800 27.37500
C  -2.16300 13.82100 26.54400
C  -2.25500 12.68900 27.38800
C  -2.44400 13.17700 28.67500
C  -2.44900 14.53100 28.60300
C  -2.11400 11.26600 26.95000
C  -2.70100 12.78200 29.98000
O  -2.81800 11.63600 30.45100
C  -2.89700 14.02900 30.89400
C  -1.76000 13.88300 31.95300
O  -0.54300 14.00600 31.72700
O  -2.34900 13.58900 33.17800
C  -1.46500 13.15200 34.30500
H  -3.42500 20.61700 29.19100
H  -2.30900 18.94200 22.95600
H  -1.87100 12.97600 24.66900
H  -3.88000 16.77500 31.93500
H  -3.40400 19.48400 31.27600
H  -5.81600 17.73100 30.91300
H  -5.54300 18.53800 29.45300
H  -5.71700 19.45700 31.02900
H  -1.55900 18.40500 32.23700
H  -1.19600 16.65200 31.93100
H  -2.95800 16.35000 33.74700
H  -2.76300 18.06300 34.09000
H  -2.53500 22.48300 28.31200
H  -3.46700 23.06800 26.79400
H  -1.74500 23.16300 26.95000
H  -2.35600 23.58400 23.03000
H  -0.98600 23.54300 24.13800
H  -2.68700 23.64600 24.76700
H  -1.57800 16.92500 21.83400
H  -2.85900 14.45200 22.50200
H  -4.54500 16.97100 22.24900
H  -4.01900 15.87700 20.99700
H  -3.69300 17.53600 20.84200
H  -0.75400 14.40000 21.40400
H  -0.59800 13.63700 22.94700
H  1.24700 15.06400 23.46800
H  0.07900 16.42200 23.31800
H  1.05200 15.89400 21.94900
H  -3.02600 10.76600 27.27600
H  -1.20700 10.86800 27.40500
H  -2.07500 11.10900 25.87200
H  -3.86000 13.93400 31.39500
H  -0.97000 12.24300 33.96400
H  -1.93600 12.93200 35.26300
H  -0.82600 14.03500 34.31800
Mg 1.29600 7.71300 26.88100
C  1.46900 9.82700 29.67000
C  2.42600 5.06900 28.94700
C  1.47300 5.72500 24.13400
C  0.92500 10.50000 24.87700
N  1.69900 7.49100 29.04900
C  1.51500 8.49600 30.00300
C  1.43800 7.84300 31.43000
C  1.83300 6.38800 31.15200
C  2.05200 6.30500 29.60100
C  3.12000 6.01700 31.93700
C  0.04000 8.06800 31.99300
C  -0.12000 8.13500 33.50300
H  1.05800 7.66300 34.38500
N  1.84800 5.68100 26.53500
C  2.31100 4.77600 27.50900
C  2.63500 3.49600 26.90400
C  2.31300 3.59100 25.49300
C  1.87500 5.04400 25.33500
C  3.03900 2.24400 27.69300
C  2.37500 2.55400 24.38800
O  2.03400 2.84400 23.24900
C  2.64700 1.14500 24.75200
N  1.13700 8.09300 24.78900
C  1.15400 7.08500 23.87300
C  0.77800 7.64200 22.47500
C  0.53200 9.18300 22.70900
C  0.76500 9.29400 24.23800
C  1.89300 7.33600 21.45900
C  -0.89600 9.67800 22.35700
C  -0.86300 10.38200 21.00400
N  1.30900 9.79300 27.10700
C  1.22300 10.82400 26.23200
C  1.50800 12.06900 26.98600
C  1.50300 11.75700 28.31400
C  1.42300 10.34100 28.32600
C  1.55300 13.42200 26.29600
C  1.55800 12.26300 29.69200
O  1.68500 13.41500 30.08900
C  1.44800 11.03500 30.57500
C  2.56000 11.13900 31.53300
O  3.76600 10.89700 31.38900
O  2.04800 11.65700 32.70500
C  2.99200 11.90900 33.77200
H  2.69600 4.26200 29.63100
H  1.45200 4.99400 23.32300
H  0.89300 11.33000 24.16800
H  2.21800 8.40600 31.94400
H  1.06000 5.77700 31.61800
H  4.00400 5.85500 31.32000
H  2.97100 4.99800 32.29300
H  3.38200 6.77100 32.67900
H  -0.56100 7.28300 31.53300
H  -0.37400 8.97400 31.55200
H  -1.02500 7.59600 33.78000
H  -0.31800 9.19800 33.64500
H  3.22100 2.42800 28.75200
H  3.95300 1.82100 27.27400
H  2.28900 1.47200 27.52500
H  1.81900 0.77800 25.35900
H  3.66100 1.02700 25.13400
H  2.61600 0.48900 23.88200
H  -0.10600 7.10300 22.13500
H  1.34500 9.68200 22.18000
H  2.33200 8.19000 20.94400
H  1.31000 6.77100 20.73200
H  2.77000 6.84600 21.88100
H  -1.17200 10.51700 22.99600
H  -1.64500 8.88600 22.34300
H  -1.71200 9.95300 20.47200
H  -0.02300 10.09700 20.37100
H  -0.94100 11.46900 21.03900
H  1.59500 13.38900 25.20700
H  2.38500 14.03800 26.63500
H  0.58900 13.91000 26.44400
H  0.47700 11.06900 31.06800
H  3.81000 12.49700 33.35500
H  3.40600 11.00100 34.21100
H  2.51900 12.68100 34.37800

