158

Mg 2.48400 -0.48000 43.89800
C  5.86000 0.58000 43.91300
C  1.45700 2.60000 42.85800
C  -0.61400 -1.73100 43.65700
C  3.67600 -3.72400 44.80800
N  3.62700 1.40200 43.45000
C  4.97400 1.62900 43.54200
C  5.30800 3.06600 43.18500
C  3.84500 3.70000 43.01500
C  2.89800 2.49200 43.10700
C  3.54100 4.92000 43.97200
C  6.19500 3.29100 41.90700
C  5.65200 2.76200 40.56800
H  5.65400 3.72000 39.42000
N  0.66000 0.30000 43.21400
C  0.44100 1.62700 42.87400
C  -0.97100 1.74000 42.40800
C  -1.58900 0.48900 42.65700
C  -0.51900 -0.41200 43.25600
C  -1.52700 3.03500 41.86100
C  -3.04700 0.22400 42.46400
O  -3.77300 1.10600 42.07000
C  -3.61600 -1.08900 42.87700
N  1.68000 -2.64000 43.66200
C  0.32100 -2.75800 43.83000
C  0.05000 -4.05200 44.63200
C  1.38700 -4.64400 44.98800
C  2.34500 -3.66800 44.31100
C  -0.98200 -4.09400 45.71800
C  1.72100 -6.17300 44.66800
C  1.75400 -7.13400 45.85500
N  4.30500 -1.42000 44.31000
C  4.66800 -2.69600 44.70600
C  6.10100 -2.81100 44.94400
C  6.62600 -1.55200 44.59800
C  5.46800 -0.75900 44.26400
C  6.85500 -4.10500 45.42900
C  7.77700 -0.83100 44.51100
O  8.96100 -1.12400 44.73700
C  7.40700 0.57000 43.96900
C  8.05100 1.65700 44.74900
O  8.90700 2.44900 44.35100
O  7.46200 1.75700 45.92700
C  7.63300 3.07900 46.59700
H  1.10700 3.63400 42.83600
H  -1.61400 -2.03100 43.97800
H  4.00600 -4.62200 45.33500
H  5.74100 3.47300 44.09900
H  3.62900 4.03600 42.00100
H  3.38900 5.88300 43.48400
H  4.31100 5.02100 44.73700
H  2.62200 4.69500 44.51400
H  7.16000 2.80500 42.05200
H  6.20500 4.37300 41.77500
H  4.62500 2.41900 40.68900
H  6.26400 1.88900 40.34700
H  -0.69900 3.56700 41.39200
H  -1.95600 3.64100 42.65900
H  -2.34400 2.90200 41.15200
H  -3.53600 -1.18600 43.95900
H  -3.02300 -1.83900 42.35300
H  -4.65800 -1.01400 42.56700
H  -0.35000 -4.81000 43.95900
H  1.44900 -4.53200 46.07000
H  -1.10200 -3.01700 45.83900
H  -0.63100 -4.53000 46.65300
H  -1.86900 -4.62100 45.36700
H  2.61100 -6.15700 44.04000
H  0.91300 -6.60800 44.08000
H  1.08400 -7.98600 45.73900
H  1.54500 -6.56700 46.76200
H  2.75300 -7.57100 45.84600
H  7.24800 -4.67200 44.58500
H  6.36000 -4.80300 46.10400
H  7.69700 -3.67400 45.97100
H  7.88200 0.57000 42.98700
H  7.43900 3.99200 46.03400
H  8.68800 3.22000 46.83000
H  7.18200 3.14400 47.58700
Mg 8.69300 46.86600 26.34900
C  6.72200 46.92100 29.20200
C  11.35700 47.80300 28.33200
C  10.51700 47.07800 23.59200
C  5.75300 46.80600 24.34100
N  8.96600 47.24400 28.54100
C  8.01700 47.18700 29.48800
C  8.49200 47.61500 30.90900
C  9.96400 48.17000 30.52800
C  10.16200 47.73400 29.02800
C  10.03000 49.65800 30.69400
C  8.32100 46.41800 31.87900
C  9.34800 46.24700 33.03100
H  9.14400 45.32900 34.24300
N  10.77600 47.17700 26.01000
C  11.68500 47.54800 26.93600
C  12.99600 47.59600 26.30400
C  12.75000 47.27800 24.94900
C  11.30000 47.21300 24.80900
C  14.29100 47.90400 27.07700
C  13.83400 46.98500 23.82800
O  13.42800 46.78900 22.71200
C  15.34500 46.93800 24.10900
N  8.15600 47.06500 24.23800
C  9.15600 47.13900 23.29200
C  8.56300 47.17900 21.83400
C  7.09100 46.83700 22.08600
C  6.97500 46.89500 23.63100
C  8.85100 48.58800 21.20200
C  6.67800 45.53100 21.42400
C  5.31900 45.37300 20.69800
N  6.67600 46.79800 26.63300
C  5.59800 46.69700 25.77900
C  4.44700 46.47700 26.61500
C  4.83100 46.62400 27.90500
C  6.20600 46.80200 27.92300
C  3.06400 46.15200 26.24100
C  4.36200 46.60400 29.26400
O  3.23900 46.45800 29.78800
C  5.56100 46.81600 30.12700
C  5.57100 45.52200 30.89700
O  5.95300 44.43800 30.45600
O  4.99200 45.68600 32.17200
C  4.93100 44.40700 32.93900
H  12.22800 48.10700 28.91700
H  11.10900 47.02100 22.67700
H  4.85100 46.67500 23.74100
H  7.90800 48.45200 31.29100
H  10.74700 47.77700 31.17600
H  9.76500 49.81800 31.73900
H  9.34000 50.15500 30.01200
H  11.07400 49.96500 30.63200
H  8.28300 45.56700 31.19900
H  7.41800 46.53700 32.47900
H  9.62800 47.27300 33.27300
H  10.20700 45.92600 32.44200
H  14.04300 48.14200 28.11100
H  14.72800 48.84700 26.74900
H  14.96100 47.04500 27.03600
H  15.67500 47.94900 24.35000
H  15.92200 46.65500 23.22900
H  15.55300 46.29900 24.96700
H  9.23400 46.51300 21.29100
H  6.38900 47.60900 21.77000
H  7.97300 49.11700 20.83300
H  9.47300 48.47900 20.31300
H  9.21700 49.33900 21.90200
H  6.49900 44.82000 22.23000
H  7.51000 45.11000 20.86000
H  4.60700 46.07200 21.13600
H  4.87400 44.38700 20.83100
H  5.42800 45.60400 19.63900
H  2.26400 46.70400 26.73200
H  2.94900 45.09000 26.46000
H  2.85700 46.29100 25.18000
H  5.42700 47.60700 30.86400
H  4.76200 43.50900 32.34500
H  4.20700 44.52000 33.74500
H  5.90400 44.39400 33.43000

