158

Mg 0.99800 7.30000 25.59100
C  1.78500 9.13200 28.45600
C  1.20400 4.40700 27.40900
C  0.92000 5.72800 22.71500
C  1.35600 10.34700 23.79200
N  1.32800 6.86900 27.76500
C  1.57200 7.78900 28.80100
C  1.56400 6.97900 30.19500
C  1.58000 5.48400 29.71900
C  1.38100 5.58300 28.20100
C  2.97400 4.74700 30.11900
C  0.43300 7.39600 31.03300
C  0.81500 7.87300 32.42900
H  2.11000 7.47100 33.17900
N  0.88000 5.31700 25.11300
C  0.93500 4.26200 25.97500
C  0.78500 3.06800 25.22300
C  0.78400 3.38500 23.84500
C  0.88100 4.84600 23.85800
C  0.59300 1.70200 25.89500
C  0.64800 2.46600 22.68000
O  0.49900 2.91200 21.54200
C  0.52900 0.91200 22.79300
N  1.06200 7.94200 23.46900
C  1.01600 7.14000 22.45900
C  0.92000 7.78900 21.12800
C  0.66400 9.32400 21.52600
C  1.05300 9.24400 23.02200
C  2.22300 7.54200 20.17900
C  -0.77800 9.95300 21.27700
C  -0.86300 11.39300 20.73600
N  1.45500 9.31600 25.94700
C  1.53300 10.45800 25.14000
C  1.89800 11.66900 25.91600
C  2.00000 11.10300 27.19600
C  1.73300 9.71700 27.19100
C  1.87700 13.21300 25.51900
C  2.19000 11.53200 28.58800
O  2.40100 12.63300 29.10100
C  1.99300 10.22800 29.45000
C  3.08600 10.08600 30.37900
O  4.16400 9.58100 30.14600
O  2.78500 10.55400 31.63900
C  4.05000 10.80200 32.45900
H  1.23900 3.51300 28.03500
H  0.78000 5.19400 21.77300
H  1.55600 11.28100 23.26100
H  2.50700 7.17000 30.70700
H  0.83300 4.84600 30.19000
H  3.64000 5.36300 30.72200
H  3.48700 4.53900 29.18000
H  2.85400 3.88400 30.77400
H  -0.30300 6.59300 30.99900
H  0.07200 8.35000 30.64700
H  -0.01300 7.93900 33.13500
H  1.00200 8.94600 32.41600
H  -0.29500 1.30800 25.40000
H  0.41400 1.78100 26.96700
H  1.41900 1.03300 25.65200
H  1.44300 0.59500 23.29500
H  0.57300 0.44000 21.81100
H  -0.39600 0.63400 23.29900
H  0.08200 7.38700 20.55800
H  1.40400 9.89600 20.96700
H  2.23600 7.93300 19.16200
H  2.49300 6.48600 20.14900
H  2.98100 8.14200 20.68300
H  -1.46100 9.71400 22.09300
H  -1.30100 9.32700 20.55500
H  -1.22300 11.48800 19.71100
H  0.14200 11.81400 20.70800
H  -1.61200 11.85800 21.37700
H  2.88300 13.60400 25.36900
H  1.35900 13.73200 26.32500
H  1.32400 13.43100 24.60500
H  1.07000 10.33900 30.01900
H  4.77200 11.28600 31.80200
H  4.54600 9.88100 32.76400
H  3.91500 11.45500 33.32200
Mg -4.55600 25.72400 25.76800
C  -3.34700 27.06600 28.62300
C  -6.21500 23.32400 27.85300
C  -6.01300 24.28500 23.07600
C  -2.70700 27.67400 23.87500
N  -4.88800 25.30600 28.10100
C  -4.29900 26.05800 28.98200
C  -4.77000 25.65200 30.33800
C  -5.58900 24.30300 30.12000
C  -5.55600 24.29600 28.62800
C  -5.00300 22.98500 30.77000
C  -5.58700 26.80500 31.02500
C  -5.69400 27.00900 32.57900
H  -5.28600 25.85300 33.56100
N  -5.84000 24.06800 25.47900
C  -6.29100 23.19200 26.42100
C  -7.10700 22.18400 25.79600
C  -7.08700 22.40500 24.35500
C  -6.29000 23.62000 24.22600
C  -7.84600 21.01900 26.58800
C  -7.62900 21.51300 23.28400
O  -7.43000 21.67800 22.06800
C  -8.55700 20.32900 23.62100
N  -4.30400 25.81700 23.71400
C  -5.13200 25.40300 22.84500
C  -5.06700 26.05700 21.47300
C  -3.93300 27.09700 21.66400
C  -3.64300 26.86800 23.19800
C  -4.71000 24.94700 20.29800
C  -4.18100 28.44700 21.20100
C  -4.70500 28.62300 19.78700
N  -3.26200 27.10000 26.09900
C  -2.52600 27.80700 25.24900
C  -1.73300 28.79400 25.99800
C  -1.96600 28.44200 27.32700
C  -2.96100 27.49200 27.32200
C  -0.89000 29.91300 25.40000
C  -1.72100 28.84800 28.63400
O  -1.08800 29.84000 29.04800
C  -2.61200 28.03000 29.53300
C  -1.80500 27.28900 30.43800
O  -1.10200 26.42200 30.08600
O  -2.01800 27.69300 31.70700
C  -1.36700 26.90300 32.77000
H  -6.77400 22.60300 28.45300
H  -6.54500 23.93200 22.19000
H  -2.20900 28.33600 23.16300
H  -3.99200 25.42000 31.06500
H  -6.57200 24.30100 30.59100
H  -4.69300 23.14800 31.80200
H  -4.06400 22.72100 30.28300
H  -5.73900 22.18200 30.75700
H  -6.59100 26.76200 30.60200
H  -5.18000 27.75300 30.67400
H  -6.73400 27.22600 32.82300
H  -5.17500 27.93600 32.81900
H  -7.83900 20.12900 25.95900
H  -8.87100 21.30200 26.82700
H  -7.29200 20.89100 27.51800
H  -7.81900 19.57700 23.90100
H  -9.16000 20.09900 22.74300
H  -9.25600 20.65600 24.39000
H  -6.03700 26.51800 21.28200
H  -3.04900 26.70200 21.16300
H  -4.04000 24.21200 20.74300
H  -4.21800 25.42000 19.44900
H  -5.61800 24.48400 19.91100
H  -3.24400 29.00200 21.25400
H  -4.94100 28.92300 21.82000
H  -4.92200 27.70000 19.25000
H  -3.96800 29.20400 19.23300
H  -5.58800 29.26200 19.75300
H  -1.17500 30.04600 24.35600
H  0.17400 29.68200 25.44000
H  -1.04900 30.83800 25.95500
H  -3.26600 28.73700 30.04400
H  -0.45500 27.39800 33.10500
H  -1.19400 25.87500 32.45100
H  -1.95100 26.76300 33.67900

