158

Mg -1.57500 17.64900 26.29900
C  -2.05500 15.07100 28.71500
C  -2.60000 19.88300 28.60100
C  -1.44900 19.79100 23.84400
C  -1.29300 14.94100 23.86200
N  -2.32000 17.39800 28.45100
C  -2.21000 16.33000 29.30000
C  -2.59100 16.76900 30.67100
C  -2.91900 18.32600 30.54800
C  -2.61200 18.58400 29.11900
C  -4.29500 18.81300 31.07800
C  -1.59400 16.39600 31.74800
C  -1.49800 17.20700 33.04400
H  -1.24000 16.59600 34.43800
N  -1.87200 19.55900 26.23200
C  -2.25700 20.33300 27.29300
C  -2.12800 21.75400 26.83900
C  -1.69500 21.79300 25.50700
C  -1.69400 20.35500 25.07600
C  -2.44200 22.90800 27.71200
C  -1.26800 23.02100 24.69500
O  -0.97200 22.96300 23.47800
C  -1.06400 24.27500 25.31100
N  -1.37500 17.39500 24.11400
C  -1.35300 18.46500 23.33300
C  -1.19700 18.12600 21.82000
C  -0.86600 16.61700 21.91600
C  -1.21800 16.25500 23.34900
C  -2.44400 18.42800 20.89900
C  0.58000 16.22200 21.56300
C  1.70800 17.08500 22.15300
N  -1.69600 15.41100 26.17900
C  -1.58600 14.52800 25.15500
C  -1.66500 13.19500 25.75500
C  -1.77800 13.44300 27.08500
C  -1.93500 14.75500 27.29600
C  -1.40700 11.84700 25.17500
C  -1.76200 12.66600 28.27700
O  -1.64200 11.39600 28.43300
C  -1.92800 13.73600 29.36000
C  -0.70200 13.65000 30.23900
O  0.35600 14.31100 30.11300
O  -0.85000 12.76500 31.27600
C  0.32800 12.66800 32.13400
H  -2.78300 20.67800 29.32700
H  -1.35600 20.55900 23.07200
H  -1.11100 14.11600 23.17000
H  -3.60500 16.39000 30.79500
H  -2.14500 18.92100 31.03300
H  -4.66300 19.55800 30.37200
H  -4.33800 19.39500 31.99900
H  -5.01700 18.05700 31.38800
H  -0.58100 16.57800 31.38800
H  -1.88400 15.36000 31.92600
H  -2.38800 17.83600 33.08900
H  -0.68100 17.91600 32.91400
H  -2.97600 22.61300 28.61500
H  -3.02800 23.65900 27.18300
H  -1.47000 23.33900 27.95400
H  -0.44000 24.23700 26.20300
H  -2.03200 24.72100 25.54100
H  -0.52800 24.91800 24.61200
H  -0.29300 18.65200 21.51300
H  -1.56000 16.02800 21.31700
H  -2.76600 17.55200 20.33600
H  -2.24900 19.19700 20.15100
H  -3.16800 18.70200 21.66700
H  0.66800 16.42000 20.49500
H  0.68300 15.14700 21.71300
H  2.22900 17.49300 21.28700
H  2.38900 16.42900 22.69600
H  1.48400 17.93500 22.79800
H  -1.09400 11.94600 24.13500
H  -2.39900 11.40000 25.11400
H  -0.75800 11.09200 25.61900
H  -2.90300 13.54800 29.81100
H  0.14000 13.37000 32.94700
H  1.27800 12.84800 31.63100
H  0.34800 11.67100 32.57500
Mg 44.03700 3.31300 47.56600
C  42.15800 6.28900 47.43400
C  41.03600 1.55300 47.62900
C  45.85300 0.56800 47.32800
C  46.92500 5.30300 47.00000
N  41.89100 3.90400 47.35700
C  41.34200 5.16000 47.49100
C  39.78100 5.11300 47.46900
C  39.53200 3.55000 47.63600
C  40.92600 2.96400 47.70600
C  38.63300 3.08100 48.77000
C  39.05900 5.69300 46.31200
C  39.62100 5.14200 44.98400
H  40.05000 6.32200 43.99800
N  43.49400 1.27500 47.45800
C  42.19200 0.75600 47.63100
C  42.31000 -0.67300 47.49300
C  43.65900 -1.02500 47.25500
C  44.42500 0.25100 47.33300
C  41.13000 -1.55300 47.67200
C  44.17700 -2.42000 46.98600
O  43.39300 -3.40600 47.01700
C  45.62200 -2.60600 46.65900
N  46.03800 3.02200 47.33900
C  46.56900 1.76000 47.27300
C  48.13700 1.70300 47.07300
C  48.41400 3.21100 46.90700
C  47.01600 3.91400 47.11600
C  48.83700 0.96300 48.23100
C  49.12600 3.49300 45.48100
C  50.63300 3.77000 45.51000
N  44.51000 5.33600 47.37400
C  45.70100 5.98300 47.11500
C  45.47700 7.38600 47.17100
C  44.12300 7.54200 47.28400
C  43.53800 6.28500 47.37200
C  46.53800 8.41900 46.96100
C  43.04000 8.54800 47.31000
O  43.06400 9.77900 47.34300
C  41.72100 7.74200 47.52800
C  41.11700 8.15300 48.87700
O  41.62900 8.00600 49.99800
O  39.79500 8.54200 48.66000
C  39.01100 8.69000 49.85600
H  40.10500 0.98800 47.71400
H  46.49600 -0.31200 47.28200
H  47.87200 5.80700 46.79800
H  39.36000 5.54600 48.37700
H  39.03300 3.14500 46.75600
H  39.36700 2.93800 49.56300
H  38.10200 2.13300 48.69300
H  37.98700 3.89900 49.08700
H  39.20000 6.77300 46.35600
H  38.00300 5.49000 46.49400
H  38.95500 4.42000 44.51200
H  40.48600 4.48200 45.06400
H  40.97600 -2.14500 46.77000
H  40.16700 -1.05400 47.77900
H  41.26100 -2.28100 48.47300
H  46.21400 -2.44200 47.55900
H  45.77700 -1.82300 45.91700
H  45.74000 -3.58600 46.19800
H  48.34000 1.21400 46.12100
H  49.14700 3.60100 47.61400
H  49.70700 1.54200 48.54100
H  49.15200 -0.04400 47.95700
H  48.14900 0.82100 49.06500
H  48.65000 4.39700 45.10100
H  48.96500 2.67900 44.77400
H  51.05300 3.30300 46.40100
H  50.85500 4.83700 45.46800
H  51.02100 3.22600 44.64900
H  47.38800 8.25800 47.62400
H  45.99500 9.29400 47.31800
H  46.91100 8.48200 45.93900
H  41.05700 7.99000 46.70100
H  37.98000 8.96400 49.63200
H  39.33500 9.40700 50.61000
H  38.99200 7.72500 50.36100

