158

Mg 47.50800 24.95600 27.91600
C  48.32700 27.05200 30.78700
C  46.71800 22.48000 30.20000
C  46.94200 23.02600 25.41100
C  48.78300 27.46200 25.85600
N  47.60100 24.74100 30.27900
C  47.86800 25.76500 31.21900
C  47.69500 25.29400 32.68100
C  47.09500 23.82100 32.50700
C  47.15800 23.65800 30.93600
C  47.97500 22.67200 33.12300
C  46.68000 26.17500 33.47600
C  46.16800 25.60600 34.82800
H  45.93200 26.56600 35.95700
N  46.86200 22.98000 27.82500
C  46.59500 22.14400 28.84600
C  46.11200 20.88400 28.27700
C  46.03400 21.05900 26.85100
C  46.55900 22.43900 26.61300
C  45.84200 19.59600 29.04700
C  45.51900 20.10100 25.79100
O  45.49000 20.30800 24.57700
C  44.87000 18.80800 26.24300
N  47.69800 25.29200 25.91500
C  47.45400 24.25200 25.08400
C  47.65200 24.67400 23.64800
C  47.96700 26.20800 23.78400
C  48.27600 26.32300 25.23400
C  48.75400 23.93800 22.86500
C  46.71800 27.06200 23.41300
C  46.91700 28.24500 22.50300
N  48.48000 26.82000 28.22800
C  48.80700 27.73300 27.24600
C  49.24400 28.95000 27.91500
C  49.02300 28.74700 29.25600
C  48.49300 27.42800 29.45300
C  49.71400 30.14300 27.09200
C  49.07500 29.39100 30.53900
O  49.55000 30.43700 30.89800
C  48.52400 28.40300 31.65500
C  49.46000 28.28500 32.79100
O  50.44400 27.60200 32.84500
O  49.11600 29.25300 33.70200
C  49.63000 28.98500 35.08000
H  46.42400 21.71600 30.92300
H  46.81200 22.41000 24.51900
H  49.18200 28.21300 25.17100
H  48.63000 25.24500 33.24000
H  46.05100 23.80100 32.82200
H  48.68800 23.02700 33.86600
H  48.62500 22.28600 32.33800
H  47.33100 21.96600 33.64700
H  45.83000 26.33600 32.81300
H  47.25500 27.08700 33.63900
H  46.82100 24.80000 35.16400
H  45.19000 25.16400 34.63900
H  44.77300 19.41400 29.15400
H  46.33100 19.58400 30.02100
H  46.39300 18.78100 28.57700
H  45.47200 18.08900 26.80000
H  44.58100 18.21100 25.37900
H  43.99900 18.97900 26.87600
H  46.74700 24.47700 23.07400
H  48.82600 26.53200 23.19700
H  49.58400 24.54800 22.50800
H  48.24700 23.46700 22.02400
H  49.13300 23.10300 23.45400
H  46.31600 27.40300 24.36700
H  45.99000 26.40800 22.93300
H  46.51400 28.08600 21.50300
H  47.99200 28.41500 22.43800
H  46.39400 29.15300 22.80400
H  50.65000 29.83300 26.62700
H  49.85400 30.96500 27.79400
H  49.00100 30.41200 26.31200
H  47.56100 28.77200 32.00800
H  50.07200 29.92300 35.41600
H  50.43700 28.25400 35.08900
H  48.89900 28.62200 35.80300
Mg -2.03000 35.48200 26.73600
C  -3.72400 33.72600 29.31700
C  -0.84900 37.66100 29.16900
C  -0.48000 37.03100 24.38200
C  -3.62400 33.22500 24.48100
N  -2.24200 35.66700 28.97100
C  -2.90500 34.79500 29.81100
C  -2.82800 35.19800 31.27200
C  -2.03100 36.53700 31.11100
C  -1.71300 36.67600 29.69300
C  -2.69000 37.75500 31.74000
C  -1.99600 34.18000 32.12700
C  -1.85500 34.54000 33.53800
H  -2.66500 33.64000 34.44900
N  -0.84700 37.17800 26.76400
C  -0.46500 37.96600 27.86300
C  0.40300 39.04100 27.37600
C  0.54100 38.86800 25.97000
C  -0.37400 37.64900 25.61000
C  1.07700 40.03000 28.26700
C  1.33500 39.57400 24.84900
O  1.47100 39.11300 23.74100
C  2.20800 40.78600 25.30800
N  -2.06700 35.19900 24.78300
C  -1.16100 35.85800 24.07600
C  -0.97000 35.15800 22.64200
C  -2.00300 33.95200 22.63200
C  -2.58700 34.09400 24.02500
C  -1.09400 36.21300 21.50500
C  -1.31500 32.54100 22.36100
C  -2.14000 31.59300 21.40200
N  -3.48800 33.90400 26.82300
C  -4.03200 33.11600 25.83800
C  -4.98900 32.20200 26.41600
C  -4.85100 32.42300 27.80700
C  -3.97000 33.41200 28.00300
C  -5.77900 31.17500 25.67900
C  -5.23000 31.91400 29.13600
O  -5.78900 30.87000 29.43800
C  -4.63300 32.87500 30.15500
C  -5.71200 33.67100 30.75400
O  -6.55700 34.17500 30.04900
O  -5.77300 33.54600 32.13000
C  -6.91600 34.20400 32.81200
H  -0.58000 38.38800 29.93700
H  0.05600 37.51600 23.56300
H  -3.94300 32.46200 23.76800
H  -3.82000 35.36000 31.69500
H  -1.05300 36.37900 31.56700
H  -3.72500 37.52200 31.98900
H  -2.64600 38.64700 31.11600
H  -2.31500 38.06800 32.71400
H  -0.98200 34.32200 31.75300
H  -2.47300 33.20100 32.10900
H  -2.08000 35.57800 33.78200
H  -0.80500 34.48300 33.82400
H  0.55200 40.98000 28.16800
H  2.09400 40.17500 27.90200
H  1.15200 39.82500 29.33400
H  2.42500 41.41100 24.44200
H  3.07200 40.40100 25.84900
H  1.63300 41.38600 26.01300
H  0.08300 34.88100 22.70300
H  -2.63600 34.21100 21.78400
H  -1.63500 37.09400 21.85200
H  -1.69400 35.84400 20.67400
H  -0.12200 36.51900 21.11700
H  -1.03500 32.08800 23.31200
H  -0.36000 32.73500 21.87300
H  -1.54700 31.10000 20.63100
H  -2.98100 32.12400 20.95600
H  -2.53100 30.79900 22.03700
H  -5.67300 31.32900 24.60500
H  -6.73900 31.19700 26.19400
H  -5.40400 30.18400 25.93800
H  -4.17500 32.23700 30.91100
H  -7.77800 34.15400 32.14700
H  -6.61100 35.22800 33.02800
H  -7.11000 33.63500 33.72200

