158

Mg -1.66300 16.68400 27.16500
C  -2.00200 14.39900 29.78600
C  -2.70200 19.13800 29.27900
C  -1.81900 18.74100 24.53000
C  -1.44200 14.01300 25.04500
N  -2.08600 16.74700 29.32000
C  -2.00600 15.75800 30.24300
C  -2.06200 16.28700 31.71900
C  -2.40300 17.83800 31.50700
C  -2.43900 17.87200 29.92400
C  -3.71800 18.38000 32.13300
C  -0.77700 15.97600 32.54700
C  -0.44900 17.01300 33.65900
H  0.26700 16.48000 34.96700
N  -2.01800 18.72700 26.95800
C  -2.44500 19.59400 27.96200
C  -2.55200 20.94400 27.41000
C  -2.10000 20.82300 26.05400
C  -1.97000 19.37900 25.77500
C  -2.93500 22.16600 28.31600
C  -1.91100 21.86600 24.92200
O  -1.43100 21.57200 23.83600
C  -2.36700 23.31000 25.07400
N  -1.74800 16.40900 25.05800
C  -1.69400 17.39000 24.17400
C  -1.60400 16.93000 22.72600
C  -1.53900 15.42700 22.86700
C  -1.49100 15.26100 24.41300
C  -2.75500 17.44100 21.73500
C  -0.54500 14.61200 22.04300
C  0.88000 14.65300 22.68300
N  -1.71700 14.60200 27.30300
C  -1.53500 13.63600 26.34900
C  -1.57800 12.35300 26.87600
C  -1.80200 12.59000 28.25200
C  -1.90200 13.94300 28.48700
C  -1.50700 11.03100 26.17900
C  -1.98700 11.96000 29.52100
O  -2.00000 10.76300 29.91200
C  -2.22600 13.12600 30.54600
C  -1.49400 12.89900 31.79100
O  -0.32700 12.57000 31.74300
O  -2.22900 13.02800 32.96800
C  -1.48500 12.67700 34.22400
H  -2.74800 19.91700 30.04200
H  -1.91500 19.38400 23.65400
H  -1.12200 13.13200 24.48400
H  -2.82200 15.79500 32.32600
H  -1.54700 18.41800 31.85300
H  -4.30100 18.85400 31.34400
H  -3.42700 19.17500 32.81900
H  -4.37800 17.65700 32.61200
H  -0.00200 15.89000 31.78400
H  -0.97500 15.10400 33.17000
H  -1.45700 17.35000 33.90200
H  0.04300 17.83500 33.14000
H  -3.97700 22.18500 28.63900
H  -2.64300 23.05200 27.75200
H  -2.31000 22.12600 29.20800
H  -1.74800 23.74200 25.86100
H  -3.35900 23.17900 25.50700
H  -2.37200 23.73900 24.07200
H  -0.68200 17.38600 22.36500
H  -2.57600 15.14300 22.68300
H  -3.51400 16.70300 21.47400
H  -2.29800 17.60600 20.76000
H  -3.21500 18.32600 22.17400
H  -0.58500 15.10500 21.07100
H  -0.87600 13.57800 21.94800
H  1.60800 15.02000 21.95900
H  1.14000 13.62800 22.94800
H  0.96600 15.28600 23.56600
H  -1.84400 11.01900 25.14300
H  -2.07300 10.28200 26.73300
H  -0.44900 10.76800 26.16000
H  -3.27400 13.25700 30.81400
H  -2.26200 12.33900 34.91000
H  -0.97400 13.52100 34.68800
H  -0.85900 11.82200 33.97200
Mg 8.76100 47.91800 25.17900
C  6.82500 48.08800 28.12300
C  11.38300 49.37900 26.99100
C  10.53100 48.08300 22.35400
C  5.95600 47.18600 23.34600
N  9.10600 48.47500 27.35600
C  8.17400 48.40000 28.38900
C  8.73600 48.92000 29.68500
C  9.85700 49.78100 29.18500
C  10.16400 49.16400 27.77200
C  9.41200 51.29600 29.05300
C  9.07100 47.79500 30.68400
C  8.61400 48.04200 32.14200
H  8.44900 46.86400 33.22600
N  10.68500 48.50100 24.79600
C  11.66400 48.96200 25.66800
C  12.98600 49.06000 24.98200
C  12.80400 48.65500 23.61700
C  11.29900 48.37100 23.57500
C  14.27500 49.53000 25.62800
C  13.64100 48.42200 22.45800
O  13.27400 47.88800 21.43400
C  15.10000 48.74900 22.64800
N  8.38500 47.53800 23.16400
C  9.22700 47.78100 22.14700
C  8.67100 47.42600 20.74900
C  7.23600 46.92500 21.17800
C  7.19300 47.26500 22.65200
C  8.86800 48.48900 19.66200
C  7.10100 45.40200 20.93500
C  5.75100 45.01500 20.16600
N  6.78200 47.59900 25.58600
C  5.75600 47.43200 24.74700
C  4.54100 47.39300 25.50800
C  4.89500 47.54400 26.85500
C  6.30300 47.70800 26.84000
C  3.14100 47.16100 24.99400
C  4.42700 47.61500 28.18200
O  3.27700 47.47900 28.66400
C  5.68000 47.90300 29.09000
C  5.78200 46.63900 29.92800
O  6.26000 45.58200 29.45400
O  5.57700 46.86400 31.25500
C  5.50200 45.62400 32.03000
H  12.12900 49.96400 27.53200
H  11.03900 47.97500 21.39400
H  5.02300 46.98400 22.81600
H  7.91300 49.50300 30.09700
H  10.82400 49.63400 29.66600
H  10.04300 51.89300 29.71000
H  8.35500 51.54500 29.15400
H  9.58100 51.57300 28.01200
H  10.15700 47.71000 30.70200
H  8.67800 46.83100 30.36100
H  7.66100 48.57000 32.15000
H  9.36900 48.72000 32.54000
H  14.09900 49.80300 26.66900
H  14.69900 50.43300 25.18900
H  14.92400 48.65500 25.60700
H  15.46400 48.12400 23.46300
H  15.24200 49.81500 22.82800
H  15.61200 48.55800 21.70500
H  9.26300 46.54000 20.52100
H  6.52800 47.56900 20.65600
H  8.02500 48.78300 19.03600
H  9.78900 48.28600 19.11600
H  9.10000 49.48400 20.03900
H  7.06500 44.82800 21.86100
H  7.88600 45.06000 20.26000
H  5.17500 45.85500 19.77800
H  5.11600 44.46800 20.86200
H  5.93200 44.33800 19.33100
H  3.26100 47.52100 23.97200
H  2.51500 47.96300 25.38800
H  2.72000 46.15600 25.02600
H  5.54600 48.69400 29.82800
H  6.50000 45.33500 32.36000
H  5.07400 44.78300 31.48400
H  4.86700 45.99400 32.83500

