158

Mg 0.85500 7.78900 26.19900
C  1.17700 9.25400 29.35800
C  0.47300 4.79100 27.64400
C  1.13700 6.39700 23.13500
C  1.64900 10.87300 24.82500
N  0.93600 7.06900 28.25000
C  0.77400 7.84200 29.39900
C  0.52800 7.00000 30.66300
C  0.48400 5.54500 30.06900
C  0.57500 5.85400 28.57000
C  1.57600 4.61000 30.67000
C  -0.81400 7.47700 31.40400
C  -0.77700 7.81000 32.91400
H  0.24500 7.23700 33.79100
N  0.72700 5.84400 25.50400
C  0.53500 4.76700 26.26100
C  0.54000 3.59800 25.42800
C  0.73500 4.00800 24.11300
C  0.86400 5.45700 24.19500
C  0.28000 2.15900 25.99500
C  0.77100 3.03800 22.81500
O  0.94300 3.52400 21.71200
C  0.61600 1.57700 22.79400
N  1.12600 8.58900 24.20800
C  1.29800 7.80700 23.14600
C  1.66600 8.62100 21.87400
C  1.80700 10.08500 22.45400
C  1.57200 9.81600 23.90900
C  2.98200 8.12100 21.14100
C  0.84100 11.13500 21.90400
C  -0.71000 11.02300 22.13500
N  1.32300 9.69600 26.89700
C  1.55100 10.82800 26.22800
C  1.66000 11.93300 27.10800
C  1.53200 11.39000 28.38000
C  1.34200 10.05200 28.19800
C  2.09300 13.31100 26.74100
C  1.74000 11.59300 29.78200
O  2.08500 12.55900 30.38700
C  1.17700 10.30300 30.49700
C  2.10500 10.08200 31.66500
O  3.29600 9.68600 31.71200
O  1.53300 10.71500 32.71900
C  2.30500 11.10300 33.92800
H  0.41000 3.88400 28.24900
H  1.27000 5.99100 22.13000
H  1.90900 11.88500 24.50800
H  1.44700 7.25400 31.19200
H  -0.48400 5.13500 30.35500
H  2.48600 4.36500 30.12200
H  1.03800 3.75700 31.08400
H  1.87700 4.93900 31.66500
H  -1.57100 6.69100 31.41300
H  -1.18500 8.32300 30.82600
H  -1.77000 7.52600 33.26400
H  -0.56000 8.87800 32.92500
H  0.94900 1.56000 25.37800
H  -0.77000 1.93200 25.81300
H  0.62300 2.15800 27.03000
H  1.39100 0.97400 23.26800
H  0.58900 1.37300 21.72400
H  -0.35400 1.37500 23.24800
H  0.83500 8.56700 21.17100
H  2.78200 10.56700 22.37900
H  3.61100 7.71700 21.93400
H  3.57000 8.90800 20.66800
H  2.73800 7.42300 20.34100
H  0.99700 11.26900 20.83300
H  1.17400 12.11200 22.25400
H  -0.88500 10.08800 22.66700
H  -1.18400 10.96500 21.15500
H  -1.15400 11.87800 22.64400
H  2.80100 13.59200 27.52100
H  1.11200 13.75000 26.56100
H  2.67300 13.48400 25.83500
H  0.12200 10.43900 30.73300
H  2.22200 12.13600 34.26500
H  3.37700 10.91200 33.89400
H  1.86000 10.47500 34.70000
Mg 0.93300 43.54200 25.76700
C  3.08900 43.36500 28.43200
C  -1.68300 43.52700 28.02800
C  -1.04600 42.73900 23.32200
C  3.57600 43.96300 23.65700
N  0.73200 43.41900 27.97200
C  1.75700 43.31000 28.85000
C  1.29300 43.39200 30.29700
C  -0.30400 43.23700 30.16600
C  -0.38100 43.45300 28.64200
C  -0.94600 41.79900 30.50700
C  1.67900 44.66700 31.08300
C  1.76000 44.68200 32.65900
H  1.27100 43.46700 33.39200
N  -1.07000 43.31500 25.64300
C  -1.99600 43.38600 26.64100
C  -3.29700 43.16000 26.11400
C  -3.23700 42.77600 24.71400
C  -1.76600 42.92400 24.48300
C  -4.50100 43.12200 27.05800
C  -4.32800 42.22900 23.82400
O  -4.06700 41.79700 22.71700
C  -5.75000 42.06300 24.29500
N  1.22900 43.16300 23.67500
C  0.22400 42.89800 22.85900
C  0.81000 42.76800 21.40000
C  2.13000 43.66800 21.59900
C  2.35000 43.60700 23.07300
C  1.12100 41.24100 20.96800
C  2.02900 45.12000 21.23100
C  3.31000 45.72800 20.48100
N  2.92200 43.59000 25.95700
C  3.94300 43.85300 25.05100
C  5.26700 43.78900 25.65000
C  4.91400 43.49900 26.97500
C  3.57000 43.45500 27.11800
C  6.59800 43.89600 24.92900
C  5.49700 43.29800 28.26800
O  6.65000 43.10600 28.64900
C  4.25300 43.39200 29.31500
C  4.39000 42.17600 30.19500
O  4.06700 41.04700 29.82200
O  5.01000 42.43900 31.38400
C  5.07300 41.26900 32.24400
H  -2.43900 43.70200 28.79600
H  -1.67800 42.44000 22.48300
H  4.42800 44.19800 23.01600
H  1.83500 42.57400 30.77300
H  -0.86400 44.02000 30.67800
H  -1.56400 41.42900 29.68900
H  -1.63500 41.89200 31.34700
H  -0.08800 41.15600 30.70300
H  0.95100 45.45700 30.90000
H  2.68600 44.95600 30.78100
H  1.36300 45.60600 33.07800
H  2.79600 44.76100 32.98800
H  -5.24400 43.74000 26.55400
H  -4.36100 43.60100 28.02700
H  -4.89100 42.11100 27.17400
H  -5.79200 41.31000 25.08200
H  -6.27500 41.67800 23.42100
H  -6.10600 43.00900 24.70500
H  0.15400 43.23200 20.66400
H  2.91000 43.18400 21.01100
H  2.18700 41.11000 20.78300
H  0.48500 41.02600 20.10900
H  0.88700 40.52500 21.75600
H  1.65800 45.69900 22.07700
H  1.29100 45.21900 20.43600
H  3.24500 46.78900 20.72100
H  3.41500 45.49600 19.42100
H  4.19000 45.30200 20.96300
H  7.42100 43.56900 25.56500
H  6.69100 44.90700 24.53400
H  6.53900 43.27800 24.03300
H  4.50300 44.24000 29.95200
H  5.65600 40.54000 31.68200
H  4.04500 40.96100 32.43200
H  5.62500 41.61800 33.11700

