158

Mg 41.64800 8.43600 28.84300
C  43.01100 9.91400 31.62400
C  39.26200 6.95300 31.00900
C  40.20400 6.92000 26.26100
C  44.20100 9.62000 26.79400
N  41.13800 8.46700 30.99500
C  41.86200 9.11500 31.92600
C  41.27200 8.84900 33.35100
C  40.33700 7.65300 33.14300
C  40.23100 7.68200 31.67400
C  40.77800 6.21400 33.70000
C  40.63700 10.11500 34.00600
C  40.84700 10.17600 35.49400
H  40.68900 11.52500 36.27200
N  39.94700 7.13000 28.62800
C  39.11900 6.63600 29.61500
C  38.10800 5.74300 28.98000
C  38.32200 5.72500 27.54500
C  39.50200 6.63900 27.39900
C  36.96400 4.97900 29.91400
C  37.50700 5.05600 26.43500
O  37.73000 5.25900 25.22100
C  36.32900 4.17300 26.86500
N  42.23900 8.13500 26.83800
C  41.42000 7.58500 25.92800
C  42.01800 7.54500 24.54400
C  43.13400 8.62700 24.69100
C  43.25200 8.82600 26.16500
C  42.40700 6.12600 24.02100
C  42.86100 10.02900 24.01600
C  42.10100 11.14800 24.77000
N  43.21100 9.62900 29.16000
C  44.20200 9.98000 28.21100
C  45.17000 10.80100 28.95300
C  44.63500 10.90900 30.26500
C  43.58100 9.98700 30.36000
C  46.32700 11.54000 28.35200
C  44.85800 11.42500 31.60300
O  45.72400 12.12900 32.10500
C  43.83100 10.67800 32.55400
C  44.42700 9.86400 33.65300
O  44.95400 8.79600 33.47200
O  44.26800 10.51100 34.89100
C  44.75500 9.80400 36.11700
H  38.52000 6.44900 31.63100
H  39.71600 6.47600 25.39100
H  44.95900 10.07400 26.15200
H  42.04500 8.50800 34.03900
H  39.40100 7.93300 33.62700
H  41.30700 5.56300 33.00500
H  39.98500 5.66200 34.20500
H  41.53300 6.47700 34.44100
H  39.55600 10.11900 33.86600
H  41.15000 11.01600 33.66900
H  41.82900 9.80300 35.78700
H  40.12600 9.43000 35.82800
H  36.06900 5.60000 29.91700
H  37.19900 4.82300 30.96700
H  36.71100 4.01500 29.47400
H  36.75300 3.46900 27.58100
H  35.94800 3.73600 25.94200
H  35.62300 4.88300 27.29600
H  41.25700 7.90900 23.85300
H  44.00600 8.10600 24.29600
H  41.75700 5.42800 24.54800
H  43.42800 5.90400 24.33300
H  42.27900 6.08000 22.93900
H  42.37500 9.74800 23.08100
H  43.81100 10.39800 23.62700
H  41.72800 10.84400 25.74800
H  41.20600 11.30900 24.17000
H  42.64700 12.09000 24.82200
H  47.24400 11.04500 28.67000
H  46.12300 12.54100 28.73100
H  46.28400 11.55400 27.26300
H  43.42200 11.58600 32.99900
H  44.18000 10.10200 36.99400
H  45.82700 9.85200 36.30900
H  44.43200 8.76700 36.02300
Mg 16.14000 51.77400 26.72700
C  18.09900 50.61400 29.26500
C  13.60300 52.53700 28.85300
C  14.33500 52.61000 23.95100
C  18.50200 50.50100 24.46500
N  16.00200 51.53000 28.84400
C  16.86600 51.12100 29.72500
C  16.37100 51.27400 31.20500
C  14.87700 51.54100 30.97400
C  14.80500 51.95800 29.46900
C  14.01400 50.24800 31.18100
C  17.20000 52.41400 31.84700
C  17.40300 52.51500 33.27000
H  16.30500 51.84300 34.15100
N  14.25600 52.57500 26.45300
C  13.33400 52.80400 27.44400
C  12.11500 53.35900 26.83700
C  12.37200 53.50600 25.45000
C  13.66300 52.89900 25.23900
C  10.91700 53.79900 27.66400
C  11.51600 54.07900 24.36200
O  11.81900 54.07200 23.16800
C  10.18400 54.73700 24.65800
N  16.45500 51.68500 24.54200
C  15.54600 51.98900 23.62700
C  16.01900 52.04200 22.21000
C  17.38200 51.30300 22.37600
C  17.48900 51.20000 23.89100
C  14.96100 51.60200 21.15800
C  18.60300 52.00100 21.57200
C  18.87900 51.45200 20.21300
N  17.96400 50.77700 26.83700
C  18.80600 50.32900 25.82000
C  19.90900 49.61400 26.39500
C  19.70500 49.77000 27.72200
C  18.53900 50.49600 27.96100
C  20.99700 48.91600 25.63500
C  20.24800 49.46500 29.00700
O  21.31600 48.88200 29.29500
C  19.23400 50.04000 30.06800
C  18.84900 48.93300 31.01900
O  18.59900 47.82200 30.69500
O  18.81800 49.39000 32.31800
C  18.66500 48.37600 33.38700
H  12.74800 52.72500 29.50500
H  13.81000 52.98600 23.07000
H  19.23300 50.23100 23.70000
H  16.53600 50.34900 31.75800
H  14.60500 52.34500 31.65800
H  13.22000 50.44200 31.90300
H  14.55600 49.31700 31.35200
H  13.49800 50.04900 30.24200
H  16.78400 53.37500 31.54600
H  18.23300 52.32600 31.51000
H  17.43100 53.55600 33.59400
H  18.35400 52.07900 33.57600
H  10.09800 53.15200 27.34800
H  10.64500 54.84000 27.49300
H  10.96700 53.62400 28.73900
H  10.30300 55.62300 25.28200
H  9.56000 54.02200 25.19400
H  9.72800 55.09200 23.73300
H  16.24400 53.08200 21.97300
H  17.32400 50.29000 21.97900
H  15.51800 50.94800 20.48600
H  14.75700 52.44800 20.50200
H  14.11100 51.10300 21.62200
H  19.41500 51.87600 22.28900
H  18.52900 53.08500 21.48200
H  18.20000 50.68900 19.83300
H  19.88200 51.03600 20.30600
H  18.82900 52.32900 19.56600
H  21.62200 49.64600 25.12000
H  20.52800 48.25400 24.90700
H  21.53400 48.16900 26.22000
H  19.70300 50.82600 30.66000
H  18.12200 48.83100 34.21500
H  19.64900 48.02400 33.69400
H  18.12700 47.56700 32.89300

