158

Mg 35.86800 2.14100 30.76800
C  33.23500 3.30300 32.85500
C  37.73900 1.84100 33.57100
C  38.44200 1.45600 28.75300
C  33.82400 2.52000 28.07800
N  35.47200 2.64900 32.95400
C  34.39200 3.06900 33.58800
C  34.48800 2.90100 35.08100
C  36.01500 2.82300 35.32400
C  36.44800 2.37600 33.85000
C  36.69000 4.18700 35.83300
C  33.69800 1.70300 35.62000
C  32.73800 2.13800 36.74500
H  33.40600 3.11800 37.68900
N  37.86900 1.83600 31.15200
C  38.37000 1.58700 32.37600
C  39.71600 1.02700 32.23500
C  40.01300 0.97800 30.82200
C  38.75500 1.43800 30.13000
C  40.71000 0.67100 33.32000
C  41.24800 0.61900 30.11900
O  41.42800 0.58400 28.94000
C  42.51000 0.24400 30.95700
N  36.16100 2.20100 28.68200
C  37.33000 1.86900 28.05500
C  37.21300 1.90100 26.45400
C  35.61400 1.98800 26.26500
C  35.16800 2.25700 27.72900
C  37.93200 3.07200 25.75400
C  34.96100 0.67800 25.61700
C  34.05600 0.87800 24.38100
N  33.91800 2.78500 30.44000
C  33.20300 2.80800 29.24300
C  31.87100 3.14700 29.53800
C  31.81200 3.37400 30.95900
C  33.09200 3.10100 31.47700
C  30.75900 3.36200 28.58800
C  30.95800 3.82500 32.09300
O  29.80000 4.24000 32.16400
C  31.91400 3.80700 33.34900
C  31.97400 5.16700 34.01000
O  32.37200 6.19500 33.53000
O  31.53800 5.01100 35.32200
C  31.42500 6.33300 36.11400
H  38.27300 1.48600 34.45500
H  39.36700 1.46200 28.17200
H  33.15600 2.53500 27.21300
H  34.21100 3.85800 35.52200
H  36.29200 1.97400 35.94900
H  37.44200 4.45800 35.09200
H  37.19800 4.10500 36.79400
H  35.90300 4.93700 35.90900
H  34.27600 0.83800 35.94400
H  33.03300 1.31400 34.84800
H  32.48800 1.21700 37.27200
H  31.82500 2.52500 36.29200
H  40.77700 -0.41600 33.28200
H  40.29000 0.96800 34.28100
H  41.60400 1.25200 33.09500
H  42.37900 -0.44400 31.79300
H  42.92500 1.11800 31.45700
H  43.29700 -0.19800 30.34600
H  37.65000 0.94800 26.15300
H  35.28000 2.78700 25.60400
H  38.39100 3.68400 26.53100
H  37.25200 3.72400 25.20600
H  38.71700 2.64100 25.13300
H  34.46900 0.16000 26.44000
H  35.76800 -0.00400 25.34900
H  34.43600 1.79600 23.93200
H  33.02100 0.87400 24.72400
H  34.21500 0.00700 23.74600
H  30.87500 2.82700 27.64600
H  30.64900 4.44400 28.51600
H  29.92700 2.95100 29.16000
H  31.47900 3.15500 34.10500
H  30.71300 6.21300 36.93000
H  31.15900 7.18700 35.49100
H  32.32500 6.58200 36.67700
Mg -11.72700 39.32100 41.58100
C  -10.34600 36.54800 40.25400
C  -9.39300 41.34400 39.93200
C  -13.88600 42.00900 41.75100
C  -14.41100 37.32200 42.73000
N  -10.12800 38.96100 40.21600
C  -9.68400 37.71300 39.94700
C  -8.34000 37.74000 39.21100
C  -8.00000 39.25400 39.08600
C  -9.24200 39.94000 39.77700
C  -6.68400 39.60500 39.70900
C  -8.45500 37.01600 37.86700
C  -7.49100 35.78400 37.55500
H  -6.54700 36.05500 36.34300
N  -11.47500 41.47400 41.21900
C  -10.43200 42.08200 40.51600
C  -10.75000 43.51600 40.47000
C  -12.06600 43.70700 41.03400
C  -12.52600 42.37200 41.41900
C  -9.76900 44.41300 39.85800
C  -12.75600 45.15800 41.27600
O  -12.36200 46.11400 40.69900
C  -13.80400 45.30300 42.28900
N  -13.89100 39.68300 42.30400
C  -14.43200 40.91300 42.31800
C  -15.92000 40.80300 42.78400
C  -15.92600 39.33600 43.34600
C  -14.69700 38.66600 42.75600
C  -16.36200 41.91900 43.89000
C  -17.25800 38.60600 43.12400
C  -17.47500 37.92800 41.73000
N  -12.29200 37.31100 41.70900
C  -13.32100 36.60500 42.26300
C  -13.16800 35.21200 42.14400
C  -11.95100 35.11800 41.37200
C  -11.50900 36.45400 41.15300
C  -13.87000 34.05100 42.85200
C  -11.04000 34.20200 40.78900
O  -11.16400 32.97900 40.71400
C  -9.93600 35.06800 40.05100
C  -8.69100 34.66500 40.63800
O  -8.12800 33.64500 40.35000
O  -8.20200 35.56800 41.56800
C  -7.06700 35.12300 42.33700
H  -8.59300 41.83500 39.37500
H  -14.47400 42.91900 41.88400
H  -15.28300 36.75700 43.06700
H  -7.58900 37.25800 39.83800
H  -7.94300 39.49900 38.02500
H  -6.11900 38.73400 40.04000
H  -6.79600 40.34800 40.49900
H  -5.99300 39.85800 38.90500
H  -8.33200 37.72800 37.05100
H  -9.49300 36.70300 37.75400
H  -8.08200 34.88400 37.38800
H  -6.83800 35.60200 38.40900
H  -9.45300 45.04100 40.69100
H  -10.20000 45.12100 39.15000
H  -8.87000 43.95200 39.44700
H  -14.65900 45.34200 41.61400
H  -13.69600 46.25600 42.80700
H  -13.86100 44.51300 43.03800
H  -16.62100 40.86200 41.95100
H  -15.88700 39.36400 44.43500
H  -16.69300 42.87100 43.47300
H  -15.51400 42.20900 44.51100
H  -17.06800 41.38200 44.52400
H  -18.03200 39.37400 43.14600
H  -17.33800 37.91500 43.96300
H  -17.58800 36.85400 41.87900
H  -16.61500 38.05500 41.07200
H  -18.24200 38.35200 41.08300
H  -13.23000 33.52900 43.56300
H  -14.42400 33.42900 42.14800
H  -14.72900 34.44200 43.39800
H  -9.90600 34.71400 39.02100
H  -6.67600 35.91300 42.97900
H  -6.19700 34.80300 41.76300
H  -7.58300 34.48000 43.04900

