158

Mg 27.15400 50.41100 26.40600
C  25.33000 51.66400 29.29300
C  29.60500 49.29900 28.53700
C  29.04300 49.80700 23.62400
C  24.83100 52.12300 24.42800
N  27.42500 50.53800 28.67800
C  26.51700 51.01900 29.66900
C  27.04800 50.72300 31.03100
C  28.50100 50.05400 30.74400
C  28.57400 49.99400 29.19700
C  29.76500 50.74900 31.32200
C  26.04400 49.84500 31.82600
C  25.63600 50.26700 33.22200
H  26.70300 50.62000 34.31700
N  28.99900 49.50800 26.07900
C  29.83500 49.12400 27.09600
C  31.02500 48.56600 26.55800
C  30.98100 48.75500 25.10900
C  29.67900 49.38300 24.86200
C  32.16800 48.06900 27.38000
C  31.97400 48.44500 24.02900
O  31.79200 48.55800 22.79300
C  33.33100 47.74200 24.47300
N  27.05600 51.04300 24.35700
C  27.83300 50.48400 23.36100
C  27.44600 51.02100 22.00800
C  26.10000 51.67300 22.29200
C  25.97700 51.57700 23.79700
C  28.44400 51.96800 21.28400
C  24.89100 51.02700 21.50400
C  24.16400 49.90500 22.13800
N  25.47900 51.68900 26.70300
C  24.66700 52.29300 25.79500
C  23.60600 53.05800 26.46200
C  23.80300 52.78200 27.84000
C  24.96400 51.98200 27.94300
C  22.55600 53.94100 25.82100
C  23.31100 53.02900 29.19100
O  22.27100 53.62900 29.52600
C  24.30300 52.34200 30.23000
C  24.92600 53.37500 31.17300
O  25.94100 54.06100 30.95200
O  24.21200 53.41900 32.27700
C  24.74700 54.19900 33.40600
H  30.41300 48.83200 29.10500
H  29.52500 49.66200 22.65500
H  24.12700 52.69600 23.82100
H  27.09600 51.68600 31.54000
H  28.53300 49.02300 31.09700
H  30.38000 51.02300 30.46400
H  30.33900 50.13500 32.01700
H  29.44400 51.63300 31.87200
H  26.46800 48.85200 31.97500
H  25.11600 49.75800 31.26100
H  25.01400 49.46300 33.61500
H  25.15200 51.24100 33.16300
H  31.76600 47.69300 28.32100
H  32.80600 48.88600 27.71600
H  32.75400 47.22900 27.00800
H  33.75800 47.94000 25.45700
H  33.96800 47.78100 23.58900
H  33.23200 46.66000 24.56200
H  27.31600 50.19100 21.31400
H  26.10200 52.75500 22.15400
H  29.48900 51.98800 21.59500
H  28.06100 52.98900 21.30700
H  28.35200 51.69600 20.23300
H  25.27000 50.68500 20.54100
H  24.25000 51.87700 21.27000
H  23.14300 50.14100 22.43900
H  24.63000 49.48800 23.03000
H  24.25800 49.10200 21.40700
H  21.68900 53.84600 26.47600
H  22.30600 53.63200 24.80600
H  23.01000 54.93200 25.81800
H  23.70800 51.56100 30.70300
H  24.63600 55.20500 33.00100
H  25.73600 53.81800 33.65800
H  24.13300 54.16000 34.30600
Mg 1.44700 42.71600 24.70400
C  2.40600 42.87600 27.98300
C  -1.69200 41.56400 25.73400
C  0.63100 41.78500 21.44900
C  4.60300 43.50400 23.59400
N  0.53600 42.15700 26.68700
C  1.03900 42.50300 27.87100
C  -0.04800 42.30400 28.93000
C  -1.28700 41.80000 28.16500
C  -0.80300 41.76300 26.81000
C  -1.79600 40.37900 28.64300
C  -0.20200 43.59900 29.73800
C  -0.49300 43.38600 31.24300
H  -1.08600 42.05100 31.76600
N  -0.30200 41.93200 23.70900
C  -1.45200 41.56400 24.33900
C  -2.46000 41.25100 23.36600
C  -1.82300 41.35800 22.06800
C  -0.44700 41.72700 22.34500
C  -3.93300 40.92300 23.74700
C  -2.37100 41.18200 20.68400
O  -1.71700 41.24600 19.66500
C  -3.83000 40.67800 20.59500
N  2.43900 42.64500 22.76800
C  1.94600 42.17900 21.65600
C  3.05800 42.03100 20.55400
C  4.16400 43.04200 21.11400
C  3.70400 43.16500 22.55000
C  3.50400 40.56700 20.47700
C  4.13700 44.46100 20.54900
C  4.92300 44.59700 19.23000
N  3.21600 43.06100 25.59700
C  4.42500 43.39700 25.08200
C  5.29200 43.68600 26.17200
C  4.57800 43.50200 27.35000
C  3.32600 43.09800 26.92300
C  6.68600 44.15600 26.13500
C  4.68200 43.50100 28.85100
O  5.56500 43.73900 29.66700
C  3.23000 43.00400 29.28000
C  3.42000 41.70200 30.01100
O  4.51600 41.03600 30.01800
O  2.36000 41.27300 30.78600
C  2.42000 40.17500 31.71500
H  -2.68400 41.33900 26.13100
H  0.47800 41.35600 20.45700
H  5.51700 43.85000 23.10700
H  0.30000 41.50900 29.58900
H  -2.06400 42.54100 28.35300
H  -1.48200 39.65700 27.89000
H  -2.87900 40.46200 28.73200
H  -1.34100 40.05800 29.58000
H  -1.00600 44.21900 29.34000
H  0.64500 44.28000 29.64900
H  -1.05000 44.28300 31.51500
H  0.45200 43.47100 31.77900
H  -4.59600 41.72300 23.41600
H  -4.09300 40.74400 24.81000
H  -4.20700 39.98500 23.26300
H  -4.19200 40.82200 19.57700
H  -4.58500 41.13300 21.23700
H  -3.80900 39.59800 20.74100
H  2.64400 42.26000 19.57200
H  5.18000 42.64900 21.15000
H  4.47900 40.49800 20.95900
H  3.55100 40.30700 19.41900
H  2.85500 39.83900 20.96400
H  4.66400 44.99300 21.34200
H  3.12500 44.86000 20.48800
H  4.97700 45.63600 18.90500
H  4.65000 43.96000 18.38900
H  5.94300 44.30900 19.48300
H  7.36400 43.35000 25.85500
H  6.91100 44.72800 27.03400
H  6.76400 44.72100 25.20600
H  2.65500 43.68400 29.90800
H  2.46500 39.24400 31.15100
H  1.39500 40.08800 32.07400
H  3.19600 40.35900 32.45800

