158

Mg 24.85900 1.69600 29.25700
C  26.95700 1.76800 32.18700
C  22.19100 1.65600 31.32000
C  22.95100 1.53600 26.51600
C  27.69000 1.15400 27.29700
N  24.63100 1.79200 31.53700
C  25.58600 1.86300 32.53700
C  24.92200 2.17700 33.97600
C  23.41500 1.99800 33.54900
C  23.36500 1.74800 32.02000
C  22.64500 0.87600 34.33700
C  25.30600 3.53500 34.46600
C  24.76200 4.06200 35.84700
H  25.65200 3.85100 37.15000
N  22.88900 1.57600 29.00700
C  21.93200 1.61100 29.94500
C  20.57900 1.40000 29.39200
C  20.77200 1.30100 27.94200
C  22.24300 1.49000 27.76300
C  19.25800 1.40100 30.18300
C  19.77900 1.12700 26.81000
O  20.12700 1.20700 25.63600
C  18.29300 0.89700 27.13800
N  25.22900 1.47600 27.19600
C  24.34200 1.48400 26.22100
C  24.97600 1.52000 24.87300
C  26.46400 1.54800 25.13000
C  26.49100 1.31500 26.64500
C  24.48300 0.28600 24.00800
C  27.29500 2.81400 24.74900
C  26.79300 4.12100 25.34000
N  26.94200 1.33500 29.64600
C  27.96000 1.16700 28.72500
C  29.15000 1.01700 29.42900
C  28.86500 1.30500 30.81700
C  27.44000 1.50800 30.88300
C  30.39700 0.58600 28.74900
C  29.36800 1.34700 32.17300
O  30.49100 1.11600 32.61600
C  28.25800 1.92600 33.02500
C  28.13200 1.17800 34.30000
O  27.65200 0.06800 34.39900
O  28.79900 1.87400 35.30300
C  29.16800 1.10300 36.52400
H  21.34000 1.71900 32.00200
H  22.34700 1.53400 25.60600
H  28.56500 1.18200 26.64500
H  25.17400 1.37500 34.67100
H  22.89100 2.92200 33.79500
H  22.54800 0.11200 33.56500
H  21.71300 1.29500 34.71400
H  23.19900 0.39400 35.14300
H  25.13200 4.22000 33.63600
H  26.38000 3.39900 34.59800
H  23.81100 3.56400 36.03700
H  24.48400 5.11000 35.73500
H  18.69400 2.19400 29.69100
H  19.26200 1.69100 31.23400
H  18.83200 0.39800 30.17400
H  18.26800 0.03100 27.80000
H  17.73800 0.79000 26.20500
H  17.87400 1.70700 27.73500
H  24.60200 2.43000 24.40300
H  27.01000 0.77900 24.58300
H  23.66500 -0.20700 24.53300
H  25.31800 -0.40200 23.87300
H  24.15800 0.77100 23.08700
H  27.28800 2.96700 23.67000
H  28.36000 2.61800 24.87300
H  26.35300 4.02000 26.33200
H  26.00300 4.44200 24.66000
H  27.60300 4.83400 25.49100
H  30.34500 0.35900 27.68500
H  30.70600 -0.30700 29.29200
H  31.18000 1.33900 28.84000
H  28.43800 2.99100 33.17100
H  29.26000 0.04300 36.28600
H  28.39400 1.16200 37.28900
H  30.11600 1.46700 36.92200
Mg 49.44100 35.00800 27.98800
C  47.20600 33.89400 30.62100
C  49.70200 37.92500 29.85900
C  50.89900 36.50600 25.31100
C  48.34000 32.49100 26.01400
N  48.40900 35.81900 29.97700
C  47.80800 35.09000 30.98000
C  47.68600 35.87300 32.25200
C  48.19900 37.31800 31.82300
C  48.86200 36.96700 30.48900
C  47.00900 38.38500 31.69300
C  48.29200 35.11000 33.44700
C  49.36900 35.83700 34.18000
H  49.13600 37.00400 35.12700
N  50.38400 36.81700 27.70800
C  50.30900 37.91900 28.51400
C  51.12900 38.97700 27.97100
C  51.54900 38.57100 26.66000
C  50.96900 37.23600 26.50600
C  51.61100 40.21300 28.88700
C  52.37700 39.28200 25.64000
O  52.70400 38.82600 24.53900
C  53.07500 40.70000 26.04200
N  49.71400 34.52300 25.94900
C  50.37400 35.29500 24.98500
C  50.16100 34.65900 23.57900
C  49.50800 33.28500 23.90100
C  49.12500 33.40300 25.35700
C  49.29500 35.58100 22.68100
C  50.40700 32.02400 23.73100
C  49.74000 30.68800 23.19800
N  48.17400 33.47800 28.29600
C  47.83300 32.49800 27.33100
C  47.18200 31.44300 28.04500
C  46.74700 32.00300 29.22300
C  47.42200 33.26600 29.37900
C  46.72100 30.09400 27.47900
C  45.99600 31.85700 30.41800
O  45.28200 30.90300 30.73800
C  46.06700 33.16400 31.26400
C  46.33600 32.70100 32.65400
O  47.30800 32.01300 33.01300
O  45.33600 33.21800 33.46200
C  45.38600 32.61500 34.81100
H  49.85900 38.84300 30.42900
H  51.20000 37.01700 24.39400
H  48.09700 31.61400 25.41000
H  46.65700 35.99000 32.59100
H  48.98400 37.71200 32.47000
H  46.89800 38.79000 30.68800
H  47.25100 39.26100 32.29500
H  46.09900 37.93000 32.08400
H  48.66600 34.21300 32.95500
H  47.50900 34.85000 34.15900
H  50.04700 36.14700 33.38500
H  49.92200 35.03100 34.66100
H  51.44400 40.06200 29.95300
H  51.32300 41.24800 28.70100
H  52.69800 40.21000 28.79900
H  53.78000 40.76400 26.87000
H  52.16800 41.24800 26.29900
H  53.44300 41.14100 25.11500
H  51.09900 34.50700 23.04600
H  48.56000 33.21000 23.36900
H  48.59300 34.97200 22.11300
H  49.97300 36.18200 22.07400
H  48.74500 36.27300 23.31800
H  50.96700 31.95700 24.66300
H  51.23900 32.21200 23.05200
H  50.02400 30.61300 22.14800
H  48.67300 30.59400 23.40300
H  50.22300 29.89600 23.76900
H  46.73500 29.25600 28.17700
H  47.40100 29.78200 26.68600
H  45.73800 30.13700 27.01200
H  45.11500 33.69300 31.19800
H  44.40100 32.76100 35.25500
H  46.13100 33.06400 35.46900
H  45.57800 31.55000 34.68400

