158

Mg 36.73400 2.45700 30.19800
C  33.90300 3.22300 32.37100
C  38.66100 2.48000 32.87800
C  39.15200 1.54400 28.13500
C  34.48500 2.70600 27.38700
N  36.30500 2.87300 32.36000
C  35.10000 3.02600 33.07700
C  35.29400 2.88800 34.62100
C  36.89100 2.90100 34.70400
C  37.30400 2.77100 33.20900
C  37.38700 4.23600 35.39100
C  34.56000 1.68000 35.22800
C  34.25200 1.66500 36.80300
H  34.88300 2.80200 37.72900
N  38.75600 2.20800 30.41600
C  39.33000 2.23500 31.60900
C  40.76400 1.88600 31.46600
C  40.96700 1.50100 30.09700
C  39.59500 1.78200 29.46400
C  41.66200 1.87100 32.68900
C  42.14500 0.82300 29.33400
O  42.07300 0.69600 28.08800
C  43.34200 0.25100 30.09300
N  36.81700 2.32600 28.00200
C  37.94000 1.79800 27.46700
C  37.76900 1.54000 25.97200
C  36.25100 1.75900 25.73700
C  35.81500 2.30600 27.09600
C  38.74800 2.41400 25.12400
C  35.49600 0.48600 25.22700
C  35.04800 -0.57200 26.25200
N  34.63500 2.78900 29.84100
C  33.92000 2.94300 28.67400
C  32.55800 3.28400 28.98600
C  32.55000 3.40300 30.38100
C  33.82500 3.11300 30.87800
C  31.47300 3.39100 27.97600
C  31.69700 3.79800 31.53400
O  30.50100 4.21300 31.56000
C  32.50000 3.62000 32.84400
C  32.51500 4.83100 33.75200
O  32.72200 6.01800 33.40100
O  32.02500 4.56100 35.02400
C  32.23700 5.61600 35.97700
H  39.32500 2.66200 33.72600
H  39.72600 0.91200 27.45400
H  33.89000 2.95000 26.50500
H  34.89300 3.68000 35.25500
H  37.17900 2.07700 35.35700
H  37.52500 4.25600 36.47200
H  36.78200 5.09900 35.11300
H  38.28800 4.56600 34.87400
H  35.10400 0.77800 34.94700
H  33.65000 1.55500 34.64000
H  34.52600 0.64200 37.06100
H  33.19200 1.64900 37.05900
H  41.27300 1.18100 33.43800
H  41.70600 2.88300 33.09300
H  42.67100 1.58900 32.39200
H  43.04000 -0.18000 31.04800
H  44.05600 1.07300 30.13800
H  43.78300 -0.48900 29.42400
H  38.07800 0.50600 25.81800
H  36.07900 2.55600 25.01300
H  39.38900 3.13300 25.63400
H  38.29800 2.96500 24.29800
H  39.39600 1.77100 24.52800
H  36.07300 -0.09400 24.50600
H  34.72300 0.85000 24.55100
H  35.51400 -1.54800 26.12200
H  34.01100 -0.71400 25.94700
H  35.04800 -0.20200 27.27700
H  31.17400 2.42100 27.57900
H  31.64900 4.10700 27.17400
H  30.50300 3.56800 28.44300
H  32.00600 2.89600 33.49400
H  33.23600 6.01000 35.78800
H  32.30000 5.33000 37.02700
H  31.54000 6.41000 35.70700
Mg 1.28000 43.58100 25.98900
C  3.50000 43.80800 28.67700
C  -1.25900 42.94800 27.97500
C  -0.50200 42.93400 23.25900
C  4.19100 43.92900 23.83200
N  1.15500 43.40400 27.98100
C  2.13100 43.74800 28.92400
C  1.58100 43.81800 30.39200
C  0.23000 43.13100 30.20100
C  -0.01400 43.20200 28.64700
C  -0.03300 41.75700 30.80200
C  1.52900 45.27900 30.81500
C  1.47500 45.57200 32.37500
H  1.22000 44.45600 33.40000
N  -0.63400 43.12300 25.65400
C  -1.59500 42.99700 26.60400
C  -2.88000 42.72400 26.07200
C  -2.71700 42.62200 24.68000
C  -1.23200 42.88200 24.44100
C  -4.13900 42.50600 26.91300
C  -3.71800 42.37600 23.60500
O  -3.44300 42.21000 22.41000
C  -5.14700 42.28800 23.96200
N  1.77500 43.58500 23.85500
C  0.84700 43.15800 22.98900
C  1.43500 42.98100 21.58200
C  2.85500 43.53000 21.74200
C  2.97400 43.61600 23.26700
C  1.41300 41.49400 21.12100
C  3.00900 44.96800 20.92600
C  4.36800 45.57200 20.97100
N  3.40800 43.87300 26.16000
C  4.37900 44.03000 25.16700
C  5.62400 44.22500 25.85100
C  5.40400 44.13500 27.24300
C  4.00100 43.88200 27.35700
C  6.94300 44.61400 25.16900
C  5.92000 44.19500 28.56000
O  7.09200 44.37200 28.90300
C  4.74700 44.04400 29.53500
C  5.05700 43.06400 30.58000
O  4.84900 41.84800 30.50700
O  5.65700 43.63800 31.69200
C  5.68900 42.76700 32.98400
H  -2.02500 42.62100 28.68200
H  -1.12100 42.68000 22.39500
H  5.03600 43.96900 23.14200
H  2.12300 43.20300 31.11000
H  -0.60700 43.72500 30.56700
H  -0.87100 41.75400 31.49800
H  0.93000 41.48000 31.23200
H  -0.08900 40.99200 30.02700
H  0.61600 45.69600 30.39000
H  2.43800 45.80100 30.51600
H  0.58600 46.17800 32.55200
H  2.35000 46.03900 32.82800
H  -4.53300 41.52800 26.63600
H  -4.81900 43.28100 26.56100
H  -4.05900 42.62800 27.99300
H  -5.51400 43.21600 24.40100
H  -5.36900 41.38200 24.52600
H  -5.76400 42.35600 23.06600
H  0.82800 43.68900 21.01800
H  3.51700 42.76600 21.33400
H  1.36100 40.79200 21.95200
H  2.34600 41.35300 20.57600
H  0.57700 41.35500 20.43500
H  2.27200 45.75500 21.09100
H  2.78700 44.79500 19.87300
H  4.42400 46.22800 21.84000
H  4.61400 46.23400 20.14100
H  5.12500 44.80800 21.14800
H  6.86500 45.23100 24.27400
H  7.45100 43.68800 24.90200
H  7.57600 45.02500 25.95600
H  4.63700 45.01300 30.02200
H  4.98400 43.18500 33.70400
H  6.70000 42.55500 33.33000
H  5.20400 41.82200 32.74100

