158

Mg 42.28200 41.63000 26.35400
C  41.39400 43.97300 28.74500
C  43.52400 39.61200 28.98400
C  43.11000 39.30800 24.03900
C  41.53200 43.86100 23.84600
N  42.52900 41.78100 28.57500
C  41.87700 42.78000 29.30400
C  41.82500 42.48100 30.80700
C  42.69900 41.19400 30.80500
C  42.99800 40.82400 29.39300
C  44.05800 41.34300 31.60100
C  40.26500 42.32500 31.39400
C  40.15800 42.69800 32.91400
H  39.68000 41.73100 33.91000
N  43.12400 39.68700 26.46500
C  43.59600 39.10000 27.62500
C  44.11300 37.77000 27.22000
C  43.88900 37.60100 25.86500
C  43.37200 38.90800 25.39500
C  44.80700 36.88600 28.23500
C  44.02800 36.33000 24.99600
O  43.94500 36.38900 23.74300
C  44.51600 35.03400 25.63500
N  42.36000 41.59400 24.28300
C  42.65300 40.50800 23.54900
C  42.46900 40.72600 22.07900
C  41.96500 42.18700 22.04700
C  41.87300 42.61300 23.47000
C  43.80700 40.45900 21.38300
C  40.77200 42.49700 21.09800
C  41.12700 42.44400 19.59000
N  41.63700 43.56000 26.24300
C  41.35600 44.33600 25.14400
C  40.84100 45.59700 25.57300
C  40.81200 45.56800 27.04100
C  41.31300 44.25700 27.36300
C  40.35300 46.71200 24.66000
C  40.42400 46.23000 28.23400
O  39.89000 47.32600 28.41700
C  40.81800 45.20300 29.40700
C  41.58100 45.79300 30.58000
O  42.81400 45.77800 30.75700
O  40.64600 46.31400 31.46000
C  41.18700 46.80100 32.73200
H  43.65000 38.85600 29.76200
H  43.27700 38.52700 23.29400
H  41.22800 44.53300 23.04000
H  42.26100 43.25900 31.43400
H  42.08200 40.45800 31.32000
H  44.20600 42.28400 32.13200
H  44.87800 41.26100 30.88700
H  44.29800 40.61400 32.37500
H  39.84900 41.34100 31.17700
H  39.67700 42.92800 30.70200
H  39.33400 43.41000 32.97000
H  41.03500 43.15600 33.37100
H  45.34300 36.01400 27.85900
H  44.04100 36.40500 28.84200
H  45.55300 37.51100 28.72600
H  44.06300 34.33500 24.93200
H  43.98800 34.92900 26.58300
H  45.59700 34.95000 25.74000
H  41.68100 40.03400 21.78300
H  42.67700 42.84200 21.54400
H  43.58400 39.74000 20.59500
H  44.55900 39.98900 22.01800
H  44.17800 41.36800 20.91100
H  40.44000 43.52000 21.27200
H  39.98100 41.79200 21.35400
H  42.21400 42.36900 19.54700
H  40.75900 43.35200 19.11400
H  40.71400 41.59500 19.04600
H  39.37700 46.92500 25.09600
H  40.22300 46.36600 23.63400
H  41.04900 47.55000 24.65800
H  39.86000 45.03400 29.89800
H  42.03300 47.45100 32.50700
H  41.64400 46.10300 33.43400
H  40.43000 47.48400 33.11800
Mg -10.87100 16.83500 41.33800
C  -7.58300 15.52000 41.02900
C  -9.67400 19.96300 40.75200
C  -14.04200 17.74400 40.99800
C  -11.90000 13.39600 41.64700
N  -8.83900 17.60900 40.83600
C  -7.63100 16.92600 40.87100
C  -6.49900 17.92700 40.58400
C  -7.14800 19.31200 40.81800
C  -8.60900 18.97500 40.81100
C  -6.68100 20.06600 42.04500
C  -5.81700 17.79100 39.06500
C  -4.29000 17.52000 39.00800
H  -3.78200 16.31600 38.17400
N  -11.77800 18.62800 40.94400
C  -11.15100 19.82300 40.70900
C  -12.13200 20.85300 40.49700
C  -13.40700 20.24200 40.62300
C  -13.14100 18.80100 40.81400
C  -11.79500 22.26400 40.14100
C  -14.80300 20.96800 40.45500
O  -14.79100 22.16500 40.21200
C  -16.17500 20.30000 40.55000
N  -12.67500 15.70300 41.30700
C  -13.86400 16.34000 41.13800
C  -15.07400 15.36100 41.31900
C  -14.30600 13.98300 41.50900
C  -12.83900 14.36400 41.53500
C  -16.11800 15.69500 42.45300
C  -14.74300 12.83500 40.55500
C  -14.98800 11.55100 41.35200
N  -10.01400 14.82300 41.41500
C  -10.54300 13.53700 41.58700
C  -9.53900 12.59800 41.63600
C  -8.29900 13.30500 41.48800
C  -8.67000 14.66300 41.24300
C  -9.80500 11.12300 41.89200
C  -6.89000 13.15800 41.53200
O  -6.24200 12.15500 41.78900
C  -6.39900 14.53000 41.09000
C  -5.37000 14.89700 42.00000
O  -5.45100 15.49400 43.05900
O  -4.16900 14.42600 41.45500
C  -2.98500 14.55700 42.32500
H  -9.33100 20.99800 40.69000
H  -15.03700 18.19200 40.95600
H  -12.17400 12.42600 42.06600
H  -5.65200 17.73800 41.24300
H  -6.98500 20.00000 39.98800
H  -5.68400 19.77700 42.37800
H  -7.36100 19.73100 42.82800
H  -6.71100 21.13700 41.84400
H  -6.09500 18.71900 38.56400
H  -6.26200 16.92800 38.57000
H  -3.87600 17.36800 40.00500
H  -3.78700 18.42000 38.65400
H  -12.17500 22.46800 39.14000
H  -10.73400 22.48600 40.02200
H  -12.14800 22.94400 40.91600
H  -16.14400 19.43700 39.88600
H  -17.02300 20.94900 40.32900
H  -16.26800 19.99600 41.59200
H  -15.67800 15.47400 40.41900
H  -14.48200 13.61100 42.51800
H  -16.12900 15.03200 43.31800
H  -17.09500 15.77000 41.97600
H  -15.84000 16.73200 42.64400
H  -13.94500 12.70000 39.82500
H  -15.65700 13.21500 40.09800
H  -15.84100 11.79000 41.98800
H  -14.15300 11.50100 42.05100
H  -15.09900 10.55300 40.93000
H  -10.58400 10.78600 41.20900
H  -10.04600 10.76400 42.89200
H  -8.93000 10.56700 41.55700
H  -5.89700 14.56400 40.12300
H  -2.57800 15.56700 42.38100
H  -2.18100 13.92100 41.95600
H  -3.17400 14.18400 43.33200

