158

Mg -0.03200 7.92900 24.76700
C  0.87700 9.34100 27.83100
C  0.30800 4.83800 26.40300
C  -0.58600 6.32900 21.89900
C  0.16000 10.93200 23.20100
N  0.77700 7.23800 26.90500
C  0.66800 7.93600 28.05200
C  0.83800 7.16100 29.35200
C  0.78000 5.75300 28.78100
C  0.55100 5.95900 27.27200
C  2.11700 4.96800 29.07000
C  -0.25900 7.54600 30.35900
C  -0.39000 6.89700 31.77200
H  -0.18900 7.69100 33.04500
N  -0.06800 5.84400 24.16700
C  0.04400 4.78800 24.99000
C  -0.04000 3.53500 24.20200
C  -0.32300 3.98000 22.84600
C  -0.36300 5.41600 22.95400
C  0.17100 2.12300 24.72000
C  -0.51600 3.19500 21.51000
O  -0.63000 3.66500 20.41100
C  -0.35400 1.72900 21.62200
N  -0.35900 8.58600 22.83700
C  -0.58200 7.73100 21.82900
C  -0.77200 8.44900 20.49300
C  -0.75600 9.96200 21.04100
C  -0.19500 9.85800 22.43700
C  0.21400 7.98500 19.35900
C  -2.13300 10.63200 20.98000
C  -2.43600 11.58000 19.87700
N  0.37200 9.78600 25.31900
C  0.52000 10.95500 24.55300
C  1.14300 11.93900 25.41100
C  1.22400 11.35000 26.69000
C  0.80100 10.05200 26.60400
C  1.38600 13.39200 25.11100
C  1.54500 11.76300 28.10800
O  1.82400 12.81600 28.67100
C  1.30400 10.45500 28.83300
C  2.66600 10.03500 29.39300
O  3.55700 9.58700 28.74000
O  2.56500 9.99900 30.78200
C  3.57900 9.21500 31.40700
H  0.37700 3.86200 26.88700
H  -0.74600 5.94400 20.89000
H  0.26800 11.88400 22.67700
H  1.83600 7.41900 29.70800
H  -0.06400 5.15800 29.13200
H  2.76700 5.09800 28.20500
H  1.92700 3.90300 29.20100
H  2.59000 5.19400 30.02500
H  -1.18000 7.42900 29.78800
H  -0.02000 8.60100 30.49300
H  0.14700 5.94800 31.77600
H  -1.44400 6.62500 31.73400
H  0.15300 2.01700 25.80500
H  1.14100 1.72500 24.42000
H  -0.70500 1.60700 24.32600
H  0.44500 1.53300 22.33800
H  0.01100 1.43700 20.63700
H  -1.22000 1.17100 21.97700
H  -1.77500 8.11200 20.23100
H  -0.06000 10.53400 20.42800
H  0.97100 7.31200 19.76200
H  0.73300 8.88500 19.02800
H  -0.42600 7.66700 18.53600
H  -2.25700 11.23100 21.88200
H  -2.93000 9.89400 21.07100
H  -1.74100 11.31400 19.08000
H  -2.18900 12.59600 20.18600
H  -3.48400 11.45900 19.60000
H  1.67500 13.49700 24.06500
H  2.24800 13.66800 25.71900
H  0.61600 14.11500 25.37900
H  0.65600 10.72200 29.66800
H  3.32700 9.11900 32.46300
H  4.46800 9.84300 31.34300
H  3.83600 8.29600 30.88100
Mg -1.97100 34.67500 26.12000
C  -3.73500 32.49800 28.42700
C  -0.60800 36.26900 28.80800
C  -0.58900 36.77700 23.92300
C  -3.86300 33.16200 23.54000
N  -2.18700 34.38400 28.42600
C  -2.86800 33.42800 29.08900
C  -2.61000 33.46900 30.61900
C  -1.68900 34.73500 30.75800
C  -1.50700 35.24100 29.25500
C  -2.05300 35.75000 31.84100
C  -1.97200 32.10900 31.09700
C  -2.63300 31.60100 32.40900
H  -1.83500 31.76100 33.69500
N  -0.72900 36.22100 26.32200
C  -0.27100 36.70600 27.50100
C  0.71600 37.67500 27.20200
C  0.81500 37.83700 25.77300
C  -0.16100 36.87900 25.26700
C  1.52100 38.44700 28.29300
C  1.70300 38.76100 24.89600
O  1.57400 38.82200 23.69300
C  2.76600 39.42700 25.51600
N  -2.31100 34.99600 24.04300
C  -1.58700 35.92900 23.32300
C  -1.77600 35.82600 21.82600
C  -2.49300 34.47800 21.79200
C  -2.89900 34.16100 23.22400
C  -2.48000 37.03000 21.12100
C  -1.72500 33.38800 21.12100
C  -0.50900 32.68400 21.74900
N  -3.42200 33.21600 25.97400
C  -4.01700 32.64900 24.86700
C  -4.81700 31.54700 25.24200
C  -4.76700 31.44900 26.66200
C  -3.86500 32.52300 27.02100
C  -5.66500 30.63600 24.30800
C  -5.21500 30.76800 27.84400
O  -5.94600 29.78200 28.00600
C  -4.60900 31.46500 29.07000
C  -5.66000 32.08600 30.05000
O  -6.31700 33.05800 29.77800
O  -5.58300 31.43500 31.25600
C  -6.49500 31.75800 32.37400
H  -0.16600 36.70000 29.70900
H  0.02200 37.22400 23.13600
H  -4.30300 32.75500 22.62700
H  -3.60900 33.67200 31.00400
H  -0.65300 34.51200 31.01600
H  -2.66200 36.58400 31.49400
H  -1.10800 36.07400 32.27800
H  -2.57500 35.24200 32.65200
H  -0.91700 32.23700 31.33800
H  -2.03000 31.34200 30.32500
H  -2.87600 30.54600 32.28400
H  -3.55000 32.15500 32.61200
H  1.36200 39.52300 28.22700
H  2.58300 38.23900 28.16100
H  1.35000 38.13200 29.32200
H  3.44800 39.71200 24.71500
H  3.25400 38.75700 26.22400
H  2.38300 40.28400 26.06900
H  -0.84100 35.77500 21.26800
H  -3.46200 34.69800 21.34500
H  -3.45600 37.11900 21.59700
H  -2.55900 37.03600 20.03400
H  -1.81300 37.85500 21.37300
H  -1.31700 33.76100 20.18100
H  -2.39300 32.56500 20.87000
H  -0.47700 33.04400 22.77700
H  0.41500 32.71700 21.17100
H  -0.64700 31.60300 21.77800
H  -5.51700 29.58800 24.56800
H  -5.47500 30.75900 23.24200
H  -6.71000 30.86800 24.51300
H  -4.13000 30.66100 29.62900
H  -5.94900 32.22800 33.19300
H  -6.94800 30.84700 32.76400
H  -7.18900 32.57800 32.18700

