158

Mg 47.29400 25.32400 28.81000
C  48.51100 27.61200 31.24000
C  46.11700 23.40200 31.39300
C  46.94700 22.68200 26.75200
C  49.08800 26.93900 26.46000
N  47.31200 25.50900 31.04700
C  47.73500 26.58300 31.80500
C  47.26100 26.41000 33.22500
C  46.74400 24.96300 33.29400
C  46.62900 24.64300 31.82300
C  47.45100 23.84100 34.23900
C  46.31500 27.63600 33.65600
C  45.46800 27.54900 34.90400
H  46.09400 27.86300 36.19500
N  46.44200 23.47900 28.96800
C  45.98800 22.83600 30.11200
C  45.37400 21.58800 29.80200
C  45.46300 21.40500 28.45000
C  46.32800 22.53200 27.99700
C  44.77500 20.67000 30.88500
C  44.85700 20.29100 27.51600
O  44.96900 20.25200 26.32200
C  44.13900 19.10200 28.13000
N  47.93400 24.92600 26.82500
C  47.59900 23.78600 26.18300
C  48.15700 23.75400 24.73300
C  48.51500 25.28600 24.55600
C  48.47600 25.74600 26.01800
C  49.40100 22.87100 24.51600
C  47.43400 26.18500 23.78700
C  47.99100 27.07800 22.67000
N  48.44100 27.03900 28.72300
C  49.16400 27.53300 27.70900
C  49.87500 28.71200 28.11100
C  49.60600 28.86400 29.51700
C  48.82100 27.73700 29.86100
C  50.62400 29.61700 27.13000
C  49.85300 29.65100 30.69200
O  50.43300 30.69100 30.86300
C  49.16000 28.86500 31.88400
C  50.27400 28.55900 32.81200
O  51.39600 28.11800 32.49100
O  49.85600 28.68700 34.13700
C  50.77200 28.08700 35.17700
H  45.70400 22.72200 32.14200
H  46.64400 21.96700 25.98400
H  49.51200 27.43400 25.58300
H  48.17500 26.44600 33.81800
H  45.69800 25.04500 33.59100
H  48.39100 24.19200 34.66400
H  47.72800 22.92300 33.72000
H  46.66300 23.54500 34.93200
H  45.69000 27.57500 32.76500
H  46.80900 28.60700 33.65200
H  45.00300 26.56300 34.92200
H  44.60200 28.20800 34.84000
H  44.90800 21.01500 31.91100
H  45.28200 19.71200 31.00500
H  43.70900 20.51200 30.72600
H  43.19000 19.41400 28.56500
H  44.62200 18.72700 29.03200
H  43.98100 18.36800 27.34000
H  47.30200 23.53300 24.09400
H  49.52900 25.47200 24.20200
H  49.75600 22.29400 25.36900
H  50.26600 23.37600 24.08600
H  49.21700 22.16900 23.70200
H  46.92000 26.81200 24.51600
H  46.71100 25.50900 23.33000
H  47.17100 27.06700 21.95200
H  48.93400 26.73900 22.24200
H  48.13900 28.07800 23.07700
H  51.19700 30.36400 27.67900
H  49.92800 30.08200 26.43300
H  51.32400 28.93700 26.64500
H  48.49600 29.60300 32.33400
H  50.29100 27.58200 36.01400
H  51.33400 28.90900 35.62000
H  51.54600 27.46400 34.72900
Mg 30.59800 57.79300 39.96300
C  27.93100 55.40500 39.12900
C  32.84600 55.26600 39.19800
C  32.95400 60.07700 39.84100
C  28.10600 60.27600 39.85200
N  30.42700 55.67800 39.22700
C  29.23100 54.91800 39.05300
C  29.63700 53.45800 38.66800
C  31.04400 53.43500 39.31300
C  31.48700 54.82400 39.24800
C  31.00500 52.86700 40.71900
C  29.69800 53.33200 37.09900
C  28.47900 52.67100 36.46300
H  27.55400 53.38200 35.41000
N  32.60100 57.67400 39.76800
C  33.33800 56.58700 39.33800
C  34.77200 56.95100 39.21700
C  34.84700 58.33600 39.40700
C  33.45100 58.75300 39.69400
C  35.88000 56.04400 38.96000
C  36.17100 59.19300 39.29000
O  37.24300 58.71100 38.99800
C  36.20400 60.68700 39.51000
N  30.60000 59.86200 39.92400
C  31.72300 60.62800 39.98700
C  31.42500 62.08800 40.20900
C  29.84400 62.21800 40.00800
C  29.46900 60.68500 39.90000
C  31.92500 62.65300 41.56600
C  29.35300 63.01200 38.78700
C  28.48800 64.26800 39.01300
N  28.43400 57.86200 39.72400
C  27.61300 58.96800 39.62900
C  26.23500 58.54500 39.42800
C  26.30700 57.17500 39.24500
C  27.64300 56.81500 39.39200
C  25.08800 59.47800 39.27600
C  25.49300 55.96400 38.96700
O  24.29500 55.77300 38.75700
C  26.56000 54.75300 38.87300
C  26.06800 53.59200 39.68800
O  26.60200 53.24400 40.75200
O  25.02900 52.91800 39.06400
C  24.57400 51.66300 39.64700
H  33.57500 54.45500 39.14000
H  33.69500 60.87600 39.92000
H  27.26800 60.97200 39.93400
H  28.97100 52.69300 39.06500
H  31.59400 52.67900 38.75200
H  30.02000 53.09600 41.12500
H  31.82300 53.29100 41.30200
H  31.05200 51.78100 40.79800
H  30.55200 52.72500 36.79900
H  29.65800 54.27800 36.55900
H  27.85200 52.18900 37.21400
H  28.89600 51.88700 35.83200
H  36.43100 56.41400 38.09500
H  35.71600 54.96700 38.93300
H  36.50200 56.28900 39.82100
H  35.52800 60.77000 40.36100
H  35.92400 61.22400 38.60400
H  37.22400 60.93100 39.80600
H  31.99700 62.66000 39.47700
H  29.49500 62.60200 40.96600
H  31.18200 62.93600 42.31100
H  32.56100 63.53000 41.44600
H  32.56400 61.95600 42.10700
H  28.81300 62.35300 38.10700
H  30.21400 63.24200 38.16000
H  28.38800 64.58400 40.05200
H  27.42900 64.17400 38.77400
H  28.84500 65.12300 38.43900
H  24.78700 59.87900 40.24400
H  24.27800 59.00300 38.72200
H  25.36200 60.37800 38.72500
H  26.44900 54.42200 37.84000
H  25.38200 50.94000 39.75600
H  23.87100 51.07600 39.05600
H  24.16500 51.80800 40.64700

