158

Mg 0.13300 6.65700 25.74000
C  0.56800 8.94300 28.28400
C  0.39800 4.07700 27.96400
C  -0.72200 4.54100 23.28800
C  0.84200 9.13800 23.41000
N  0.56300 6.57900 27.85600
C  0.47700 7.62900 28.68600
C  0.30900 7.11500 30.14200
C  0.69100 5.55600 30.07300
C  0.52100 5.40000 28.51200
C  2.10700 5.12500 30.47700
C  -1.16600 7.29600 30.61000
C  -1.47200 7.42700 32.08800
H  -0.27800 7.12900 33.04900
N  -0.14600 4.56800 25.66400
C  -0.01500 3.68600 26.69100
C  -0.22000 2.38000 26.20600
C  -0.45700 2.45800 24.80300
C  -0.46100 3.92500 24.52800
C  -0.10600 1.07600 27.08700
C  -0.61200 1.34200 23.83200
O  -0.88100 1.50200 22.62900
C  -0.56200 -0.14300 24.31600
N  -0.15500 6.87900 23.70500
C  -0.48700 5.85600 22.91400
C  -0.57600 6.23000 21.41300
C  -0.34800 7.81000 21.54400
C  0.14500 7.98000 22.98300
C  0.38900 5.51600 20.47800
C  -1.46200 8.67700 21.00800
C  -1.06100 10.07800 20.57800
N  0.61700 8.66300 25.80100
C  1.01100 9.54500 24.77200
C  1.23300 10.85600 25.32600
C  1.12100 10.67900 26.69900
C  0.76600 9.34500 26.91500
C  1.45600 12.08100 24.53900
C  1.16300 11.29600 28.00800
O  1.37900 12.40900 28.34400
C  0.83400 10.17000 29.07000
C  2.07400 10.09700 29.92500
O  3.08400 9.50000 29.64500
O  1.79400 10.69800 31.09900
C  2.88600 10.75700 32.07100
H  0.51600 3.30400 28.72700
H  -0.89900 3.78900 22.51600
H  1.31100 9.80000 22.67800
H  1.05800 7.63000 30.74300
H  -0.10900 5.02200 30.58600
H  2.72900 4.64400 29.72300
H  2.08800 4.34800 31.24100
H  2.55700 6.03900 30.86600
H  -1.76100 6.44200 30.28800
H  -1.63400 8.18000 30.17700
H  -2.23900 6.70100 32.36100
H  -1.87900 8.41200 32.31500
H  -0.74500 0.21600 26.88500
H  -0.29700 1.37400 28.11800
H  0.91300 0.71300 26.95900
H  0.26600 -0.33100 25.00000
H  -0.51900 -0.79700 23.44400
H  -1.49800 -0.43000 24.79500
H  -1.61100 6.00100 21.16000
H  0.50300 8.08100 20.92000
H  1.16600 4.99000 21.03300
H  0.82700 6.21300 19.76300
H  -0.00900 4.73100 19.83500
H  -2.30000 8.74700 21.70000
H  -1.86500 8.24300 20.09200
H  0.02700 10.12200 20.52300
H  -1.41500 10.80000 21.31300
H  -1.44500 10.38700 19.60600
H  1.47100 12.96400 25.17700
H  0.65900 12.39200 23.86400
H  2.38900 12.05600 23.97500
H  -0.05000 10.42900 29.65200
H  3.84400 10.54200 31.59800
H  2.78000 10.05700 32.90000
H  2.94200 11.73400 32.55100
Mg 45.99300 17.05800 28.41700
C  44.52900 16.63000 31.70000
C  48.54500 18.58900 29.94000
C  47.11800 17.56600 25.33700
C  43.14600 15.34000 27.10300
N  46.40200 17.59500 30.56500
C  45.79000 17.30900 31.72700
C  46.52000 17.73800 32.94600
C  47.69200 18.49300 32.36700
C  47.54600 18.25300 30.84400
C  47.75200 20.04100 32.54200
C  47.05400 16.43100 33.73200
C  47.05100 16.46200 35.22600
H  46.90900 17.73900 36.03700
N  47.59100 17.98000 27.74400
C  48.56800 18.61800 28.55500
C  49.61300 19.10900 27.64900
C  49.19400 18.75200 26.28100
C  47.98100 18.05300 26.38100
C  50.75600 20.02600 27.95900
C  49.93700 19.00500 24.93400
O  49.45700 18.72900 23.86000
C  51.31700 19.63600 24.93600
N  45.18300 16.54500 26.60600
C  45.90400 16.90100 25.46700
C  45.12000 16.52600 24.17300
C  43.94600 15.66300 24.75400
C  44.06000 15.89800 26.21000
C  44.53000 17.78500 23.46200
C  44.00700 14.11600 24.44900
C  44.98600 13.29800 25.25300
N  44.19700 16.19300 29.20400
C  43.19100 15.52100 28.50700
C  42.12800 15.15700 29.45200
C  42.64700 15.50800 30.75000
C  43.89400 16.17100 30.55300
C  40.86800 14.39700 29.01300
C  42.34800 15.53300 32.12600
O  41.32400 15.16600 32.67600
C  43.55000 16.28700 32.86100
C  42.99600 17.45800 33.51800
O  42.58700 18.45500 32.90200
O  42.98300 17.27600 34.88600
C  42.38100 18.28600 35.68400
H  49.37900 19.17700 30.32900
H  47.47800 17.59500 24.30600
H  42.38700 14.65000 26.72800
H  45.89900 18.32900 33.61900
H  48.65100 18.16100 32.76300
H  47.52300 20.48500 31.57300
H  48.78900 20.22800 32.82200
H  47.04100 20.32100 33.31900
H  48.04000 16.08900 33.41700
H  46.32700 15.67100 33.44700
H  47.95900 15.96800 35.57300
H  46.19900 15.89300 35.59800
H  50.46300 21.02300 27.63000
H  51.68800 19.68600 27.50800
H  50.89100 20.08800 29.03900
H  52.08900 19.23400 25.59100
H  51.28900 20.67700 25.25800
H  51.54800 19.65600 23.87100
H  45.79900 16.01600 23.48900
H  42.98200 16.09100 24.48100
H  43.47500 17.87200 23.20300
H  45.10700 17.86300 22.54000
H  44.85000 18.62700 24.07600
H  44.28500 14.06000 23.39700
H  43.02400 13.66200 24.57400
H  44.55000 12.83800 26.13900
H  45.85200 13.89300 25.54300
H  45.36700 12.49600 24.61900
H  40.44500 14.87000 28.12600
H  40.17400 14.63200 29.81900
H  40.92800 13.34100 28.74900
H  44.04200 15.60800 33.55600
H  42.55500 19.25000 35.20700
H  42.93600 18.31600 36.62100
H  41.34500 17.96300 35.79200

