158

Mg 8.73000 3.57900 27.34700
C  9.85200 2.07600 30.31700
C  7.25500 5.89800 29.23800
C  7.35500 4.70700 24.56700
C  10.23500 0.86000 25.57500
N  8.51200 3.83700 29.52100
C  9.15100 3.22100 30.65300
C  8.83900 3.86900 32.02800
C  7.82800 4.98400 31.58500
C  7.78900 4.87700 30.02800
C  6.38100 4.70900 32.14200
C  10.12100 4.48600 32.66100
C  9.96300 5.10100 34.06600
H  10.34100 4.27100 35.24400
N  7.63200 5.19100 26.91400
C  7.10200 6.11200 27.84800
C  6.31900 7.11900 27.16200
C  6.28700 6.70300 25.77200
C  7.17300 5.48500 25.70400
C  5.75800 8.32300 27.84700
C  5.57800 7.37500 24.57800
O  5.64500 6.95000 23.44400
C  4.68300 8.52300 24.86200
N  8.82700 2.93600 25.38200
C  8.14700 3.59700 24.35400
C  8.36800 2.85500 22.97300
C  9.38600 1.64200 23.31700
C  9.60400 1.88300 24.80500
C  6.99500 2.31000 22.30500
C  10.63800 1.64400 22.48300
C  11.04300 0.41100 21.65100
N  9.87400 1.80700 27.83000
C  10.35400 0.79000 27.02400
C  10.98000 -0.23600 27.75900
C  10.87700 0.28200 29.06000
C  10.17100 1.50200 29.07500
C  11.43100 -1.54900 27.30700
C  11.24200 0.04800 30.42300
O  11.72100 -0.96700 30.92900
C  10.65800 1.18200 31.22400
C  9.81500 0.61400 32.30300
O  8.85300 -0.14300 32.09500
O  10.31500 0.94700 33.57300
C  9.29400 0.53700 34.60800
H  6.71200 6.53200 29.94200
H  6.85100 4.93500 23.62500
H  10.76900 0.10500 24.99400
H  8.54600 3.04300 32.67600
H  8.15200 5.98200 31.88300
H  6.07300 5.66300 32.57100
H  6.41700 3.98000 32.95100
H  5.66500 4.33400 31.41100
H  10.47500 5.20800 31.92400
H  10.88400 3.71000 32.71900
H  8.93600 5.35800 34.32500
H  10.53300 6.02700 34.15000
H  6.15900 8.36900 28.85900
H  4.68800 8.32400 28.05300
H  6.16600 9.22600 27.39300
H  5.32000 9.40700 24.85100
H  4.03900 8.37100 25.72800
H  3.90100 8.58900 24.10500
H  8.87200 3.58200 22.33700
H  8.87500 0.69700 23.12800
H  7.19300 1.35200 21.82500
H  6.44200 2.90500 21.57800
H  6.21500 2.14200 23.04800
H  11.51400 1.86400 23.09400
H  10.50700 2.49100 21.81100
H  12.10200 0.19500 21.79100
H  10.78500 0.65400 20.62000
H  10.44200 -0.42500 22.00800
H  12.47900 -1.46000 27.02100
H  10.78900 -1.78500 26.45900
H  11.25400 -2.40800 27.95400
H  11.50900 1.75700 31.58900
H  9.52200 1.02800 35.55400
H  9.56600 -0.50600 34.76900
H  8.24600 0.58300 34.31200
Mg 46.76200 24.81500 28.53000
C  47.60600 27.04400 31.11300
C  46.07300 22.52200 30.95800
C  46.41100 22.63400 26.00900
C  47.86600 27.25800 26.24700
N  46.80800 24.87200 30.77300
C  47.06500 25.85200 31.58900
C  46.92500 25.47100 33.10500
C  46.72200 23.96500 32.98600
C  46.40400 23.76500 31.47600
C  47.76000 22.89000 33.47600
C  45.64000 26.21700 33.74000
C  45.86100 26.48000 35.24100
H  44.71400 26.27500 36.22300
N  46.18100 22.82600 28.48600
C  45.97800 22.11200 29.63200
C  45.68900 20.80800 29.18500
C  45.66800 20.80300 27.69400
C  46.07800 22.15100 27.31500
C  45.39300 19.66600 30.23400
C  45.36500 19.63800 26.69600
O  45.49400 19.72700 25.45700
C  44.91600 18.36600 27.25900
N  47.24400 24.91100 26.47100
C  47.03100 23.89000 25.63400
C  47.43600 24.27100 24.18200
C  47.40800 25.81300 24.22300
C  47.42000 26.05800 25.72200
C  48.85100 23.73900 23.56500
C  46.22700 26.43100 23.49300
C  44.85200 26.17000 24.23500
N  47.61300 26.76800 28.59300
C  47.94000 27.64700 27.58800
C  48.40500 28.88400 28.21400
C  48.31700 28.65600 29.57100
C  47.91600 27.36300 29.75800
C  49.11500 30.01700 27.42100
C  48.51500 29.28700 30.82500
O  48.88500 30.40500 31.11200
C  48.06100 28.28000 31.89800
C  49.04800 28.05900 32.96900
O  50.21200 27.67600 32.77200
O  48.40200 28.39800 34.18300
C  49.32800 28.48100 35.33800
H  45.84500 21.78500 31.73100
H  46.43200 21.99100 25.12700
H  48.19500 27.96500 25.48300
H  47.86700 25.73800 33.58500
H  45.78500 23.63200 33.43200
H  48.24100 22.28300 32.70800
H  47.33700 22.16800 34.17400
H  48.53200 23.46300 33.98900
H  44.78200 25.57900 33.52500
H  45.48100 27.17900 33.25300
H  46.13700 27.51200 35.45800
H  46.70300 25.87800 35.58500
H  45.47200 19.89400 31.29700
H  46.05400 18.79900 30.22200
H  44.39600 19.24600 30.10200
H  44.81300 17.58200 26.50900
H  44.04400 18.42200 27.91200
H  45.71700 18.01300 27.90900
H  46.61400 24.07700 23.49200
H  48.33300 26.19300 23.79000
H  49.55300 24.54700 23.35900
H  48.64600 23.25800 22.60800
H  49.12700 22.90500 24.21000
H  46.12300 26.10600 22.45800
H  46.30800 27.51700 23.45200
H  43.95900 26.09300 23.61400
H  44.66900 27.01100 24.90300
H  44.85600 25.16600 24.65900
H  49.41500 29.76900 26.40300
H  49.99600 30.29800 27.99900
H  48.49300 30.91300 27.41100
H  47.11800 28.73900 32.19600
H  48.83400 27.99400 36.17900
H  49.45100 29.55100 35.50600
H  50.24600 27.92200 35.15600

