158

Mg 30.65500 58.31700 41.16400
C  27.66800 56.65100 40.34100
C  32.51200 55.65800 39.76900
C  33.38700 60.16500 41.43300
C  28.71500 61.07700 42.17200
N  30.10700 56.43200 40.21600
C  28.82700 55.88300 40.06400
C  28.85500 54.53600 39.44200
C  30.40400 54.19100 39.55400
C  31.06900 55.51600 39.85000
C  30.66400 53.22700 40.75800
C  28.21200 54.54200 37.96600
C  28.41600 55.80000 37.07200
H  27.91800 55.61800 35.62400
N  32.62800 57.99500 40.55300
C  33.24000 56.80900 40.00100
C  34.65300 56.99900 39.78000
C  34.92800 58.36100 40.23400
C  33.61700 58.97100 40.70000
C  35.59300 55.93100 39.20500
C  36.19900 59.23300 40.04900
O  37.19700 58.73000 39.54700
C  36.25600 60.69500 40.30800
N  30.97300 60.39200 41.60500
C  32.24400 60.73800 41.88600
C  32.24700 62.20200 42.38800
C  30.79400 62.35100 42.86600
C  30.09900 61.27100 42.17000
C  33.45200 62.45500 43.38000
C  30.24300 63.76500 42.52200
C  29.65900 64.54300 43.70800
N  28.57100 58.87800 41.25400
C  27.97100 60.01500 41.59400
C  26.56700 59.81100 41.57900
C  26.34200 58.45900 41.08500
C  27.63800 57.97100 40.83100
C  25.52000 60.81000 41.97800
C  25.36800 57.51700 40.78800
O  24.12600 57.55000 40.90900
C  26.18100 56.26800 40.19600
C  25.73900 54.98300 40.73500
O  26.09100 54.53900 41.83600
O  24.91200 54.28700 39.82800
C  24.58300 52.87300 40.09800
H  33.17600 54.81500 39.56700
H  34.27900 60.77000 41.60800
H  28.23100 61.97400 42.56400
H  28.23100 53.86000 40.02700
H  30.96100 53.86600 38.67500
H  30.92400 53.84700 41.61600
H  31.50400 52.60900 40.44100
H  29.86100 52.56600 41.08600
H  27.15800 54.27300 37.89900
H  28.65000 53.72300 37.39700
H  29.48000 56.03400 37.11500
H  27.90800 56.61600 37.58600
H  36.67200 56.05900 39.29100
H  35.27400 55.57900 38.22400
H  35.28700 55.09500 39.83400
H  35.39800 61.10600 39.77500
H  37.13100 61.10900 39.80700
H  36.22000 60.81700 41.39100
H  32.44000 62.83000 41.51800
H  30.75100 62.21500 43.94600
H  33.79800 61.50400 43.78500
H  32.94400 62.97200 44.19300
H  34.28300 63.10500 43.10200
H  29.46000 63.61400 41.78000
H  31.09800 64.26100 42.06100
H  29.46500 63.81100 44.49200
H  28.73700 65.00000 43.34900
H  30.38000 65.31100 43.99100
H  25.51700 61.66500 41.30200
H  25.72100 61.15600 42.99100
H  24.58000 60.25800 41.98600
H  25.99000 56.28100 39.12300
H  24.16400 52.27800 39.28700
H  23.86500 52.82700 40.91700
H  25.56500 52.44300 40.29500
Mg -11.67200 15.64400 42.11500
C  -8.79500 13.78100 41.68700
C  -10.35500 18.19700 40.51800
C  -14.79100 17.11100 41.95400
C  -13.29900 12.61100 43.26400
N  -9.69500 15.87800 41.10400
C  -8.70500 15.09200 41.18000
C  -7.47600 15.80100 40.48000
C  -7.96300 17.29100 40.35600
C  -9.46100 17.12600 40.66000
C  -7.24800 18.33700 41.28600
C  -6.97400 15.15100 39.15100
C  -5.46400 14.96500 38.91600
H  -4.97500 15.62200 37.65500
N  -12.42200 17.46200 41.44700
C  -11.70600 18.34800 40.70800
C  -12.51900 19.44600 40.29600
C  -13.82600 19.19600 40.74900
C  -13.74600 17.88600 41.45900
C  -11.96700 20.63600 39.54700
C  -14.98300 20.12800 40.57400
O  -14.86800 21.18500 39.91500
C  -16.30400 19.88700 41.19700
N  -13.76700 15.02400 42.58800
C  -14.80900 15.79600 42.35100
C  -16.17800 15.07500 42.65600
C  -15.67500 13.66400 43.13200
C  -14.18200 13.69400 42.97800
C  -17.21700 15.66700 43.61500
C  -16.31900 12.47600 42.27900
C  -16.41700 11.10000 42.93400
N  -11.18300 13.54900 42.53400
C  -11.90900 12.48500 42.96200
C  -10.93400 11.39600 43.16600
C  -9.71700 11.80000 42.61700
C  -9.91500 13.15000 42.27400
C  -11.22600 10.02300 43.69000
C  -8.34100 11.45200 42.25800
O  -7.72300 10.40600 42.32700
C  -7.64700 12.70500 41.72900
C  -6.62300 13.10100 42.72100
O  -6.71500 13.42900 43.90000
O  -5.41600 12.86500 42.11700
C  -4.23300 13.43200 42.73900
H  -9.83500 19.03300 40.04500
H  -15.83500 17.33400 41.72600
H  -13.79200 11.69100 43.58500
H  -6.72500 15.69200 41.26200
H  -7.85900 17.68200 39.34400
H  -6.18700 18.08900 41.25900
H  -7.64700 18.24500 42.29600
H  -7.41600 19.34500 40.90700
H  -7.45500 15.57600 38.27000
H  -7.49200 14.19200 39.14000
H  -5.27500 13.89200 38.90000
H  -4.92900 15.38300 39.76900
H  -12.56600 20.83900 38.65900
H  -11.03000 20.31900 39.09000
H  -11.72500 21.51500 40.14400
H  -17.00600 20.70200 41.02400
H  -16.07500 19.74600 42.25300
H  -16.75700 18.99700 40.76000
H  -16.59000 14.97500 41.65200
H  -15.92200 13.47600 44.17700
H  -17.57000 15.00900 44.40900
H  -18.07900 15.94800 43.00900
H  -16.80200 16.57500 44.05100
H  -15.75900 12.29700 41.36100
H  -17.37300 12.66700 42.07700
H  -17.23100 10.57400 42.43600
H  -16.60500 11.29400 43.99000
H  -15.51200 10.52300 42.74400
H  -11.89500 10.01100 44.55000
H  -10.37100 9.49200 44.10900
H  -11.73200 9.47700 42.89400
H  -7.17200 12.51500 40.76700
H  -3.46300 13.43700 41.96800
H  -3.86500 12.81200 43.55700
H  -4.41700 14.43300 43.13000

