158

Mg 36.62400 49.67700 25.43400
C  36.80300 47.68300 28.40800
C  35.06800 52.07000 27.29600
C  36.12000 51.29700 22.59100
C  38.24200 47.12800 23.71000
N  36.00200 49.85500 27.61400
C  36.23900 48.96200 28.62100
C  35.95100 49.61100 29.98800
C  35.17900 50.90800 29.64200
C  35.46300 50.98600 28.12300
C  33.66600 50.89100 30.01000
C  37.22100 49.88500 30.85500
C  37.10100 49.84200 32.43100
H  35.68600 49.88400 33.08900
N  35.80100 51.45600 24.96200
C  35.22300 52.27100 25.89600
C  34.76300 53.46400 25.17000
C  34.96200 53.29900 23.73300
C  35.64700 51.98600 23.69900
C  34.22700 54.68600 25.88000
C  34.64400 54.21900 22.60500
O  34.85400 53.96400 21.43800
C  33.97600 55.54100 22.78100
N  37.08600 49.23300 23.42400
C  36.75600 50.05100 22.38600
C  37.16300 49.42100 20.98300
C  38.12000 48.25200 21.43800
C  37.85400 48.18600 22.93400
C  36.00500 49.03900 20.03900
C  39.52800 48.40600 20.91300
C  40.54100 48.92400 21.86400
N  37.30800 47.78800 25.86500
C  37.93600 46.93500 25.11900
C  38.24900 45.69300 25.86900
C  37.86000 46.01600 27.12400
C  37.24800 47.25700 27.11600
C  38.77600 44.43000 25.22800
C  37.77300 45.48600 28.42400
O  38.25700 44.41800 28.86400
C  37.19900 46.58100 29.29800
C  36.22700 45.96400 30.23500
O  35.05600 45.79800 30.06100
O  36.86400 45.55500 31.40200
C  36.01800 44.98900 32.45300
H  34.45900 52.78300 27.85700
H  35.97500 51.84300 21.65600
H  38.76700 46.34500 23.15900
H  35.32300 48.89000 30.51200
H  35.59500 51.78300 30.14200
H  33.14100 50.97100 29.05800
H  33.35000 51.76000 30.58800
H  33.34400 49.93800 30.43000
H  37.59100 50.88200 30.61500
H  38.02600 49.17900 30.65400
H  37.74400 50.61800 32.84700
H  37.69800 49.00000 32.78200
H  33.34500 55.07000 25.36800
H  34.97900 55.44600 26.09400
H  33.75200 54.37500 26.81000
H  33.74600 55.92800 21.78900
H  34.55200 56.28600 23.33000
H  32.98300 55.32900 23.17800
H  37.70500 50.23900 20.50900
H  37.65100 47.36200 21.01700
H  35.40900 48.26800 20.52700
H  36.43500 48.55800 19.16100
H  35.31700 49.83800 19.76600
H  39.58100 49.00500 20.00400
H  39.88100 47.40100 20.68200
H  40.15100 49.74300 22.46700
H  41.41300 49.32800 21.34900
H  40.80000 48.06600 22.48400
H  38.17700 44.17300 24.35400
H  38.58400 43.68200 25.99700
H  39.82700 44.63700 25.02100
H  38.03900 46.91000 29.91000
H  35.47200 44.08000 32.20000
H  35.21400 45.68100 32.70300
H  36.61200 44.85000 33.35700
Mg 1.12700 41.92800 24.61300
C  3.02600 41.91000 27.70100
C  -1.56800 41.02500 26.33100
C  -0.28600 41.64500 21.70700
C  4.33200 42.17100 22.99900
N  0.84600 41.43900 26.78000
C  1.63500 41.66800 27.83200
C  0.83600 41.48200 29.13700
C  -0.59600 40.94600 28.68700
C  -0.47400 41.16200 27.15900
C  -0.96100 39.48600 29.10200
C  0.78600 42.84400 29.95400
C  1.29000 42.78100 31.46800
H  0.23800 42.39100 32.59900
N  -0.70600 41.55500 24.06900
C  -1.72100 41.25400 24.96000
C  -2.96900 41.10800 24.10500
C  -2.58700 41.22500 22.76000
C  -1.12800 41.42600 22.80400
C  -4.35100 40.91400 24.70700
C  -3.47300 41.22500 21.50100
O  -2.98200 41.37900 20.42300
C  -5.02800 40.94600 21.62100
N  1.95400 41.83100 22.69800
C  1.07400 41.94700 21.68000
C  1.81400 42.12300 20.31800
C  3.18100 42.53100 20.78300
C  3.14300 42.20500 22.25700
C  1.95300 40.85100 19.36400
C  3.66500 43.96100 20.47400
C  5.14200 44.26000 19.93600
N  3.25500 41.97100 25.20300
C  4.37000 42.05000 24.40300
C  5.55900 42.25100 25.23400
C  5.11500 42.23600 26.53100
C  3.68500 42.02500 26.44800
C  6.96800 42.40200 24.75200
C  5.37200 42.27400 28.04000
O  6.45800 42.45100 28.63000
C  4.04000 42.02000 28.77000
C  4.24300 40.77800 29.60600
O  4.02100 39.61900 29.28300
O  4.78000 41.21200 30.73800
C  5.02700 40.06500 31.63800
H  -2.53100 40.95200 26.84100
H  -0.83800 41.98400 20.82800
H  5.25400 42.54400 22.54600
H  1.35000 40.74700 29.75600
H  -1.42900 41.52700 29.08300
H  -0.23500 39.20900 29.86600
H  -0.72200 38.95100 28.18300
H  -1.98800 39.33400 29.43500
H  -0.28200 43.06200 29.96600
H  1.32600 43.68600 29.52000
H  1.59300 43.78500 31.76500
H  2.14300 42.10500 31.51700
H  -4.14100 40.97800 25.77500
H  -4.70000 39.89100 24.56400
H  -5.04400 41.64500 24.29000
H  -5.32500 40.14900 22.30300
H  -5.31000 40.79900 20.57800
H  -5.39400 41.92300 21.93600
H  1.35800 42.92400 19.73600
H  3.93000 41.93800 20.25900
H  1.21700 40.11000 19.67800
H  2.93500 40.38000 19.41700
H  1.67700 41.28200 18.40200
H  3.69500 44.49400 21.42400
H  2.90000 44.50700 19.92200
H  5.68400 44.42800 20.86700
H  5.24000 45.09600 19.24300
H  5.46900 43.31700 19.50000
H  7.13400 42.00300 23.75200
H  7.55800 41.86100 25.49200
H  7.34500 43.42300 24.82600
H  3.96500 42.96300 29.31100
H  5.56800 40.49200 32.48300
H  5.76400 39.37000 31.23500
H  4.14200 39.49200 31.91300

