158

Mg -1.58000 17.30300 27.07600
C  -2.11300 15.22600 29.90700
C  -2.24800 19.95500 29.04200
C  -1.61100 19.08700 24.27000
C  -1.54700 14.26800 25.03600
N  -2.00600 17.51000 29.30900
C  -2.18900 16.57900 30.30900
C  -2.55000 17.23600 31.60800
C  -2.84100 18.72000 31.26200
C  -2.33300 18.77100 29.76900
C  -4.30300 19.12200 31.41300
C  -1.44100 16.92400 32.69100
C  -1.96400 16.36500 33.97800
H  -0.95400 16.08100 35.09900
N  -1.88500 19.20800 26.70900
C  -2.06000 20.23500 27.65400
C  -2.06800 21.50300 27.01300
C  -1.85800 21.25000 25.66100
C  -1.74000 19.82300 25.49600
C  -2.41200 22.79400 27.73700
C  -1.58000 22.28100 24.52400
O  -1.40300 21.91800 23.33700
C  -1.47600 23.88400 24.72400
N  -1.42000 16.69600 24.91200
C  -1.46500 17.71500 24.01700
C  -1.50900 17.07400 22.56000
C  -1.11800 15.58200 22.79500
C  -1.46400 15.46700 24.30200
C  -2.90000 17.27600 21.81600
C  0.33600 15.18300 22.52700
C  1.48500 16.24400 22.62300
N  -1.76400 15.23800 27.31500
C  -1.63000 14.13600 26.45900
C  -1.95700 12.94000 27.11500
C  -1.98700 13.27300 28.48600
C  -1.92500 14.67400 28.57400
C  -1.87800 11.59500 26.50700
C  -2.08500 12.72300 29.77600
O  -2.16400 11.52400 30.13200
C  -2.09200 13.91900 30.70200
C  -0.80800 13.69400 31.44300
O  0.30700 13.92700 31.00400
O  -1.01100 13.20500 32.73500
C  0.23700 13.17800 33.51100
H  -2.48000 20.83000 29.65400
H  -1.73000 19.60800 23.31700
H  -1.50000 13.29100 24.55000
H  -3.49800 16.80800 31.93200
H  -2.31700 19.37900 31.95300
H  -5.04100 18.45600 31.85800
H  -4.81000 19.21700 30.45300
H  -4.22600 19.99100 32.06700
H  -0.92500 17.86900 32.85700
H  -0.68300 16.30000 32.21800
H  -2.61400 15.50200 33.83400
H  -2.56100 17.18200 34.38100
H  -2.52100 22.66600 28.81400
H  -3.31500 23.23400 27.31400
H  -1.51200 23.38600 27.57600
H  -0.44800 24.17400 24.94200
H  -2.10900 24.28200 25.51600
H  -1.73200 24.27100 23.73800
H  -0.82400 17.64800 21.93700
H  -1.63400 15.05700 21.99100
H  -3.21500 16.38500 21.27300
H  -2.73400 18.00500 21.02300
H  -3.70500 17.74100 22.38600
H  0.31400 14.87300 21.48200
H  0.62400 14.34900 23.16700
H  1.00300 17.17200 22.93300
H  1.73300 16.51800 21.59800
H  2.35100 15.87400 23.17300
H  -0.84200 11.59200 26.16900
H  -2.55300 11.40900 25.67200
H  -2.12000 10.85600 27.27100
H  -2.91500 13.97000 31.41400
H  0.88100 14.02100 33.25900
H  0.81900 12.26100 33.41800
H  -0.10200 13.13600 34.54600
Mg 17.28600 -0.76100 27.10900
C  15.93800 1.10200 29.82000
C  19.25400 -2.45600 29.21200
C  18.41700 -2.40500 24.43300
C  15.44200 1.37000 24.91100
N  17.56800 -0.60600 29.22900
C  16.92600 0.17900 30.15900
C  17.24600 -0.20200 31.56900
C  18.48700 -1.20200 31.37500
C  18.54000 -1.40600 29.83500
C  19.81300 -0.70200 31.98300
C  16.02600 -0.85200 32.28000
C  16.14300 -0.96300 33.85900
H  17.30300 -0.33100 34.57900
N  18.61000 -2.30900 26.85500
C  19.25000 -2.90100 27.88600
C  20.02800 -3.94700 27.37500
C  19.76900 -4.04200 25.96800
C  18.84700 -2.90900 25.68500
C  20.72100 -4.88800 28.28800
C  20.33400 -5.01700 24.90100
O  20.01400 -4.93600 23.76400
C  21.44200 -5.94800 25.32800
N  16.97500 -0.57500 24.92700
C  17.56300 -1.37600 24.09700
C  17.25900 -1.01500 22.60100
C  16.20700 0.18600 22.72300
C  16.15800 0.29500 24.26400
C  18.51200 -0.49300 21.79800
C  14.74300 0.03200 22.14700
C  14.13400 1.27900 21.53400
N  15.92800 0.82500 27.26700
C  15.27700 1.58900 26.26600
C  14.47600 2.61500 26.92600
C  14.69100 2.45500 28.31700
C  15.50900 1.37400 28.46300
C  13.66300 3.74900 26.14700
C  14.28200 2.93900 29.63900
O  13.49500 3.89100 29.97900
C  15.08600 2.05900 30.62700
C  15.89500 2.96900 31.51200
O  16.81200 3.65600 31.08700
O  15.34600 2.94700 32.81100
C  15.90400 3.93300 33.72800
H  19.96600 -2.85700 29.93600
H  18.73800 -2.89400 23.51100
H  14.84900 2.00600 24.25000
H  17.49000 0.76700 32.00400
H  18.15800 -2.15700 31.78400
H  19.80300 0.33600 32.31400
H  20.51200 -0.72200 31.14700
H  20.16200 -1.26900 32.84600
H  15.98800 -1.88000 31.92100
H  15.07200 -0.46300 31.92300
H  16.22200 -2.03100 34.06500
H  15.21800 -0.62400 34.32500
H  20.43500 -5.93000 28.14700
H  20.71900 -4.59300 29.33800
H  21.78500 -4.94500 28.05700
H  21.01600 -6.91900 25.58200
H  22.21100 -5.59000 26.01200
H  21.85600 -6.25900 24.36900
H  16.86000 -1.79800 21.95700
H  16.55800 1.12800 22.30100
H  18.78700 -1.26100 21.07500
H  19.35400 -0.23000 22.43900
H  18.26800 0.36300 21.16800
H  14.06000 -0.17800 22.97000
H  14.67100 -0.77200 21.41400
H  14.98400 1.84000 21.14500
H  13.60900 1.83400 22.31100
H  13.34500 1.10200 20.80200
H  14.22000 4.35300 25.43200
H  13.24900 4.37400 26.93800
H  12.83200 3.21800 25.68100
H  14.43800 1.49300 31.29600
H  16.33500 4.83300 33.28800
H  16.66100 3.47400 34.36400
H  15.13400 4.20800 34.44900

