158

Mg -1.87400 17.52700 25.72100
C  -2.44500 15.35000 28.59400
C  -2.78400 20.13800 27.84600
C  -1.94500 19.40500 23.07100
C  -1.78900 14.62200 23.76000
N  -2.33500 17.67200 28.01700
C  -2.46400 16.71100 29.00600
C  -2.86400 17.34200 30.32400
C  -3.09500 18.84200 30.02700
C  -2.73300 18.92600 28.54700
C  -4.58200 19.19600 30.34800
C  -1.70000 17.16500 31.35900
C  -1.97200 16.31100 32.58100
H  -2.34800 17.10500 33.80900
N  -2.28000 19.51500 25.44300
C  -2.41400 20.41700 26.49300
C  -2.35600 21.74500 25.85100
C  -2.08500 21.59800 24.44400
C  -2.08100 20.17900 24.30500
C  -2.51100 23.00100 26.61200
C  -1.72800 22.62700 23.45500
O  -1.53200 22.35800 22.28400
C  -1.65900 24.05500 23.80600
N  -2.09700 16.99500 23.71200
C  -1.85400 18.01300 22.83100
C  -1.57700 17.50100 21.40900
C  -1.42700 15.96400 21.66100
C  -1.71200 15.85600 23.17900
C  -2.64000 17.78200 20.35000
C  -0.09800 15.24700 21.28100
C  1.02100 15.52300 22.28000
N  -1.99000 15.36700 26.08900
C  -1.87900 14.35500 25.13800
C  -1.98300 13.04400 25.82800
C  -2.23300 13.38800 27.19000
C  -2.23600 14.80300 27.30000
C  -1.98200 11.71400 25.22700
C  -2.55000 12.88600 28.52700
O  -2.61800 11.75100 28.84200
C  -2.73600 14.07700 29.51300
C  -1.73900 13.84500 30.67600
O  -0.57100 14.20200 30.67100
O  -2.31400 13.11100 31.66000
C  -1.57700 12.89200 32.90900
H  -3.03000 21.01000 28.45700
H  -1.91900 20.03000 22.17500
H  -1.70300 13.71400 23.16000
H  -3.78900 16.81400 30.55700
H  -2.49100 19.60000 30.52600
H  -4.84100 18.83800 31.34400
H  -5.35400 18.66600 29.79000
H  -4.72700 20.27500 30.28800
H  -1.26000 18.14400 31.55100
H  -0.89500 16.64000 30.84500
H  -1.04100 15.77600 32.76600
H  -2.76000 15.56400 32.48600
H  -2.34300 22.92300 27.68600
H  -3.40700 23.60800 26.48400
H  -1.81200 23.76800 26.27600
H  -0.87600 24.50900 24.41300
H  -2.60100 24.35800 24.26300
H  -1.79600 24.63600 22.89300
H  -0.63700 17.93400 21.06600
H  -2.20900 15.41400 21.13700
H  -2.85300 18.84100 20.20500
H  -3.59900 17.37000 20.66200
H  -2.42900 17.28400 19.40300
H  0.22500 15.63200 20.31400
H  -0.35400 14.18800 21.24400
H  0.79500 16.32800 22.98000
H  1.94000 15.70800 21.72300
H  1.25000 14.65900 22.90400
H  -1.49800 11.87700 24.26500
H  -2.97300 11.26300 25.18700
H  -1.36900 10.94900 25.70400
H  -3.72700 14.00900 29.96200
H  -2.18500 12.93500 33.81300
H  -0.75700 13.60000 33.03500
H  -1.25900 11.85000 32.89800
Mg 35.40000 49.85300 25.43500
C  35.05100 48.14200 28.46900
C  34.30300 52.70400 27.23500
C  35.22500 51.40300 22.49500
C  36.07700 46.78200 23.81500
N  34.84500 50.40200 27.68400
C  34.84700 49.49700 28.71000
C  34.62000 50.18100 30.06300
C  34.33200 51.66800 29.64400
C  34.48700 51.67200 28.12100
C  32.90000 52.21900 30.06000
C  35.80300 50.01200 31.10400
C  35.36700 49.73700 32.54100
H  33.88100 49.88800 33.00000
N  34.89400 51.75000 24.94400
C  34.45800 52.73800 25.81100
C  34.02800 53.87600 24.96700
C  34.40900 53.62600 23.63100
C  34.90900 52.18800 23.63800
C  33.35100 55.13100 25.46600
C  34.37400 54.49100 22.46200
O  34.82700 54.17100 21.36300
C  33.74600 55.80800 22.46500
N  35.76400 49.23500 23.43600
C  35.64600 50.02600 22.35100
C  35.79600 49.28300 21.03000
C  36.24100 47.82500 21.51100
C  36.05500 47.97400 23.02500
C  34.52200 49.23000 20.11400
C  37.68000 47.57300 21.01300
C  38.86200 48.37800 21.61800
N  35.54100 47.90600 25.93400
C  35.83700 46.73200 25.27400
C  35.79000 45.50600 26.09600
C  35.54000 46.00500 27.36000
C  35.38400 47.48100 27.21300
C  36.13300 44.14800 25.68500
C  35.43400 45.61100 28.77500
O  35.57000 44.52800 29.34700
C  35.08400 46.95800 29.53500
C  33.79900 46.72600 30.23900
O  32.67500 46.89900 29.81300
O  34.02500 46.07000 31.47700
C  32.79400 45.56300 32.17000
H  34.17400 53.68000 27.70600
H  35.29300 51.96300 21.56000
H  36.25000 45.78800 23.39700
H  33.64100 49.86800 30.42500
H  35.13800 52.17700 30.17200
H  32.23000 52.44400 29.23100
H  33.04200 53.10600 30.67900
H  32.26000 51.46700 30.52100
H  36.32200 50.96900 31.15800
H  36.50200 49.24000 30.78000
H  36.10200 50.26600 33.14700
H  35.50600 48.68700 32.79700
H  34.00300 55.97000 25.22500
H  33.05600 55.18100 26.51400
H  32.40200 55.27500 24.94900
H  34.26300 56.46900 23.16000
H  32.72500 55.66200 22.81800
H  33.88500 56.23600 21.47300
H  36.56400 49.67000 20.36200
H  35.53400 47.11900 21.07700
H  34.16500 48.20500 20.01700
H  34.63900 49.77900 19.17900
H  33.67100 49.69500 20.61100
H  37.56000 47.55500 19.93000
H  37.79400 46.55100 21.37400
H  39.43400 48.87800 20.83700
H  39.63200 47.72500 22.03000
H  38.64400 49.17000 22.33500
H  36.95500 44.26100 24.97800
H  35.25300 43.62700 25.31000
H  36.49900 43.60500 26.55700
H  35.90000 46.95800 30.25700
H  32.14600 44.98600 31.51100
H  32.26700 46.44100 32.54300
H  33.12700 45.06800 33.08300

