158

Mg 17.36800 -1.84600 28.39300
C  16.33700 0.21900 30.92200
C  19.62600 -3.35300 30.66400
C  18.94000 -3.49800 25.81700
C  15.48400 -0.08100 26.05400
N  17.83400 -1.71700 30.59400
C  17.14600 -0.89000 31.39100
C  17.63000 -0.97100 32.85000
C  18.78000 -1.99700 32.76300
C  18.77900 -2.40900 31.30900
C  20.11000 -1.59000 33.47400
C  16.46700 -1.39400 33.86700
C  16.14600 -0.40900 34.99700
H  17.36000 0.09500 35.90000
N  19.06100 -3.29600 28.29300
C  19.69200 -3.86200 29.31300
C  20.53400 -4.89800 28.84700
C  20.46100 -4.89000 27.48800
C  19.39500 -3.92100 27.15000
C  21.46700 -5.68300 29.91400
C  21.32500 -5.62200 26.41500
O  21.16000 -5.66600 25.23400
C  22.40800 -6.47700 26.88100
N  17.32200 -1.64300 26.21900
C  17.98500 -2.52800 25.39800
C  17.65700 -2.34200 23.93600
C  16.43900 -1.30000 24.10000
C  16.31400 -1.05800 25.59600
C  18.84500 -1.87200 23.04700
C  15.13300 -1.76000 23.41100
C  13.93200 -2.35700 24.23200
N  16.07900 -0.32900 28.49000
C  15.38500 0.34000 27.45600
C  14.61300 1.43900 28.07600
C  14.94700 1.34200 29.46500
C  15.89100 0.32900 29.64600
C  13.66300 2.49100 27.56400
C  14.63800 1.79300 30.68900
O  13.74900 2.66100 30.92900
C  15.62100 1.20900 31.68300
C  16.52000 2.32400 32.30800
O  17.62600 2.60800 31.89500
O  15.81900 2.85900 33.33900
C  16.56200 3.91100 34.05000
H  20.36900 -3.67100 31.39800
H  19.37600 -4.15400 25.06000
H  14.97500 0.45000 25.24700
H  17.90800 0.03100 33.17500
H  18.44500 -2.90300 33.26700
H  20.14100 -2.31100 34.29000
H  19.96200 -0.60600 33.91800
H  21.06200 -1.57300 32.94300
H  16.69300 -2.30500 34.42100
H  15.65100 -1.54700 33.16000
H  15.35800 -0.68700 35.69800
H  15.80000 0.49100 34.48900
H  21.25400 -5.34800 30.92900
H  22.53800 -5.70400 29.71200
H  21.05000 -6.69000 29.94200
H  22.94400 -6.84100 26.00400
H  22.00000 -7.24800 27.53300
H  23.12500 -5.93500 27.49800
H  17.28100 -3.31800 23.63000
H  16.67700 -0.27700 23.80700
H  18.43800 -1.10000 22.39400
H  19.32900 -2.66500 22.47600
H  19.60200 -1.37900 23.65700
H  15.32600 -2.55100 22.68700
H  14.75700 -0.87800 22.89300
H  14.01900 -2.40700 25.31800
H  13.54700 -3.30900 23.86700
H  13.13200 -1.63900 24.04900
H  12.60300 2.23400 27.56700
H  14.01100 2.74600 26.56300
H  13.77700 3.44900 28.07000
H  14.92700 0.76900 32.39900
H  16.30900 4.02300 35.10500
H  16.62700 4.84200 33.48700
H  17.58200 3.54900 34.17900
Mg 53.66700 24.55500 44.51500
C  51.17700 26.93400 43.73300
C  51.85800 22.18500 42.85000
C  56.42200 22.62800 44.60100
C  55.68500 27.33600 45.66400
N  51.70800 24.64800 43.23800
C  50.95300 25.68300 43.05200
C  49.65900 25.28400 42.31800
C  49.65600 23.63600 42.44000
C  51.16900 23.45100 42.84600
C  48.81600 23.00700 43.52700
C  49.51400 25.56900 40.79200
C  50.80400 26.00500 40.03000
H  50.52900 26.65200 38.68600
N  54.02100 22.67500 43.96500
C  53.17600 21.81400 43.32500
C  53.83000 20.52200 43.22500
C  55.06100 20.61800 43.81400
C  55.23600 22.03200 44.17600
C  53.09100 19.33700 42.56300
C  56.02200 19.44800 44.04300
O  55.75000 18.30100 43.77100
C  57.34000 19.71800 44.68100
N  55.73800 25.00300 44.96600
C  56.70200 23.96300 45.02500
C  58.09000 24.57400 45.35700
C  57.77400 26.05900 45.56900
C  56.28500 26.08600 45.39300
C  58.80600 23.78000 46.49300
C  58.49400 26.99800 44.48700
C  59.35800 27.99000 45.28300
N  53.44500 26.63600 44.79700
C  54.31300 27.60000 45.33500
C  53.57400 28.85500 45.51800
C  52.35300 28.69600 44.84700
C  52.32500 27.31000 44.46700
C  54.12700 29.98900 46.30300
C  51.07900 29.27400 44.45000
O  50.67400 30.35100 44.54900
C  50.21400 28.21600 43.77100
C  49.84000 28.70700 42.45300
O  50.57800 29.04400 41.51800
O  48.45200 28.75900 42.52400
C  47.90300 29.22200 41.22000
H  51.23000 21.38600 42.45100
H  57.36500 22.07700 44.59000
H  56.18600 28.15100 46.19100
H  48.83200 25.81800 42.78700
H  49.32000 23.12500 41.53800
H  48.24700 23.80000 44.01200
H  49.51000 22.58900 44.25600
H  48.16500 22.26100 43.06900
H  48.82900 26.41600 40.75400
H  49.00700 24.82800 40.17400
H  51.27100 25.02000 39.99700
H  51.31400 26.72800 40.66700
H  53.85500 18.98000 41.87300
H  52.17900 19.67300 42.06900
H  52.92600 18.59400 43.34300
H  57.95600 18.82300 44.76100
H  57.24900 20.05300 45.71500
H  57.86100 20.44800 44.06200
H  58.81800 24.51800 44.54800
H  58.08100 26.30500 46.58600
H  59.70200 23.38100 46.01600
H  58.11900 22.98500 46.78400
H  59.12800 24.30200 47.39400
H  57.83700 27.60200 43.86200
H  59.22100 26.55200 43.80800
H  59.80100 27.65800 46.22200
H  58.77500 28.84800 45.61700
H  60.20400 28.26400 44.65300
H  54.57400 30.78800 45.71100
H  54.82400 29.60500 47.04800
H  53.39100 30.56900 46.86000
H  49.27700 27.96400 44.26600
H  48.12500 30.28600 41.13700
H  46.82600 29.31300 41.36300
H  48.18800 28.48700 40.46700

