158

Mg 44.19500 3.23600 47.64600
C  42.06700 5.83000 46.71500
C  41.58200 1.07000 47.44800
C  46.35000 0.58500 47.86200
C  46.90900 5.43700 47.44000
N  42.01400 3.49000 47.19300
C  41.38300 4.61900 46.77000
C  39.94000 4.30500 46.52700
C  39.79100 2.87000 47.21200
C  41.25400 2.41300 47.23100
C  39.14200 2.78500 48.65700
C  39.65800 4.30900 44.93600
C  38.45300 5.12700 44.47000
H  38.64900 6.22300 43.41500
N  43.90200 1.07300 47.73600
C  42.80800 0.45700 47.58200
C  42.98700 -0.99500 47.68400
C  44.39200 -1.17100 47.73100
C  44.97900 0.23400 47.80100
C  41.87400 -2.01000 47.52800
C  45.10500 -2.56300 47.68100
O  44.49000 -3.59800 47.73300
C  46.53100 -2.65300 47.57500
N  46.32400 3.06800 47.61300
C  46.98200 1.90400 47.85700
C  48.51500 2.02900 48.11300
C  48.64800 3.58700 47.99100
C  47.23300 4.09800 47.65500
C  48.88100 1.34700 49.52000
C  49.68000 4.05500 46.92600
C  50.73400 5.08900 47.21900
N  44.46900 5.15600 47.27000
C  45.64200 5.85000 47.12500
C  45.32900 7.23700 46.81600
C  43.94100 7.33300 46.79600
C  43.42100 6.06500 47.00600
C  46.39800 8.32400 46.76100
C  42.81000 8.20600 46.59400
O  42.74400 9.43100 46.51300
C  41.50100 7.20500 46.49700
C  40.66700 7.61900 47.65800
O  40.42300 6.82700 48.54300
O  40.11400 8.84500 47.55900
C  38.93500 8.95700 48.40400
H  40.77100 0.34200 47.38200
H  47.01500 -0.27200 47.98600
H  47.75700 6.12500 47.46700
H  39.26900 4.98700 47.05000
H  39.26700 2.20300 46.52700
H  39.06100 3.76200 49.13500
H  39.72500 2.15900 49.33200
H  38.16500 2.33200 48.48900
H  39.27700 3.31000 44.72400
H  40.52400 4.47800 44.29500
H  37.96500 5.65200 45.29200
H  37.65200 4.54600 44.01200
H  42.17000 -2.96700 47.09800
H  41.23200 -1.57800 46.76100
H  41.35100 -2.17500 48.47000
H  46.84600 -2.06400 46.71400
H  46.72800 -3.70000 47.34400
H  46.91700 -2.32000 48.53800
H  49.08100 1.54200 47.31900
H  48.92000 4.06600 48.93200
H  49.32600 2.14900 50.11000
H  49.47700 0.43700 49.44300
H  47.97300 1.10100 50.07000
H  49.20900 4.32700 45.98100
H  50.21300 3.14100 46.66600
H  51.73900 4.66600 47.21500
H  50.61900 5.61200 48.16800
H  50.78600 5.78600 46.38200
H  46.97100 8.24800 47.68500
H  45.97800 9.31600 46.93100
H  46.97100 8.22500 45.83900
H  40.99800 7.04300 45.54400
H  38.10500 8.38900 47.98500
H  38.57800 9.98700 48.42700
H  39.17000 8.78400 49.45400
Mg 41.32100 40.88500 26.89800
C  40.86400 43.42400 29.25900
C  42.21300 38.77700 29.53100
C  41.86200 38.39400 24.68500
C  41.20100 43.22100 24.34800
N  41.47200 41.08700 29.14600
C  41.12200 42.17200 29.88200
C  41.11700 41.91500 31.36600
C  41.61300 40.38600 31.39000
C  41.78400 40.03100 29.92900
C  42.84400 40.14000 32.29500
C  39.71800 42.12900 31.96000
C  39.50400 41.83400 33.50500
H  39.22700 42.98500 34.44000
N  41.89600 38.84900 27.06300
C  42.20900 38.21600 28.23800
C  42.48600 36.82300 27.90800
C  42.29800 36.66200 26.47400
C  41.97600 37.96700 25.99900
C  43.07900 35.86900 28.91800
C  42.65400 35.36800 25.62700
O  42.53900 35.37500 24.40900
C  42.98200 34.11600 26.23700
N  41.56300 40.87200 24.82800
C  41.75700 39.67500 24.14700
C  41.71200 39.92700 22.60700
C  41.34600 41.44000 22.55300
C  41.39500 41.85300 23.97800
C  43.06400 39.59700 21.83800
C  39.99800 41.66700 21.89800
C  38.79100 41.07300 22.61200
N  41.07600 42.90700 26.72200
C  41.09000 43.79100 25.60900
C  40.92300 45.18000 26.04300
C  40.75500 45.06900 27.43700
C  40.93400 43.68000 27.82100
C  40.68000 46.29100 25.10100
C  40.29200 45.73100 28.64300
O  39.91000 46.91300 28.78900
C  40.39600 44.69800 29.84100
C  41.38800 45.33100 30.84500
O  42.60600 45.49800 30.75300
O  40.62100 45.89000 31.91000
C  41.47000 46.48200 32.97900
H  42.47200 38.14500 30.38300
H  41.92800 37.67400 23.86700
H  41.07200 44.02200 23.61700
H  41.84800 42.48200 31.94200
H  40.96500 39.59800 31.77300
H  43.02700 41.10100 32.77400
H  43.70700 39.86800 31.68800
H  42.88000 39.34600 33.04000
H  39.17000 41.54100 31.22400
H  39.38400 43.16300 31.87400
H  40.48100 41.44900 33.79700
H  38.86100 40.96300 33.63200
H  42.99500 36.15600 29.96600
H  44.11200 35.60400 28.69400
H  42.50800 34.95200 28.76900
H  43.89700 34.26700 26.80900
H  43.27800 33.55500 25.35000
H  42.17600 33.75700 26.87800
H  40.93500 39.24000 22.27000
H  42.12800 42.02100 22.06300
H  42.92400 38.98800 20.94500
H  43.68600 38.94100 22.44700
H  43.60800 40.49300 21.54000
H  40.13300 41.17800 20.93300
H  39.78400 42.70600 21.64800
H  39.11700 40.43100 23.43100
H  38.27200 40.58300 21.78900
H  38.19900 41.93100 22.93200
H  41.06300 46.10400 24.09800
H  40.98100 47.25500 25.50900
H  39.59700 46.24800 24.98700
H  39.41000 44.58100 30.29100
H  41.71600 45.63800 33.62400
H  40.70100 47.05500 33.49700
H  42.23500 47.19100 32.66100

