158

Mg 35.56100 2.11000 29.31400
C  33.21900 3.41900 31.61700
C  37.85800 2.03400 31.78700
C  37.92800 1.21000 27.03100
C  33.18400 2.43800 26.87300
N  35.55500 2.70600 31.45700
C  34.45100 3.08300 32.18300
C  34.75500 3.01600 33.65200
C  36.33900 2.94900 33.70800
C  36.62500 2.44500 32.25900
C  37.09600 4.26600 34.07900
C  33.97900 1.84500 34.35900
C  33.87800 1.88200 35.86200
H  34.38100 3.20100 36.51100
N  37.56200 1.59200 29.41500
C  38.33500 1.65500 30.50300
C  39.72100 1.33600 30.23400
C  39.64800 0.89200 28.89200
C  38.26700 1.21300 28.38600
C  40.85800 1.50800 31.21500
C  40.79400 0.31000 28.07300
O  40.75600 -0.06000 26.91900
C  42.03800 0.02500 28.80000
N  35.62300 1.85200 27.20000
C  36.65700 1.49800 26.48800
C  36.30300 1.44400 24.97500
C  34.73100 1.64300 24.99400
C  34.46200 1.93200 26.47900
C  37.17700 2.41500 24.10600
C  33.96400 0.43200 24.32400
C  33.41600 -0.69300 25.16700
N  33.58300 2.79700 29.20500
C  32.76800 2.95300 28.10100
C  31.47400 3.48700 28.49000
C  31.58200 3.70600 29.87600
C  32.89500 3.26400 30.25100
C  30.16900 3.65200 27.72300
C  30.92900 4.17000 31.05900
O  29.86000 4.70500 31.17600
C  31.89800 3.84900 32.27800
C  31.99200 5.08300 33.06900
O  32.50100 6.11500 32.65400
O  31.41200 4.98300 34.33300
C  31.36100 6.18700 35.16000
H  38.61000 2.20200 32.56100
H  38.69600 0.88400 26.32600
H  32.35800 2.38400 26.16000
H  34.42300 3.92700 34.15000
H  36.71000 2.21900 34.42700
H  37.82200 4.05000 34.86200
H  36.38800 4.95700 34.53700
H  37.66600 4.66200 33.23800
H  34.52300 0.92500 34.14600
H  33.00000 1.74200 33.89200
H  34.51200 1.08500 36.25000
H  32.87800 1.55600 36.14600
H  41.02400 0.55300 31.71500
H  40.48500 2.15500 32.00900
H  41.70700 2.07300 30.82900
H  42.69300 0.89500 28.84500
H  42.43100 -0.77300 28.16900
H  41.79400 -0.37100 29.78500
H  36.64600 0.47200 24.62200
H  34.38700 2.52900 24.46000
H  36.60800 3.17200 23.56600
H  37.79400 1.78600 23.46400
H  37.85000 2.97700 24.75300
H  34.53200 0.03500 23.48300
H  33.08000 0.92200 23.91700
H  33.62500 -1.62700 24.64700
H  32.32700 -0.65600 25.16700
H  33.80700 -0.64500 26.18400
H  29.84500 2.66500 27.39500
H  30.21900 4.31100 26.85500
H  29.42300 4.14200 28.35000
H  31.52100 3.00300 32.85300
H  31.96200 7.03800 34.84100
H  31.74100 5.77100 36.09200
H  30.30900 6.44600 35.28600
Mg -10.55600 38.73900 41.40900
C  -9.33000 35.54400 40.61400
C  -7.76600 40.06300 39.96300
C  -12.26400 41.62800 40.85100
C  -13.64100 37.14100 42.31500
N  -8.87800 37.86800 40.24100
C  -8.58800 36.53700 40.08700
C  -7.27600 36.44900 39.30900
C  -6.61800 37.84600 39.48400
C  -7.81000 38.68400 39.91700
C  -5.45200 37.94900 40.62900
C  -7.68100 36.03900 37.85200
C  -7.12600 34.67300 37.36700
H  -6.56800 34.57200 35.94800
N  -10.00800 40.62100 40.66100
C  -8.77400 41.03500 40.20900
C  -8.79600 42.44600 39.88200
C  -10.11600 42.89900 40.09600
C  -10.91400 41.67600 40.58000
C  -7.56900 43.12400 39.43400
C  -10.67600 44.27400 39.82900
O  -9.89600 45.15300 39.51200
C  -12.09000 44.61700 39.75600
N  -12.70700 39.24500 41.54700
C  -13.06600 40.59000 41.36200
C  -14.54000 40.67500 41.75500
C  -14.91400 39.35400 42.37400
C  -13.69300 38.52700 42.04100
C  -15.06300 41.95300 42.59700
C  -16.29100 38.63300 42.09200
C  -17.10200 38.27500 43.41500
N  -11.35500 36.80700 41.57300
C  -12.50300 36.31200 42.07100
C  -12.41300 34.90300 42.25400
C  -11.28200 34.54300 41.69700
C  -10.57500 35.70900 41.27400
C  -13.43800 34.04600 42.75000
C  -10.42500 33.37300 41.30100
O  -10.56100 32.20400 41.53700
C  -9.17800 34.00800 40.52100
C  -7.95900 33.47700 41.09600
O  -7.05200 32.87300 40.52800
O  -7.97600 33.62200 42.43000
C  -6.86200 32.95800 43.25500
H  -6.77300 40.37800 39.63500
H  -12.85500 42.54700 40.84300
H  -14.57200 36.79600 42.76900
H  -6.68700 35.70400 39.84400
H  -6.18700 38.13200 38.52400
H  -5.77500 38.51100 41.50600
H  -4.52000 38.37600 40.25900
H  -5.28000 36.91500 40.92500
H  -7.27000 36.75400 37.13900
H  -8.76900 36.06900 37.79900
H  -7.86900 33.89400 37.53800
H  -6.28000 34.44100 38.01400
H  -6.87700 43.19700 40.27300
H  -7.66000 44.12900 39.02300
H  -7.08800 42.45400 38.72100
H  -12.78700 43.92300 39.28500
H  -12.18200 45.63900 39.38800
H  -12.50300 44.65500 40.76400
H  -15.18900 40.72200 40.88100
H  -14.78100 39.50600 43.44500
H  -15.45400 41.63200 43.56200
H  -15.82000 42.51100 42.04700
H  -14.28000 42.65500 42.88500
H  -16.03400 37.75500 41.50000
H  -16.86100 39.40300 41.57300
H  -16.62500 38.47300 44.37500
H  -17.31900 37.21300 43.30200
H  -18.06400 38.77300 43.29300
H  -12.97000 33.11900 43.08100
H  -14.12500 33.85500 41.92600
H  -13.92000 34.47700 43.62800
H  -9.20500 33.67900 39.48200
H  -7.30800 32.58800 44.17800
H  -6.05200 33.66900 43.41600
H  -6.40800 32.09600 42.76600

