158

Mg 2.35300 -1.12600 43.56700
C  5.69200 -0.56500 42.91400
C  1.71700 1.56800 41.33700
C  -0.85600 -1.95300 43.44700
C  3.15000 -4.15600 45.06900
N  3.59400 0.25700 42.23200
C  4.95400 0.34400 42.16300
C  5.49900 1.45400 41.22600
C  4.17300 2.20400 40.94500
C  3.03200 1.29300 41.50300
C  4.23300 3.59400 41.55700
C  6.11400 0.71600 39.94700
C  7.67300 0.77000 39.76900
H  8.38500 1.41200 38.57800
N  0.56600 -0.15400 42.75500
C  0.53300 0.93600 41.87600
C  -0.83900 1.15700 41.56400
C  -1.64500 0.23400 42.35000
C  -0.67400 -0.62000 42.98200
C  -1.30700 2.14400 40.60000
C  -3.14300 0.23000 42.43200
O  -3.78200 0.97500 41.74200
C  -3.89100 -0.63700 43.43400
N  1.32000 -2.76800 44.13300
C  -0.04700 -2.91900 43.98800
C  -0.64300 -4.24700 44.51700
C  0.61100 -4.82200 45.20700
C  1.76400 -3.90300 44.78000
C  -1.85700 -4.15000 45.48200
C  1.04400 -6.27600 44.77200
C  1.59600 -7.16000 45.89900
N  4.04900 -2.18500 43.97700
C  4.25000 -3.44300 44.62500
C  5.69100 -3.62300 44.80200
C  6.23900 -2.45500 44.24500
C  5.25000 -1.69700 43.66800
C  6.36600 -4.80300 45.41000
C  7.50300 -1.88200 44.02100
O  8.62500 -2.39000 44.28600
C  7.27500 -0.64400 43.16500
C  7.77200 0.55800 43.85000
O  7.35800 0.94300 44.95700
O  8.85700 1.13800 43.14600
C  9.53100 2.28400 43.90200
H  1.49600 2.36700 40.62700
H  -1.88000 -2.33100 43.41400
H  3.47700 -5.03900 45.62200
H  6.27400 1.97500 41.78800
H  3.97400 2.31500 39.87900
H  4.00400 3.48000 42.61600
H  3.34100 4.08600 41.16900
H  5.12000 4.21800 41.44800
H  5.81700 1.19600 39.01400
H  5.74900 -0.31100 39.94200
H  8.16300 -0.18900 39.94000
H  8.05600 1.41500 40.56000
H  -0.47900 2.35100 39.92200
H  -1.53000 2.92800 41.32400
H  -2.24400 1.88500 40.10800
H  -4.82300 -0.11200 43.64100
H  -3.43200 -0.76300 44.41500
H  -4.07600 -1.62100 43.00300
H  -0.83300 -4.82300 43.61200
H  0.64800 -4.76300 46.29400
H  -2.10600 -3.08900 45.47100
H  -1.61300 -4.49900 46.48500
H  -2.72300 -4.67300 45.07600
H  1.75700 -6.23400 43.94800
H  0.17100 -6.75400 44.32700
H  1.19400 -8.17300 45.90000
H  1.43600 -6.70600 46.87700
H  2.65200 -7.23100 45.64200
H  6.45500 -5.67700 44.76500
H  5.87100 -4.93300 46.37300
H  7.38000 -4.48000 45.64400
H  7.74800 -0.92700 42.22500
H  10.41600 1.92100 44.42400
H  8.84500 2.73000 44.62200
H  9.93100 2.97900 43.16400
Mg -12.84000 37.94800 41.50700
C  -10.41000 35.48800 40.81700
C  -10.62700 40.41700 40.40100
C  -15.21200 40.27500 42.00200
C  -15.03200 35.38500 42.39500
N  -10.81600 38.00700 40.53700
C  -10.01900 36.86200 40.47000
C  -8.60800 37.22100 39.95900
C  -8.69600 38.78500 39.76400
C  -10.14600 39.11700 40.17700
C  -7.61800 39.53000 40.68000
C  -8.35400 36.46700 38.58800
C  -6.95200 35.91700 38.35500
H  -6.06000 36.48700 37.25100
N  -12.87700 40.09100 41.24700
C  -11.87900 40.90300 40.90700
C  -12.28100 42.25500 40.85400
C  -13.63200 42.23400 41.30000
C  -14.02500 40.83100 41.54400
C  -11.33000 43.37300 40.62100
C  -14.54900 43.47000 41.46600
O  -14.01000 44.60200 41.23500
C  -16.02000 43.38100 41.78600
N  -14.78800 37.84200 42.07700
C  -15.62100 38.89900 42.13500
C  -16.99600 38.58600 42.71700
C  -16.99300 37.01300 42.50800
C  -15.48700 36.69300 42.33900
C  -17.24300 38.98100 44.21500
C  -17.83300 36.60000 41.22500
C  -17.13200 36.22100 39.89200
N  -12.75800 35.83600 41.63500
C  -13.71300 34.94000 42.12400
C  -13.07700 33.59400 42.23500
C  -11.81800 33.73000 41.68200
C  -11.68600 35.17100 41.35900
C  -13.76200 32.30100 42.64000
C  -10.57300 33.07900 41.32600
O  -10.16100 31.93700 41.29000
C  -9.60600 34.21200 40.74100
C  -8.34400 34.26800 41.57500
O  -8.24000 34.68100 42.71400
O  -7.23800 33.73600 40.87200
C  -5.91800 33.91700 41.44800
H  -9.81900 41.10900 40.15700
H  -16.03400 40.93200 42.29500
H  -15.67800 34.55100 42.68000
H  -7.76200 36.95600 40.59300
H  -8.44100 39.04600 38.73600
H  -6.88100 38.85500 41.11500
H  -8.19000 39.85700 41.54800
H  -7.23100 40.40900 40.16500
H  -8.53200 37.21600 37.81600
H  -9.02400 35.63600 38.36700
H  -6.96100 34.84200 38.17400
H  -6.37300 36.03400 39.27100
H  -11.84300 44.02800 39.91700
H  -10.37400 43.02900 40.22500
H  -11.20400 43.89900 41.56800
H  -16.47700 42.64400 41.12600
H  -16.34800 44.36100 41.43900
H  -16.32500 43.24700 42.82400
H  -17.77800 39.06400 42.12700
H  -17.40200 36.41100 43.31900
H  -18.01500 39.74900 44.25900
H  -16.33700 39.27800 44.74300
H  -17.62900 38.06700 44.66600
H  -18.61500 37.32600 40.99900
H  -18.25700 35.66300 41.58700
H  -16.69600 35.22400 39.83100
H  -16.43000 36.99400 39.58100
H  -17.97700 36.33200 39.21100
H  -13.37300 31.52800 41.97800
H  -14.84900 32.38800 42.66000
H  -13.47700 32.02600 43.65600
H  -9.46100 33.93700 39.69600
H  -5.86900 34.06700 42.52700
H  -5.55000 34.85900 41.04000
H  -5.14600 33.20400 41.16100

