158

Mg 24.55000 -6.00100 45.83700
C  26.91200 -3.81000 44.58800
C  22.21700 -4.90500 43.78900
C  22.87900 -8.83700 46.54800
C  27.25000 -7.32600 47.90100
N  24.61600 -4.62500 44.31600
C  25.63000 -3.72100 44.02600
C  25.16200 -2.75100 42.93500
C  23.63400 -2.98000 42.94100
C  23.48800 -4.23600 43.75800
C  22.92900 -1.71400 43.58700
C  25.77900 -2.94600 41.57000
C  26.29300 -1.76900 40.75900
H  25.72300 -1.49900 39.37600
N  22.67800 -6.65200 45.29400
C  21.84200 -6.07100 44.37400
C  20.62600 -6.83000 44.28200
C  20.88300 -8.04000 45.01200
C  22.20500 -7.87600 45.69900
C  19.39000 -6.26500 43.52400
C  19.77500 -9.10600 45.18100
O  18.72900 -9.12400 44.59900
C  19.94800 -10.24500 46.03900
N  24.98600 -7.75900 47.05600
C  24.13800 -8.84000 47.16200
C  24.65500 -9.99000 47.99300
C  25.82700 -9.28600 48.72200
C  26.04500 -8.04500 47.81900
C  23.53000 -10.62400 48.90400
C  27.06700 -10.19100 49.07300
C  27.43500 -10.16500 50.58000
N  26.60900 -5.66400 46.28200
C  27.53700 -6.24400 47.13900
C  28.81500 -5.61200 47.01700
C  28.60800 -4.64700 46.02300
C  27.28500 -4.73700 45.54700
C  30.10000 -6.08600 47.67900
C  29.25900 -3.58600 45.34600
O  30.41500 -3.26900 45.45200
C  28.23900 -3.02000 44.36300
C  28.05300 -1.54700 44.52400
O  27.23100 -1.07400 45.28200
O  28.81600 -0.83000 43.64000
C  28.32500 0.49400 43.37500
H  21.48900 -4.36400 43.18100
H  22.53900 -9.86200 46.70800
H  28.03900 -7.57500 48.61400
H  25.31700 -1.75200 43.34200
H  23.17300 -3.08300 41.95900
H  23.56900 -1.46700 44.43400
H  21.89700 -1.82100 43.92100
H  22.94700 -0.98000 42.78200
H  25.05200 -3.43800 40.92400
H  26.54800 -3.71000 41.68200
H  27.35400 -1.96600 40.60200
H  26.26500 -0.82900 41.31000
H  18.44300 -6.52900 43.99500
H  19.47100 -6.62000 42.49700
H  19.54100 -5.18500 43.53000
H  18.97400 -10.73100 46.07500
H  20.19300 -9.86200 47.03000
H  20.79400 -10.86700 45.74700
H  25.05800 -10.73600 47.30800
H  25.43000 -9.00300 49.69700
H  23.93700 -10.69400 49.91300
H  23.22400 -11.59000 48.50200
H  22.65700 -9.97400 48.84300
H  27.88800 -9.87000 48.43200
H  26.86300 -11.23100 48.81900
H  27.50500 -11.18600 50.95500
H  26.73800 -9.56700 51.16700
H  28.48400 -9.87200 50.53200
H  30.92200 -5.39000 47.51500
H  30.37100 -7.07400 47.30500
H  29.84600 -6.11600 48.73900
H  28.69400 -3.14700 43.38100
H  28.60200 1.05000 44.27100
H  27.24400 0.50600 43.23700
H  28.84500 1.02700 42.57900
Mg -1.60100 34.44700 26.92800
C  -3.57800 32.95900 29.27400
C  -0.51500 36.69300 29.15300
C  0.15300 35.85400 24.42500
C  -3.21700 32.42400 24.42200
N  -2.21200 34.87200 28.98700
C  -2.90400 34.04700 29.80900
C  -2.68500 34.36600 31.30400
C  -1.84400 35.75100 31.12600
C  -1.50000 35.77700 29.66700
C  -2.53200 37.03800 31.56700
C  -2.01300 33.14500 32.04600
C  -1.29600 33.54800 33.33100
H  -1.52000 32.73300 34.62700
N  -0.33300 36.10100 26.83000
C  -0.09400 36.91900 27.87800
C  0.88300 37.92200 27.41400
C  1.11800 37.70600 26.03700
C  0.31700 36.48600 25.68400
C  1.40800 39.04900 28.27500
C  1.96800 38.49200 25.00300
O  2.02600 38.29800 23.81800
C  2.72400 39.64400 25.57400
N  -1.42500 34.11600 24.79400
C  -0.62500 34.81600 23.99300
C  -0.72400 34.40300 22.49900
C  -1.64100 33.22500 22.53100
C  -2.15900 33.25000 23.98200
C  -1.05200 35.60500 21.60000
C  -0.98200 31.92700 22.12600
C  0.07000 31.34700 23.06000
N  -3.08700 33.01700 26.77600
C  -3.60100 32.24300 25.75100
C  -4.53800 31.34700 26.26300
C  -4.60400 31.54800 27.66700
C  -3.67400 32.62200 27.92600
C  -5.37400 30.43500 25.40100
C  -5.20400 31.10600 28.89600
O  -6.08100 30.28700 29.11100
C  -4.42600 31.96900 30.02200
C  -5.47200 32.66900 30.85900
O  -6.10300 33.65800 30.49300
O  -5.54700 31.99100 32.02500
C  -6.45700 32.56300 32.99000
H  -0.04700 37.41400 29.82700
H  0.79200 36.35300 23.69400
H  -3.57000 31.84700 23.56500
H  -3.65100 34.55100 31.77400
H  -0.96000 35.70600 31.76200
H  -2.19700 37.29100 32.57300
H  -3.60400 36.85500 31.64300
H  -2.34000 37.88000 30.90200
H  -1.32300 32.59700 31.40400
H  -2.83900 32.48000 32.29800
H  -1.26700 34.59900 33.61800
H  -0.25000 33.31000 33.13900
H  1.35300 38.74800 29.32100
H  0.88900 39.98500 28.06500
H  2.47900 39.24500 28.23900
H  2.06000 40.29500 26.14300
H  3.21900 40.13700 24.73800
H  3.43400 39.13800 26.22800
H  0.29200 34.06500 22.29100
H  -2.56300 33.38400 21.97100
H  -0.19700 36.10700 21.14700
H  -1.67900 36.34100 22.10300
H  -1.76300 35.34200 20.81600
H  -0.65200 32.05500 21.09500
H  -1.65000 31.07900 21.97300
H  0.00100 31.83400 24.03300
H  1.05400 31.47500 22.60800
H  -0.08000 30.29200 23.28800
H  -6.43700 30.44300 25.64300
H  -4.93500 29.44200 25.49300
H  -5.32900 30.69100 24.34300
H  -3.84500 31.28200 30.63700
H  -7.36300 32.91600 32.49900
H  -6.02600 33.33000 33.63400
H  -6.88700 31.69200 33.48400

