158

Mg 0.67200 7.55400 25.62800
C  1.31300 9.52600 28.43600
C  0.51500 4.78200 27.52000
C  0.08400 5.73000 22.85300
C  1.02600 10.40200 23.69600
N  0.85400 7.23600 27.76000
C  1.06100 8.13600 28.77100
C  1.02500 7.44000 30.13800
C  0.89700 5.92900 29.72900
C  0.70600 5.97900 28.22200
C  2.11400 5.06100 30.19700
C  -0.05300 7.94000 31.08600
C  0.25300 7.94700 32.56100
H  1.35600 7.18900 33.33300
N  0.42800 5.45300 25.22300
C  0.44000 4.46800 26.14900
C  0.23900 3.16800 25.49300
C  0.24500 3.50000 24.06000
C  0.25500 4.91800 24.00800
C  0.12500 1.82400 26.21100
C  0.28900 2.61100 22.88000
O  0.30300 3.01400 21.72900
C  0.33900 1.18400 23.15300
N  0.65400 7.98800 23.59800
C  0.22400 7.10500 22.67900
C  -0.08000 7.75100 21.35500
C  0.04900 9.25600 21.58000
C  0.56300 9.24900 23.10000
C  0.71700 7.09300 20.17600
C  -1.32900 10.07500 21.42900
C  -1.14200 11.56100 20.93200
N  1.16900 9.56800 25.93700
C  1.33500 10.64800 25.02400
C  1.57500 11.81100 25.74400
C  1.69800 11.39600 27.07300
C  1.45500 10.03400 27.13400
C  1.61400 13.22900 25.24700
C  1.81300 11.92300 28.44000
O  2.00300 13.02800 28.85500
C  1.51000 10.72300 29.35500
C  2.62400 10.60900 30.32900
O  3.79200 10.39400 29.95200
O  2.25500 10.89200 31.63000
C  3.30700 10.90000 32.66700
H  0.42400 3.92500 28.19100
H  -0.22500 5.15100 21.98000
H  1.02000 11.23300 22.98700
H  1.98800 7.59600 30.62300
H  0.02100 5.49400 30.21100
H  2.66700 5.65400 30.92600
H  2.81400 4.89300 29.37900
H  1.77000 4.11900 30.62300
H  -0.84800 7.21300 30.91900
H  -0.35000 8.96200 30.85000
H  -0.67700 7.72800 33.08500
H  0.50900 8.97300 32.82500
H  1.11900 1.42700 26.00100
H  -0.63700 1.17800 25.77500
H  -0.06500 1.86500 27.28300
H  0.98000 0.90600 23.99000
H  0.74400 0.79300 22.21900
H  -0.67800 0.79000 23.14100
H  -1.15400 7.58700 21.26700
H  0.78700 9.60400 20.85700
H  1.22400 6.19400 20.52800
H  1.23900 7.79100 19.52200
H  -0.04600 6.74500 19.48000
H  -1.99000 9.93400 22.28500
H  -1.78500 9.54300 20.59300
H  -1.48600 11.69500 19.90600
H  -0.11400 11.87100 21.12200
H  -1.75600 12.22400 21.54100
H  1.49300 13.50800 24.20100
H  2.58100 13.61300 25.57200
H  0.88000 13.87500 25.73000
H  0.57200 10.97900 29.84800
H  4.20100 11.23700 32.14200
H  3.46500 9.92200 33.12000
H  3.15300 11.70100 33.39000
Mg -12.60200 38.05200 41.97700
C  -10.33900 35.50400 41.00500
C  -10.50400 40.38100 40.55100
C  -15.24800 40.10700 42.04000
C  -14.68400 35.27600 43.10800
N  -10.72500 37.96600 40.76400
C  -10.04800 36.83200 40.46900
C  -8.78300 37.20700 39.60100
C  -8.80100 38.77200 39.64400
C  -10.03600 39.08400 40.46100
C  -7.45600 39.37200 40.20000
C  -8.86500 36.58000 38.17700
C  -7.66300 35.71400 37.67600
H  -6.68400 36.54700 36.77700
N  -12.81400 40.01400 41.55400
C  -11.77600 40.87400 41.06200
C  -12.28500 42.16600 40.87900
C  -13.57700 42.17200 41.47500
C  -13.94500 40.71200 41.73200
C  -11.42500 43.24400 40.24200
C  -14.51200 43.37800 41.67000
O  -14.29100 44.45300 41.13900
C  -15.92100 43.25500 42.29600
N  -14.66900 37.68400 42.34600
C  -15.54800 38.67800 42.25900
C  -16.98900 38.24800 42.56000
C  -16.81900 36.67400 42.91800
C  -15.31200 36.51100 42.83200
C  -17.71000 39.21500 43.58100
C  -17.71300 35.61600 42.11000
C  -18.19800 34.39800 42.86700
N  -12.58500 35.88100 42.14200
C  -13.37700 34.97600 42.68300
C  -12.69100 33.70600 42.85100
C  -11.47500 33.86800 42.20800
C  -11.52200 35.16000 41.66400
C  -13.22600 32.57500 43.61000
C  -10.19000 33.18300 41.87800
O  -9.71200 32.17000 42.34400
C  -9.44400 34.28900 40.97500
C  -8.10500 34.64200 41.60600
O  -7.79800 35.58200 42.36700
O  -7.20600 33.75200 41.16800
C  -5.90800 33.69600 41.88800
H  -9.80500 41.15000 40.21400
H  -16.12700 40.74400 41.92000
H  -15.27600 34.38300 43.31800
H  -7.91400 36.92100 40.19500
H  -8.93300 39.16000 38.63400
H  -7.11000 40.11300 39.48000
H  -6.69000 38.61200 40.35800
H  -7.73900 39.93900 41.08700
H  -8.98200 37.44000 37.51700
H  -9.77600 35.98700 38.09400
H  -8.12500 34.88000 37.14700
H  -7.04700 35.31700 38.48200
H  -12.09100 43.91500 39.70000
H  -10.71300 42.79900 39.54600
H  -10.90700 43.76000 41.05100
H  -16.62300 43.01500 41.49700
H  -16.25900 44.18800 42.74600
H  -15.70800 42.51000 43.06300
H  -17.60800 38.33300 41.66700
H  -17.13300 36.57200 43.95700
H  -18.49900 39.81000 43.12000
H  -16.87500 39.62600 44.14800
H  -18.23000 38.61100 44.32400
H  -17.11200 35.30200 41.25600
H  -18.60200 36.09800 41.70200
H  -17.59700 33.56100 42.51100
H  -19.27200 34.29300 42.71000
H  -17.92600 34.51900 43.91500
H  -13.85000 32.86000 44.45700
H  -12.51400 31.79000 43.86400
H  -13.96100 32.10000 42.96200
H  -9.21700 34.02900 39.94100
H  -5.80300 34.40100 42.71300
H  -5.25100 33.90200 41.04300
H  -5.66800 32.70300 42.26900

