158

Mg 43.70000 42.32600 26.29100
C  43.16200 44.85900 28.80400
C  44.83200 40.24400 28.74700
C  44.34300 40.14600 23.90400
C  42.38700 44.63200 23.93300
N  44.08800 42.58100 28.48700
C  43.72800 43.63400 29.33300
C  43.85000 43.17500 30.77700
C  44.73000 41.85100 30.68900
C  44.46100 41.50900 29.21100
C  46.26400 42.23000 30.81200
C  42.38100 43.05100 31.45400
C  42.13200 43.83900 32.70700
H  42.94500 43.47100 33.98300
N  44.37500 40.34900 26.32300
C  44.80800 39.69800 27.37200
C  45.14500 38.33200 27.01500
C  45.00400 38.24100 25.55200
C  44.55000 39.63500 25.17200
C  45.54300 37.31400 28.13600
C  45.28800 37.16500 24.56800
O  45.38700 37.34500 23.36200
C  45.48100 35.80000 25.12900
N  43.51800 42.45000 24.27300
C  43.91100 41.42300 23.45600
C  43.77000 41.73800 21.94800
C  42.87000 43.01300 22.01400
C  42.89400 43.41400 23.52700
C  45.04100 41.90100 21.13300
C  41.35100 42.78400 21.51100
C  40.60900 41.52800 22.07200
N  43.07900 44.35900 26.28900
C  42.56400 45.16900 25.27000
C  42.19800 46.39400 25.82900
C  42.34000 46.28200 27.23600
C  42.87800 45.07100 27.45100
C  41.62000 47.54800 25.06200
C  42.07700 47.04900 28.40500
O  41.40400 48.02400 28.63200
C  42.58900 46.07100 29.52400
C  43.51200 46.72000 30.55800
O  44.73200 46.69400 30.58300
O  42.79100 47.28100 31.52300
C  43.57800 48.09600 32.52800
H  45.06200 39.59600 29.59500
H  44.42100 39.46500 23.05300
H  42.02900 45.36400 23.20600
H  44.39800 43.93700 31.33200
H  44.45600 41.11500 31.44400
H  46.36200 43.29800 30.61700
H  46.98300 41.69000 30.19600
H  46.53000 42.03500 31.85100
H  42.26400 41.98700 31.66300
H  41.55200 43.26200 30.77900
H  41.05200 43.75700 32.83300
H  42.28800 44.90500 32.53900
H  45.17400 37.52300 29.14000
H  46.62600 37.19100 28.12700
H  45.25600 36.28200 27.93700
H  44.54500 35.68200 25.67400
H  46.20000 36.04000 25.91200
H  45.85300 35.06000 24.42000
H  43.28600 40.91500 21.42200
H  43.27900 43.79000 21.36800
H  45.79900 41.23700 21.54900
H  45.25100 42.97000 21.16000
H  44.89600 41.50800 20.12600
H  41.25200 42.87500 20.42900
H  40.81400 43.61500 21.96900
H  40.40500 40.85600 21.23900
H  39.63100 41.70000 22.52100
H  41.32600 40.95200 22.65800
H  40.60000 47.37000 24.72100
H  42.14800 47.57200 24.10900
H  41.64700 48.46600 25.64900
H  41.73500 45.75700 30.12500
H  43.97400 47.45600 33.31700
H  42.93700 48.87100 32.94900
H  44.39100 48.57300 31.98000
Mg 36.98400 50.18400 25.71300
C  37.32600 47.87500 28.42200
C  35.82800 52.52100 27.70400
C  36.27400 51.91500 22.89800
C  37.87800 47.40500 23.62900
N  36.53900 50.15900 27.81900
C  36.81500 49.13900 28.77200
C  36.79600 49.73400 30.15900
C  36.05900 51.09500 29.90400
C  36.15200 51.29600 28.35100
C  34.58400 51.15000 30.41800
C  38.12800 49.89800 30.96400
C  38.21400 50.29300 32.41400
H  36.83000 50.27500 33.19300
N  36.20100 52.01300 25.34500
C  35.72200 52.87100 26.32800
C  35.37400 54.13000 25.65700
C  35.48500 53.89600 24.23900
C  36.07600 52.59200 24.08200
C  35.00000 55.36000 26.39600
C  35.15900 54.83900 23.06800
O  35.27400 54.46100 21.90500
C  34.48800 56.22900 23.27500
N  37.03900 49.69500 23.60500
C  36.67600 50.60200 22.62700
C  36.74600 50.03400 21.18400
C  37.43200 48.65500 21.40900
C  37.55700 48.60700 22.94600
C  35.31200 49.86600 20.73300
C  38.71500 48.27500 20.63000
C  40.09200 48.42600 21.37600
N  37.56100 48.09300 25.91100
C  37.90100 47.11700 25.00800
C  38.29000 45.88000 25.73000
C  38.11100 46.15300 27.01100
C  37.56500 47.44700 27.07700
C  38.94700 44.66200 25.02200
C  38.12800 45.52900 28.35700
O  38.38500 44.46300 28.81400
C  37.74700 46.71600 29.35500
C  36.61300 46.26700 30.23500
O  35.46900 46.02500 29.86000
O  36.97400 46.37400 31.54200
C  35.93300 46.08000 32.53000
H  35.65200 53.30500 28.44400
H  36.19900 52.42000 21.93300
H  38.33900 46.65800 22.98000
H  36.17900 49.06000 30.75400
H  36.48000 51.89200 30.51800
H  34.59600 51.63400 31.39500
H  34.08000 50.19000 30.53300
H  33.94600 51.80300 29.82400
H  38.71800 50.59200 30.36500
H  38.56300 48.91100 30.80900
H  38.71400 51.25300 32.54700
H  38.76500 49.47500 32.87800
H  35.57500 56.14300 25.90300
H  35.24500 55.15100 27.43800
H  33.95000 55.64600 26.33200
H  34.89500 56.70300 24.16900
H  33.40900 56.09000 23.34900
H  34.75800 56.90000 22.45900
H  37.36500 50.63900 20.52200
H  36.72000 47.86900 21.15700
H  35.08600 50.58400 19.94500
H  34.58500 50.02000 21.53100
H  35.18400 48.89800 20.24900
H  38.74300 48.93900 19.76600
H  38.70000 47.26000 20.23400
H  40.54700 47.43800 21.45200
H  40.26900 48.85900 22.36000
H  40.59300 49.13700 20.71900
H  39.38400 44.99600 24.08100
H  38.18900 43.88800 24.90800
H  39.71800 44.26500 25.68200
H  38.61000 47.04500 29.93400
H  34.90400 46.19900 32.18900
H  36.02700 46.69500 33.42600
H  35.96900 45.05100 32.88900

