158

Mg 27.11500 50.27400 25.46500
C  25.09100 51.45900 28.17200
C  29.25300 49.05600 27.71300
C  29.27600 49.70700 22.93500
C  25.05400 52.12100 23.34700
N  27.13500 50.16000 27.72900
C  26.17000 50.72000 28.64400
C  26.52800 50.24300 30.03200
C  28.03600 49.71800 29.87300
C  28.17800 49.61400 28.32900
C  29.09000 50.70200 30.48300
C  25.50500 49.12000 30.49900
C  25.04700 49.29500 31.98300
H  25.87900 49.99700 33.04300
N  28.99700 49.40300 25.35400
C  29.72200 48.94100 26.39800
C  31.04600 48.49100 25.90500
C  31.04900 48.62800 24.47800
C  29.75800 49.34700 24.20900
C  31.97000 47.76200 26.78800
C  32.08300 48.21000 23.43900
O  31.92000 48.48900 22.26100
C  33.37200 47.44800 23.81600
N  27.22900 50.94000 23.42200
C  28.17200 50.47400 22.52300
C  27.80700 50.74800 21.03700
C  26.39700 51.30000 21.20700
C  26.15400 51.46500 22.75100
C  28.91900 51.64200 20.28500
C  25.32400 50.34600 20.48100
C  24.75700 51.01500 19.25100
N  25.42600 51.52900 25.65300
C  24.67100 52.18100 24.70700
C  23.52000 52.85900 25.32200
C  23.69700 52.64100 26.69800
C  24.84300 51.79300 26.84100
C  22.39700 53.63600 24.55900
C  23.15900 52.95100 27.96800
O  22.06300 53.52600 28.17800
C  23.98800 52.15000 28.94300
C  24.39400 53.01800 30.00400
O  25.36700 53.75100 30.02900
O  23.52600 52.78800 31.06700
C  23.83400 53.39900 32.38900
H  30.02400 48.75600 28.42500
H  29.82500 49.57700 22.00000
H  24.31100 52.49800 22.64100
H  26.50600 51.11700 30.68400
H  28.07400 48.78600 30.43800
H  29.41400 50.30000 31.44200
H  28.66200 51.67200 30.73600
H  29.93500 50.71900 29.79400
H  25.97000 48.14500 30.35000
H  24.59200 49.22700 29.91300
H  24.88100 48.35300 32.50600
H  24.06900 49.77400 31.93400
H  31.74300 47.65000 27.84900
H  32.93000 48.27300 26.71200
H  32.15100 46.77000 26.37400
H  33.08000 46.43000 24.07500
H  33.93900 47.87800 24.64100
H  33.97800 47.27600 22.92600
H  27.76500 49.77300 20.55100
H  26.34500 52.32300 20.83600
H  28.53600 52.65900 20.20200
H  29.18300 51.21600 19.31700
H  29.85600 51.73300 20.83500
H  24.46100 50.28200 21.14500
H  25.57200 49.34700 20.12300
H  25.31300 51.90900 18.96900
H  23.84300 51.43400 19.67400
H  24.55500 50.43200 18.35300
H  22.64300 53.86000 23.52100
H  22.45500 54.57700 25.10600
H  21.50900 53.00700 24.61800
H  23.44100 51.32700 29.40200
H  24.80000 53.04700 32.75100
H  22.99500 53.10700 33.02100
H  23.83700 54.48800 32.34200
Mg -11.92100 37.91000 42.38400
C  -9.67700 35.36900 41.78700
C  -9.95100 39.88200 40.34700
C  -14.34700 40.28800 42.51500
C  -14.16300 35.71200 43.82200
N  -10.09000 37.62700 41.15400
C  -9.29900 36.50200 41.06600
C  -8.21400 36.60800 39.97000
C  -8.09300 38.12400 39.70900
C  -9.46600 38.61700 40.40500
C  -6.87600 38.95700 40.27800
C  -8.65000 35.81500 38.67700
C  -7.70200 34.67400 38.28900
H  -6.53100 34.99500 37.32000
N  -12.02200 39.94100 41.71400
C  -11.11500 40.47500 40.85500
C  -11.52700 41.84600 40.54600
C  -12.83400 42.00600 41.11600
C  -13.11200 40.77600 41.90800
C  -10.65800 42.72700 39.71100
C  -13.76800 43.19600 40.90400
O  -13.47800 44.02700 40.05700
C  -15.13900 43.44600 41.63300
N  -14.00300 37.91100 42.89900
C  -14.72100 39.03900 42.94400
C  -16.10800 38.72800 43.55900
C  -16.07200 37.23900 43.82600
C  -14.66600 36.90600 43.49900
C  -16.26900 39.60600 44.85100
C  -17.06200 36.36700 42.96500
C  -18.33900 35.91400 43.67000
N  -12.01600 35.93100 42.72700
C  -12.85600 35.24300 43.49900
C  -12.25700 33.92400 43.79300
C  -11.06100 33.93800 43.08800
C  -10.92500 35.17900 42.45200
C  -12.85400 32.80800 44.66500
C  -9.81100 33.21300 42.83800
O  -9.43000 32.13900 43.24600
C  -8.82900 34.09400 41.90900
C  -7.50600 34.26300 42.49100
O  -6.57700 33.47400 42.21100
O  -7.30500 35.45300 43.12200
C  -6.00200 35.69600 43.67600
H  -9.36500 40.45100 39.62300
H  -15.08800 41.03000 42.81900
H  -14.79700 35.00500 44.36000
H  -7.22600 36.25900 40.27300
H  -8.18600 38.35800 38.64800
H  -6.22400 39.35200 39.49900
H  -6.25100 38.24300 40.81400
H  -7.20700 39.81400 40.86500
H  -8.79500 36.43600 37.79300
H  -9.65300 35.43800 38.87300
H  -8.19800 33.85200 37.77200
H  -7.10500 34.23200 39.08600
H  -10.87600 43.76600 39.95800
H  -10.84500 42.50000 38.66100
H  -9.64300 42.53000 40.05600
H  -15.79100 42.57500 41.56700
H  -15.63000 44.33600 41.23900
H  -14.97500 43.63600 42.69300
H  -16.81700 38.90200 42.75000
H  -16.31100 37.08900 44.87900
H  -16.60100 39.00800 45.70000
H  -16.93200 40.44000 44.61800
H  -15.29600 40.03000 45.09900
H  -16.47500 35.50700 42.64300
H  -17.27400 36.87300 42.02300
H  -18.34300 34.83000 43.78100
H  -19.21600 36.15200 43.06700
H  -18.43700 36.29000 44.68800
H  -13.93400 32.90400 44.55600
H  -12.67900 32.88000 45.73800
H  -12.44600 31.87900 44.26600
H  -8.69000 33.56300 40.96700
H  -5.42200 36.47100 43.17500
H  -5.39800 34.79100 43.75200
H  -6.19600 36.15900 44.64300

