158

Mg -9.96600 40.65200 43.34700
C  -8.86300 37.42100 42.55900
C  -6.93500 41.77800 41.95500
C  -11.13300 43.75100 43.51200
C  -13.15300 39.48500 44.09400
N  -8.07400 39.65800 42.24000
C  -7.80400 38.31600 42.26200
C  -6.33000 38.04700 41.81500
C  -5.76400 39.54300 41.80500
C  -6.95900 40.45900 42.06000
C  -4.51500 39.77700 42.74900
C  -6.32300 37.30900 40.43400
C  -5.00600 36.53500 40.12300
H  -3.98200 37.22200 39.13800
N  -9.18700 42.54600 42.73400
C  -7.93400 42.76600 42.18100
C  -7.76000 44.14300 42.08100
C  -8.96400 44.81200 42.47000
C  -9.84500 43.69700 42.91300
C  -6.44200 44.82300 41.60100
C  -9.29100 46.35600 42.54000
O  -8.41900 47.21700 42.33400
C  -10.73400 46.86500 42.73900
N  -11.87500 41.51000 43.89400
C  -12.00500 42.82700 44.06100
C  -13.39500 43.26300 44.43000
C  -14.14400 41.78600 44.61900
C  -13.00000 40.82500 44.24200
C  -13.59000 44.29600 45.57400
C  -15.45500 41.67900 43.91300
C  -16.48200 40.76500 44.59000
N  -10.85100 38.87600 43.33900
C  -12.20100 38.55000 43.68400
C  -12.34200 37.07400 43.60000
C  -11.09900 36.62600 43.19200
C  -10.21900 37.77600 42.93400
C  -13.46800 36.17600 43.89000
C  -10.29200 35.45700 42.90000
O  -10.60000 34.27000 42.83100
C  -8.87400 35.88600 42.38900
C  -7.83800 35.03200 42.97200
O  -7.45000 35.13200 44.09100
O  -7.43000 34.09800 42.09000
C  -6.44000 33.10800 42.53800
H  -5.91900 42.15000 41.80500
H  -11.63000 44.72300 43.48800
H  -14.11500 39.02800 44.33600
H  -5.92100 37.45200 42.63200
H  -5.31400 39.70200 40.82500
H  -3.58900 39.43500 42.28800
H  -4.52600 39.08500 43.59200
H  -4.28300 40.79600 43.05800
H  -6.44100 38.07500 39.66700
H  -7.12000 36.58800 40.25500
H  -5.29500 35.56600 39.71800
H  -4.52300 36.36200 41.08500
H  -6.53300 45.48600 40.74000
H  -5.63800 44.09600 41.48900
H  -6.09300 45.56000 42.32300
H  -10.91600 47.84500 42.29800
H  -10.86400 46.84900 43.82200
H  -11.47100 46.23600 42.24000
H  -13.88900 43.57800 43.51100
H  -14.29800 41.65200 45.68900
H  -12.71800 44.93300 45.72400
H  -13.94500 43.74800 46.44600
H  -14.28700 45.05700 45.22100
H  -15.15800 41.30400 42.93400
H  -15.87100 42.68200 43.81500
H  -16.06800 40.13400 45.37600
H  -16.78700 40.08900 43.79100
H  -17.26400 41.43600 44.94600
H  -14.11100 36.52600 44.69800
H  -13.26400 35.16700 44.24800
H  -14.00800 35.91900 42.97900
H  -8.85500 35.75200 41.30700
H  -5.90200 32.69800 41.68300
H  -6.83900 32.45000 43.30900
H  -5.64300 33.70900 42.97700
Mg -10.26100 18.22300 42.80200
C  -7.03600 17.21300 42.37900
C  -9.37300 21.46200 42.30900
C  -13.56300 19.00700 42.68600
C  -11.21800 14.76000 42.48000
N  -8.48300 19.20800 42.01600
C  -7.23500 18.62000 42.14100
C  -6.15000 19.64800 41.97100
C  -6.86800 21.03400 42.06200
C  -8.37300 20.55300 42.16400
C  -6.45200 21.87000 43.37700
C  -5.13300 19.46400 40.79500
C  -5.74600 18.96400 39.48400
H  -5.00500 19.20600 38.23800
N  -11.38700 20.02600 42.59400
C  -10.79200 21.23700 42.36100
C  -11.84100 22.23900 42.23500
C  -13.05200 21.58900 42.46700
C  -12.70000 20.15900 42.61700
C  -11.70500 23.73400 41.87100
C  -14.47900 22.20400 42.75600
O  -14.66600 23.39900 42.77200
C  -15.73400 21.34300 43.25900
N  -12.12400 17.00600 42.88700
C  -13.32400 17.65400 42.88900
C  -14.47500 16.60900 42.83000
C  -13.71600 15.21800 42.64300
C  -12.26200 15.68100 42.57000
C  -15.44500 16.58900 44.04700
C  -14.27300 14.34900 41.47200
C  -14.68300 12.99800 41.97000
N  -9.36500 16.32600 42.68200
C  -9.86400 14.99900 42.56500
C  -8.70900 14.10700 42.50900
C  -7.59600 14.90000 42.57100
C  -8.07200 16.24200 42.53800
C  -8.75700 12.61600 42.34800
C  -6.19300 14.88200 42.41200
O  -5.39400 13.98600 42.30800
C  -5.78500 16.42900 42.54900
C  -5.04400 16.68200 43.82300
O  -3.81000 16.69000 43.93400
O  -5.95800 16.96700 44.80600
C  -5.35300 17.24600 46.14600
H  -9.19900 22.53100 42.17700
H  -14.63400 19.21200 42.72700
H  -11.38700 13.70500 42.25800
H  -5.52600 19.59900 42.86300
H  -6.70600 21.74300 41.25000
H  -7.37200 21.89400 43.96000
H  -6.16800 22.91100 43.22700
H  -5.63200 21.43000 43.94500
H  -4.38300 18.72500 41.07700
H  -4.68300 20.45100 40.68200
H  -6.83100 19.05800 39.51200
H  -5.64100 17.87900 39.46100
H  -12.61500 24.04200 41.35600
H  -10.78700 23.93700 41.32000
H  -11.57200 24.32200 42.77900
H  -15.47400 20.81100 44.17300
H  -16.15300 20.69500 42.48900
H  -16.60600 21.98700 43.37700
H  -15.03800 16.75400 41.90800
H  -13.89600 14.67600 43.57100
H  -16.41700 16.87600 43.64600
H  -15.08400 17.20900 44.86800
H  -15.51300 15.55100 44.37300
H  -13.61900 14.34500 40.59900
H  -15.21600 14.78200 41.13900
H  -14.25600 12.83900 42.96100
H  -14.27500 12.22200 41.32300
H  -15.77100 12.97400 41.89800
H  -9.65200 12.17600 42.78900
H  -7.98200 12.12800 42.93900
H  -8.81800 12.45000 41.27200
H  -5.05100 16.61600 41.76500
H  -5.50600 16.37200 46.77800
H  -5.93400 17.95100 46.74000
H  -4.32200 17.59900 46.18000

