158

Mg 46.44200 24.58000 28.43300
C  47.11700 26.71600 31.21200
C  45.34700 22.20400 30.61900
C  46.28600 22.43600 25.79300
C  47.88900 27.03600 26.38400
N  46.45000 24.46200 30.71800
C  46.59500 25.45600 31.62000
C  46.23900 25.06600 33.05400
C  45.59300 23.65200 32.76600
C  45.86500 23.33800 31.28900
C  46.10800 22.61900 33.83200
C  45.31700 26.13700 33.72600
C  45.77800 26.62900 35.09500
H  44.72800 26.87500 36.19600
N  45.69400 22.66500 28.24000
C  45.27500 21.86200 29.30700
C  44.89100 20.61500 28.77500
C  45.19800 20.56000 27.35700
C  45.74200 21.94600 27.01500
C  44.22400 19.52700 29.49300
C  44.88800 19.43400 26.35600
O  45.11300 19.54200 25.16600
C  44.28600 18.15600 26.74700
N  46.79400 24.79300 26.35800
C  46.75500 23.74300 25.50400
C  47.44700 24.17200 24.14500
C  47.80800 25.63700 24.29600
C  47.43000 25.88700 25.75200
C  48.64300 23.31700 23.63500
C  47.17400 26.57700 23.22400
C  47.55300 26.28700 21.77900
N  47.32800 26.47700 28.63300
C  47.84600 27.33900 27.71000
C  48.29300 28.52400 28.37200
C  47.94700 28.38200 29.71200
C  47.44900 27.09300 29.88900
C  48.96100 29.66300 27.68000
C  48.00100 29.00100 30.97900
O  48.27300 30.14000 31.21800
C  47.55300 27.90800 31.96400
C  48.72900 27.58800 32.89200
O  49.58900 26.76500 32.68400
O  48.61500 28.37200 33.96800
C  49.56900 28.08400 35.00900
H  44.84600 21.55000 31.33500
H  46.46800 21.64400 25.06300
H  48.26900 27.73200 25.63400
H  47.16800 24.90700 33.60200
H  44.50500 23.59700 32.82000
H  46.66700 21.91300 33.21800
H  45.35300 22.01700 34.33700
H  46.80100 22.98900 34.58700
H  44.30800 25.74400 33.85500
H  45.04000 26.94300 33.04600
H  46.27800 27.59400 35.00300
H  46.52100 25.92800 35.47500
H  44.54500 18.55600 29.11800
H  43.17300 19.70500 29.26700
H  44.41700 19.66700 30.55700
H  43.92100 17.59900 25.88400
H  43.45300 18.36600 27.41700
H  45.07200 17.62200 27.28100
H  46.68100 23.95100 23.40200
H  48.86000 25.89900 24.18300
H  49.60200 23.81900 23.50300
H  48.35500 22.97900 22.64000
H  48.78300 22.42500 24.24600
H  47.50000 27.59200 23.45400
H  46.08600 26.58200 23.28400
H  46.72900 25.80700 21.25000
H  48.41700 25.62600 21.71300
H  47.74500 27.23000 21.26700
H  48.76200 30.68000 28.02000
H  48.78600 29.50700 26.61600
H  50.04200 29.58000 27.79400
H  46.74600 28.24100 32.61600
H  49.17300 27.36600 35.72800
H  49.83000 28.99600 35.54500
H  50.51100 27.68400 34.63100
Mg 47.48600 34.43400 27.60500
C  45.51500 32.98400 29.93300
C  47.85900 37.11700 29.76300
C  48.85200 36.23400 24.96700
C  46.79600 31.86900 25.35600
N  46.89000 34.92000 29.59200
C  46.26000 34.05200 30.42600
C  46.37200 34.54500 31.93600
C  46.81200 36.04400 31.77600
C  47.22600 36.04700 30.27900
C  45.65800 37.11200 32.08200
C  47.45700 33.71000 32.69100
C  47.11600 33.39100 34.20800
H  48.01200 33.86000 35.31900
N  48.34000 36.40600 27.41000
C  48.36800 37.34400 28.45100
C  48.84400 38.61800 27.86400
C  49.14900 38.34100 26.48700
C  48.78600 36.91800 26.24100
C  48.70400 39.87800 28.71100
C  49.55100 39.33600 25.46100
O  49.92300 39.04700 24.31900
C  49.67600 40.85800 25.90000
N  48.00100 34.08800 25.60100
C  48.56700 34.94400 24.68300
C  48.78600 34.35800 23.31100
C  48.42800 32.83300 23.57600
C  47.70300 32.85500 24.94600
C  47.93800 35.05200 22.21400
C  49.74400 31.87800 23.70400
C  49.76300 30.98800 22.45000
N  46.43100 32.77300 27.64400
C  46.12900 31.84800 26.62700
C  45.20600 30.83300 27.16600
C  44.99200 31.19400 28.48000
C  45.69500 32.39500 28.69600
C  44.62500 29.55500 26.48100
C  44.33800 30.91000 29.69200
O  43.66800 29.95400 30.02100
C  44.47200 32.17300 30.61100
C  44.79400 31.74000 31.94600
O  45.71600 30.96700 32.29300
O  43.85300 32.23100 32.80600
C  44.03600 31.91200 34.29800
H  48.00800 37.97300 30.42400
H  49.22200 36.77900 24.09600
H  46.45500 31.10300 24.65700
H  45.44200 34.41300 32.49100
H  47.69600 36.37100 32.32300
H  45.23000 37.50800 31.16200
H  46.17800 37.92100 32.59400
H  44.88700 36.64700 32.69800
H  48.41600 34.22600 32.64700
H  47.67400 32.80000 32.13100
H  47.27100 32.32800 34.39300
H  46.11400 33.74400 34.44900
H  47.72800 39.82900 29.19300
H  48.79200 40.87300 28.27400
H  49.48800 39.95000 29.46500
H  50.33800 40.85600 26.76600
H  48.69500 41.27900 26.12100
H  50.05500 41.48600 25.09300
H  49.83400 34.56200 23.09100
H  47.76000 32.37600 22.84600
H  48.51300 35.11000 21.29000
H  47.51600 36.03100 22.43900
H  47.18100 34.30500 21.97400
H  49.55200 31.26300 24.58400
H  50.70100 32.40000 23.70200
H  50.69900 31.18500 21.92700
H  48.89100 31.11000 21.80600
H  49.72600 29.94200 22.75600
H  43.64300 29.34700 26.90600
H  45.30000 28.73700 26.73200
H  44.51000 29.73300 25.41100
H  43.54700 32.74800 30.56700
H  44.87400 31.24600 34.50600
H  43.12500 31.47500 34.70600
H  44.18400 32.85400 34.82600

