158

Mg 44.21800 3.70500 47.02500
C  41.76400 6.29200 46.74700
C  41.70200 1.40100 47.07200
C  46.56600 1.46700 46.80300
C  46.58200 6.38200 46.54300
N  42.04000 3.83200 46.75800
C  41.23700 4.96000 46.82400
C  39.72800 4.56900 46.68700
C  39.78400 3.14000 47.25400
C  41.26300 2.72800 47.06700
C  39.25800 2.92000 48.65300
C  39.24200 4.45900 45.19700
C  38.38000 5.58800 44.57300
H  38.97500 6.33300 43.36100
N  44.17300 1.64000 46.82900
C  43.05600 0.93100 46.95700
C  43.39100 -0.44600 47.11000
C  44.83100 -0.54400 47.08300
C  45.29200 0.84700 46.89600
C  42.49700 -1.51400 47.38000
C  45.65200 -1.74100 47.19900
O  45.16200 -2.83400 47.35900
C  47.17600 -1.79100 47.16500
N  46.24700 3.89600 46.65100
C  47.09800 2.80300 46.75000
C  48.54900 3.24300 46.84700
C  48.44500 4.71000 46.25000
C  47.03300 5.06000 46.56300
C  49.19000 3.07400 48.25100
C  48.71600 4.92600 44.75200
C  50.22800 4.65400 44.49900
N  44.25100 5.93900 46.81900
C  45.29100 6.84800 46.66600
C  44.76700 8.20800 46.65400
C  43.34600 8.04000 46.65300
C  43.14700 6.62600 46.74200
C  45.55400 9.48900 46.51200
C  42.03700 8.67600 46.52700
O  41.68000 9.84200 46.34800
C  41.02000 7.64700 46.67800
C  40.12800 7.73300 47.92100
O  40.51800 7.48100 49.04400
O  38.87200 8.08800 47.54300
C  37.91000 8.15200 48.61500
H  40.87900 0.69200 47.18600
H  47.40300 0.76600 46.81700
H  47.40900 7.09200 46.46600
H  39.09100 5.36600 47.07000
H  39.20700 2.34500 46.78200
H  38.72400 3.84000 48.88800
H  40.17800 2.73400 49.20800
H  38.52800 2.11000 48.64700
H  38.65900 3.54300 45.10800
H  40.12700 4.39200 44.56400
H  38.05200 6.41300 45.20400
H  37.49800 5.16400 44.09400
H  42.89000 -2.41800 46.91600
H  41.45500 -1.38800 47.08300
H  42.46300 -1.67000 48.45900
H  47.60600 -1.20400 47.97600
H  47.47600 -1.49000 46.16100
H  47.57300 -2.78700 47.36100
H  49.10400 2.57800 46.18600
H  49.05700 5.44300 46.77700
H  49.62500 4.03600 48.52100
H  50.03300 2.40400 48.08100
H  48.41700 2.73700 48.94100
H  48.73900 5.98900 44.50900
H  48.00800 4.45300 44.07100
H  50.85400 5.51800 44.72100
H  50.41400 4.34200 43.47200
H  50.60800 3.81500 45.08200
H  45.11300 10.34500 46.00200
H  46.61800 9.34000 46.33400
H  45.49600 9.80300 47.55500
H  40.34300 7.70200 45.82500
H  37.16000 7.41800 48.32100
H  37.40200 9.11700 48.61900
H  38.08700 7.93900 49.66900
Mg 40.72000 41.38000 27.83700
C  39.60100 44.12300 29.99600
C  41.32800 39.56100 30.53900
C  41.58000 39.17700 25.73300
C  40.39700 43.93200 25.26500
N  40.49600 41.83600 29.98200
C  39.90400 42.88400 30.63000
C  39.90300 42.61700 32.19900
C  40.55900 41.18800 32.38100
C  40.80200 40.77600 30.86800
C  41.71100 41.13800 33.43000
C  38.49700 42.84100 32.90700
C  38.09700 42.09100 34.21900
H  37.65500 42.83300 35.45900
N  41.29200 39.53800 28.03000
C  41.67300 38.94100 29.27300
C  42.23600 37.59900 29.00800
C  42.35000 37.52200 27.59100
C  41.70100 38.76000 27.07900
C  42.66400 36.63200 30.08700
C  42.97600 36.38500 26.82800
O  43.02900 36.42200 25.63000
C  43.56700 35.22100 27.52400
N  40.93700 41.51600 25.80800
C  41.23500 40.42400 25.12100
C  41.09800 40.65600 23.67600
C  40.54500 42.15000 23.47300
C  40.53600 42.56000 24.94700
C  42.57400 40.46100 23.10900
C  39.11200 42.13100 22.87900
C  38.12100 41.20300 23.48100
N  40.36500 43.61700 27.64000
C  40.23900 44.44900 26.53800
C  39.83800 45.76500 26.91200
C  39.50800 45.67700 28.26200
C  39.81900 44.35400 28.63600
C  39.69700 46.89900 26.03900
C  38.96000 46.44300 29.40900
O  38.50600 47.58200 29.49700
C  38.99300 45.39100 30.60200
C  39.76400 46.03600 31.73100
O  40.97800 46.29700 31.75400
O  38.80800 46.38400 32.68900
C  39.34200 47.00700 33.95700
H  41.47600 38.93800 31.42300
H  41.88000 38.50000 24.93100
H  40.27600 44.59300 24.40500
H  40.65900 43.35900 32.45400
H  39.77100 40.50500 32.69900
H  42.72400 40.93500 33.08200
H  41.55600 40.58300 34.35500
H  41.89000 42.16700 33.74100
H  37.72800 42.63100 32.16400
H  38.34800 43.87800 33.20700
H  39.01700 41.69100 34.64400
H  37.39200 41.32600 33.89200
H  42.58700 37.19700 31.01600
H  43.69000 36.27900 29.98300
H  41.99000 35.78400 30.20800
H  44.42100 35.51200 28.13500
H  44.04000 34.60500 26.75900
H  42.81300 34.64000 28.05500
H  40.45700 39.88600 23.24600
H  41.10700 42.64400 22.68100
H  42.85200 41.41600 22.66400
H  42.49400 39.67000 22.36300
H  43.30200 40.13000 23.85000
H  39.15300 41.87300 21.82100
H  38.70600 43.14000 22.95700
H  38.55300 40.77900 24.38800
H  37.57400 40.57800 22.77400
H  37.35100 41.84000 23.91600
H  38.70300 47.01600 25.60800
H  40.34700 46.94900 25.16500
H  39.81800 47.81400 26.61800
H  37.99200 45.11700 30.93800
H  39.34700 46.30100 34.78800
H  38.63900 47.77700 34.27600
H  40.36000 47.39000 33.88400

