158

Mg 0.50200 8.22200 27.24000
C  1.10100 10.34900 29.97500
C  0.64900 5.57900 29.33500
C  0.50000 6.27800 24.53900
C  0.72500 11.04400 25.11500
N  0.91000 7.97500 29.41600
C  1.01900 8.99700 30.34800
C  0.74700 8.45400 31.76300
C  1.03000 6.99600 31.54200
C  0.77700 6.76600 30.00000
C  2.43700 6.49800 31.94300
C  -0.68900 8.79200 32.27100
C  -1.04700 9.19000 33.79200
H  -0.02700 8.94100 34.92300
N  0.56800 6.15700 26.98500
C  0.63500 5.19000 27.95600
C  0.65500 3.86200 27.38900
C  0.54400 4.01200 25.99600
C  0.55500 5.57300 25.77400
C  0.81500 2.57000 28.13700
C  0.43500 2.98000 24.88500
O  0.36000 3.34900 23.70800
C  0.36300 1.53000 25.18200
N  0.56300 8.64700 25.15500
C  0.52500 7.66900 24.26100
C  0.33300 8.18100 22.84200
C  -0.04500 9.70500 23.10500
C  0.41200 9.79800 24.52600
C  1.60800 8.09700 22.00600
C  -1.50300 10.03000 22.93400
C  -1.77100 11.28600 22.14000
N  0.77600 10.33000 27.48200
C  0.99500 11.30600 26.50600
C  1.27400 12.54800 27.15400
C  1.35600 12.26300 28.50700
C  1.09000 10.87000 28.61700
C  1.40500 13.86000 26.56800
C  1.57400 12.80400 29.86100
O  1.78400 13.91500 30.23600
C  1.26100 11.58200 30.83000
C  2.39200 11.48400 31.85600
O  3.42300 10.89400 31.67300
O  1.97400 12.10100 33.04300
C  2.98800 12.35500 33.98100
H  0.80400 4.82700 30.11200
H  0.38600 5.76400 23.58200
H  0.59400 11.79300 24.33200
H  1.46200 8.90200 32.45200
H  0.32700 6.39500 32.12000
H  2.94400 7.34300 32.40800
H  3.14500 6.09700 31.21800
H  2.20300 5.63800 32.57000
H  -1.30800 7.94500 31.97500
H  -0.93100 9.68600 31.69700
H  -2.03400 8.76900 33.98300
H  -1.26900 10.25500 33.84300
H  0.85700 2.69000 29.21900
H  1.68100 1.94400 27.92200
H  -0.09400 1.97800 28.03300
H  1.22100 1.09400 25.69400
H  0.32000 1.04600 24.20700
H  -0.51400 1.30200 25.78800
H  -0.53900 7.66400 22.44300
H  0.52100 10.38200 22.46500
H  1.59700 7.06400 21.65800
H  2.49700 8.14100 22.63500
H  1.70600 8.85800 21.23100
H  -2.01400 10.01500 23.89600
H  -2.10700 9.24700 22.47600
H  -0.92500 11.58900 21.52200
H  -2.04100 12.05200 22.86600
H  -2.59000 11.13900 21.43500
H  1.69900 14.55000 27.35900
H  0.44800 14.28800 26.27000
H  2.08800 13.84300 25.71800
H  0.33600 11.96400 31.26300
H  2.60100 12.79300 34.90100
H  3.73600 13.06000 33.61900
H  3.62300 11.49200 34.17700
Mg 35.69200 48.28500 25.38600
C  36.38900 46.52100 28.20000
C  34.49400 50.82200 27.33100
C  34.67700 49.94300 22.56900
C  36.83000 45.64300 23.41600
N  35.38500 48.52400 27.53300
C  35.87800 47.73000 28.51000
C  35.67200 48.35700 29.93100
C  34.90500 49.59600 29.60500
C  34.93100 49.69800 28.03000
C  33.39400 49.56300 30.09500
C  37.04900 48.58600 30.63600
C  37.12500 48.23500 32.14000
H  36.01300 48.56100 33.12500
N  34.84600 50.18200 25.02000
C  34.47300 51.07900 25.95100
C  33.96100 52.25600 25.39500
C  33.82400 51.99200 23.99500
C  34.48400 50.67200 23.80100
C  33.51700 53.49300 26.18800
C  33.09600 52.81300 22.91800
O  33.07000 52.39800 21.78500
C  32.28800 54.03500 23.19700
N  35.71500 47.83000 23.32900
C  35.24400 48.66100 22.34900
C  35.68600 48.13200 20.93500
C  36.33400 46.78300 21.22700
C  36.31900 46.76900 22.75400
C  34.51100 47.89300 19.91100
C  37.77300 46.53900 20.58900
C  39.05900 47.16100 21.24100
N  36.42600 46.40700 25.68700
C  36.86600 45.41700 24.80500
C  37.37800 44.31000 25.52100
C  37.17300 44.65400 26.91900
C  36.64500 46.01400 26.93100
C  37.99300 43.00200 24.92300
C  37.39600 44.22300 28.28800
O  37.71100 43.12200 28.72800
C  36.93700 45.44500 29.16600
C  35.79500 44.95200 29.99800
O  34.66700 44.61100 29.62100
O  36.24400 44.92800 31.28200
C  35.30000 44.48000 32.34100
H  34.15200 51.60100 28.01500
H  34.40800 50.58800 21.73000
H  37.39500 44.97600 22.76100
H  35.09100 47.81300 30.67600
H  35.36500 50.42200 30.14700
H  33.20800 50.37500 30.79800
H  33.25500 48.62500 30.63300
H  32.63300 49.73500 29.33400
H  37.40500 49.61400 30.69500
H  37.74200 48.10400 29.94700
H  37.98700 48.82600 32.45000
H  37.34800 47.17500 32.26200
H  33.88400 54.37300 25.66100
H  34.06200 53.60700 27.12500
H  32.44100 53.52800 26.35900
H  31.86800 54.42000 22.26700
H  32.72000 54.85700 23.76800
H  31.43100 53.71900 23.79100
H  36.29500 48.88200 20.42800
H  35.77400 45.91100 20.88800
H  33.65000 47.80600 20.57400
H  34.59100 46.92100 19.42500
H  34.37300 48.72600 19.22200
H  37.75200 46.86100 19.54800
H  37.93600 45.50300 20.29200
H  39.68200 47.69700 20.52600
H  39.69600 46.36600 21.62700
H  38.69700 47.78800 22.05600
H  38.95400 42.78700 25.39100
H  38.09900 43.09600 23.84300
H  37.37100 42.12100 25.08100
H  37.85200 45.66600 29.71600
H  36.01100 44.23700 33.13100
H  34.68000 43.62400 32.07500
H  34.61400 45.24200 32.71100

