158

Mg 43.35200 4.80700 47.10600
C  41.50900 7.87700 46.90300
C  40.27400 3.17900 46.51100
C  45.00100 2.12200 46.30800
C  46.27000 6.67600 46.86200
N  41.11000 5.48600 46.59300
C  40.65700 6.76000 46.74100
C  39.16400 6.77900 46.73100
C  38.76200 5.30000 46.84700
C  40.08400 4.52200 46.64000
C  38.08200 4.95500 48.13700
C  38.36600 7.52300 45.55700
C  39.14400 8.02000 44.37800
H  38.82700 7.39100 43.02000
N  42.76700 2.92300 46.56300
C  41.49900 2.39600 46.34400
C  41.53900 0.95400 46.25500
C  42.90300 0.62600 45.97700
C  43.62300 1.92800 46.26100
C  40.32400 0.12300 46.28800
C  43.51900 -0.67100 45.52500
O  42.75400 -1.61400 45.45600
C  44.95300 -0.92100 45.25400
N  45.45600 4.43100 46.69600
C  45.86600 3.24500 46.49300
C  47.38700 3.17200 46.12400
C  47.77800 4.64100 46.21300
C  46.42100 5.33000 46.57900
C  48.23500 2.31300 47.17000
C  48.38300 5.15600 44.86100
C  49.76600 5.76200 44.99700
N  43.85800 6.86300 47.03800
C  45.07100 7.46300 47.03300
C  44.90500 8.93800 47.17500
C  43.45700 9.06800 47.16200
C  42.87000 7.78700 47.06900
C  45.84400 10.03200 46.91000
C  42.42400 10.11200 47.11200
O  42.52700 11.33200 47.07300
C  41.06200 9.32900 47.08500
C  40.19100 9.62900 48.23900
O  40.15500 8.92200 49.21000
O  39.31800 10.66600 47.90700
C  38.35000 11.07600 48.93100
H  39.34100 2.61100 46.51000
H  45.72600 1.32400 46.13400
H  47.19200 7.25700 46.93300
H  38.84700 7.33000 47.61700
H  38.21500 5.12900 45.92100
H  38.70100 4.49600 48.90800
H  37.23400 4.31000 47.90800
H  37.73600 5.82700 48.69200
H  37.96300 8.43300 46.00400
H  37.44400 6.98400 45.34000
H  40.20300 7.80400 44.51200
H  39.08800 9.10600 44.29600
H  39.76600 0.24000 45.35900
H  39.67400 0.49400 47.08100
H  40.51100 -0.93600 46.46900
H  45.44400 -0.76700 46.21500
H  45.38500 -0.27100 44.49300
H  45.05100 -1.94200 44.88700
H  47.45400 2.82000 45.09400
H  48.40700 4.82900 47.08300
H  48.31900 1.27900 46.83500
H  47.68900 2.44000 48.10500
H  49.23300 2.75100 47.15700
H  47.78100 5.83800 44.26100
H  48.54900 4.38200 44.11200
H  49.86500 6.17800 45.99900
H  50.00000 6.54100 44.27200
H  50.40800 4.90100 44.80900
H  45.59400 10.68000 46.06900
H  46.79000 9.64000 46.53700
H  46.10900 10.68700 47.74000
H  40.61700 9.62600 46.13500
H  38.58700 12.00900 49.44100
H  38.19200 10.29500 49.67500
H  37.44300 11.30400 48.37200
Mg 27.39200 50.41200 26.84200
C  25.09800 50.97000 29.44500
C  29.78700 49.78300 29.30500
C  29.53500 49.73700 24.40000
C  24.92700 51.48000 24.58400
N  27.41400 50.52800 29.08200
C  26.36100 50.67700 29.95100
C  26.74000 50.52000 31.40000
C  28.34100 50.38900 31.31700
C  28.55800 50.23500 29.76800
C  29.24600 51.51700 31.92000
C  25.98200 49.33800 32.13200
C  25.33400 49.73000 33.53200
H  25.67800 48.80200 34.71000
N  29.37500 49.92900 26.85900
C  30.21500 49.61000 28.02000
C  31.52800 49.21500 27.49900
C  31.48600 49.32500 26.06200
C  30.08600 49.58800 25.67100
C  32.74000 48.86400 28.37100
C  32.61400 49.26800 25.03500
O  32.47600 49.35100 23.79100
C  33.98200 49.06100 25.56500
N  27.30000 50.90100 24.83100
C  28.28600 50.36200 24.01800
C  27.92800 50.47200 22.55200
C  26.43000 50.86600 22.63000
C  26.20900 51.18000 24.08900
C  28.81700 51.54000 21.78200
C  25.46100 49.80600 22.02200
C  25.06600 48.63900 22.87900
N  25.51000 51.23500 26.95900
C  24.61700 51.50000 25.98500
C  23.32700 51.84200 26.50800
C  23.50300 51.66900 27.84500
C  24.81100 51.22400 28.09000
C  22.11100 52.33500 25.71800
C  22.76100 51.73100 29.10900
O  21.65000 52.13900 29.31700
C  23.83500 51.36800 30.21300
C  24.08900 52.51300 31.23200
O  24.66100 53.52900 31.02000
O  23.45000 52.13200 32.40800
C  23.46800 53.13600 33.54500
H  30.60300 49.60000 30.00700
H  30.23700 49.42300 23.62500
H  24.17500 51.76300 23.84500
H  26.55400 51.46900 31.90200
H  28.61000 49.44800 31.79800
H  29.72500 51.15200 32.82800
H  28.55000 52.32000 32.16400
H  29.95400 51.77700 31.13300
H  26.63100 48.46600 32.21900
H  25.22000 48.85100 31.52300
H  24.28000 49.93300 33.34100
H  25.76400 50.70200 33.77500
H  33.06500 47.88400 28.02300
H  32.44300 48.88800 29.41900
H  33.61300 49.49500 28.20500
H  34.66100 48.93400 24.72100
H  34.04600 48.16700 26.18400
H  34.26500 49.96100 26.11100
H  28.10900 49.44000 22.25300
H  26.27000 51.84100 22.16900
H  29.74600 51.73300 22.31900
H  28.27600 52.47000 21.60800
H  29.12800 51.05000 20.85900
H  26.09300 49.46200 21.20400
H  24.55800 50.25400 21.60800
H  25.23700 48.69400 23.95500
H  25.48100 47.72500 22.45600
H  23.99000 48.49300 22.79100
H  22.26500 52.19900 24.64800
H  21.99700 53.40600 25.88400
H  21.24900 51.78600 26.09500
H  23.46000 50.49600 30.74800
H  24.27900 52.75800 34.16600
H  22.58400 53.13900 34.18300
H  23.81000 54.13900 33.28700

