158

Mg 40.40800 9.92900 29.03900
C  42.26300 11.31900 31.61100
C  38.31400 8.66100 31.45000
C  38.70200 8.52400 26.45600
C  42.99600 10.64600 26.76900
N  40.36500 9.99700 31.25900
C  41.10500 10.73100 32.10000
C  40.62500 10.62800 33.49100
C  39.54900 9.53600 33.52100
C  39.32200 9.45000 31.96300
C  39.96900 8.14100 34.13800
C  40.24800 11.96900 34.09700
C  39.92800 11.79100 35.59900
H  40.83100 12.42600 36.75600
N  38.69800 8.84200 28.96100
C  38.01000 8.39100 30.08100
C  36.90100 7.59600 29.63900
C  36.94100 7.63100 28.21500
C  38.16000 8.34400 27.77000
C  36.08800 6.73100 30.52500
C  35.92100 7.07000 27.26600
O  36.14300 7.09500 26.05500
C  34.61200 6.58600 27.77400
N  40.89200 9.45700 26.93700
C  39.94900 9.03800 26.08400
C  40.52600 9.04000 24.61100
C  41.89500 9.76000 24.80000
C  41.94300 9.97900 26.24200
C  40.48700 7.70900 23.81900
C  41.94100 11.08700 23.92800
C  41.39500 12.43000 24.62900
N  42.29200 10.76400 29.12100
C  43.22500 10.97700 28.10600
C  44.35700 11.72800 28.65000
C  44.01400 11.83500 30.06100
C  42.73800 11.19300 30.27200
C  45.42500 12.34500 27.84900
C  44.45700 12.38000 31.33400
O  45.48400 12.96600 31.65700
C  43.32000 12.16100 32.35300
C  43.92900 11.43900 33.53400
O  44.41800 10.31800 33.48700
O  43.71100 12.19000 34.60800
C  44.03400 11.65000 35.90400
H  37.66000 8.27100 32.23300
H  38.15900 8.33000 25.52900
H  43.70000 11.02600 26.02600
H  41.40700 10.30600 34.17800
H  38.58000 9.74500 33.97500
H  39.19000 7.87400 34.85200
H  40.94200 8.31100 34.59800
H  40.01500 7.36400 33.37400
H  39.36200 12.34100 33.58200
H  41.02800 12.69100 33.85700
H  39.85300 10.74500 35.89700
H  38.96900 12.21700 35.89400
H  36.60000 6.55100 31.47000
H  36.11400 5.79000 29.97600
H  35.02600 6.96600 30.59400
H  34.80800 5.57900 28.14200
H  33.85600 6.48300 26.99500
H  34.20600 7.27300 28.51600
H  39.81300 9.72400 24.14900
H  42.73600 9.13500 24.50100
H  40.27800 6.90200 24.52100
H  41.42700 7.59400 23.27800
H  39.58700 7.82400 23.21500
H  41.44200 10.93000 22.97200
H  43.01600 11.24600 23.84800
H  42.18500 13.17900 24.68700
H  40.91800 12.20000 25.58200
H  40.55300 12.63400 23.96800
H  45.19200 13.36700 27.55000
H  45.70700 11.74600 26.98300
H  46.29000 12.47800 28.50000
H  42.88500 13.14500 32.53400
H  43.38600 10.79800 36.10800
H  43.96700 12.35400 36.73300
H  45.09500 11.40300 35.92400
Mg -12.64400 17.00100 42.32200
C  -9.72700 15.14200 41.83600
C  -10.95800 19.62900 40.98900
C  -15.65900 18.62700 41.88600
C  -14.27700 13.99400 43.08300
N  -10.60400 17.22700 41.26400
C  -9.60600 16.36800 41.26400
C  -8.28900 17.06000 40.71800
C  -8.62300 18.60700 40.80400
C  -10.11900 18.49300 40.99800
C  -7.88000 19.42300 41.85400
C  -7.85800 16.54500 39.32700
C  -6.47900 15.86900 39.41400
H  -6.02500 14.82200 38.40200
N  -13.23900 18.87100 41.75500
C  -12.32300 19.83000 41.26000
C  -13.07900 20.98200 40.97700
C  -14.47600 20.72300 41.15500
C  -14.53500 19.37000 41.64500
C  -12.41300 22.25500 40.41900
C  -15.55900 21.72800 40.76900
O  -15.32300 22.83700 40.44600
C  -17.03400 21.43100 41.01700
N  -14.71400 16.38500 42.25200
C  -15.73100 17.23500 42.21300
C  -17.01900 16.51500 42.59800
C  -16.53700 15.13700 43.12400
C  -15.05800 15.12900 42.81400
C  -17.95000 17.34300 43.50000
C  -17.32800 13.86500 42.60800
C  -17.91100 12.80800 43.65900
N  -12.18000 14.96600 42.46400
C  -12.84500 13.84500 42.91300
C  -12.03500 12.72400 43.13500
C  -10.78400 13.14400 42.72600
C  -10.89700 14.51500 42.30400
C  -12.50600 11.41000 43.61500
C  -9.48800 12.71500 42.57900
O  -9.03200 11.60300 42.79600
C  -8.63900 14.03100 41.99600
C  -7.60400 14.40800 42.99500
O  -7.85700 14.70600 44.18700
O  -6.37500 14.23800 42.49000
C  -5.28700 14.66300 43.41400
H  -10.48700 20.51100 40.54900
H  -16.64200 19.10100 41.91000
H  -14.86300 13.16600 43.48700
H  -7.43500 16.87200 41.36900
H  -8.31500 19.06400 39.86400
H  -7.27300 18.75600 42.46600
H  -8.50500 19.96100 42.56700
H  -7.23100 20.16400 41.38800
H  -7.83300 17.31300 38.55400
H  -8.68000 15.91600 38.98400
H  -6.26200 15.37900 40.36300
H  -5.83800 16.74900 39.36800
H  -13.05100 23.12900 40.54600
H  -11.90600 22.16900 39.45800
H  -11.55000 22.34100 41.07800
H  -17.17200 21.30600 42.09100
H  -17.23400 20.50000 40.48600
H  -17.72800 22.17900 40.63200
H  -17.64300 16.22200 41.75500
H  -16.49000 14.97900 44.20200
H  -17.41200 18.19300 43.92000
H  -18.41700 16.70200 44.24700
H  -18.65500 17.81500 42.81500
H  -16.60800 13.34300 41.97800
H  -18.11100 14.17600 41.91800
H  -17.91700 13.13100 44.70000
H  -17.28900 11.94300 43.43100
H  -18.92800 12.54600 43.36600
H  -13.18400 11.57700 44.45200
H  -11.56100 10.97700 43.94300
H  -12.95200 10.84000 42.79900
H  -8.21100 13.84600 41.01100
H  -4.35100 14.14100 43.21400
H  -5.44400 14.37500 44.45300
H  -5.18600 15.74800 43.42100

