158

Mg 25.48400 -0.73000 29.49300
C  27.76000 -0.81200 32.26100
C  22.96400 -0.48600 31.65100
C  23.49400 -0.65400 26.81900
C  28.24300 -1.43300 27.48200
N  25.51700 -0.73500 31.74400
C  26.50900 -0.49600 32.61800
C  25.90700 -0.30700 34.02600
C  24.34600 -0.29800 33.75200
C  24.24700 -0.57300 32.27700
C  23.53600 -1.39500 34.58200
C  26.38600 1.01900 34.71100
C  26.14900 1.07800 36.23900
H  27.33100 1.02600 37.19800
N  23.48400 -0.55400 29.28900
C  22.59900 -0.50000 30.28000
C  21.26500 -0.31500 29.72000
C  21.45300 -0.35600 28.27700
C  22.90200 -0.61500 28.06700
C  20.07900 -0.21300 30.65300
C  20.41700 -0.35500 27.14700
O  20.67500 -0.43700 25.97800
C  18.96700 -0.28300 27.62400
N  25.79600 -1.23300 27.38700
C  24.83400 -0.98000 26.46600
C  25.42200 -0.97500 25.06600
C  26.89600 -1.15600 25.26000
C  27.04200 -1.24800 26.81300
C  24.72800 -2.03600 24.09300
C  27.82100 -0.03700 24.61700
C  29.06800 -0.43100 23.89900
N  27.57100 -1.20400 29.80600
C  28.56000 -1.49900 28.82900
C  29.83700 -1.65100 29.48500
C  29.56300 -1.43700 30.86100
C  28.17300 -1.11200 30.98000
C  31.11100 -1.90600 28.84700
C  30.10900 -1.37400 32.19800
O  31.22900 -1.60500 32.61300
C  28.97400 -0.94400 33.15400
C  28.79900 -1.94200 34.20400
O  28.12600 -3.01700 34.03000
O  29.28700 -1.46000 35.44700
C  28.82500 -2.36500 36.57900
H  22.12300 -0.35700 32.33600
H  22.91500 -0.42300 25.92200
H  28.99400 -1.55200 26.69800
H  26.13200 -1.11600 34.72000
H  23.91200 0.68100 33.95800
H  23.99900 -1.71900 35.51400
H  23.42800 -2.35200 34.07100
H  22.49800 -1.07100 34.66000
H  25.83800 1.89800 34.36900
H  27.43200 1.08900 34.41500
H  25.47000 0.27200 36.51800
H  25.44900 1.89600 36.40500
H  19.22600 0.34000 30.26000
H  20.33500 0.32200 31.56800
H  19.80600 -1.22600 30.94900
H  18.28500 -0.47000 26.79400
H  18.68900 0.61600 28.17400
H  18.93700 -1.08400 28.36300
H  25.24600 -0.02400 24.56200
H  27.17500 -2.16000 24.94200
H  25.49400 -2.77100 23.84400
H  24.24700 -1.66000 23.19000
H  23.93900 -2.69100 24.46300
H  28.18200 0.58100 25.44000
H  27.25700 0.55700 23.89800
H  29.00400 -1.41000 23.42400
H  29.88900 -0.35200 24.61100
H  29.26700 0.27700 23.09400
H  30.96200 -1.80700 27.77200
H  31.46700 -2.91800 29.04500
H  31.89700 -1.24900 29.21900
H  29.24700 -0.01100 33.64700
H  29.22400 -1.94100 37.50100
H  29.25500 -3.36300 36.49300
H  27.75800 -2.58600 36.62300
Mg 47.21500 35.02400 28.03300
C  45.48200 32.98800 30.22800
C  47.34900 37.52900 30.47900
C  48.21600 37.12900 25.63900
C  46.46100 32.67400 25.39400
N  46.54400 35.25900 30.07300
C  46.05300 34.16400 30.79500
C  46.24200 34.43600 32.31700
C  46.31400 36.01100 32.31100
C  46.68700 36.35300 30.85100
C  45.18700 36.87900 32.88900
C  47.50500 33.66900 32.82600
C  47.63000 33.52500 34.31700
H  46.67500 34.34100 35.23900
N  47.90600 36.95300 28.09100
C  47.82400 37.80200 29.21300
C  48.56900 39.06900 28.83400
C  48.76700 39.05400 27.42000
C  48.27100 37.69700 26.98700
C  49.08500 40.28300 29.84800
C  49.28300 40.10300 26.47500
O  49.31700 39.90800 25.28000
C  49.57900 41.53700 26.86400
N  47.41000 34.84200 25.82800
C  47.87000 35.86900 25.09200
C  47.85600 35.54700 23.62000
C  47.63800 34.03800 23.59600
C  47.01700 33.87200 24.98300
C  46.78100 36.37800 22.90500
C  48.88000 33.12200 23.43500
C  48.58900 31.75000 22.87300
N  46.09000 33.27200 27.81900
C  45.98500 32.41600 26.75000
C  45.42200 31.12300 27.22600
C  45.12600 31.33600 28.58200
C  45.51300 32.65300 28.85900
C  45.17200 29.84200 26.40300
C  44.51300 30.80200 29.78700
O  44.13000 29.65700 30.00700
C  44.49400 31.87200 30.80600
C  45.09300 31.31900 32.02600
O  46.13100 30.71600 32.12100
O  44.28800 31.65300 33.08800
C  44.67800 31.07400 34.44200
H  47.47300 38.32100 31.22100
H  48.45800 37.93600 24.94400
H  46.25100 31.94100 24.61200
H  45.34600 34.09700 32.83500
H  47.15600 36.23900 32.96300
H  44.35200 36.23800 33.17200
H  44.88000 37.53500 32.07500
H  45.56400 37.51400 33.69100
H  48.45700 34.07100 32.48000
H  47.60300 32.65800 32.43200
H  48.62600 33.80500 34.65800
H  47.71300 32.49100 34.65200
H  50.15800 40.47100 29.81600
H  48.97700 39.90700 30.86600
H  48.44900 41.12400 29.57400
H  50.35600 41.61800 27.62400
H  48.59100 41.87500 27.17500
H  49.92200 42.13000 26.01600
H  48.81100 35.77300 23.14600
H  46.90000 33.85800 22.81400
H  47.27700 36.84100 22.05200
H  46.40200 37.30100 23.34300
H  45.94300 35.83600 22.46500
H  49.36500 32.99400 24.40300
H  49.50200 33.58600 22.67000
H  47.56100 31.38700 22.87600
H  49.05000 30.96100 23.46700
H  48.98600 31.64900 21.86300
H  45.66000 29.89200 25.43000
H  44.10800 29.62100 26.31700
H  45.60300 28.98900 26.92800
H  43.49500 32.22900 31.05700
H  44.16000 31.57700 35.25900
H  45.75500 31.18500 34.57300
H  44.40900 30.03100 34.60800

