158

Mg 8.34700 3.10000 28.28000
C  9.86200 1.58600 30.99200
C  6.35300 4.72900 30.33900
C  6.62600 4.21700 25.58700
C  10.07700 0.88200 26.10400
N  8.17000 3.17400 30.46200
C  8.95400 2.57400 31.34300
C  8.56500 3.02100 32.80800
C  7.21600 3.87100 32.58700
C  7.24200 3.94700 31.00600
C  5.78100 3.38100 33.09400
C  9.72900 3.75500 33.50900
C  9.34600 4.54400 34.66100
H  10.02200 4.29300 35.99300
N  6.76600 4.36800 27.97100
C  6.09100 5.01500 29.01900
C  5.10700 5.87200 28.49700
C  5.08400 5.69600 27.09300
C  6.12500 4.71100 26.83100
C  4.39000 6.94800 29.31400
C  4.30000 6.41000 26.08600
O  4.45900 6.32400 24.89900
C  3.24000 7.42200 26.47900
N  8.14200 2.41900 26.17700
C  7.51600 3.21300 25.23900
C  7.82000 2.84900 23.80200
C  8.89300 1.68300 23.95500
C  9.08300 1.66800 25.50000
C  6.63100 2.40600 22.83800
C  10.16200 2.03700 23.07200
C  11.17300 3.09100 23.67000
N  9.79500 1.52600 28.44300
C  10.43500 0.79100 27.50000
C  11.37600 -0.05200 28.18700
C  11.19500 0.28700 29.54600
C  10.28000 1.23000 29.63800
C  12.26300 -1.03000 27.58600
C  11.64800 -0.08200 30.86600
O  12.48100 -0.87500 31.20100
C  10.82300 0.76500 31.95000
C  9.97900 -0.18200 32.61300
O  8.93500 -0.71400 32.16800
O  10.46800 -0.48000 33.79700
C  9.53600 -1.00100 34.80100
H  5.80600 5.38700 31.01700
H  6.14100 4.68100 24.72600
H  10.70000 0.31300 25.41100
H  8.36600 2.09000 33.33800
H  7.44200 4.85300 33.00200
H  5.45400 4.26700 33.63800
H  5.96400 2.57200 33.80100
H  5.19300 3.02200 32.24900
H  10.28700 4.31300 32.75800
H  10.38900 2.97600 33.89000
H  8.30500 4.41100 34.95600
H  9.36200 5.58800 34.34900
H  4.64500 7.05300 30.36800
H  3.33200 6.78200 29.11200
H  4.58300 7.94600 28.92100
H  2.61000 7.73300 25.64600
H  3.75600 8.31300 26.83600
H  2.64400 6.99700 27.28700
H  8.31900 3.68000 23.30400
H  8.55600 0.70600 23.60800
H  5.69100 2.40200 23.39100
H  6.76500 1.47900 22.28100
H  6.53000 3.09700 22.00200
H  9.80700 2.39900 22.10700
H  10.73400 1.11100 23.01300
H  11.94700 2.56100 24.22500
H  10.68000 3.78900 24.34700
H  11.67400 3.59800 22.84500
H  12.68100 -0.63700 26.65900
H  11.70500 -1.94900 27.40400
H  13.04700 -1.30800 28.29000
H  11.58900 1.25700 32.54900
H  8.59300 -0.45600 34.75200
H  9.87500 -0.73400 35.80200
H  9.40600 -2.07600 34.67600
Mg -11.41400 37.94500 42.34900
C  -8.94000 35.52700 41.95100
C  -9.41000 40.19100 40.51400
C  -13.86000 40.13800 42.32300
C  -13.57800 35.53300 43.75300
N  -9.47100 37.83300 41.29400
C  -8.64200 36.73100 41.24000
C  -7.40500 37.03400 40.49000
C  -7.38400 38.62900 40.47900
C  -8.81600 38.91500 40.77800
C  -6.49200 39.25400 41.63700
C  -7.28500 36.46800 39.01100
C  -5.91500 35.68700 38.81000
H  -4.93300 36.09400 37.64500
N  -11.60500 39.92200 41.62200
C  -10.66300 40.69400 40.93500
C  -11.21800 41.98100 40.62900
C  -12.50300 42.04800 41.23800
C  -12.66300 40.68700 41.84000
C  -10.46700 43.06500 39.83900
C  -13.44700 43.26900 41.26300
O  -13.20100 44.33700 40.71700
C  -14.67000 43.22300 42.10000
N  -13.50000 37.78800 42.84000
C  -14.21600 38.89700 42.77200
C  -15.68800 38.58000 43.28100
C  -15.66300 37.02500 43.60200
C  -14.16300 36.72900 43.37900
C  -16.23800 39.46200 44.45700
C  -16.56800 36.08000 42.82400
C  -17.01700 34.79100 43.58700
N  -11.30600 35.94500 42.93400
C  -12.22900 35.10800 43.48900
C  -11.55600 33.80300 43.71200
C  -10.23800 33.93300 43.16300
C  -10.17300 35.23800 42.69400
C  -12.12500 32.62500 44.40400
C  -8.94300 33.30100 42.97800
O  -8.46200 32.23300 43.44500
C  -8.06400 34.32800 42.10400
C  -6.82100 34.59100 42.99900
O  -5.79300 33.91800 43.05000
O  -6.88100 35.76300 43.68600
C  -5.65000 36.21800 44.23300
H  -8.77100 40.92700 40.02100
H  -14.69200 40.76800 42.00200
H  -14.35600 34.92700 44.22000
H  -6.56300 36.74600 41.11800
H  -7.17500 39.00800 39.47800
H  -5.53300 39.53200 41.19800
H  -6.44000 38.69100 42.56800
H  -6.96600 40.19900 41.90300
H  -7.22300 37.35300 38.37800
H  -8.08700 35.79100 38.71600
H  -6.19700 34.66300 38.56900
H  -5.40200 35.46800 39.74600
H  -9.94000 43.73900 40.51400
H  -11.09400 43.73700 39.25200
H  -9.83600 42.61900 39.07000
H  -14.64800 42.56100 42.96500
H  -15.53300 43.31600 41.44100
H  -14.55800 44.21300 42.54200
H  -16.42300 38.61600 42.47700
H  -15.79000 36.75700 44.65000
H  -15.48600 39.94600 45.08100
H  -16.84900 38.90700 45.17000
H  -16.84000 40.27100 44.04600
H  -15.99700 35.80600 41.93600
H  -17.49600 36.51800 42.45700
H  -18.10600 34.73800 43.58600
H  -16.69300 34.82800 44.62700
H  -16.68100 33.86900 43.11300
H  -11.45000 31.78700 44.22900
H  -13.14100 32.39900 44.07900
H  -12.16100 32.81700 45.47600
H  -7.85200 33.90500 41.12200
H  -5.70400 37.29000 44.42400
H  -4.74800 36.18300 43.62300
H  -5.46300 35.62400 45.12800

