158

Mg -1.26300 35.28700 27.33300
C  -3.05900 33.51800 29.69300
C  -0.29600 37.45500 29.89900
C  0.64800 36.85700 25.08600
C  -2.39700 32.98200 24.91400
N  -1.55000 35.35800 29.51000
C  -2.22600 34.48600 30.25900
C  -2.03800 34.77400 31.76700
C  -1.46000 36.18300 31.76700
C  -1.12000 36.33400 30.26900
C  -2.45700 37.31100 32.23600
C  -1.22900 33.70500 32.58700
C  -2.05500 32.78800 33.44300
H  -1.69300 32.34000 34.87600
N  -0.08600 36.96500 27.48400
C  0.21000 37.71800 28.58400
C  1.19000 38.73100 28.20600
C  1.27900 38.64900 26.80000
C  0.55100 37.49000 26.40400
C  1.72300 39.68300 29.25500
C  2.09500 39.57700 25.86800
O  2.01000 39.44100 24.65100
C  2.91200 40.69500 26.37400
N  -1.10500 35.13200 25.23800
C  -0.08600 35.80400 24.60700
C  0.23500 35.20100 23.21500
C  -0.81500 34.01300 23.08500
C  -1.50500 34.03900 24.48600
C  0.18700 36.28200 22.08800
C  -0.21200 32.56700 22.82600
C  -0.96900 31.67900 21.83900
N  -2.61400 33.65500 27.23800
C  -3.03500 32.86900 26.15800
C  -4.02900 31.92800 26.65900
C  -4.08600 32.19400 28.00100
C  -3.16000 33.19200 28.30900
C  -4.82100 31.02800 25.89600
C  -4.75700 31.82100 29.26500
O  -5.62800 31.01100 29.54300
C  -4.08200 32.68600 30.35100
C  -5.12100 33.38900 31.11300
O  -5.67000 34.46500 30.94300
O  -5.42600 32.54800 32.18800
C  -6.40800 33.08000 33.16400
H  -0.04800 38.17000 30.68600
H  1.46300 37.22200 24.45800
H  -2.58200 32.20500 24.17000
H  -3.05700 34.71300 32.14900
H  -0.51600 36.22900 32.30900
H  -3.48100 37.00900 32.45700
H  -2.55800 38.10000 31.49000
H  -2.03900 37.67400 33.17500
H  -0.51600 34.22300 33.22900
H  -0.70800 33.09500 31.85000
H  -2.12600 31.91500 32.79400
H  -3.06700 33.18500 33.52400
H  1.60200 39.39200 30.29900
H  1.35100 40.67600 29.00100
H  2.75500 39.78000 28.91900
H  3.84200 40.29700 26.77900
H  2.33900 41.32200 27.05600
H  3.15100 41.37300 25.55400
H  1.28700 34.92300 23.28200
H  -1.55700 34.15300 22.29800
H  -0.49800 37.09200 22.34100
H  -0.29500 35.85000 21.21100
H  1.18700 36.64000 21.84400
H  -0.18000 31.99300 23.75200
H  0.83100 32.69500 22.53700
H  -1.12500 30.79900 22.46300
H  -0.48200 31.42100 20.89900
H  -1.90800 32.20500 21.67200
H  -4.16100 30.34400 25.36200
H  -5.42100 31.65200 25.23500
H  -5.35900 30.50100 26.68300
H  -3.76900 32.00400 31.14200
H  -6.54900 32.31000 33.92200
H  -7.30600 33.48100 32.69300
H  -5.79000 33.82800 33.66200
Mg -5.03600 26.00200 26.83100
C  -3.43800 27.53500 29.60800
C  -6.53100 23.74900 29.16800
C  -5.91400 24.04100 24.36400
C  -2.92400 27.81000 24.74400
N  -4.95800 25.76000 29.07300
C  -4.35700 26.57200 29.98800
C  -4.75800 26.14900 31.46800
C  -5.39400 24.79200 31.28000
C  -5.68900 24.80700 29.72300
C  -4.54200 23.58900 31.77300
C  -5.74400 27.22300 31.97200
C  -5.76700 27.39100 33.44800
H  -5.41700 26.23800 34.45000
N  -6.23400 24.27800 26.76700
C  -6.85300 23.56000 27.80000
C  -7.74800 22.55500 27.24300
C  -7.59800 22.64500 25.78000
C  -6.56100 23.67900 25.59400
C  -8.62200 21.70800 28.12700
C  -8.38100 21.98800 24.72500
O  -8.24400 22.24300 23.50600
C  -9.44100 21.00100 25.14100
N  -4.39800 25.81700 24.90300
C  -4.97700 24.92300 24.03500
C  -4.41200 25.19700 22.59000
C  -3.54800 26.51600 22.69100
C  -3.60600 26.70700 24.19700
C  -3.69800 24.01100 22.04100
C  -4.08900 27.65800 21.88100
C  -3.03500 28.38700 20.89100
N  -3.61200 27.50700 27.06700
C  -2.87900 28.20100 26.10300
C  -1.92500 29.13900 26.70500
C  -2.23300 28.90000 28.08700
C  -3.22500 27.91400 28.32000
C  -0.89100 29.94900 26.05600
C  -1.76900 29.29800 29.39700
O  -1.02600 30.16100 29.71700
C  -2.69300 28.53300 30.40500
C  -1.73900 27.84600 31.37700
O  -0.78300 27.15200 31.04600
O  -2.29500 28.02900 32.67500
C  -1.65400 27.56300 33.90100
H  -7.25500 23.24300 29.81000
H  -6.32800 23.36900 23.60800
H  -2.24000 28.40000 24.13100
H  -3.87600 26.02500 32.09600
H  -6.35900 24.80200 31.78800
H  -4.79200 22.73200 31.14700
H  -4.70300 23.35100 32.82400
H  -3.45900 23.71400 31.77200
H  -6.72900 26.93300 31.60600
H  -5.51200 28.16300 31.47100
H  -6.77600 27.70500 33.71700
H  -5.05500 28.17100 33.71800
H  -8.22700 20.70500 28.29000
H  -9.67400 21.60100 27.86100
H  -8.68200 22.16300 29.11500
H  -8.95600 20.08400 25.47500
H  -10.02800 20.78800 24.24700
H  -10.17400 21.46000 25.80500
H  -5.29200 25.38600 21.97500
H  -2.49500 26.27700 22.54300
H  -2.63400 24.23400 22.11900
H  -3.89700 24.02500 20.97000
H  -3.97900 23.09700 22.56500
H  -4.48100 28.45700 22.50900
H  -4.90300 27.30800 21.24600
H  -3.36000 28.29300 19.85500
H  -2.00700 28.02300 20.89700
H  -2.97200 29.46200 21.06100
H  -0.53900 30.80100 26.63800
H  -1.25800 30.18400 25.05700
H  0.04300 29.39800 25.95100
H  -3.36600 29.24400 30.88500
H  -1.00300 26.72700 33.64800
H  -2.47500 27.15400 34.48900
H  -1.21100 28.44100 34.37100

