158

Mg 1.18400 41.91900 26.21200
C  3.21000 42.54500 28.98900
C  -1.26700 40.81400 28.54200
C  -0.59200 40.93300 23.69100
C  3.90400 42.61000 24.11700
N  1.09100 41.69300 28.52000
C  1.98300 42.10900 29.42100
C  1.39600 42.08300 30.89500
C  0.01500 41.41500 30.63500
C  -0.06600 41.28700 29.14400
C  -0.24900 40.07400 31.38800
C  1.17200 43.65700 31.25400
C  1.27800 44.03800 32.78400
H  1.19400 42.83600 33.70600
N  -0.70700 41.00700 26.09900
C  -1.54000 40.63800 27.17400
C  -2.73500 40.04000 26.64800
C  -2.53400 39.97400 25.24000
C  -1.27300 40.71200 24.91300
C  -3.79700 39.45400 27.59200
C  -3.32900 39.16200 24.21100
O  -3.06900 39.18200 23.00200
C  -4.49200 38.40100 24.64100
N  1.57300 41.89200 24.19800
C  0.60600 41.46500 23.32800
C  1.01800 41.59700 21.81100
C  2.34000 42.49100 22.07800
C  2.70100 42.35300 23.50100
C  1.31600 40.27900 21.00500
C  2.24300 43.97300 21.68500
C  3.37900 44.67100 20.91400
N  3.15800 42.42200 26.42700
C  4.14400 42.62500 25.49100
C  5.35400 42.94000 26.15700
C  5.07900 42.89200 27.53800
C  3.70500 42.55100 27.66900
C  6.54900 43.56600 25.50700
C  5.61300 43.02300 28.85400
O  6.79500 43.21800 29.19500
C  4.48700 42.73500 29.83100
C  4.88100 41.61300 30.69700
O  4.71800 40.44700 30.36300
O  5.34400 42.07400 31.88500
C  5.84100 41.07100 32.80100
H  -2.08700 40.69400 29.25200
H  -1.09700 40.52700 22.81300
H  4.66200 42.84700 23.36800
H  2.11000 41.55100 31.52400
H  -0.82400 42.09300 30.79100
H  0.56200 39.89600 32.09300
H  -0.36300 39.32500 30.60300
H  -1.17600 40.32500 31.90300
H  0.17200 44.00200 30.99300
H  1.92900 44.29900 30.80200
H  0.43500 44.70400 32.96600
H  2.22200 44.53700 33.00000
H  -4.81300 39.60100 27.22300
H  -3.90500 39.90600 28.57800
H  -3.59400 38.39200 27.72700
H  -4.92400 37.81000 23.83300
H  -5.21700 39.10800 25.04200
H  -4.18600 37.63800 25.35700
H  0.15400 42.02900 21.30600
H  3.17500 42.09800 21.49900
H  0.69700 39.54200 21.51700
H  2.34800 39.93300 21.07300
H  1.13300 40.55000 19.96500
H  2.10000 44.62000 22.55100
H  1.37800 44.11500 21.03700
H  2.98200 44.89600 19.92400
H  4.28800 44.06900 20.89000
H  3.69800 45.56700 21.44600
H  6.94000 44.13500 26.35100
H  6.20900 44.30800 24.78400
H  7.27200 42.85700 25.10600
H  4.38600 43.63600 30.43700
H  6.92000 41.11000 32.94500
H  5.56100 40.06200 32.49900
H  5.45700 41.24200 33.80600
Mg -11.20300 16.46200 42.03500
C  -7.93000 14.95500 41.58400
C  -9.87700 19.27200 40.60600
C  -14.23300 17.47300 41.63700
C  -12.23300 13.35100 43.16100
N  -9.09400 16.95800 41.10500
C  -7.95300 16.25700 41.09100
C  -6.84800 17.07700 40.56400
C  -7.38700 18.55400 40.70000
C  -8.89200 18.25200 40.79200
C  -6.94500 19.49700 41.88900
C  -6.42300 16.68800 39.07000
C  -4.83700 16.36500 38.97200
H  -4.10800 16.75100 37.63900
N  -11.98000 18.23700 41.36500
C  -11.34800 19.29000 40.78700
C  -12.22200 20.34500 40.33200
C  -13.50600 19.76100 40.52300
C  -13.27300 18.41900 41.17000
C  -11.69500 21.59700 39.65000
C  -14.86500 20.49600 40.26400
O  -14.83500 21.62500 39.72400
C  -16.20800 19.89100 40.63700
N  -12.93300 15.53400 42.31700
C  -14.07700 16.17400 42.16200
C  -15.30200 15.33200 42.54200
C  -14.58600 14.22600 43.37500
C  -13.20100 14.29600 42.80900
C  -16.41100 16.06100 43.32200
C  -15.28600 12.86100 43.03600
C  -15.72000 11.97700 44.21700
N  -10.27200 14.47700 42.30800
C  -10.86500 13.30700 42.82000
C  -9.84500 12.30500 43.02500
C  -8.64800 12.91900 42.52600
C  -8.97400 14.24800 42.13700
C  -10.13300 10.94600 43.62400
C  -7.22000 12.69900 42.28400
O  -6.45800 11.76000 42.51200
C  -6.65900 14.07500 41.81900
C  -5.78500 14.62600 42.89700
O  -6.10100 14.98200 44.04500
O  -4.51500 14.88100 42.33200
C  -3.59100 15.59100 43.22200
H  -9.39000 20.22400 40.38500
H  -15.26500 17.82800 41.66000
H  -12.63300 12.42200 43.57300
H  -5.96000 16.99700 41.19100
H  -7.18000 19.05200 39.75300
H  -6.99100 18.98900 42.85300
H  -7.62000 20.35200 41.87700
H  -5.93800 19.73400 41.54600
H  -6.58300 17.36700 38.23200
H  -6.78600 15.71000 38.75400
H  -4.67500 15.29200 39.07600
H  -4.20300 16.85400 39.71200
H  -12.00600 22.42300 40.29000
H  -12.10000 21.78900 38.65600
H  -10.62600 21.67200 39.45000
H  -17.06800 20.51100 40.38600
H  -16.35500 19.87600 41.71700
H  -16.39900 18.92500 40.17000
H  -15.57200 14.95400 41.55600
H  -14.69700 14.44900 44.43600
H  -16.98500 15.32800 43.88800
H  -16.99700 16.64500 42.61200
H  -16.07200 16.78700 44.06200
H  -14.60300 12.34500 42.36000
H  -16.17800 12.98600 42.42200
H  -16.78000 11.73300 44.14400
H  -15.54200 12.44300 45.18700
H  -15.25500 10.99500 44.13000
H  -9.15900 10.45900 43.67800
H  -10.77600 10.30300 43.02400
H  -10.58600 11.13200 44.59800
H  -6.15800 13.90700 40.86500
H  -3.10100 14.89900 43.90700
H  -4.08600 16.27200 43.91500
H  -2.80000 16.21000 42.80000

