158

Mg 47.84400 34.77400 26.97000
C  45.85700 33.45400 29.68600
C  48.55100 37.47600 28.93500
C  48.77400 36.30600 24.19800
C  46.94200 31.87700 25.14200
N  47.28100 35.38400 29.06700
C  46.60500 34.54300 30.00700
C  46.84400 35.09000 31.41600
C  47.47100 36.49500 31.14100
C  47.80700 36.48100 29.68200
C  46.48600 37.68300 31.30500
C  47.92100 34.22800 32.18300
C  48.09800 34.32300 33.65500
H  47.25900 35.29000 34.49100
N  48.63500 36.56500 26.61000
C  48.92700 37.56000 27.54800
C  49.66800 38.65500 26.90900
C  49.69600 38.31800 25.57300
C  48.94900 37.02000 25.42400
C  50.28900 39.89000 27.59900
C  50.35800 39.04200 24.39200
O  50.30500 38.56200 23.25400
C  51.06700 40.35100 24.59400
N  47.81900 34.19800 24.96400
C  48.25900 35.01900 23.98800
C  48.38900 34.33200 22.66900
C  48.13700 32.83700 23.08700
C  47.62300 32.90800 24.50400
C  47.43600 34.79100 21.49400
C  49.47800 31.98900 22.99500
C  50.25900 31.62300 24.27900
N  46.71000 33.04500 27.28300
C  46.45500 31.97300 26.45000
C  45.47300 31.03900 27.03200
C  45.20500 31.60500 28.27900
C  45.98600 32.78300 28.44100
C  44.92700 29.79300 26.55800
C  44.47400 31.37600 29.49700
O  43.66300 30.52800 29.92100
C  44.86800 32.60600 30.44900
C  45.30000 32.06300 31.79600
O  45.75700 30.96700 32.04500
O  44.89800 32.98100 32.72200
C  44.97400 32.35500 34.07500
H  48.74700 38.29700 29.62800
H  49.11500 36.57600 23.19600
H  46.73100 30.90200 24.69800
H  45.89700 35.09900 31.95500
H  48.39400 36.75700 31.65900
H  46.04000 37.50900 32.28400
H  45.63300 37.69300 30.62700
H  46.92000 38.68300 31.30800
H  48.85400 34.52500 31.70500
H  47.80300 33.18600 31.88600
H  49.15300 34.42600 33.90900
H  47.79800 33.32200 33.96400
H  49.74100 40.79700 27.34400
H  51.35000 39.77300 27.37700
H  50.11900 39.70300 28.65900
H  51.41400 40.66100 23.60800
H  51.92600 40.09500 25.21500
H  50.34600 41.05400 25.01000
H  49.42800 34.45000 22.36300
H  47.31700 32.46000 22.47500
H  46.50600 34.22800 21.41700
H  47.92200 34.74300 20.52000
H  47.19000 35.83500 21.69000
H  50.22200 32.25200 22.24300
H  49.05400 31.02500 22.71300
H  51.34200 31.70700 24.19800
H  50.10500 30.55200 24.40500
H  49.91400 32.09200 25.20100
H  45.40100 29.40300 25.65700
H  43.88200 29.94800 26.29000
H  44.93300 29.02000 27.32600
H  44.08500 33.32600 30.68700
H  44.55800 31.34800 34.10600
H  44.28800 32.94500 34.68200
H  45.98300 32.42700 34.47900
Mg 0.77400 42.76900 26.56000
C  3.37000 42.90500 28.97400
C  -1.36700 42.03300 28.95100
C  -1.42200 42.52900 24.14500
C  3.28700 43.34100 24.17200
N  1.04900 42.52700 28.74800
C  2.15800 42.70100 29.48700
C  1.71800 42.73100 30.91400
C  0.28400 42.16100 30.93000
C  -0.06600 42.18100 29.44600
C  0.03300 40.83500 31.59800
C  1.95300 44.18100 31.54900
C  1.61200 44.31300 33.09500
H  1.38500 43.06400 34.03600
N  -1.10100 42.30900 26.54400
C  -1.86300 42.10600 27.67400
C  -3.24400 41.95400 27.28000
C  -3.31900 41.97400 25.84300
C  -1.92100 42.27500 25.46100
C  -4.33300 41.64800 28.32800
C  -4.50500 41.73800 24.88700
O  -4.46600 41.80100 23.72400
C  -5.76600 41.26600 25.47400
N  0.89200 43.20100 24.49300
C  -0.16300 42.98000 23.65000
C  0.26700 42.78700 22.13200
C  1.68500 43.35500 22.24500
C  1.94800 43.26100 23.72400
C  0.18900 41.24600 21.73900
C  1.78000 44.78900 21.84200
C  2.92500 45.22300 20.86900
N  2.88100 43.15800 26.54300
C  3.76500 43.37100 25.48500
C  5.10300 43.46400 25.96000
C  5.01500 43.22600 27.34500
C  3.64700 43.08700 27.60200
C  6.35100 43.77200 25.16600
C  5.78900 43.18000 28.57400
O  7.03600 43.22100 28.76900
C  4.71200 43.00600 29.69900
C  5.10000 41.89500 30.62500
O  5.02000 40.69400 30.37500
O  5.50400 42.41700 31.83900
C  5.51300 41.43900 32.97200
H  -2.17300 41.77200 29.63900
H  -2.17100 42.38800 23.36400
H  4.05400 43.57800 23.43200
H  2.44600 42.06400 31.37500
H  -0.26700 42.95800 31.43100
H  -0.00700 40.03500 30.85800
H  -0.78300 40.85900 32.31900
H  0.99000 40.55200 32.03800
H  1.28400 44.89300 31.06700
H  2.97000 44.49900 31.31800
H  0.77800 44.97200 33.33700
H  2.57000 44.66200 33.48200
H  -5.12300 42.37700 28.14800
H  -4.10900 41.96500 29.34600
H  -4.82800 40.67700 28.34800
H  -6.26400 42.16400 25.83900
H  -5.62600 40.41000 26.13500
H  -6.41800 40.81700 24.72400
H  -0.44500 43.35900 21.53800
H  2.37400 42.69800 21.71400
H  0.02100 40.67100 22.65000
H  1.06200 40.93500 21.16600
H  -0.65400 41.05900 21.07400
H  1.90800 45.44500 22.70300
H  0.88000 45.11900 21.32300
H  2.50800 45.37500 19.87400
H  3.69100 44.50700 20.57200
H  3.55600 46.02200 21.25700
H  6.09900 44.54500 24.44000
H  6.68600 42.87800 24.64100
H  7.19800 44.07000 25.78400
H  4.76700 43.90400 30.31400
H  6.54000 41.14500 33.18800
H  4.87200 40.57700 32.79200
H  4.95100 41.88300 33.79400

