158

Mg 6.28400 53.28700 40.63800
C  6.05900 49.71400 40.42600
C  9.66100 53.05900 40.10300
C  6.18700 56.62500 40.30100
C  2.72100 53.33000 40.93800
N  7.67300 51.48400 40.23700
C  7.38200 50.16600 40.21200
C  8.69400 49.43600 39.96500
C  9.79700 50.47500 40.33200
C  9.01300 51.79600 40.25200
C  10.44100 50.31800 41.70500
C  8.95400 48.77000 38.52500
C  8.35900 49.53500 37.25200
H  7.26800 48.90800 36.19400
N  7.75200 54.62400 40.24200
C  9.01300 54.32800 40.00800
C  9.71400 55.63100 39.84400
C  8.75000 56.67300 39.92600
C  7.46000 55.97800 40.17500
C  11.26800 55.67100 39.54500
C  9.13700 58.16000 39.85300
O  10.33000 58.49500 39.56600
C  8.14900 59.36800 39.85000
N  4.65500 54.73900 40.74300
C  4.92300 56.08300 40.54900
C  3.67400 56.97100 40.62400
C  2.60000 55.88800 40.63700
C  3.34000 54.54800 40.76200
C  3.67100 57.85300 41.87600
C  1.66100 55.85600 39.38700
C  0.15800 55.67600 39.63000
N  4.69300 51.90300 40.80500
C  3.31600 52.06100 40.94800
C  2.64900 50.79300 40.94900
C  3.63200 49.82400 40.82400
C  4.90100 50.51300 40.71200
C  1.10400 50.64400 41.12900
C  3.90900 48.44100 40.75400
O  3.20900 47.49600 40.81100
C  5.45900 48.32500 40.45900
C  5.61000 47.52800 39.15800
O  5.25600 47.83600 38.04300
O  6.06300 46.29000 39.48200
C  5.90400 45.26700 38.45200
H  10.74000 52.98900 39.95500
H  6.29000 57.70500 40.17000
H  1.63000 53.34100 40.96900
H  8.71300 48.65300 40.72300
H  10.59100 50.46900 39.58500
H  9.79400 49.63900 42.26100
H  10.42700 51.27800 42.22200
H  11.50200 50.11000 41.84200
H  8.49100 47.78600 38.60200
H  10.00600 48.67800 38.25300
H  9.14300 49.79500 36.54100
H  8.02300 50.51100 37.60200
H  11.37100 56.37500 38.71900
H  11.78200 54.71800 39.41900
H  11.74300 56.06700 40.44300
H  8.70500 60.24700 39.52400
H  7.69500 59.53500 40.82700
H  7.33400 59.18100 39.15100
H  3.69800 57.52700 39.68600
H  1.94800 56.00500 41.50200
H  3.95400 58.88200 41.65500
H  4.45900 57.45000 42.51200
H  2.70200 57.83600 42.37400
H  2.01800 55.10500 38.68200
H  1.81200 56.83700 38.93700
H  -0.46000 56.45400 39.18200
H  -0.08800 55.72900 40.69000
H  -0.20800 54.69800 39.31800
H  0.83400 49.68700 41.57500
H  0.56100 50.79700 40.19700
H  0.82400 51.31700 41.94000
H  5.90200 47.83900 41.32900
H  6.90900 45.05400 38.09000
H  5.37200 45.51900 37.53500
H  5.54800 44.38300 38.98200
Mg -11.99100 15.40200 41.78400
C  -8.93400 13.88300 41.80000
C  -10.65100 18.28100 40.31200
C  -15.19500 16.57900 41.01000
C  -13.34900 12.44900 43.16800
N  -10.03100 15.92400 40.93300
C  -8.90500 15.18500 41.18700
C  -7.68100 15.92500 40.66600
C  -8.20300 17.44500 40.58100
C  -9.73000 17.22300 40.64400
C  -7.76300 18.23800 41.81800
C  -7.18900 15.36000 39.25000
C  -5.68300 15.47500 39.06600
H  -5.14200 16.32700 37.95500
N  -12.86200 17.25300 40.89100
C  -12.07100 18.30300 40.41500
C  -12.97000 19.42200 40.03100
C  -14.34500 18.86100 40.10600
C  -14.19200 17.51800 40.69300
C  -12.52800 20.85300 39.64800
C  -15.64900 19.49600 39.67800
O  -15.66300 20.69900 39.43900
C  -16.92500 18.63500 39.33400
N  -14.01300 14.43300 41.80200
C  -15.12300 15.24600 41.54500
C  -16.34500 14.39500 41.99100
C  -15.78600 13.22300 42.88400
C  -14.31100 13.35200 42.54500
C  -17.56400 15.06400 42.69000
C  -16.36600 11.82100 42.64600
C  -16.69100 11.02700 43.86800
N  -11.38500 13.46800 42.23200
C  -12.00900 12.44500 42.96600
C  -11.02800 11.43700 43.34900
C  -9.83000 11.88100 42.82100
C  -10.08800 13.12200 42.17300
C  -11.26200 10.23200 44.20700
C  -8.42700 11.68200 42.65400
O  -7.71700 10.74400 42.98600
C  -7.76700 12.92700 42.02800
C  -6.74700 13.52200 42.95400
O  -6.98700 14.20300 43.97700
O  -5.48100 13.28200 42.46700
C  -4.37600 13.91900 43.19600
H  -10.21100 19.18200 39.88000
H  -16.24200 16.88100 40.95300
H  -13.70700 11.50200 43.57700
H  -6.86500 15.99400 41.38400
H  -7.87300 17.94800 39.67200
H  -7.58200 17.57100 42.66100
H  -8.54200 18.94600 42.10100
H  -6.83000 18.75500 41.59500
H  -7.59600 15.90200 38.39700
H  -7.39900 14.29200 39.18800
H  -5.30300 14.47900 38.83700
H  -5.12800 15.79200 39.94900
H  -13.19000 21.61000 40.06800
H  -12.58200 20.87700 38.55900
H  -11.51900 21.08800 39.98900
H  -16.57600 17.64600 39.03600
H  -17.51000 19.16600 38.58400
H  -17.67000 18.63600 40.12900
H  -16.58000 13.82700 41.09000
H  -15.82600 13.47700 43.94300
H  -17.36500 16.12700 42.83100
H  -17.75600 14.58200 43.64900
H  -18.36700 14.93200 41.96500
H  -15.61700 11.17700 42.18500
H  -17.16300 11.85400 41.90200
H  -16.17700 10.06800 43.81500
H  -17.75900 10.82000 43.93500
H  -16.44300 11.54100 44.79700
H  -12.32800 10.01100 44.25900
H  -10.92700 10.40000 45.23100
H  -10.75100 9.36600 43.78600
H  -7.25400 12.63600 41.11100
H  -3.52100 13.86200 42.52300
H  -4.09400 13.42800 44.12700
H  -4.64000 14.94700 43.44500

