158

Mg 48.80300 35.30100 27.81700
C  46.60400 33.48400 29.86000
C  48.40700 37.89600 29.82800
C  50.14300 37.25900 25.33000
C  48.29700 32.67700 25.40100
N  47.69400 35.56800 29.64300
C  47.00500 34.70800 30.35100
C  46.91000 35.15000 31.85900
C  47.17900 36.67700 31.77000
C  47.83800 36.74800 30.40300
C  45.91800 37.59300 31.87200
C  48.00500 34.40700 32.78800
C  48.03900 34.92400 34.24500
H  46.86000 35.79500 34.73900
N  49.18300 37.27200 27.59600
C  49.03100 38.18900 28.59000
C  49.47500 39.52100 28.07300
C  50.12400 39.27200 26.81100
C  49.77000 37.90700 26.51700
C  49.43100 40.81600 28.90300
C  51.02600 40.18900 25.99100
O  51.50300 39.92600 24.92700
C  51.31100 41.57400 26.55300
N  49.09200 34.99800 25.64100
C  49.83000 35.99100 24.95100
C  50.30000 35.47900 23.54900
C  49.85200 33.94200 23.65800
C  49.03700 33.79300 24.94000
C  49.87900 36.29100 22.31300
C  51.02600 32.93100 23.68800
C  51.50500 32.46700 22.29900
N  47.86300 33.33400 27.68400
C  47.69300 32.48000 26.65000
C  46.86000 31.36400 27.06600
C  46.39100 31.69900 28.29100
C  47.02300 32.91300 28.59500
C  46.68900 30.01300 26.42300
C  45.49900 31.33400 29.38600
O  44.87000 30.26500 29.45800
C  45.48500 32.55100 30.40900
C  45.86200 32.06000 31.76500
O  46.64400 31.14300 31.96900
O  45.05000 32.61300 32.71500
C  45.11600 31.96500 34.00400
H  48.22800 38.72800 30.51200
H  50.69500 37.88300 24.62400
H  48.19700 31.95400 24.58800
H  45.86500 34.97200 32.11300
H  47.84400 37.00300 32.57000
H  44.97700 37.05600 31.99200
H  45.73600 38.00900 30.88100
H  46.06200 38.37200 32.62100
H  48.96100 34.51300 32.27600
H  47.72800 33.35900 32.89800
H  48.98900 35.43900 34.39200
H  48.02000 34.08500 34.94000
H  48.74900 41.53000 28.44100
H  50.44600 41.20800 28.97000
H  49.01300 40.59800 29.88600
H  51.84300 42.16900 25.81000
H  52.01500 41.57700 27.38400
H  50.35800 42.07100 26.73600
H  51.38600 35.51900 23.46100
H  49.24800 33.62900 22.80600
H  49.05900 35.84100 21.75300
H  50.75100 36.50900 21.69600
H  49.51600 37.24700 22.69000
H  50.74200 32.08100 24.30800
H  51.89800 33.31500 24.21800
H  52.57900 32.28200 22.34400
H  51.49200 33.20700 21.49800
H  51.09800 31.50800 21.97900
H  47.45000 29.80100 25.67200
H  45.73100 30.14500 25.92000
H  46.59400 29.24400 27.18900
H  44.45200 32.89100 30.34100
H  45.96500 32.53200 34.38600
H  45.17700 30.88200 33.89100
H  44.21500 32.20300 34.56900
Mg 9.81200 47.91500 26.37800
C  7.96200 47.71500 29.22400
C  12.45700 49.21600 28.18600
C  11.64700 48.15200 23.52800
C  7.04600 47.09200 24.49900
N  10.15800 48.39900 28.44100
C  9.26000 48.21300 29.45800
C  9.90200 48.58800 30.86200
C  11.17900 49.37900 30.43900
C  11.26000 48.98100 28.91200
C  11.12900 50.96000 30.49500
C  10.21500 47.31600 31.70800
C  11.00300 47.56000 32.97400
H  10.43100 46.89900 34.22200
N  11.82200 48.55900 25.94800
C  12.76600 48.94900 26.85400
C  14.09100 49.20800 26.12400
C  13.88400 48.87600 24.77400
C  12.43000 48.46700 24.71000
C  15.30800 49.66600 26.89400
C  14.84900 49.02000 23.60600
O  14.42800 48.64000 22.52400
C  16.35400 49.62900 23.72100
N  9.45600 47.80200 24.26900
C  10.30200 47.92200 23.29400
C  9.67700 47.79200 21.91400
C  8.24000 47.21100 22.25500
C  8.16800 47.46700 23.78200
C  9.78700 49.11000 21.15400
C  8.07800 45.66400 21.96300
C  9.03500 44.76200 22.78700
N  7.86000 47.50600 26.71800
C  6.78100 47.15400 25.87300
C  5.62700 46.91500 26.62700
C  6.05800 46.97400 27.92600
C  7.41300 47.44800 27.93800
C  4.33900 46.62600 26.08900
C  5.54600 46.94500 29.31800
O  4.43500 46.64200 29.74600
C  6.81900 47.23200 30.21400
C  7.11600 46.01700 30.91800
O  7.90700 45.18300 30.51600
O  6.38100 45.88700 32.09800
C  6.66600 44.69800 32.86900
H  13.18600 49.83800 28.70900
H  12.26900 48.21600 22.63300
H  6.21700 46.76300 23.86900
H  9.28300 49.32600 31.37100
H  12.12200 49.13200 30.92600
H  10.92500 51.30400 29.48100
H  12.00300 51.44100 30.93400
H  10.36200 51.27500 31.20200
H  10.82900 46.63100 31.12500
H  9.30200 46.81400 32.02800
H  11.20700 48.62800 33.05400
H  11.98100 47.12800 32.76300
H  15.13200 49.66600 27.96900
H  15.73200 50.63000 26.61200
H  16.12700 48.97000 26.71300
H  16.95100 49.00200 24.38500
H  16.27500 50.54100 24.31300
H  16.86400 49.76300 22.76700
H  10.23400 47.00200 21.40900
H  7.43500 47.73900 21.74400
H  10.37600 49.80600 21.75100
H  8.76600 49.45700 20.99300
H  10.35100 48.88700 20.24900
H  8.27900 45.49700 20.90500
H  7.03500 45.55200 22.26000
H  9.60300 45.27400 23.56300
H  9.71900 44.19500 22.15600
H  8.40200 44.02900 23.28800
H  4.34000 45.63400 25.63700
H  4.14000 47.40200 25.35000
H  3.72800 46.70100 26.98900
H  6.61800 48.10300 30.83700
H  7.26200 43.96600 32.32400
H  5.75400 44.21600 33.22000
H  7.20600 44.87900 33.79900

