158

Mg 52.62400 24.87200 44.27700
C  49.61300 26.71200 43.94300
C  50.85500 22.05600 44.06300
C  55.52400 23.32800 44.09800
C  54.36400 28.00500 44.32000
N  50.38500 24.54000 44.10000
C  49.35200 25.37500 44.02000
C  48.09000 24.63800 43.78100
C  48.43700 23.19700 44.19400
C  49.98800 23.20000 44.08900
C  47.87800 22.83800 45.63600
C  47.56500 24.90700 42.32800
C  48.58200 24.65800 41.11900
H  48.28300 25.41300 39.83000
N  53.13100 23.00200 44.22800
C  52.23600 21.94600 43.99200
C  53.05700 20.76500 43.77800
C  54.37500 21.03200 44.06600
C  54.37200 22.56200 44.14000
C  52.44000 19.41600 43.42500
C  55.45100 20.03300 44.26900
O  55.20500 18.80800 44.15600
C  56.83800 20.41000 44.71900
N  54.65600 25.61900 43.85900
C  55.65100 24.73300 44.07000
C  57.02900 25.36400 44.06300
C  56.73500 26.87600 44.15900
C  55.15000 26.86200 44.11300
C  58.04700 24.65800 45.02000
C  57.32800 27.73300 43.01100
C  58.03300 29.03000 43.51000
N  52.16100 26.99700 44.25000
C  52.97900 28.11400 44.23300
C  52.10900 29.27800 44.20200
C  50.81400 28.78500 44.03300
C  50.85400 27.37300 44.01000
C  52.43200 30.66200 44.15000
C  49.37400 29.20600 44.03500
O  48.86300 30.29800 44.16600
C  48.60800 27.91800 43.66400
C  48.31800 28.25200 42.24200
O  49.11000 28.10600 41.26200
O  47.03600 28.69900 42.08600
C  46.48000 29.14100 40.77300
H  50.29300 21.12700 43.94100
H  56.43500 22.73200 44.00900
H  54.93300 28.93400 44.39700
H  47.43700 25.05800 44.54600
H  47.98200 22.51300 43.47700
H  48.33600 23.46700 46.40000
H  48.06300 21.79600 45.89700
H  46.83000 23.13700 45.63900
H  46.95600 25.79200 42.14300
H  46.86800 24.08600 42.15600
H  48.48200 23.64000 40.74200
H  49.60900 24.73700 41.47700
H  53.12100 18.86200 42.77900
H  51.44100 19.56800 43.01500
H  52.26900 18.86800 44.35100
H  57.40800 19.58400 45.14500
H  56.84600 21.28600 45.36800
H  57.42800 20.69600 43.84800
H  57.34000 25.09000 43.05500
H  56.98600 27.21200 45.16500
H  58.61900 23.94100 44.43200
H  57.48500 24.21600 45.84300
H  58.65900 25.44800 45.45600
H  56.66500 28.08100 42.21900
H  58.11300 27.18000 42.49500
H  58.08000 29.20600 44.58500
H  57.66000 29.94600 43.05200
H  59.04900 29.10600 43.12100
H  52.17600 31.14300 43.20600
H  53.52000 30.68900 44.09800
H  52.10400 31.21800 45.02900
H  47.63500 27.88100 44.15400
H  46.79700 28.53600 39.92400
H  46.77200 30.19100 40.76900
H  45.39400 29.11900 40.87000
Mg 49.10300 35.32200 27.06600
C  46.98300 33.93200 29.51700
C  49.30300 38.06400 29.05000
C  50.86700 36.67000 24.70100
C  48.37700 32.57900 25.04800
N  48.12100 35.92600 29.09000
C  47.50800 35.13600 29.98900
C  47.55400 35.69700 31.41300
C  47.95300 37.16600 31.06100
C  48.58300 37.01200 29.64200
C  46.68800 38.15700 30.97500
C  48.56500 34.93000 32.35800
C  48.12700 34.86400 33.84400
H  49.04100 35.79800 34.75100
N  49.92600 37.21600 26.88300
C  49.96100 38.17600 27.83800
C  50.76600 39.32700 27.35400
C  51.19300 38.91500 26.05600
C  50.70000 37.53100 25.84700
C  50.90600 40.61000 28.12900
C  52.15300 39.63900 25.12700
O  52.48900 39.12800 24.07400
C  52.72700 40.95500 25.45400
N  49.50000 34.72000 25.07200
C  50.35700 35.48400 24.35500
C  50.46100 34.88400 22.95100
C  49.88800 33.41400 23.07500
C  49.17300 33.59400 24.41000
C  49.79600 35.76300 21.86000
C  50.89000 32.26500 23.12300
C  50.50200 31.03700 22.33600
N  47.86100 33.59000 27.18500
C  47.63200 32.63900 26.27800
C  46.79500 31.61200 26.84700
C  46.45700 32.17400 28.05000
C  47.15700 33.34400 28.24200
C  46.54400 30.21800 26.25500
C  45.71700 31.96300 29.16700
O  44.96700 31.05900 29.43800
C  45.96300 33.07000 30.13600
C  46.28700 32.59200 31.55900
O  47.29200 31.95500 31.87600
O  45.15600 32.97600 32.36600
C  45.25000 32.43300 33.76900
H  49.38800 38.87100 29.78000
H  51.43700 37.15300 23.90400
H  48.13000 31.71200 24.43100
H  46.49600 35.67400 31.67300
H  48.63400 37.49100 31.84800
H  45.73400 37.71900 31.26900
H  46.50200 38.55400 29.97700
H  46.87800 39.00100 31.63700
H  49.57900 35.32700 32.30600
H  48.67400 33.92800 31.94300
H  48.18200 33.85100 34.24300
H  47.10000 35.21600 33.94600
H  50.59000 40.61700 29.17200
H  50.19100 41.37800 27.83600
H  51.98300 40.77100 28.15200
H  52.02500 41.77300 25.61700
H  53.32000 41.24900 24.58800
H  53.45800 40.87300 26.25800
H  51.54100 34.90600 22.80000
H  49.08000 33.24100 22.36500
H  50.55800 36.43800 21.47200
H  48.93200 36.28400 22.27300
H  49.53000 35.03900 21.09000
H  51.08900 31.90800 24.13300
H  51.84900 32.67200 22.80000
H  51.39600 30.46700 22.08400
H  50.11300 31.13800 21.32300
H  49.80400 30.37000 22.84300
H  47.20700 30.02400 25.41200
H  45.54500 30.15000 25.82400
H  46.85400 29.55700 27.06400
H  45.06200 33.67600 30.22100
H  44.25100 32.21500 34.14700
H  45.49500 33.27400 34.41800
H  45.95700 31.63900 34.00700

