158

Mg 8.27700 3.72800 27.95000
C  9.97900 2.33600 30.58000
C  6.71700 5.87300 30.07300
C  6.57000 4.87900 25.27000
C  9.97900 1.50700 25.88400
N  8.10800 3.94800 30.08100
C  9.00800 3.25900 30.96500
C  9.01300 3.86300 32.35900
C  7.86000 4.92200 32.22100
C  7.50100 4.92600 30.72000
C  6.57500 4.73300 33.16900
C  10.36200 4.50800 32.83200
C  11.14000 3.81300 33.97600
H  11.22100 4.57900 35.30100
N  6.83100 5.18300 27.69700
C  6.30000 5.99700 28.67300
C  5.27300 6.79700 28.03400
C  5.23100 6.58000 26.65200
C  6.25100 5.44600 26.47100
C  4.46500 7.81600 28.89700
C  4.36000 7.21400 25.51800
O  4.53400 6.89000 24.34200
C  3.41400 8.34400 25.81200
N  8.28500 3.23900 25.88900
C  7.50200 3.89200 24.97000
C  7.86200 3.57600 23.50900
C  9.04800 2.56700 23.76600
C  9.05200 2.37500 25.29400
C  6.66200 3.00400 22.70400
C  10.44400 2.98400 23.09500
C  11.14600 1.96200 22.08100
N  9.58900 2.13300 28.16500
C  10.15000 1.29900 27.21500
C  11.09300 0.41000 27.85400
C  11.06100 0.80900 29.20600
C  10.12500 1.85700 29.33600
C  11.91700 -0.67800 27.23400
C  11.55800 0.45800 30.48400
O  12.37800 -0.38900 30.73800
C  10.88400 1.40400 31.50100
C  10.08900 0.61800 32.54300
O  8.92500 0.21200 32.49800
O  10.97600 0.37000 33.54600
C  10.34100 -0.20500 34.69400
H  6.17200 6.51200 30.76900
H  6.07900 5.22900 24.36000
H  10.46600 0.89900 25.11800
H  8.69400 3.16600 33.13400
H  8.29000 5.90000 32.43900
H  5.69500 4.63400 32.53400
H  6.57700 5.53800 33.90300
H  6.54300 3.86900 33.83300
H  10.13400 5.52800 33.14200
H  11.02300 4.50000 31.96500
H  12.15100 3.48400 33.73600
H  10.63600 2.87800 34.21900
H  4.74300 7.68600 29.94300
H  3.44600 7.50600 28.66900
H  4.73400 8.81700 28.55900
H  2.66400 8.19300 26.58900
H  2.97300 8.80400 24.92900
H  4.07800 9.14600 26.13400
H  8.14700 4.58500 23.21200
H  8.90400 1.53600 23.44400
H  5.79700 2.96700 23.36700
H  6.80600 1.95800 22.43500
H  6.55200 3.61100 21.80500
H  11.05600 3.21500 23.96700
H  10.26900 3.94900 22.62000
H  11.08600 2.37000 21.07200
H  10.65100 0.99300 22.02400
H  12.21200 1.90800 22.30000
H  12.30400 -0.18800 26.34000
H  11.46900 -1.64000 26.98800
H  12.71000 -0.88100 27.95400
H  11.71600 1.98600 31.89700
H  9.65600 -0.99400 34.38400
H  9.79800 0.57000 35.23600
H  11.11000 -0.55500 35.38200
Mg -12.41000 16.21400 42.45900
C  -9.75500 14.05100 42.08300
C  -10.61500 18.65500 40.79900
C  -15.29600 17.99700 42.30000
C  -14.22100 13.47400 43.90100
N  -10.52300 16.30000 41.37600
C  -9.58800 15.25200 41.36200
C  -8.18400 15.68500 40.75100
C  -8.47800 17.23600 40.42700
C  -9.88600 17.45800 41.00000
C  -7.39900 18.17800 41.00700
C  -7.89300 14.82200 39.48700
C  -6.35700 14.62100 39.28200
H  -5.61300 15.41900 38.28700
N  -12.86100 18.12500 41.74800
C  -11.92600 18.97100 41.16400
C  -12.64300 20.22700 40.89900
C  -14.00400 20.07100 41.30800
C  -14.07600 18.69500 41.86000
C  -11.98100 21.35600 40.23900
C  -15.09700 21.09100 41.09600
O  -14.87800 22.16100 40.51700
C  -16.49800 20.84300 41.49000
N  -14.52900 15.84700 43.04900
C  -15.49400 16.72400 42.90800
C  -16.84100 16.12100 43.33500
C  -16.49700 14.75400 43.94500
C  -14.95200 14.67900 43.65600
C  -17.75700 16.93000 44.30500
C  -17.22200 13.55200 43.29200
C  -18.01400 12.56700 44.11600
N  -12.09100 14.20900 42.97700
C  -12.85900 13.24300 43.61300
C  -12.09000 11.95500 43.76600
C  -10.82000 12.31900 43.29800
C  -10.93700 13.65600 42.74600
C  -12.51900 10.65200 44.46700
C  -9.49000 11.91400 43.18500
O  -8.94500 10.86900 43.55300
C  -8.71000 13.04400 42.42800
C  -7.64500 13.70800 43.28500
O  -7.87100 14.38400 44.28300
O  -6.43800 13.35100 42.75800
C  -5.27300 14.04900 43.30400
H  -10.05000 19.43300 40.28100
H  -16.28900 18.45000 42.32800
H  -14.84800 12.72100 44.38400
H  -7.38100 15.71600 41.48700
H  -8.62800 17.29600 39.34900
H  -7.50500 18.42800 42.06200
H  -7.15100 19.13200 40.54000
H  -6.47400 17.60300 40.96500
H  -8.27600 15.39500 38.64300
H  -8.37500 13.86400 39.68100
H  -6.11100 13.56100 39.22000
H  -5.86300 14.93800 40.20000
H  -11.00700 21.08400 39.83200
H  -11.83400 22.13800 40.98400
H  -12.67300 21.62300 39.44000
H  -17.08900 21.75600 41.42900
H  -16.47700 20.56700 42.54400
H  -16.98100 19.98800 41.01700
H  -17.29700 15.97400 42.35600
H  -16.55900 14.74800 45.03300
H  -17.25000 17.79100 44.74000
H  -18.07800 16.23500 45.08100
H  -18.63400 17.16700 43.70400
H  -16.49600 12.96000 42.73500
H  -17.89700 14.02100 42.57700
H  -17.51000 11.64100 44.39500
H  -18.83200 12.25000 43.46900
H  -18.30800 13.15700 44.98400
H  -13.15600 10.86000 45.32600
H  -11.63500 10.09100 44.76900
H  -13.09000 9.99500 43.81000
H  -8.29300 12.41400 41.64300
H  -5.60000 15.01100 43.69700
H  -4.61900 14.15900 42.43900
H  -4.83500 13.33300 43.99800

