158

Mg 16.64900 -2.45300 27.93100
C  15.55700 -0.13200 30.42700
C  18.72800 -3.75400 30.12700
C  18.06800 -4.09900 25.30800
C  14.67800 -0.71400 25.56700
N  16.83800 -2.10800 30.10000
C  16.35400 -1.14300 30.91200
C  16.96300 -1.31200 32.27300
C  18.09300 -2.40000 32.15500
C  17.90500 -2.81200 30.67600
C  19.55900 -1.82400 32.39600
C  15.91100 -1.60200 33.41600
C  16.21700 -1.33700 34.88500
H  17.44500 -0.49900 35.26700
N  18.07700 -3.90600 27.72900
C  18.75800 -4.34000 28.83100
C  19.60600 -5.44600 28.33900
C  19.57900 -5.48200 26.93100
C  18.48300 -4.49500 26.59900
C  20.45800 -6.26200 29.36100
C  20.33600 -6.34100 25.98200
O  20.05000 -6.31200 24.76700
C  21.31200 -7.32300 26.44400
N  16.51700 -2.22700 25.64500
C  17.15600 -3.14800 24.83900
C  16.83900 -2.94700 23.30400
C  15.45200 -2.16200 23.50600
C  15.52500 -1.69900 25.02400
C  17.94900 -2.31500 22.40700
C  14.20600 -3.04900 23.18400
C  13.05800 -2.58200 22.23600
N  15.36000 -0.85900 27.90200
C  14.63400 -0.26200 26.87600
C  13.82200 0.81700 27.49500
C  14.21500 0.94000 28.85500
C  15.17400 -0.06300 29.03300
C  12.82300 1.73300 26.72500
C  14.02100 1.74700 30.00600
O  13.22700 2.61400 30.30300
C  14.81500 0.99800 31.13500
C  15.70900 2.11600 31.72400
O  16.73200 2.47100 31.21000
O  15.17500 2.60100 32.86200
C  16.10800 3.30700 33.76800
H  19.56700 -4.06700 30.75200
H  18.55000 -4.63600 24.48900
H  14.02300 -0.19300 24.86500
H  17.46700 -0.36600 32.46900
H  17.80400 -3.25800 32.76200
H  19.55600 -0.99600 33.10500
H  19.95800 -1.57000 31.41400
H  20.11800 -2.63900 32.85500
H  15.82900 -2.68900 33.42900
H  15.03000 -1.03800 33.11000
H  16.18000 -2.31900 35.35700
H  15.34500 -0.77200 35.21500
H  20.58100 -7.31100 29.09200
H  19.99700 -6.17700 30.34500
H  21.44100 -5.80000 29.45600
H  21.99300 -6.84900 27.15100
H  21.89100 -7.73500 25.61800
H  20.72300 -8.12800 26.88500
H  16.68400 -3.92400 22.84600
H  15.39300 -1.27100 22.88000
H  18.84800 -2.01700 22.94700
H  17.52700 -1.41100 21.96600
H  18.22000 -3.05000 21.65000
H  13.79100 -3.25100 24.17100
H  14.58000 -4.02200 22.86600
H  12.19500 -2.54500 22.90100
H  12.81000 -3.11200 21.31700
H  13.42300 -1.61600 21.88700
H  12.04200 1.96400 27.45000
H  12.37100 1.13900 25.93000
H  13.29500 2.62800 26.32100
H  14.12700 0.69300 31.92300
H  16.21500 4.36000 33.50700
H  17.11600 2.92100 33.92500
H  15.56100 3.28000 34.71000
Mg 48.13500 45.63800 43.08700
C  44.72700 44.91400 42.42800
C  48.90100 42.37600 42.31900
C  51.40600 46.54300 43.03500
C  47.25500 48.93800 43.60500
N  46.89900 43.86200 42.14400
C  45.53500 43.76300 42.14000
C  45.10500 42.31900 41.74700
C  46.43200 41.50500 41.89400
C  47.50800 42.62900 42.21200
C  46.54600 40.29900 42.88700
C  44.44900 42.30700 40.29700
C  45.27200 42.79000 39.08400
H  45.13500 42.03200 37.67600
N  49.95200 44.61300 42.67400
C  50.04000 43.28500 42.38900
C  51.43200 42.90900 42.26800
C  52.22500 44.09000 42.54900
C  51.19500 45.14600 42.74400
C  51.89800 41.46300 42.21200
C  53.73300 44.21300 42.59800
O  54.46100 43.26800 42.54800
C  54.47800 45.49400 42.90500
N  49.19000 47.54000 43.25400
C  50.51000 47.62100 43.31800
C  50.98700 49.06300 43.50600
C  49.64900 49.84100 43.73700
C  48.63100 48.70300 43.53600
C  52.01800 49.30800 44.58600
C  49.41500 51.11900 42.81900
C  49.29800 52.51200 43.42700
N  46.38000 46.77100 43.15100
C  46.16600 48.08800 43.37100
C  44.75700 48.37400 43.46800
C  44.16800 47.13000 43.05500
C  45.18800 46.18100 42.86400
C  44.11700 49.62100 43.74100
C  42.93200 46.43100 42.75900
O  41.74900 46.76400 42.73300
C  43.21000 44.95500 42.51100
C  42.63000 44.21000 43.68100
O  41.75100 43.38800 43.50300
O  43.29200 44.38700 44.88000
C  42.76600 43.64800 46.02800
H  49.13500 41.31100 42.25900
H  52.41600 46.95500 42.97700
H  46.93000 49.91800 43.96000
H  44.33600 41.93100 42.41600
H  46.64700 41.03300 40.93500
H  46.77400 39.39200 42.32600
H  45.54900 40.29400 43.32900
H  47.36100 40.37800 43.60600
H  43.63100 43.02300 40.22700
H  43.89200 41.39800 40.07500
H  46.33700 42.67500 39.28900
H  45.15100 43.85100 38.86400
H  51.38500 40.90700 41.42800
H  51.69300 40.92100 43.13500
H  52.95700 41.35400 41.97800
H  54.04800 45.94200 43.80100
H  54.37400 46.16600 42.05400
H  55.50400 45.31200 43.22400
H  51.43400 49.31200 42.54300
H  49.50400 50.06200 44.79500
H  52.92000 49.53500 44.01800
H  52.30900 48.40200 45.11900
H  51.66800 49.92200 45.41500
H  48.40600 50.92600 42.45700
H  50.09300 51.07000 41.96700
H  49.70400 53.23300 42.71700
H  49.81000 52.52100 44.38900
H  48.25000 52.77700 43.56900
H  43.10600 49.61000 43.33300
H  44.70000 50.39600 43.24200
H  44.02500 49.74800 44.81900
H  42.78100 44.46500 41.63700
H  41.80100 43.99100 46.40100
H  43.47400 43.65700 46.85700
H  42.82900 42.57900 45.82200

