158

Mg 40.02900 9.47200 29.45900
C  41.91600 10.76800 32.00600
C  37.85300 8.12500 31.68600
C  38.30200 8.17200 26.86500
C  42.69500 10.37200 27.14200
N  40.05000 9.32300 31.66600
C  40.75000 10.14600 32.48200
C  40.17400 10.16100 33.92000
C  38.98600 9.16200 33.83400
C  38.94900 8.84100 32.30500
C  39.08500 7.83100 34.67000
C  39.92300 11.63600 34.46500
C  40.50400 11.91600 35.81000
H  39.56700 12.44100 36.89900
N  38.35400 8.31100 29.26500
C  37.54700 7.97300 30.32800
C  36.35000 7.30500 29.83300
C  36.40800 7.43000 28.43100
C  37.73200 8.03100 28.08900
C  35.23600 6.69000 30.76800
C  35.33500 7.01000 27.37100
O  35.51800 7.04500 26.15400
C  34.04300 6.51700 27.77500
N  40.45200 9.33800 27.30000
C  39.54100 8.82300 26.47100
C  39.98500 8.85000 24.96000
C  41.32300 9.58100 25.15000
C  41.52500 9.76600 26.62900
C  40.20100 7.34500 24.46200
C  41.54500 10.87800 24.27100
C  40.94500 12.13700 24.82700
N  41.92900 10.37700 29.50200
C  42.93200 10.61200 28.52100
C  44.09200 11.19300 29.19000
C  43.69200 11.26900 30.60000
C  42.39400 10.72200 30.69400
C  45.48000 11.44700 28.55900
C  44.16000 11.66800 31.88100
O  45.24200 12.10200 32.31800
C  43.01500 11.35400 32.84600
C  43.53100 10.47200 33.92900
O  43.40800 9.24500 34.00800
O  44.19000 11.21500 34.87000
C  44.71800 10.60400 36.06100
H  37.12000 7.97700 32.48200
H  37.79400 7.67200 26.03800
H  43.47600 10.60000 26.41300
H  40.95300 9.76800 34.57400
H  38.05900 9.68100 34.07700
H  38.23500 7.84800 35.35200
H  39.97600 7.72300 35.28900
H  39.12300 6.96900 34.00400
H  38.83800 11.70600 34.53200
H  40.22100 12.18000 33.56900
H  41.22800 12.72300 35.70200
H  41.10200 11.04900 36.09000
H  35.40100 7.00700 31.79800
H  35.28900 5.60800 30.64800
H  34.27200 7.03500 30.39600
H  33.51200 7.32600 28.27600
H  34.37200 5.65700 28.35800
H  33.62000 6.03900 26.89200
H  39.28900 9.35200 24.28700
H  42.17900 8.98900 24.82500
H  39.98800 6.68800 25.30600
H  41.25900 7.22200 24.23100
H  39.55300 7.06200 23.63200
H  41.14300 10.58200 23.30200
H  42.56500 11.15000 23.99900
H  40.10400 12.36600 24.17200
H  41.66200 12.95700 24.88000
H  40.53000 11.99300 25.82400
H  45.89900 10.62800 27.97300
H  46.26500 11.70800 29.26900
H  45.30800 12.27300 27.86900
H  42.66100 12.23400 33.38200
H  43.90300 10.01100 36.47500
H  44.86800 11.42100 36.76700
H  45.56900 10.05900 35.65000
Mg 48.43200 35.35700 27.54200
C  46.43000 33.60100 29.90500
C  48.36300 38.03400 29.49400
C  49.94800 37.02600 25.01900
C  47.97700 32.57400 25.42800
N  47.66300 35.65700 29.59500
C  46.93600 34.83100 30.36800
C  46.90600 35.41700 31.78100
C  47.00500 36.93400 31.49000
C  47.70800 36.89700 30.10500
C  45.67900 37.73900 31.47400
C  48.00100 34.68700 32.69800
C  49.07200 35.52500 33.30300
H  48.82000 36.18400 34.71000
N  49.05400 37.29200 27.29000
C  49.01000 38.27900 28.22300
C  49.71500 39.41400 27.78000
C  50.20800 39.12000 26.45900
C  49.65500 37.78300 26.15300
C  49.92600 40.62800 28.70200
C  51.05500 39.89700 25.52000
O  51.22000 39.59500 24.32300
C  51.57400 41.24000 25.84200
N  48.72500 34.94000 25.54800
C  49.35100 35.82300 24.68700
C  49.54800 35.27200 23.33200
C  48.92800 33.83400 23.39800
C  48.59900 33.73200 24.87600
C  48.82500 36.14300 22.26500
C  49.91800 32.61700 22.99300
C  49.41100 31.67500 21.90700
N  47.50000 33.43700 27.57600
C  47.44100 32.42000 26.66700
C  46.66700 31.28600 27.19100
C  46.14100 31.79900 28.45300
C  46.77500 33.07600 28.61200
C  46.30300 29.96700 26.51400
C  45.38400 31.42700 29.58400
O  44.73000 30.42400 29.77200
C  45.37500 32.67400 30.45800
C  45.52400 32.27500 31.86600
O  46.57400 31.81300 32.39600
O  44.47700 32.79600 32.54500
C  44.59800 32.82700 34.01700
H  48.40800 38.86800 30.19700
H  50.51700 37.48600 24.20800
H  47.86000 31.69600 24.78900
H  45.99900 35.03400 32.25000
H  47.65300 37.40900 32.22700
H  45.78100 38.36300 30.58600
H  45.61600 38.50400 32.24800
H  44.75800 37.15600 31.45400
H  48.53400 33.91100 32.14700
H  47.48200 34.27300 33.56200
H  49.42300 36.34600 32.67700
H  49.95700 34.89200 33.23800
H  49.23800 41.41300 28.39000
H  50.91200 41.03300 28.47300
H  49.90400 40.47000 29.78000
H  52.09900 41.32000 26.79400
H  50.84700 42.04300 25.72200
H  52.31300 41.54200 25.10000
H  50.61400 35.12300 23.16300
H  47.96900 33.80100 22.88200
H  48.18400 36.93700 22.64700
H  48.11000 35.60800 21.64000
H  49.64900 36.56500 21.68900
H  50.19100 32.00200 23.85100
H  50.83000 33.02500 22.55700
H  49.90000 31.85900 20.95000
H  48.33000 31.77000 21.80500
H  49.62900 30.65200 22.21600
H  46.87800 29.17500 26.99200
H  46.54300 29.94400 25.45100
H  45.25500 29.85100 26.79000
H  44.43100 33.17600 30.24700
H  43.67300 32.50800 34.49800
H  44.90900 33.81900 34.34400
H  45.28300 32.12500 34.49300

