158

Mg 25.14800 1.44600 30.40800
C  27.27900 1.57500 33.42400
C  22.46800 1.55900 32.50600
C  23.27500 1.53500 27.70400
C  28.07000 1.18300 28.57700
N  24.97900 1.68800 32.73000
C  25.93500 1.75400 33.70100
C  25.27100 1.99900 35.03600
C  23.69100 1.92400 34.75100
C  23.69500 1.73100 33.24600
C  22.81900 1.00500 35.52900
C  25.82500 3.35300 35.72900
C  26.37100 3.12800 37.20000
H  25.90500 4.05900 38.30100
N  23.08900 1.57000 30.07100
C  22.12500 1.55900 31.09600
C  20.86900 1.72100 30.47900
C  21.05200 1.74700 29.06400
C  22.52800 1.65200 28.88100
C  19.54200 1.89500 31.16100
C  20.09000 1.81200 27.87800
O  20.48000 1.83300 26.70000
C  18.61100 1.72700 28.22200
N  25.63200 1.25100 28.48900
C  24.63600 1.49700 27.51700
C  25.25200 1.72100 26.10900
C  26.79400 1.43800 26.34700
C  26.88400 1.28400 27.87600
C  24.51600 0.84200 24.94100
C  27.73500 2.53400 25.71500
C  28.90200 1.95900 24.88700
N  27.29200 1.26900 30.84600
C  28.36700 1.15200 29.97300
C  29.53400 1.13000 30.73200
C  29.14900 1.28600 32.09300
C  27.77600 1.36200 32.09600
C  30.91600 1.08700 30.20200
C  29.72600 1.47800 33.46400
O  30.85700 1.61400 33.84700
C  28.47700 1.65300 34.40400
C  28.43000 0.53200 35.37000
O  27.98400 -0.56600 35.12200
O  28.93900 0.93100 36.54800
C  28.90700 0.17100 37.78700
H  21.66900 1.77500 33.21800
H  22.79400 1.47800 26.72500
H  28.93200 1.15000 27.90700
H  25.50700 1.10400 35.61200
H  23.26900 2.86300 35.10900
H  22.19300 0.35700 34.91600
H  22.14100 1.61400 36.12700
H  23.43700 0.38600 36.18100
H  25.04900 4.11800 35.69700
H  26.70500 3.82900 35.29800
H  27.39600 3.48100 37.08700
H  26.27900 2.05500 37.36800
H  19.04000 2.82900 30.90500
H  19.67100 2.08600 32.22600
H  18.83100 1.07200 31.08200
H  18.45700 0.81700 28.80200
H  17.96000 1.79200 27.35000
H  18.35200 2.58600 28.84000
H  25.09200 2.76300 25.83400
H  27.01500 0.46900 25.89900
H  23.88900 0.06300 25.37600
H  25.28600 0.32200 24.37100
H  23.94400 1.44600 24.23700
H  28.21400 3.15500 26.47200
H  27.11200 3.21500 25.13500
H  28.98500 0.87300 24.90200
H  29.85800 2.38200 25.19600
H  28.79800 2.20100 23.83000
H  31.48800 1.55700 31.00200
H  31.09500 1.59000 29.25100
H  31.13200 0.02200 30.12000
H  28.53800 2.62700 34.88900
H  28.05200 0.47300 38.39100
H  29.78500 0.21400 38.43100
H  28.90000 -0.88200 37.50500
Mg -0.97400 33.73500 26.94000
C  -2.89500 32.09200 29.10400
C  0.21700 35.82500 29.51800
C  0.82400 35.43200 24.68400
C  -2.75800 32.32200 24.21200
N  -1.43500 34.04300 28.99700
C  -2.09100 33.02600 29.73200
C  -1.99500 33.29600 31.23000
C  -1.46900 34.80200 31.15600
C  -0.82700 34.91700 29.80800
C  -2.58200 35.85400 31.36500
C  -1.10500 32.23800 31.98100
C  -0.76100 32.57000 33.40000
H  -1.24300 31.46200 34.45100
N  0.53900 35.19000 27.09300
C  0.86600 35.92100 28.22400
C  1.94000 36.79500 27.91300
C  2.01900 36.82000 26.53900
C  1.11300 35.77700 26.05500
C  2.55500 37.71400 28.95400
C  2.77000 37.74400 25.51500
O  2.40700 37.84800 24.33500
C  3.85000 38.62900 25.97000
N  -0.98600 34.00600 24.73400
C  -0.07700 34.64900 24.01600
C  -0.27100 34.43900 22.50400
C  -1.20800 33.14700 22.45400
C  -1.74600 33.18900 23.86500
C  -0.59000 35.72200 21.65900
C  -0.55100 31.78800 22.02700
C  0.55000 31.33400 22.93700
N  -2.53600 32.59600 26.67800
C  -3.12900 31.99600 25.56000
C  -4.05800 31.03700 25.97500
C  -4.04300 31.06100 27.38500
C  -3.10000 31.99200 27.72100
C  -4.85800 30.25400 25.10600
C  -4.62000 30.44700 28.56800
O  -5.43900 29.56900 28.70700
C  -3.80100 31.08900 29.77500
C  -4.80500 31.81200 30.55100
O  -5.37900 32.89400 30.14500
O  -5.04600 31.26400 31.75400
C  -6.03600 31.85500 32.65200
H  0.53500 36.49300 30.32100
H  1.52400 35.85100 23.95800
H  -3.18000 31.79800 23.35200
H  -2.99600 33.39400 31.65000
H  -0.74400 35.05600 31.93000
H  -2.76700 36.08500 32.41400
H  -3.50900 35.46600 30.94300
H  -2.22200 36.76300 30.88300
H  -0.17700 32.09400 31.42700
H  -1.63200 31.28600 31.92000
H  -1.15200 33.51700 33.77300
H  0.32800 32.62600 33.37300
H  2.58900 37.20700 29.91900
H  1.96400 38.63000 28.98100
H  3.58600 37.81600 28.61600
H  4.51000 38.97300 25.17300
H  4.41200 38.25500 26.82500
H  3.20800 39.46900 26.23600
H  0.69500 34.14100 22.09800
H  -1.96400 33.38700 21.70600
H  -1.17400 35.45600 20.77900
H  0.35700 36.03200 21.21700
H  -1.14700 36.36400 22.34200
H  -0.04000 31.97100 21.08200
H  -1.33900 31.05000 21.87500
H  0.55200 31.82500 23.91000
H  1.53200 31.52400 22.50300
H  0.53600 30.25400 23.08500
H  -4.89900 29.25200 25.53300
H  -4.38200 30.14400 24.13200
H  -5.88700 30.58000 24.95200
H  -3.32900 30.26800 30.31500
H  -5.63200 32.59800 33.33900
H  -6.56900 31.07500 33.19400
H  -6.76200 32.50100 32.15700

