158

Mg 8.82900 3.77600 27.80400
C  10.34100 2.24900 30.61700
C  7.14100 5.63300 29.98800
C  7.42100 5.21100 25.10700
C  10.30900 1.38700 25.80100
N  8.88500 3.97200 30.07800
C  9.59300 3.31800 31.01800
C  9.30800 3.75500 32.44300
C  8.12100 4.77900 32.20400
C  8.02200 4.76100 30.63000
C  6.75300 4.30600 32.80100
C  10.57100 4.26500 33.21300
C  10.26800 5.38500 34.27400
H  11.04700 5.48500 35.63800
N  7.47400 5.22400 27.54700
C  6.87400 5.83800 28.61400
C  6.02900 6.88900 28.07800
C  6.05700 6.77000 26.64800
C  7.02200 5.72000 26.38900
C  5.13100 7.82400 28.92700
C  5.19900 7.49800 25.53700
O  5.40200 7.25200 24.32700
C  4.07000 8.39700 25.91300
N  9.02400 3.47600 25.70000
C  8.24000 4.10400 24.86700
C  8.38000 3.56500 23.38600
C  9.46100 2.38000 23.57100
C  9.56300 2.34100 25.08900
C  7.00000 3.12000 22.83200
C  10.75700 2.83600 22.86200
C  11.47700 1.68700 22.13700
N  9.95800 2.02200 28.08700
C  10.64300 1.23500 27.17500
C  11.40200 0.28500 27.84300
C  11.37000 0.63800 29.16800
C  10.47300 1.73400 29.27800
C  12.15600 -0.84600 27.09600
C  11.82900 0.30000 30.51800
O  12.52700 -0.59400 30.94600
C  11.23700 1.42900 31.47300
C  10.61100 0.72200 32.66200
O  9.58800 0.04900 32.61500
O  11.43400 0.82800 33.74100
C  10.73600 0.35700 34.99200
H  6.40900 6.08300 30.66300
H  6.99400 5.61200 24.18600
H  10.70100 0.59300 25.16200
H  8.92900 2.83800 32.89400
H  8.32100 5.80100 32.52600
H  6.74400 3.37700 33.37100
H  5.97400 4.24300 32.04200
H  6.41600 5.06200 33.51100
H  11.30800 4.71200 32.54500
H  11.11800 3.43600 33.66100
H  9.20900 5.29800 34.51700
H  10.53800 6.35500 33.85700
H  5.45000 8.81200 28.59500
H  5.27700 7.58600 29.98100
H  4.08900 7.67500 28.64400
H  3.69000 8.75900 24.95800
H  4.55200 9.25000 26.39200
H  3.33000 7.91900 26.55500
H  8.71700 4.35800 22.71900
H  9.13400 1.46400 23.07900
H  6.36900 3.13800 23.72100
H  7.05000 2.09000 22.48100
H  6.56100 3.89500 22.20400
H  11.47200 3.25300 23.57200
H  10.61600 3.53000 22.03300
H  11.71100 0.98300 22.93600
H  12.36400 1.98800 21.58000
H  10.68900 1.25000 21.52400
H  13.06300 -0.45500 26.63500
H  11.51100 -1.31100 26.35100
H  12.46800 -1.54600 27.87100
H  11.95200 2.14400 31.88100
H  10.59200 1.09700 35.78000
H  11.47900 -0.30900 35.42900
H  9.80900 -0.20900 34.89900
Mg 42.25900 41.88400 26.13000
C  41.64600 44.30300 28.37600
C  43.30900 39.85300 28.69800
C  43.05900 39.73800 23.77200
C  41.71700 44.34700 23.49000
N  42.27300 42.00500 28.29700
C  41.93300 43.08900 29.00400
C  41.86900 42.80100 30.52400
C  42.78500 41.54500 30.62200
C  42.77600 41.08400 29.13100
C  44.22800 41.91300 31.05900
C  40.36300 42.68800 31.05000
C  40.15200 43.22300 32.56400
H  40.80400 42.41500 33.67000
N  42.91100 40.03200 26.26000
C  43.40100 39.38300 27.36800
C  43.90100 38.08400 26.98900
C  43.81100 38.01100 25.56700
C  43.23400 39.28500 25.13900
C  44.40800 36.97400 27.97100
C  43.91600 36.85500 24.66600
O  43.53200 36.86700 23.50400
C  44.16000 35.54600 25.27600
N  42.46500 42.08700 23.87900
C  42.66800 41.00200 23.13800
C  42.70400 41.25400 21.72700
C  42.09600 42.66000 21.64100
C  42.05800 43.05300 23.14100
C  44.11900 41.06700 21.08300
C  40.67100 42.73700 21.01900
C  39.56700 41.79300 21.61400
N  41.79600 43.91600 25.92800
C  41.62200 44.73100 24.84300
C  41.33000 46.06200 25.29900
C  41.32200 46.01300 26.68400
C  41.56100 44.63200 26.99500
C  41.08800 47.30900 24.37800
C  41.06800 46.65400 27.94000
O  40.68000 47.77400 28.20100
C  41.26200 45.59000 29.07400
C  42.10400 46.11500 30.17200
O  43.33400 46.13600 30.15600
O  41.34000 46.41900 31.26100
C  41.92600 46.95200 32.52900
H  43.66000 39.07600 29.38000
H  43.32900 39.11800 22.91500
H  41.43100 45.12000 22.77300
H  42.36700 43.61400 31.05400
H  42.38700 40.73900 31.23900
H  44.14900 42.67200 31.83700
H  44.74400 42.22100 30.15000
H  44.61300 41.04100 31.58800
H  40.07800 41.63900 30.96900
H  39.64300 43.20100 30.41200
H  39.08300 43.17600 32.77200
H  40.33900 44.29200 32.65800
H  44.66600 37.37900 28.94900
H  45.28100 36.39000 27.67700
H  43.50100 36.37200 28.02800
H  44.00200 34.76600 24.53100
H  43.47100 35.34600 26.09700
H  45.19100 35.63200 25.61800
H  42.09000 40.52600 21.19600
H  42.77000 43.37600 21.17200
H  44.44800 41.98400 20.59500
H  44.11500 40.27000 20.34000
H  44.75500 40.82900 21.93500
H  40.75100 42.42900 19.97700
H  40.39400 43.79100 21.03700
H  39.06600 41.28700 20.78900
H  38.84200 42.50200 22.01300
H  39.83600 41.06800 22.38200
H  41.84200 47.42300 23.60000
H  41.12800 48.26100 24.90600
H  40.16000 47.22400 23.81300
H  40.23600 45.56700 29.44100
H  41.82200 46.24300 33.35000
H  41.31600 47.82500 32.76200
H  42.93700 47.35900 32.52300

