158

Mg 2.24800 -1.95700 44.07500
C  5.62400 -1.45200 43.43700
C  1.50600 0.79300 42.21800
C  -1.03800 -2.67600 44.46400
C  3.08900 -5.09700 45.54700
N  3.48500 -0.53700 42.95800
C  4.84000 -0.48500 42.77800
C  5.25900 0.71000 41.81900
C  3.92800 1.52000 41.73900
C  2.92300 0.50700 42.34800
C  3.96700 2.97500 42.32300
C  5.89000 0.28400 40.41300
C  6.55300 1.51500 39.71100
H  5.95300 1.96200 38.36500
N  0.47100 -1.05600 43.43200
C  0.36400 0.09000 42.66700
C  -0.95400 0.43900 42.36300
C  -1.72100 -0.51700 43.10200
C  -0.78100 -1.53900 43.72700
C  -1.38800 1.61300 41.57900
C  -3.25200 -0.49600 43.18400
O  -3.89000 0.46800 42.65200
C  -4.10800 -1.63400 43.77100
N  1.26500 -3.68800 44.78800
C  -0.09200 -3.65400 44.91100
C  -0.56100 -5.07100 45.49600
C  0.67700 -5.90900 45.68200
C  1.75500 -4.85600 45.35300
C  -1.42100 -4.98200 46.84800
C  0.81000 -7.12200 44.88000
C  0.21500 -8.36600 45.58300
N  4.00100 -3.06900 44.49200
C  4.16900 -4.27100 45.12200
C  5.55700 -4.53300 45.29300
C  6.21100 -3.44100 44.75100
C  5.21400 -2.59300 44.17600
C  6.29700 -5.77600 45.95500
C  7.47700 -2.79000 44.52400
O  8.58500 -3.06900 44.95000
C  7.20400 -1.50900 43.56900
C  7.71900 -0.26100 44.17800
O  8.69800 0.36400 43.78600
O  6.88000 0.12900 45.15400
C  7.16400 1.48200 45.71800
H  1.37200 1.74900 41.70600
H  -2.05600 -2.82700 44.82900
H  3.54700 -6.00600 45.94200
H  5.99500 1.15800 42.48600
H  3.66100 1.59600 40.68500
H  4.87100 3.09600 42.91900
H  3.15700 2.90400 43.05000
H  3.87100 3.71000 41.52400
H  5.15200 -0.16400 39.74800
H  6.70900 -0.42800 40.51500
H  7.61700 1.50900 39.47800
H  6.51400 2.27800 40.48800
H  -1.91100 1.26800 40.68700
H  -0.58000 2.25400 41.22600
H  -2.09200 2.26300 42.09800
H  -5.14600 -1.35700 43.58600
H  -3.92800 -1.75500 44.83900
H  -3.84600 -2.60000 43.34000
H  -1.02500 -5.54700 44.63200
H  0.76600 -6.18700 46.73300
H  -2.49700 -5.09600 46.71600
H  -1.14400 -4.18700 47.54100
H  -1.24400 -5.88600 47.43100
H  1.85100 -7.21100 44.56800
H  0.29700 -7.01900 43.92400
H  -0.41000 -8.10800 46.43800
H  0.98100 -9.06600 45.91500
H  -0.41000 -8.92300 44.88500
H  6.06200 -6.67600 45.38700
H  5.86200 -5.95900 46.93800
H  7.37300 -5.63800 46.06100
H  7.85500 -1.65700 42.70800
H  6.28600 1.96900 46.14300
H  7.45800 2.14500 44.90500
H  7.94200 1.44800 46.48100
Mg -12.46300 38.48800 41.30500
C  -10.35900 35.74600 40.35500
C  -10.17900 40.56600 39.68100
C  -14.69700 40.87800 41.32500
C  -14.81900 36.05600 42.31400
N  -10.42600 38.19700 40.31700
C  -9.73600 36.99700 40.07800
C  -8.47200 37.18700 39.34000
C  -8.31000 38.73000 39.27100
C  -9.73800 39.23600 39.81700
C  -7.15200 39.39600 40.03200
C  -8.42100 36.44400 37.95700
C  -7.22200 35.47900 37.74700
H  -6.29600 35.82800 36.52700
N  -12.47000 40.57200 40.75700
C  -11.42100 41.21100 40.05600
C  -11.75700 42.64900 39.99700
C  -13.07100 42.75300 40.37600
C  -13.49300 41.36600 40.89800
C  -10.86700 43.63500 39.22100
C  -13.93100 43.95200 40.22300
O  -13.36900 45.01800 39.87600
C  -15.34700 43.88200 40.31100
N  -14.37100 38.43500 41.72200
C  -15.15900 39.59600 41.59200
C  -16.64400 39.41100 42.02200
C  -16.69900 37.81400 42.26800
C  -15.23600 37.37700 42.13600
C  -17.15800 40.32800 43.11600
C  -17.68900 37.07500 41.35400
C  -18.84400 36.13400 41.97100
N  -12.66100 36.34700 41.31100
C  -13.55500 35.52500 41.95300
C  -13.08600 34.12600 41.87100
C  -11.88200 34.20000 41.19000
C  -11.59200 35.56000 40.94900
C  -13.71000 32.95600 42.56500
C  -10.78000 33.45100 40.76000
O  -10.71400 32.18800 40.80000
C  -9.73200 34.38400 40.23300
C  -8.50600 34.16600 41.03200
O  -7.62300 33.47900 40.61400
O  -8.43200 34.88600 42.19900
C  -7.13700 34.86600 42.84200
H  -9.54700 41.09200 38.96200
H  -15.41000 41.70200 41.40900
H  -15.44700 35.26400 42.72600
H  -7.65800 36.90400 40.00800
H  -8.29500 39.03000 38.22300
H  -6.49600 38.69600 40.55100
H  -7.63600 40.01700 40.78600
H  -6.60400 39.94500 39.26700
H  -8.43300 37.16500 37.14000
H  -9.30500 35.82900 37.78400
H  -7.49800 34.46600 37.45200
H  -6.56800 35.46800 38.61900
H  -10.61800 44.42300 39.93100
H  -11.35700 44.05600 38.34300
H  -9.89500 43.22400 38.94900
H  -15.48100 44.10400 41.37000
H  -15.84000 43.02000 39.86100
H  -15.76400 44.76600 39.82900
H  -17.11300 39.62100 41.06100
H  -16.87300 37.61100 43.32500
H  -16.51700 41.05900 43.60900
H  -17.51800 39.75100 43.96700
H  -18.12300 40.69900 42.77000
H  -17.02100 36.45400 40.75700
H  -18.14300 37.86800 40.76000
H  -19.80800 36.54100 41.66700
H  -18.75500 36.14800 43.05700
H  -18.64200 35.16100 41.52300
H  -14.61400 32.50300 42.15900
H  -14.00800 33.31500 43.55000
H  -12.96800 32.18300 42.76500
H  -9.63100 34.06800 39.19500
H  -6.40500 35.48600 42.32400
H  -6.83300 33.86300 43.14200
H  -7.35100 35.49400 43.70700

