158

Mg -1.63200 17.73700 26.68600
C  -2.15700 15.66200 29.36300
C  -2.40300 20.35400 28.68800
C  -1.55500 19.87300 23.92700
C  -1.37000 15.01900 24.59200
N  -2.30900 17.92000 28.80000
C  -2.35600 16.94100 29.75700
C  -2.83400 17.43300 31.12800
C  -3.13000 19.00400 30.78300
C  -2.52100 19.12200 29.36400
C  -4.57500 19.54300 30.97200
C  -1.70700 17.27900 32.21000
C  -2.04700 16.48800 33.42100
H  -1.13100 16.54600 34.63600
N  -1.95100 19.78900 26.37000
C  -2.19300 20.67800 27.34500
C  -2.08900 22.00300 26.85700
C  -1.79800 21.92700 25.45200
C  -1.77100 20.50400 25.19600
C  -2.36100 23.22800 27.67000
C  -1.63300 23.01100 24.45900
O  -1.44700 22.85900 23.28300
C  -1.58600 24.39100 24.79900
N  -1.53600 17.46400 24.57500
C  -1.53100 18.49000 23.63400
C  -1.47300 17.89600 22.21200
C  -1.08100 16.41100 22.47300
C  -1.27300 16.22100 23.99300
C  -2.78700 18.06300 21.45000
C  0.31200 15.94300 21.90200
C  1.55700 16.49000 22.69600
N  -1.59300 15.71400 26.94300
C  -1.49000 14.73200 26.01000
C  -1.65500 13.43800 26.60400
C  -1.89300 13.74000 27.95100
C  -1.85300 15.15500 28.09700
C  -1.77100 12.16000 25.76800
C  -2.14900 13.15800 29.27400
O  -2.26600 11.96800 29.61200
C  -2.20200 14.40600 30.23800
C  -1.04400 14.20500 31.15900
O  0.10200 14.56300 30.97000
O  -1.39200 13.43600 32.25100
C  -0.42300 13.24900 33.29500
H  -2.53500 21.20300 29.36100
H  -1.46000 20.61400 23.13100
H  -1.25100 14.21600 23.86100
H  -3.74300 16.89200 31.39000
H  -2.57200 19.70000 31.40900
H  -4.85500 19.76100 29.94100
H  -4.45400 20.51100 31.45900
H  -5.37900 18.94100 31.39500
H  -1.35700 18.25400 32.54700
H  -0.90900 16.82300 31.62300
H  -2.27800 15.44600 33.20100
H  -2.92900 16.89100 33.92000
H  -3.36700 23.57600 27.43700
H  -1.51900 23.89100 27.47300
H  -2.23000 23.14100 28.74900
H  -1.49500 25.02800 23.92000
H  -0.77800 24.49100 25.52400
H  -2.58100 24.44200 25.24200
H  -0.69900 18.48700 21.72200
H  -1.80000 15.71700 22.03800
H  -3.41600 18.82500 21.91100
H  -3.29500 17.10200 21.36700
H  -2.57700 18.54100 20.49300
H  0.27800 16.31500 20.87800
H  0.36500 14.86000 21.78700
H  1.33200 17.01600 23.62400
H  2.17400 17.13200 22.06800
H  2.28400 15.72800 22.97700
H  -2.81700 12.02800 25.48700
H  -1.62700 11.23300 26.32400
H  -1.05000 12.15600 24.95100
H  -3.14600 14.38500 30.78300
H  0.28300 14.07900 33.31400
H  0.08800 12.28700 33.23700
H  -1.08900 13.12300 34.14900
Mg 0.28200 44.03200 26.85100
C  2.46700 43.64100 29.45300
C  -2.31600 43.23300 29.11000
C  -1.83800 43.67400 24.24800
C  2.96900 44.35900 24.64000
N  0.10900 43.42200 29.00500
C  1.15900 43.48400 29.88600
C  0.62700 43.48800 31.34100
C  -0.78900 43.04200 31.10900
C  -1.04800 43.29700 29.63800
C  -1.17500 41.60700 31.56200
C  0.74700 44.90300 31.90300
C  1.07100 45.03100 33.40500
H  0.89300 43.76600 34.26300
N  -1.82300 43.67900 26.71000
C  -2.69600 43.50400 27.78500
C  -4.04900 43.52800 27.26300
C  -3.94700 43.49800 25.83300
C  -2.49600 43.60000 25.53700
C  -5.35600 43.49500 28.15300
C  -5.08800 43.38400 24.88400
O  -4.94400 43.41800 23.62400
C  -6.48100 43.26900 25.38400
N  0.53500 43.70600 24.72800
C  -0.49000 43.80400 23.83300
C  -0.13400 44.07700 22.40100
C  1.32700 44.55100 22.61400
C  1.62200 44.22200 24.09100
C  -0.25600 42.88200 21.35100
C  1.50500 46.04400 22.43400
C  1.45100 46.56800 20.95100
N  2.33700 43.96100 26.99300
C  3.30100 44.19500 25.99900
C  4.57600 44.33400 26.64700
C  4.32000 44.03200 28.04500
C  2.96300 43.85200 28.12900
C  5.87000 44.83900 26.03500
C  4.88300 43.83400 29.36400
O  6.02700 43.95800 29.77800
C  3.70900 43.57300 30.31300
C  3.95300 42.29400 30.94100
O  4.00900 41.18300 30.44200
O  4.26500 42.68900 32.19600
C  4.81600 41.59000 33.05900
H  -3.08200 42.99400 29.85000
H  -2.40700 43.65600 23.31600
H  3.71400 44.63700 23.89200
H  1.17300 42.72000 31.88800
H  -1.46400 43.73200 31.61600
H  -1.72100 41.09300 30.77100
H  -1.80200 41.78700 32.43500
H  -0.25600 41.06100 31.77400
H  -0.11600 45.51600 31.64200
H  1.65500 45.29000 31.44000
H  0.48400 45.82700 33.86300
H  2.10800 45.35700 33.48200
H  -5.89800 42.58400 27.89900
H  -6.11500 44.27300 28.07000
H  -5.16700 43.51700 29.22700
H  -6.50700 42.22500 25.69900
H  -7.12700 43.20900 24.50800
H  -6.85000 44.01300 26.09000
H  -0.74100 44.88300 21.98800
H  1.98300 43.95800 21.97700
H  -1.13100 42.96400 20.70700
H  -0.36200 41.99400 21.97500
H  0.59700 42.75100 20.68500
H  2.43900 46.26400 22.95100
H  0.73700 46.61500 22.95700
H  0.64100 47.29000 20.84100
H  1.21300 45.73800 20.28600
H  2.41900 47.05300 20.82700
H  6.47500 45.35700 26.77900
H  5.79600 45.44200 25.13000
H  6.41400 43.95800 25.69400
H  3.69500 44.39800 31.02500
H  4.06600 40.80400 32.98300
H  4.78300 41.89300 34.10500
H  5.77600 41.21400 32.70400

