158

Mg 36.23800 49.52300 24.95200
C  36.11900 47.74900 27.91900
C  34.64000 52.06700 26.35800
C  36.27900 50.94200 21.92400
C  37.73700 46.62200 23.43100
N  35.55900 49.78500 26.93800
C  35.66100 49.11700 28.05600
C  35.12000 49.84400 29.27900
C  34.36600 51.03900 28.59400
C  34.86900 50.93200 27.13600
C  32.88300 51.09000 28.78500
C  36.20300 50.16900 30.39100
C  35.88200 49.68900 31.86000
H  34.39500 49.53000 32.23600
N  35.65500 51.35800 24.24200
C  35.08300 52.29100 25.03300
C  35.04200 53.51800 24.37300
C  35.35700 53.21500 22.99300
C  35.80100 51.76200 23.00900
C  34.54700 54.72600 25.07600
C  35.31000 54.11000 21.80200
O  35.61700 53.63600 20.71800
C  34.90300 55.49400 21.89600
N  37.00200 48.91300 22.99900
C  36.90900 49.70700 21.90700
C  37.57800 49.03400 20.72300
C  38.31400 47.87400 21.32900
C  37.70400 47.81700 22.67800
C  36.66600 48.66700 19.48600
C  39.76600 48.21800 21.54800
C  40.57300 48.51200 20.24800
N  36.74800 47.53600 25.44600
C  37.33400 46.46500 24.75300
C  37.37200 45.27400 25.58000
C  36.93800 45.74000 26.84700
C  36.57900 47.11800 26.71400
C  37.86100 43.93900 25.17000
C  36.77100 45.38900 28.25300
O  37.10200 44.34300 28.86700
C  36.35700 46.80000 29.00800
C  35.10200 46.42300 29.74500
O  34.00400 46.49400 29.22000
O  35.32900 45.79300 30.89400
C  34.17100 45.13500 31.50400
H  34.05100 52.85800 26.82900
H  36.29200 51.47200 20.96900
H  38.27700 45.79600 22.96300
H  34.39500 49.17200 29.73700
H  34.74100 51.97300 29.01400
H  32.43300 50.38200 29.48100
H  32.42700 50.90600 27.81200
H  32.47600 52.05400 29.08700
H  36.42600 51.23400 30.44900
H  37.10100 49.61000 30.13200
H  36.28900 50.48000 32.48900
H  36.40000 48.78700 32.18500
H  34.84600 55.69000 24.66500
H  34.76800 54.66900 26.14200
H  33.46700 54.61200 24.98800
H  33.86700 55.47800 22.23400
H  34.94000 56.06900 20.97000
H  35.58600 56.07000 22.52100
H  38.27200 49.75400 20.29000
H  38.18400 46.95400 20.75900
H  35.61800 48.87900 19.69700
H  36.67700 47.62000 19.18400
H  36.93600 49.27700 18.62400
H  40.21300 47.36600 22.06000
H  39.85600 49.11300 22.16300
H  39.80400 48.60400 19.48100
H  41.29400 47.72700 20.01900
H  40.99500 49.51000 20.37100
H  38.07400 43.94400 24.10100
H  37.17700 43.12800 25.41900
H  38.82700 43.79100 25.65300
H  36.96300 47.16900 29.83600
H  34.01000 44.13800 31.09300
H  33.21800 45.64700 31.37000
H  34.28600 44.99800 32.58000
Mg 5.44500 54.39100 39.99500
C  5.99500 50.85200 40.01800
C  8.83100 54.70600 39.29000
C  4.92400 57.58700 39.27800
C  2.17800 53.87100 40.61900
N  7.17000 52.91100 39.68400
C  7.13600 51.55500 39.68600
C  8.49200 50.96600 39.48300
C  9.42000 52.23600 39.73200
C  8.44800 53.36500 39.51700
C  10.25700 52.22800 41.06900
C  8.74100 50.27400 38.06200
C  8.70800 51.17000 36.80300
H  7.63900 50.98100 35.73200
N  6.67000 55.89500 39.28200
C  8.03800 55.86800 39.15300
C  8.55000 57.16100 38.79600
C  7.41600 58.02100 38.73400
C  6.28200 57.18100 39.05100
C  9.97700 57.59100 38.60100
C  7.43500 59.50300 38.33000
O  8.51300 59.97600 37.97400
C  6.24100 60.38200 38.17000
N  3.70700 55.49800 39.57900
C  3.78100 56.83400 39.52100
C  2.42000 57.52100 39.86500
C  1.52700 56.22300 40.15600
C  2.55200 55.12200 40.14600
C  2.43000 58.54500 41.04300
C  0.47900 55.96600 39.05200
C  -0.95700 56.36900 39.29100
N  4.26800 52.75900 40.25000
C  2.93000 52.67100 40.57900
C  2.54800 51.29400 40.95000
C  3.69800 50.55500 40.71500
C  4.71900 51.45300 40.24800
C  1.24300 50.80400 41.60400
C  4.27500 49.19000 40.83800
O  3.80800 48.12600 41.21300
C  5.74000 49.33500 40.23500
C  5.72100 48.51100 38.98900
O  5.15100 48.79500 37.92700
O  6.37100 47.27900 39.22300
C  6.66400 46.46900 38.01100
H  9.90500 54.78000 39.10500
H  4.63600 58.64000 39.26600
H  1.16800 53.72000 41.00700
H  8.74200 50.14200 40.15000
H  10.20000 52.41400 38.99100
H  11.32400 52.43100 40.97600
H  10.21800 51.23900 41.52700
H  9.71000 52.94300 41.68300
H  7.98000 49.52600 37.83800
H  9.70600 49.77100 38.12100
H  9.72200 51.07000 36.41500
H  8.61600 52.21100 37.11000
H  10.72300 56.81100 38.75400
H  10.20700 58.30300 39.39300
H  10.04100 58.09000 37.63400
H  6.49400 61.26000 37.57400
H  5.97600 60.64300 39.19400
H  5.45100 59.86900 37.62200
H  1.98200 58.05200 39.02000
H  0.95900 56.21400 41.08600
H  2.93500 59.48500 40.82000
H  2.84300 58.02700 41.90800
H  1.39900 58.79300 41.29400
H  0.54200 54.93100 38.71700
H  0.79000 56.43700 38.11900
H  -1.51800 55.64700 38.69700
H  -1.11800 57.34800 38.84000
H  -1.20400 56.30600 40.35100
H  0.83900 51.67900 42.11300
H  1.37000 50.04000 42.37100
H  0.49100 50.49300 40.87900
H  6.42300 48.85400 40.93600
H  5.87700 46.33100 37.27000
H  7.10900 45.50300 38.25200
H  7.44800 47.02400 37.49500

