158

Mg 44.22500 5.10000 46.18700
C  42.44700 8.08900 45.92100
C  41.25100 3.42200 45.09200
C  45.91900 2.33700 45.61500
C  47.20000 6.91200 46.34300
N  42.06500 5.74700 45.44800
C  41.55200 7.01000 45.62100
C  40.07500 7.06300 45.51100
C  39.75400 5.52100 45.38400
C  41.07200 4.80600 45.29500
C  38.88900 4.79300 46.47000
C  39.46600 7.93600 44.41400
C  40.29600 8.07600 43.15000
H  39.62100 7.81100 41.79700
N  43.68300 3.08300 45.67500
C  42.44500 2.62700 45.25300
C  42.47400 1.21600 45.10000
C  43.82200 0.80200 45.26500
C  44.54900 2.07100 45.54400
C  41.31700 0.40900 44.82700
C  44.35800 -0.68100 45.17800
O  43.58600 -1.56700 44.79500
C  45.78000 -1.03300 45.56600
N  46.27900 4.71000 45.69300
C  46.72200 3.43800 45.70400
C  48.27100 3.37000 45.71500
C  48.64700 4.95600 45.72300
C  47.28700 5.56900 45.95800
C  48.87300 2.54200 46.91500
C  49.28400 5.47100 44.40700
C  50.87700 5.52300 44.41000
N  44.73300 7.11600 46.21700
C  45.98600 7.63900 46.39500
C  45.83500 9.02500 46.60700
C  44.48700 9.27000 46.47800
C  43.82400 8.06800 46.11200
C  46.91500 10.08500 46.82000
C  43.40200 10.27400 46.47300
O  43.43800 11.49700 46.62900
C  42.07100 9.58600 46.13100
C  41.10400 9.78300 47.19300
O  40.94300 9.03400 48.12000
O  40.24800 10.77200 46.91400
C  39.08600 10.92800 47.75900
H  40.34000 2.82000 45.08900
H  46.58100 1.47100 45.54200
H  48.13800 7.41000 46.59700
H  39.74700 7.40500 46.49300
H  39.14300 5.47800 44.48300
H  39.45200 4.74700 47.40200
H  38.74900 3.75300 46.17400
H  37.97300 5.38100 46.41200
H  39.19900 8.88200 44.88600
H  38.49900 7.56300 44.07600
H  41.16400 7.41800 43.11400
H  40.60000 9.11900 43.05600
H  41.44200 -0.15700 43.90400
H  40.35400 0.91400 44.90200
H  41.40400 -0.32500 45.62800
H  45.92000 -2.10800 45.67100
H  46.06700 -0.48600 46.46400
H  46.55000 -0.83300 44.82000
H  48.58800 2.87400 44.79800
H  49.27400 5.10100 46.60200
H  49.69200 3.07800 47.39500
H  49.37600 1.64100 46.56500
H  48.09700 2.33800 47.65200
H  48.92000 6.47700 44.20000
H  49.06100 4.72800 43.64100
H  51.13200 6.51900 44.04900
H  51.42000 4.84700 43.75100
H  51.21000 5.38200 45.43900
H  46.55900 11.11200 46.91000
H  47.49000 10.30700 45.92000
H  47.61800 9.78500 47.59700
H  41.72000 10.04700 45.20800
H  39.17400 11.68300 48.54000
H  38.79400 9.95000 48.14400
H  38.25300 11.32100 47.17600
Mg 9.79300 47.61600 26.29600
C  7.89600 47.79700 29.21700
C  12.39400 49.18200 27.88000
C  11.61800 47.45700 23.58200
C  6.95500 46.44800 24.58500
N  10.00300 48.49200 28.28500
C  9.18300 48.34800 29.38100
C  9.86800 48.97700 30.66200
C  11.03800 49.80700 29.98300
C  11.20900 49.08400 28.65800
C  10.74500 51.32500 29.76800
C  10.30300 47.91100 31.66600
C  9.54700 47.97900 32.98900
H  9.82000 46.72200 33.86200
N  11.81500 48.19600 25.81100
C  12.68900 48.78600 26.59000
C  13.94500 48.83500 25.93500
C  13.76000 48.31600 24.61500
C  12.36200 47.95800 24.65700
C  15.29200 49.31500 26.65700
C  14.72200 48.20700 23.46300
O  14.52200 47.57800 22.41600
C  16.07200 48.84700 23.67800
N  9.35000 47.17800 24.38500
C  10.31200 47.07700 23.39700
C  9.75300 46.68700 22.02600
C  8.36600 46.14100 22.49100
C  8.21100 46.67500 23.89700
C  9.80700 47.82700 21.00600
C  8.06300 44.66400 22.31300
C  9.02800 43.55400 22.92700
N  7.78600 47.28700 26.79000
C  6.74900 46.85500 25.93600
C  5.55100 46.98000 26.74200
C  5.98900 47.24800 28.05100
C  7.33100 47.37400 28.00300
C  4.22100 46.82100 26.11800
C  5.57700 47.41400 29.42300
O  4.43700 47.34200 29.94400
C  6.81600 47.68100 30.22600
C  6.91400 46.40800 31.06500
O  7.37000 45.39800 30.65800
O  6.37200 46.61500 32.28000
C  6.61600 45.54200 33.27800
H  13.14100 49.79700 28.38600
H  12.17900 47.40900 22.64700
H  6.01200 46.13700 24.13100
H  9.23900 49.77500 31.05900
H  11.79000 49.75900 30.77000
H  11.59100 51.76700 29.24200
H  10.67100 51.67300 30.79800
H  9.75600 51.51700 29.35100
H  11.33400 48.13200 31.94400
H  10.31000 46.91700 31.22000
H  8.47600 48.18100 32.96300
H  10.05200 48.79900 33.49700
H  15.11700 49.19600 27.72600
H  15.38000 50.36300 26.37000
H  16.17400 48.73100 26.39500
H  16.63800 48.11100 24.24900
H  15.92300 49.84200 24.09800
H  16.42200 49.07600 22.67200
H  10.29200 45.82000 21.64300
H  7.66400 46.72300 21.89500
H  10.37700 48.65600 21.42500
H  8.80100 48.18200 20.78200
H  10.25600 47.47100 20.07800
H  8.08800 44.50000 21.23600
H  7.08400 44.33600 22.66100
H  10.08700 43.70400 22.71700
H  8.74900 42.60800 22.46200
H  8.86200 43.53200 24.00400
H  3.56700 46.73000 26.98500
H  4.01500 45.90100 25.57100
H  4.03800 47.73400 25.55000
H  6.74500 48.52600 30.91100
H  7.25000 45.84300 34.11100
H  6.91500 44.54700 32.94800
H  5.70300 45.34000 33.83900

