158

Mg 40.77500 7.90100 29.70300
C  42.42400 9.40900 32.53300
C  38.43900 6.81400 31.93100
C  39.38900 6.35000 27.06600
C  43.56100 8.89100 27.71600
N  40.56600 8.11400 31.96500
C  41.18800 8.80100 32.88400
C  40.48700 8.84300 34.23100
C  39.28400 7.96300 34.01200
C  39.48300 7.50400 32.57900
C  39.21900 6.69900 34.98400
C  40.05400 10.30000 34.59600
C  39.31200 10.48900 35.87400
H  40.01600 11.25800 36.98900
N  39.11100 6.76200 29.54500
C  38.29100 6.42600 30.55700
C  37.10500 5.68000 29.95700
C  37.40700 5.52300 28.55800
C  38.71300 6.22300 28.33800
C  35.93000 5.23300 30.87600
C  36.64300 4.76300 27.51500
O  37.13100 4.35200 26.50900
C  35.24200 4.35100 27.87700
N  41.45700 7.60800 27.73100
C  40.65900 6.90900 26.80500
C  41.39700 6.81100 25.44800
C  42.62500 7.84500 25.64700
C  42.59200 8.06600 27.17600
C  41.85000 5.32200 25.05500
C  42.63800 9.13900 24.80200
C  41.37400 10.06800 24.81800
N  42.50900 8.93900 29.89700
C  43.53400 9.26500 29.01500
C  44.50900 10.06500 29.67100
C  44.14300 10.17000 31.03800
C  42.89800 9.50000 31.13800
C  45.89500 10.55400 29.08200
C  44.49700 10.69800 32.34800
O  45.38100 11.45000 32.60600
C  43.35400 10.29200 33.34200
C  43.83200 9.73500 34.58000
O  44.28200 8.60600 34.61400
O  43.71300 10.62400 35.65300
C  43.72700 9.99600 36.96800
H  37.71600 6.51200 32.69200
H  38.79700 5.94700 26.24100
H  44.25100 9.41400 27.05000
H  41.17400 8.51200 35.00900
H  38.35000 8.52600 34.02600
H  39.83900 6.92500 35.85200
H  39.68100 5.89500 34.41100
H  38.19100 6.66800 35.34500
H  39.38800 10.68200 33.82200
H  40.89800 10.99000 34.58700
H  38.90200 9.65200 36.43800
H  38.46000 11.15500 35.73500
H  34.95300 5.60100 30.56100
H  36.10200 5.59900 31.88800
H  35.89900 4.14400 30.85200
H  34.69200 5.23300 28.20500
H  35.38400 3.73200 28.76300
H  34.74300 3.88000 27.02900
H  40.79200 7.08400 24.58400
H  43.52400 7.40300 25.21800
H  41.54800 5.20200 24.01500
H  41.38700 4.63400 25.76300
H  42.92700 5.22200 25.18900
H  42.67200 8.85000 23.75100
H  43.61000 9.59500 24.98900
H  40.65700 9.67600 25.53900
H  40.82400 10.04700 23.87700
H  41.78800 11.06300 24.97700
H  46.34300 9.90100 28.33300
H  46.57400 10.62200 29.93200
H  45.82800 11.54600 28.63600
H  42.91800 11.25900 33.59200
H  44.43500 9.18600 37.13900
H  42.72000 9.61700 37.14200
H  43.97600 10.73400 37.73100
Mg -0.02900 43.74500 26.19000
C  2.52300 43.20700 28.72900
C  -2.34900 42.52600 28.44300
C  -2.27800 43.75800 23.65300
C  2.52800 44.19500 23.93600
N  0.06400 43.14000 28.39900
C  1.17500 43.19400 29.21100
C  0.70200 43.00000 30.70200
C  -0.78100 42.55500 30.51600
C  -1.07800 42.89900 29.05400
C  -0.96000 41.05300 30.94300
C  1.02100 44.30500 31.54200
C  1.76400 43.98300 32.88700
H  1.41100 42.63600 33.55500
N  -1.99200 43.34200 26.14500
C  -2.78900 42.78700 27.14200
C  -4.10400 42.56000 26.58500
C  -4.11500 42.91000 25.22600
C  -2.74600 43.37200 24.96200
C  -5.21100 41.87800 27.38500
C  -5.24800 42.94500 24.20800
O  -5.22900 43.17900 23.00000
C  -6.64400 42.79900 24.78600
N  0.08000 44.17900 24.09900
C  -0.97800 44.15800 23.28200
C  -0.54000 44.48900 21.79200
C  0.94000 44.68600 21.96100
C  1.27200 44.35400 23.41800
C  -0.88800 43.28400 20.83500
C  1.48600 46.06500 21.64500
C  0.82000 47.21800 22.33000
N  2.06800 43.81000 26.28600
C  2.94800 44.00200 25.26900
C  4.30600 43.83100 25.72100
C  4.16600 43.64100 27.08800
C  2.83100 43.48400 27.35300
C  5.68000 44.09900 25.07300
C  4.90300 43.33800 28.30600
O  6.10300 43.34700 28.50500
C  3.86700 43.17600 29.43800
C  4.17400 41.94800 30.24700
O  3.84500 40.77400 29.91200
O  5.01500 42.19000 31.31800
C  5.25800 41.00300 32.18900
H  -3.10000 42.27900 29.19600
H  -3.01000 43.60300 22.85700
H  3.43500 44.44700 23.38300
H  1.36800 42.27900 31.17700
H  -1.40000 43.17200 31.16800
H  -0.09700 40.59500 31.42600
H  -1.35400 40.34600 30.21200
H  -1.76200 41.04200 31.68000
H  0.06700 44.82600 31.61400
H  1.61800 45.00900 30.96200
H  1.60900 44.81200 33.57800
H  2.78000 43.95600 32.49400
H  -5.91900 42.65700 27.67000
H  -4.78300 41.36200 28.24400
H  -5.62400 41.12100 26.71800
H  -7.44800 43.14000 24.13300
H  -6.56500 43.38300 25.70300
H  -6.88000 41.76000 25.01400
H  -1.10300 45.33700 21.40100
H  1.49700 44.05700 21.26700
H  -1.82200 43.45400 20.29900
H  -0.95100 42.34800 21.38800
H  -0.07300 43.36000 20.11500
H  1.49500 46.11000 20.55600
H  2.48900 46.13800 22.06600
H  1.51000 47.68400 23.03300
H  -0.13500 46.85800 22.71400
H  0.55800 48.03100 21.65300
H  5.85900 43.20400 24.47800
H  6.38400 44.14600 25.90400
H  5.56500 45.08200 24.61700
H  3.90700 44.04000 30.10100
H  6.29700 40.72800 32.00800
H  4.61000 40.13200 32.09900
H  5.18000 41.28400 33.23900

