158

Mg 40.54200 41.09000 27.18300
C  40.10000 43.53700 29.77100
C  41.96800 39.05300 29.66800
C  41.31300 38.88100 24.82500
C  39.89100 43.44600 24.81100
N  40.78000 41.20900 29.52000
C  40.40100 42.26900 30.25700
C  40.64200 41.90300 31.78600
C  41.33700 40.44400 31.76600
C  41.35200 40.19600 30.25400
C  42.67700 40.38900 32.54200
C  39.34700 41.99300 32.61600
C  39.27700 41.16200 33.95200
H  38.53800 41.75800 35.21500
N  41.55200 39.26700 27.24000
C  41.97400 38.57100 28.33000
C  42.47300 37.25200 27.93300
C  42.15000 37.12100 26.57700
C  41.60200 38.45400 26.16300
C  43.18800 36.33300 28.80800
C  42.25300 35.93500 25.65000
O  41.93800 36.01300 24.47500
C  42.88800 34.67500 26.13300
N  40.85600 41.23300 25.06300
C  40.93000 40.09900 24.32200
C  40.71400 40.41400 22.76400
C  40.18400 41.89800 22.81600
C  40.34800 42.20200 24.28400
C  41.93200 40.23700 21.82000
C  38.78000 42.14400 22.24700
C  37.64800 41.61600 23.09400
N  40.10700 43.14900 27.23800
C  39.84000 43.91300 26.17900
C  39.39800 45.21100 26.67000
C  39.54900 45.12300 28.07200
C  39.96500 43.85200 28.37700
C  38.97300 46.34100 25.76500
C  39.45700 45.86100 29.25500
O  38.99100 46.99000 29.46800
C  39.86100 44.87100 30.43000
C  41.04700 45.31000 31.10300
O  42.05700 45.67200 30.59100
O  40.85800 45.22600 32.44100
C  41.96500 45.57200 33.35100
H  42.54100 38.32500 30.24500
H  41.39300 38.16300 24.00500
H  39.67300 44.19100 24.04300
H  41.35100 42.63400 32.17400
H  40.66100 39.69300 32.17500
H  43.51700 39.99000 31.97500
H  42.41300 39.67100 33.31800
H  43.02900 41.29000 33.04600
H  38.61700 41.64300 31.88600
H  39.06600 43.02900 32.80700
H  40.25600 40.83500 34.30300
H  38.64500 40.28700 33.80200
H  42.42300 35.66000 29.19500
H  43.80600 36.85200 29.54100
H  43.96700 35.77500 28.28700
H  42.84600 33.90500 25.36200
H  42.39600 34.29900 27.03000
H  43.96800 34.81100 26.19400
H  39.97400 39.63000 22.60200
H  40.84200 42.65000 22.38000
H  42.04000 41.11800 21.18600
H  41.69700 39.37000 21.20200
H  42.82700 40.21400 22.44200
H  38.80800 41.72100 21.24300
H  38.73900 43.22100 22.08400
H  37.36000 42.37100 23.82500
H  37.95600 40.78000 23.72200
H  36.82500 41.26300 22.47200
H  39.03800 46.01500 24.72700
H  39.60300 47.21200 25.94800
H  37.97500 46.66600 26.05800
H  39.06900 44.92900 31.17600
H  41.99100 46.63800 33.57700
H  42.89600 45.34200 32.83300
H  41.79300 45.01600 34.27300
Mg 34.61900 49.09500 26.50400
C  35.07400 47.26600 29.26100
C  33.96500 51.84400 28.48500
C  33.79400 50.84600 23.64000
C  35.52700 46.50000 24.53800
N  34.52200 49.50500 28.63000
C  34.75200 48.52500 29.57000
C  34.65900 49.15100 31.02900
C  33.99400 50.53600 30.77700
C  34.15200 50.68900 29.21500
C  32.56900 50.65300 31.19500
C  36.11500 49.14700 31.62900
C  36.33000 48.79100 33.05800
H  36.30200 49.77700 34.27100
N  34.00500 51.07200 26.13800
C  33.89500 52.07200 27.06800
C  33.46600 53.31400 26.45900
C  33.36100 53.04700 25.04500
C  33.76500 51.58500 24.89900
C  33.31300 54.63300 27.13800
C  32.96800 54.00400 23.86600
O  32.76200 53.61100 22.73700
C  32.74900 55.52400 24.02400
N  34.84300 48.79000 24.34400
C  34.35000 49.55400 23.33800
C  34.52800 48.88700 21.90200
C  35.04100 47.51300 22.24100
C  35.20400 47.63800 23.76000
C  33.16000 48.91000 21.12500
C  36.27700 47.01600 21.47900
C  36.17200 45.92100 20.36700
N  35.16500 47.26300 26.76400
C  35.47500 46.23900 25.90600
C  35.79600 44.99600 26.66900
C  35.68500 45.41500 27.98900
C  35.25100 46.76100 27.97900
C  36.16200 43.66300 26.07200
C  35.79800 44.94600 29.29300
O  35.99600 43.82200 29.71900
C  35.35300 46.10500 30.17700
C  34.27800 45.60300 31.10200
O  33.14200 45.30700 30.73000
O  34.73700 45.55100 32.35700
C  33.78100 45.11700 33.41100
H  33.73900 52.75500 29.04500
H  33.52600 51.39800 22.73700
H  35.81400 45.58200 24.01900
H  33.97000 48.54100 31.61200
H  34.63300 51.22200 31.33300
H  32.40300 51.64400 31.62000
H  32.18200 49.86700 31.84300
H  31.95300 50.60400 30.29700
H  36.36500 50.20700 31.64900
H  36.75500 48.46200 31.07200
H  37.21500 48.15400 33.06800
H  35.54600 48.08500 33.33200
H  34.01700 55.39600 26.80800
H  33.39000 54.57800 28.22400
H  32.29000 54.96900 26.96800
H  31.78800 55.75200 24.48400
H  32.73600 55.91200 23.00600
H  33.59100 56.05700 24.46600
H  35.22100 49.55800 21.39300
H  34.28800 46.73000 22.15500
H  32.32700 48.98800 21.82300
H  33.05800 47.96200 20.59700
H  33.22400 49.75500 20.43900
H  37.02200 46.56600 22.13400
H  36.72500 47.90500 21.03600
H  35.60500 46.21400 19.48300
H  35.62500 45.10500 20.84100
H  37.13000 45.62800 19.93900
H  37.07900 43.71800 25.48500
H  35.32700 43.22200 25.52700
H  36.34000 42.91300 26.84300
H  36.28400 46.40900 30.65500
H  32.73600 45.12700 33.10100
H  33.93200 45.80200 34.24500
H  34.11300 44.13100 33.73800

