158

Mg 48.29700 35.14400 28.18400
C  46.50100 33.54500 30.83000
C  48.31100 37.95000 29.99700
C  49.51700 36.52500 25.50500
C  47.95600 32.07900 26.29100
N  47.65900 35.57600 30.23300
C  47.06800 34.76900 31.15800
C  47.16700 35.35600 32.56200
C  47.41400 36.84800 32.30300
C  47.84400 36.83100 30.74200
C  46.31400 37.84400 32.62800
C  48.24900 34.62300 33.41000
C  48.14300 34.50100 34.98700
H  47.10100 35.40600 35.58600
N  48.90500 36.92900 27.78700
C  48.82100 38.08800 28.65200
C  49.37900 39.24700 28.06100
C  49.91600 38.74200 26.82200
C  49.44000 37.39400 26.62900
C  49.57200 40.57800 28.82500
C  50.80700 39.52900 25.81600
O  51.04400 39.05200 24.73700
C  51.40100 40.89800 26.16200
N  48.78000 34.34900 26.15400
C  49.14600 35.17500 25.21500
C  49.48200 34.62400 23.81700
C  49.38400 33.10100 24.25200
C  48.57700 33.19400 25.61100
C  48.38000 35.04100 22.71100
C  50.68900 32.33800 24.52300
C  51.29900 31.64900 23.32200
N  47.46900 33.18900 28.46300
C  47.34800 32.07500 27.58100
C  46.62100 31.00500 28.23800
C  46.25200 31.56800 29.49300
C  46.76500 32.86100 29.57700
C  46.44600 29.57800 27.84700
C  45.57100 31.18400 30.68300
O  45.06700 30.12100 31.08200
C  45.52900 32.58800 31.52200
C  45.59200 32.39100 33.00600
O  46.53600 31.94400 33.64400
O  44.37800 32.66400 33.53500
C  44.13200 32.21400 34.88700
H  48.41300 38.93700 30.45200
H  50.02500 37.02000 24.67600
H  48.03400 31.11900 25.77600
H  46.23000 35.24600 33.10800
H  48.26000 37.14400 32.92300
H  45.79300 38.21400 31.74500
H  46.63400 38.79900 33.04300
H  45.61700 37.38200 33.32700
H  49.25600 34.97800 33.19000
H  48.35400 33.63300 32.96700
H  49.12400 34.78600 35.36900
H  47.81500 33.47500 35.15100
H  50.59800 40.46500 29.17500
H  48.96000 40.73300 29.71300
H  49.67200 41.50400 28.25800
H  50.59600 41.63400 26.18200
H  52.04500 41.16200 25.32300
H  51.93600 40.86900 27.11200
H  50.50100 34.78200 23.46300
H  48.78900 32.56400 23.51300
H  47.95300 36.01100 22.96300
H  47.52500 34.36800 22.64600
H  48.87900 35.15700 21.74800
H  50.51800 31.67600 25.37300
H  51.39300 33.07200 24.91500
H  50.97700 32.18300 22.42900
H  50.96900 30.61200 23.25500
H  52.37600 31.80000 23.25900
H  46.92800 29.20400 26.94400
H  45.42200 29.23600 27.69700
H  46.94900 29.06100 28.66400
H  44.52500 32.80100 31.15700
H  44.37000 31.17300 35.10400
H  43.10800 32.40700 35.20800
H  44.74600 32.83500 35.53900
Mg 7.55900 53.26700 41.26500
C  7.06300 49.72300 40.70200
C  10.85400 52.73300 40.25500
C  7.96900 56.46800 41.10800
C  4.13700 53.42200 41.68300
N  8.79800 51.46400 40.52500
C  8.32800 50.18500 40.39900
C  9.55100 49.25900 39.98100
C  10.81000 50.21000 40.17700
C  10.14100 51.58200 40.37600
C  11.69800 49.78200 41.33400
C  9.49900 48.72200 38.56200
C  9.13400 49.55600 37.35300
H  8.20300 48.95200 36.27700
N  9.20600 54.45700 40.75800
C  10.46400 54.04700 40.32200
C  11.30000 55.16500 40.08000
C  10.40600 56.33900 40.29000
C  9.14900 55.83300 40.72400
C  12.68300 54.98100 39.63200
C  10.80400 57.74300 39.97900
O  11.94400 58.01900 39.72200
C  9.76700 58.90200 39.84800
N  6.11900 54.74100 41.06400
C  6.64000 55.99400 41.32200
C  5.54400 56.98300 41.74700
C  4.26700 56.01800 41.89500
C  4.86800 54.65400 41.58100
C  5.88700 57.86200 43.05500
C  3.04700 56.36800 41.13500
C  3.10800 56.32400 39.64900
N  5.92900 51.95700 41.33600
C  4.53600 52.15600 41.48900
C  3.84300 50.94200 41.52300
C  4.85200 49.96500 41.26900
C  6.08200 50.59700 41.14600
C  2.38700 50.67600 41.74600
C  5.04200 48.55000 41.12600
O  4.19700 47.63800 41.09800
C  6.45400 48.33200 40.71300
C  6.34200 47.61400 39.43600
O  5.84900 48.08300 38.41000
O  6.89900 46.37400 39.54200
C  6.79800 45.46400 38.37500
H  11.88200 52.42300 40.05700
H  8.09500 57.53500 41.30300
H  3.08100 53.46000 41.95700
H  9.64000 48.43500 40.68800
H  11.27200 50.26000 39.19000
H  11.67800 48.70700 41.51200
H  11.15500 50.29200 42.13100
H  12.68200 50.20700 41.14000
H  8.71700 47.96300 38.53200
H  10.40400 48.13000 38.42600
H  10.05400 49.84600 36.84500
H  8.66900 50.44200 37.78500
H  12.79700 54.12400 38.96900
H  13.39000 54.91300 40.45900
H  12.90100 55.89300 39.07600
H  9.05600 58.60200 39.07800
H  10.23000 59.84100 39.54500
H  9.28800 59.21800 40.77500
H  5.40500 57.66800 40.91100
H  4.07500 56.14800 42.96000
H  5.97200 58.92800 42.84300
H  6.88400 57.56100 43.37900
H  5.18900 57.63900 43.86200
H  2.86000 57.40900 41.39900
H  2.17300 55.82900 41.50100
H  2.08600 56.45400 39.29300
H  3.53700 55.38000 39.31500
H  3.70200 57.16400 39.28900
H  2.14400 49.64700 41.47900
H  1.66800 51.32000 41.23900
H  2.40000 50.87500 42.81700
H  6.92300 47.64000 41.41200
H  6.98400 45.98300 37.43500
H  5.81000 45.00400 38.34300
H  7.63400 44.76500 38.39200

