158

Mg 2.37900 -1.91300 43.84100
C  5.75500 -1.47600 43.38300
C  1.78200 0.58800 41.54400
C  -0.90500 -2.89400 43.77500
C  3.19900 -4.97700 45.37300
N  3.68800 -0.80300 42.31300
C  5.03800 -0.64100 42.48900
C  5.53900 0.38100 41.46900
C  4.26700 1.03100 40.85500
C  3.16100 0.21100 41.63400
C  4.13900 2.58000 40.97200
C  6.42100 -0.44800 40.45200
C  7.77500 0.26500 40.14100
H  8.13600 0.53500 38.68100
N  0.62500 -1.12300 42.93900
C  0.62900 -0.12100 42.05600
C  -0.75300 0.18900 41.82800
C  -1.53000 -0.70000 42.55500
C  -0.60000 -1.62100 43.16700
C  -1.13600 1.30000 40.92000
C  -3.07200 -0.68900 42.59700
O  -3.74000 -0.09800 41.75700
C  -3.83700 -1.38800 43.70400
N  1.22400 -3.73100 44.37200
C  -0.11100 -3.80900 44.40800
C  -0.57300 -5.05000 45.12000
C  0.78000 -5.78700 45.36600
C  1.80100 -4.75600 45.10300
C  -1.42500 -4.58600 46.40800
C  1.11600 -7.03400 44.47400
C  1.65800 -8.25500 45.18100
N  4.03200 -2.98000 44.41000
C  4.25300 -4.11000 45.18800
C  5.64300 -4.18900 45.55800
C  6.22500 -3.09600 44.91400
C  5.25600 -2.47700 44.15300
C  6.32800 -5.23500 46.46900
C  7.49800 -2.39400 44.77000
O  8.57100 -2.56100 45.37500
C  7.23600 -1.35000 43.71500
C  7.51100 0.07300 44.13000
O  7.14700 0.57400 45.12700
O  8.25800 0.64700 43.12200
C  8.69800 2.01900 43.43400
H  1.63000 1.42800 40.86300
H  -1.93700 -3.23200 43.65400
H  3.38500 -5.86800 45.97700
H  6.05300 1.20100 41.97100
H  4.16000 0.79400 39.79700
H  3.67900 2.84000 41.92600
H  3.54100 2.94000 40.13500
H  5.15600 2.95800 40.87200
H  5.89900 -0.58000 39.50500
H  6.55200 -1.46200 40.82900
H  8.62900 -0.28200 40.54000
H  7.92200 1.22300 40.64100
H  -0.96800 0.84400 39.94400
H  -0.45800 2.14300 41.04900
H  -2.15900 1.66300 41.01300
H  -4.75800 -0.83500 43.88900
H  -3.26500 -1.19500 44.61200
H  -4.01300 -2.40600 43.35600
H  -1.23000 -5.64800 44.48700
H  0.67200 -6.05800 46.41600
H  -2.42200 -5.02400 46.35400
H  -1.49600 -3.49800 46.41900
H  -0.93600 -4.69600 47.37600
H  1.68800 -6.69600 43.61000
H  0.23100 -7.31400 43.90300
H  1.67400 -8.00600 46.24200
H  2.70900 -8.38100 44.92500
H  1.01400 -9.07600 44.86500
H  6.89500 -5.93900 45.86100
H  5.59600 -5.80400 47.04300
H  7.00400 -4.73300 47.16100
H  7.85800 -1.70900 42.89500
H  7.84000 2.63100 43.15400
H  9.55500 2.37900 42.86400
H  8.95900 2.02600 44.49200
Mg -11.51900 38.62300 41.97400
C  -9.38200 35.95600 40.89500
C  -9.51400 40.71100 40.20900
C  -13.75000 41.03100 42.40600
C  -13.74300 36.16800 42.96100
N  -9.74300 38.30500 40.61300
C  -8.96900 37.20300 40.48500
C  -7.70100 37.57500 39.64600
C  -7.66600 39.08900 39.57700
C  -9.01300 39.45300 40.18600
C  -6.48200 39.85400 40.29600
C  -7.67600 36.89500 38.22400
C  -6.45000 35.97600 37.93900
H  -5.48400 36.61100 36.94500
N  -11.57700 40.67400 41.54000
C  -10.62300 41.32300 40.76200
C  -11.06400 42.71000 40.60200
C  -12.24300 42.90800 41.38100
C  -12.58200 41.55000 41.88500
C  -10.37500 43.75200 39.78700
C  -12.95500 44.20900 41.47800
O  -12.54300 45.29900 41.02300
C  -14.16600 44.25100 42.37100
N  -13.63800 38.49700 42.38400
C  -14.20800 39.71800 42.71300
C  -15.60500 39.46300 43.30300
C  -15.63000 37.89600 43.40800
C  -14.26100 37.46000 42.89300
C  -15.93800 40.30100 44.60300
C  -16.81300 37.21400 42.61600
C  -17.97100 36.72200 43.52300
N  -11.56500 36.45300 41.94800
C  -12.51600 35.67200 42.55800
C  -12.02300 34.24000 42.63500
C  -10.83300 34.37500 41.90100
C  -10.61700 35.65900 41.52300
C  -12.58100 33.09300 43.41900
C  -9.64800 33.63200 41.43300
O  -9.39500 32.42100 41.56900
C  -8.70700 34.63700 40.71200
C  -7.45700 34.44800 41.42900
O  -7.28800 34.72300 42.63800
O  -6.43200 33.91700 40.75200
C  -5.08600 33.68900 41.30200
H  -8.94800 41.39600 39.57400
H  -14.58800 41.73100 42.38900
H  -14.33200 35.47300 43.56200
H  -6.88400 37.18400 40.25300
H  -7.58700 39.46900 38.55800
H  -5.61400 39.19400 40.30200
H  -6.77500 39.97800 41.33800
H  -6.17500 40.82500 39.90800
H  -7.83400 37.67400 37.47800
H  -8.47700 36.16000 38.14600
H  -6.75300 34.97200 37.64200
H  -5.71600 35.82500 38.73100
H  -11.12200 44.37100 39.29000
H  -9.80500 43.17600 39.05800
H  -9.82600 44.39700 40.47300
H  -14.99300 43.68500 41.94300
H  -14.62400 45.24000 42.35300
H  -13.96100 43.91800 43.38800
H  -16.40900 39.78900 42.64300
H  -15.73000 37.65300 44.46600
H  -15.05800 40.32600 45.24500
H  -16.69100 39.75000 45.16600
H  -16.04400 41.35500 44.34600
H  -16.51300 36.36200 42.00500
H  -17.29000 37.90500 41.92100
H  -18.73500 37.45500 43.78200
H  -17.58800 36.31100 44.45700
H  -18.54900 35.90800 43.08500
H  -13.64500 33.24700 43.59800
H  -12.06400 32.75800 44.31800
H  -12.53800 32.27500 42.69900
H  -8.69200 34.22700 39.70200
H  -4.78800 34.41800 42.05600
H  -4.35300 33.63400 40.49700
H  -5.02900 32.72200 41.80300

