158

Mg 46.95500 43.96800 42.23200
C  43.47800 43.15200 41.71300
C  47.72600 40.53300 41.49500
C  50.17800 44.81800 41.94000
C  45.99100 47.35100 42.20500
N  45.76100 42.07300 41.74300
C  44.37400 42.06900 41.54300
C  43.90800 40.69900 41.11000
C  45.27900 39.83000 41.18900
C  46.33700 40.84300 41.55500
C  45.14300 38.56600 42.11600
C  43.26100 40.61300 39.68500
C  43.91500 41.37700 38.62100
H  43.98300 40.74300 37.31400
N  48.68500 42.82900 41.79500
C  48.75900 41.47000 41.66200
C  50.17400 41.04000 41.64900
C  50.92200 42.26300 41.74800
C  49.89500 43.40600 41.83000
C  50.60600 39.64800 41.48200
C  52.47100 42.31900 41.64300
O  53.07800 41.29300 41.47500
C  53.24500 43.56700 41.47200
N  47.89400 45.78700 42.26600
C  49.32500 45.89100 42.08700
C  49.75100 47.37800 41.99000
C  48.39100 48.21000 42.11900
C  47.34800 47.06500 42.14200
C  50.71800 47.79200 43.14800
C  48.05400 49.26100 40.98500
C  47.77100 50.62800 41.59700
N  45.12000 45.05900 42.16200
C  44.92800 46.41200 42.21600
C  43.47100 46.65700 42.18500
C  42.92200 45.41100 42.02300
C  43.89600 44.43300 42.02700
C  42.79700 48.03100 42.08800
C  41.66000 44.85600 41.84700
O  40.52800 45.32700 41.92300
C  42.00800 43.27500 41.64800
C  41.40400 42.49800 42.79600
O  40.60000 41.55700 42.73000
O  41.86900 42.99700 44.01600
C  41.33900 42.27800 45.13500
H  47.87600 39.45200 41.48400
H  51.25900 44.91700 41.81900
H  45.64600 48.37500 42.36200
H  43.09700 40.49500 41.80800
H  45.67500 39.50200 40.22800
H  45.71700 38.77600 43.01900
H  45.42400 37.68900 41.53300
H  44.10900 38.28100 42.31000
H  42.25000 41.01400 39.61100
H  43.19200 39.54100 39.49800
H  44.90100 41.64000 39.00400
H  43.35600 42.30200 38.48200
H  50.46600 39.27800 40.46700
H  49.91700 39.10300 42.12700
H  51.57900 39.47300 41.94000
H  52.89700 43.97400 40.52300
H  54.31400 43.51600 41.26700
H  53.14000 44.14600 42.39000
H  50.23700 47.44500 41.01700
H  48.25300 48.53900 43.14900
H  50.66600 47.11000 43.99700
H  50.43500 48.74900 43.58800
H  51.78000 47.77300 42.90600
H  47.22300 49.00800 40.32600
H  48.94400 49.20100 40.35800
H  48.29500 51.30500 40.92300
H  48.16800 50.67000 42.61100
H  46.72700 50.92200 41.70800
H  43.46200 48.86000 42.33200
H  41.96600 48.21100 42.76900
H  42.35500 48.18400 41.10300
H  41.68300 42.97500 40.65200
H  41.65200 42.86500 45.99900
H  41.87100 41.32800 45.17300
H  40.27500 42.15000 44.93700
Mg 42.29700 41.70400 26.20300
C  41.83700 43.96000 28.75200
C  43.28300 39.41400 28.54900
C  43.19600 39.77200 23.68600
C  41.53100 44.22200 23.88700
N  42.49600 41.67500 28.46000
C  42.04300 42.70100 29.28200
C  41.97100 42.22900 30.72700
C  42.72800 40.86700 30.70100
C  42.80900 40.59200 29.16900
C  44.11000 40.85800 31.38600
C  40.46400 42.17100 31.24000
C  40.13600 43.19200 32.34200
H  39.71600 42.61400 33.72400
N  43.05600 39.81400 26.12700
C  43.38000 39.01300 27.16100
C  44.02500 37.75400 26.71700
C  44.01100 37.86500 25.25000
C  43.48900 39.18700 24.92700
C  44.57200 36.63500 27.61100
C  44.51100 36.78200 24.25600
O  44.73900 37.01200 23.07900
C  44.79600 35.46200 24.82500
N  42.17200 41.93800 24.08100
C  42.60100 40.95900 23.24900
C  42.29300 41.30300 21.75300
C  41.51100 42.60000 21.94400
C  41.80100 42.98900 23.38400
C  43.51400 41.50800 20.80800
C  39.96400 42.48100 21.71100
C  39.25400 41.34500 22.54600
N  41.80000 43.65100 26.25500
C  41.45300 44.53300 25.23800
C  41.02100 45.82200 25.78700
C  41.13500 45.57700 27.18700
C  41.62600 44.28100 27.42500
C  40.47300 47.01900 25.15500
C  40.92800 46.18000 28.44900
O  40.52600 47.31900 28.71300
C  41.28800 45.16200 29.50200
C  42.25500 45.67300 30.56500
O  43.48900 45.71700 30.45400
O  41.47800 46.22000 31.54700
C  42.09600 46.85300 32.73300
H  43.74400 38.68800 29.22100
H  43.46600 39.13200 22.84400
H  41.14300 44.94800 23.16900
H  42.51700 42.90800 31.38200
H  42.13500 40.03300 31.07600
H  44.87900 40.22300 30.94700
H  43.98200 40.65500 32.44900
H  44.44700 41.89300 31.32800
H  40.15200 41.20300 31.63100
H  39.83400 42.45600 30.39700
H  39.26900 43.77800 32.03900
H  41.01500 43.81100 32.52100
H  44.02000 35.70400 27.47900
H  44.56700 36.84800 28.68000
H  45.61000 36.42900 27.35200
H  43.94000 35.03600 25.34800
H  45.64800 35.48100 25.50400
H  45.17100 34.79100 24.05200
H  41.60200 40.58800 21.30600
H  41.76700 43.42000 21.27200
H  44.34200 41.10500 21.39100
H  43.75400 42.54800 20.58800
H  43.40800 40.91600 19.89900
H  39.87100 42.17000 20.67100
H  39.43600 43.43500 21.73500
H  39.93800 40.81300 23.20700
H  38.69100 40.66200 21.91000
H  38.53200 41.72200 23.27100
H  39.66000 47.44100 25.74600
H  40.33900 46.69900 24.12200
H  41.27400 47.75700 25.13600
H  40.38700 44.79800 29.99600
H  42.03300 46.00600 33.41600
H  41.55200 47.70900 33.13300
H  43.15100 47.10000 32.61600

