158

Mg 8.14500 3.46300 28.76800
C  9.74000 2.12600 31.60800
C  6.35300 5.57700 30.97200
C  6.40600 4.46600 26.19400
C  9.72900 0.88100 26.96700
N  7.99000 3.66300 31.05600
C  8.80900 3.14100 31.99200
C  8.81200 3.84200 33.37400
C  7.55300 4.75800 33.12700
C  7.31700 4.75000 31.59900
C  6.24900 4.46100 34.00900
C  10.08400 4.74700 33.55800
C  10.89200 4.40800 34.83500
H  10.26900 5.07100 36.04800
N  6.58100 4.85000 28.57100
C  6.07200 5.67200 29.54200
C  5.05400 6.60700 28.93100
C  5.24000 6.43000 27.52700
C  6.11200 5.23400 27.38100
C  4.28700 7.69200 29.62100
C  4.67100 7.20000 26.37600
O  4.91900 6.87600 25.23200
C  3.71800 8.30300 26.52000
N  8.13100 2.74900 26.93200
C  7.28400 3.37400 26.02400
C  7.58800 2.77300 24.61100
C  8.57300 1.57400 24.83700
C  8.83700 1.68700 26.35800
C  6.29100 2.52000 23.90400
C  9.80200 1.45700 23.83200
C  10.00600 0.06600 23.19900
N  9.44500 1.90900 29.17200
C  9.93600 0.90800 28.32100
C  10.83200 -0.01500 29.01700
C  10.83800 0.55400 30.26900
C  9.93600 1.62600 30.36100
C  11.61100 -1.19300 28.43800
C  11.34200 0.35600 31.66000
O  12.26700 -0.32200 32.00000
C  10.68000 1.39200 32.60700
C  9.82200 0.57300 33.56800
O  8.85700 -0.04300 33.19400
O  10.16700 0.76200 34.91100
C  9.20000 0.28300 35.89900
H  5.93600 6.33700 31.63600
H  5.99000 4.88700 25.27600
H  10.23700 0.19900 26.28200
H  8.57000 3.10300 34.13800
H  7.65300 5.82500 33.32300
H  5.81000 5.34500 34.47200
H  6.50800 3.62100 34.65300
H  5.60700 4.13700 33.19000
H  9.87400 5.80600 33.70700
H  10.81900 4.72100 32.75300
H  11.90900 4.79900 34.86500
H  10.86800 3.33600 35.03300
H  4.43600 7.78200 30.69700
H  3.23100 7.46300 29.47800
H  4.60000 8.60800 29.11900
H  4.29100 9.19100 26.78400
H  3.10400 8.15500 27.40800
H  3.06300 8.49200 25.66900
H  8.10800 3.58300 24.09900
H  8.02700 0.63000 24.83900
H  5.51000 2.41300 24.65800
H  6.30800 1.62000 23.29000
H  6.07900 3.22000 23.09700
H  10.66400 1.82100 24.39100
H  9.62600 2.18000 23.03500
H  10.13800 0.11400 22.11800
H  9.40500 -0.80000 23.47800
H  10.95500 -0.43100 23.40000
H  11.67000 -1.03900 27.36000
H  11.06700 -2.10400 28.68800
H  12.59500 -1.21700 28.90700
H  11.49400 1.96400 33.05300
H  9.58400 -0.62600 36.36300
H  8.26700 0.03100 35.39500
H  9.01400 1.09100 36.60500
Mg 7.16500 53.78500 40.88600
C  6.43000 50.25700 40.54700
C  10.34800 53.15800 39.77600
C  7.47100 57.09400 40.35800
C  3.71900 54.21900 41.45300
N  8.22800 51.93700 40.15100
C  7.78700 50.64500 40.25000
C  8.87700 49.68000 39.80500
C  10.19000 50.58800 39.89700
C  9.58000 52.02400 39.84100
C  10.88600 50.34900 41.23200
C  8.85800 48.88200 38.45500
C  8.55700 49.78900 37.24300
H  7.56100 49.33300 36.20000
N  8.73000 54.98900 40.21500
C  9.99700 54.49600 39.86600
C  10.84100 55.70600 39.69000
C  10.04100 56.86600 39.87400
C  8.68600 56.36800 40.17600
C  12.26000 55.56900 39.17200
C  10.50700 58.29300 39.84100
O  11.65800 58.54900 39.52000
C  9.66700 59.46400 40.32400
N  5.69800 55.37400 40.66500
C  6.15800 56.69200 40.55000
C  5.08200 57.68800 40.75900
C  3.85000 56.73900 40.91900
C  4.45100 55.36500 41.05000
C  5.30900 58.63200 42.01700
C  2.92000 56.80300 39.67200
C  1.45800 57.04900 39.94500
N  5.40500 52.51200 41.11800
C  4.09000 52.86000 41.41400
C  3.25100 51.68600 41.74600
C  4.16300 50.67600 41.36200
C  5.42200 51.21800 41.00500
C  1.77000 51.76500 42.22900
C  4.31300 49.25000 41.31500
O  3.54000 48.34400 41.51900
C  5.73300 48.91200 40.74600
C  5.54000 48.06800 39.57500
O  4.95000 48.40400 38.56700
O  5.92000 46.78800 39.89300
C  5.29300 45.79500 38.99700
H  11.41700 52.98000 39.64000
H  7.60700 58.16600 40.19700
H  2.66200 54.42100 41.64000
H  8.80700 48.90400 40.56800
H  10.81600 50.43300 39.01900
H  10.90900 51.24900 41.84700
H  11.88500 50.00800 40.96100
H  10.37800 49.55700 41.78200
H  8.08000 48.11900 38.47700
H  9.82400 48.38600 38.35900
H  9.55000 50.03500 36.86700
H  8.25700 50.76400 37.62700
H  12.35600 56.42000 38.49700
H  12.53500 54.62000 38.71200
H  12.89000 55.80200 40.03000
H  10.26100 60.36400 40.48100
H  9.18800 59.17600 41.26000
H  8.92900 59.76700 39.58100
H  5.08800 58.34400 39.88900
H  3.32800 56.82300 41.87200
H  5.32800 59.67100 41.68800
H  6.35300 58.47900 42.29300
H  4.65700 58.38700 42.85500
H  3.00900 55.95700 38.99100
H  3.05900 57.76500 39.17800
H  0.88300 56.21300 39.54500
H  1.20400 58.01600 39.51100
H  1.33100 57.02500 41.02700
H  1.15400 51.51500 41.36600
H  1.34800 52.75000 42.42400
H  1.47300 51.11200 43.05000
H  6.30200 48.38600 41.51300
H  5.33200 46.06100 37.94000
H  4.20900 45.83300 39.10200
H  5.79000 44.87000 39.28900

