158

Mg 2.15500 -1.73600 44.81500
C  5.50600 -1.01200 44.26900
C  1.44700 1.00300 42.72900
C  -1.16300 -2.55000 44.88100
C  3.02200 -4.89900 45.88700
N  3.36700 -0.13800 43.67100
C  4.69400 -0.24300 43.46400
C  5.17600 0.74000 42.36400
C  3.90800 1.63700 42.18800
C  2.79300 0.73300 42.83100
C  4.06800 3.14600 42.70500
C  5.60400 -0.16600 41.16600
C  7.16800 -0.14600 40.94100
H  7.71200 0.41700 39.63600
N  0.37400 -0.77600 44.05500
C  0.30100 0.30400 43.23900
C  -1.10300 0.61400 43.01100
C  -1.85000 -0.46300 43.54100
C  -0.88500 -1.27600 44.27100
C  -1.62100 1.80700 42.23800
C  -3.40600 -0.72000 43.26000
O  -4.03700 0.07500 42.62700
C  -4.18600 -1.86500 43.82000
N  1.11300 -3.47400 45.12700
C  -0.30000 -3.54600 45.29400
C  -0.68900 -4.82700 45.94400
C  0.63500 -5.68000 45.95000
C  1.68900 -4.62300 45.61900
C  -1.38100 -4.62300 47.34600
C  0.75800 -7.04400 45.16400
C  0.00800 -7.14100 43.76400
N  3.86200 -2.73000 45.18800
C  4.15800 -4.00500 45.70400
C  5.60500 -4.14900 45.85900
C  6.14600 -2.95100 45.39100
C  5.07000 -2.12100 44.95900
C  6.17300 -5.47200 46.28300
C  7.40000 -2.21000 45.19100
O  8.62700 -2.42700 45.37400
C  7.02800 -0.82800 44.51400
C  7.21500 0.30500 45.39300
O  7.02000 0.33600 46.61600
O  7.85300 1.37300 44.71000
C  8.23200 2.46200 45.57700
H  1.20100 1.97600 42.29700
H  -2.13800 -3.04000 44.92200
H  3.22100 -5.92600 46.20000
H  5.97300 1.39600 42.71600
H  3.65600 1.82800 41.14400
H  4.18500 3.90800 41.93400
H  5.00100 3.25000 43.25700
H  3.24200 3.27500 43.40500
H  5.05100 0.13800 40.27700
H  5.22700 -1.18100 41.29200
H  7.50600 -1.18200 40.95300
H  7.76900 0.29800 41.73400
H  -2.12200 1.47400 41.32900
H  -0.84900 2.51100 41.92500
H  -2.37800 2.24600 42.88800
H  -5.18800 -1.88700 43.39000
H  -4.24200 -1.82800 44.90800
H  -3.67900 -2.74000 43.41300
H  -1.54900 -5.20500 45.39000
H  0.84000 -5.91100 46.99500
H  -1.36900 -3.57800 47.65400
H  -0.90800 -5.29000 48.06700
H  -2.41900 -4.85600 47.10800
H  0.18200 -7.69000 45.82600
H  1.75400 -7.42300 44.93300
H  0.66400 -7.36100 42.92100
H  -0.53100 -6.21200 43.57700
H  -0.74800 -7.92600 43.78100
H  6.12900 -6.10400 45.39600
H  5.51100 -5.86000 47.05800
H  7.16900 -5.54700 46.72000
H  7.66100 -0.71700 43.63400
H  8.64200 3.33200 45.06600
H  8.96900 2.07700 46.28200
H  7.33200 2.78100 46.10400
Mg 30.00500 57.71400 41.34200
C  27.31100 55.94400 40.06700
C  32.15200 55.36100 40.09200
C  32.52000 59.89400 41.94500
C  27.71800 60.30000 42.19900
N  29.68300 55.80200 40.30000
C  28.52500 55.25700 39.89000
C  28.76400 53.87600 39.14700
C  30.22200 53.57800 39.63200
C  30.71800 54.99700 40.04400
C  30.51100 52.33700 40.55700
C  28.66900 53.84800 37.60700
C  29.29000 55.05800 36.84700
H  28.31700 55.97500 36.06200
N  31.99800 57.65600 41.03500
C  32.69600 56.54700 40.54500
C  34.10800 56.90200 40.51900
C  34.26500 58.21400 41.00800
C  32.88400 58.63200 41.37700
C  35.07800 55.91900 39.98800
C  35.51700 59.05300 41.08300
O  36.53700 58.48900 40.84700
C  35.58600 60.49000 41.35100
N  30.11200 59.76500 41.96500
C  31.26500 60.36800 42.25000
C  31.08100 61.84700 42.75200
C  29.53600 61.94800 42.79800
C  29.11400 60.61700 42.23200
C  31.66600 62.09100 44.18000
C  28.94400 63.18800 42.11900
C  29.22600 64.53800 42.88100
N  27.86400 58.05400 41.32400
C  27.09200 59.09300 41.70200
C  25.73200 58.84600 41.41800
C  25.74400 57.57400 40.82500
C  27.09100 57.19600 40.71500
C  24.61700 59.89800 41.58600
C  24.94900 56.54100 40.22100
O  23.71000 56.43300 40.04300
C  25.92500 55.47600 39.71300
C  25.53400 54.19500 40.37100
O  25.52200 54.06000 41.58400
O  25.13700 53.23100 39.48100
C  24.65100 51.92400 40.09000
H  32.75800 54.56200 39.66000
H  33.26600 60.61700 42.27900
H  26.93200 61.02000 42.43900
H  28.09600 53.12000 39.56100
H  30.88000 53.36800 38.78800
H  31.41400 52.46200 41.15500
H  30.90200 51.56500 39.89400
H  29.56200 52.06000 41.01500
H  27.59900 53.76500 37.41400
H  29.21400 52.97200 37.25500
H  29.91100 54.56600 36.09800
H  29.90900 55.65500 37.51700
H  36.14900 56.11000 39.92100
H  34.66900 55.29500 39.19300
H  35.09200 55.16300 40.77400
H  34.75600 60.94700 40.81100
H  36.57800 60.72500 40.96800
H  35.47300 60.72700 42.40900
H  31.49200 62.51900 41.99900
H  29.15800 61.96900 43.82000
H  32.46900 61.36500 44.30700
H  30.97600 62.13200 45.02300
H  32.14200 63.04100 43.93700
H  27.86300 63.08200 42.20700
H  29.35900 63.26100 41.11400
H  29.72300 64.44000 43.84600
H  28.25700 64.98200 43.10600
H  29.76500 65.19900 42.20200
H  23.67800 59.36800 41.74700
H  24.57600 60.59600 40.75000
H  24.68500 60.49600 42.49500
H  25.66600 55.39000 38.65700
H  25.30400 51.36300 40.75800
H  24.51400 51.24400 39.24900
H  23.71000 52.12200 40.60300

