158

Mg 17.61500 -1.71000 27.01400
C  16.89700 0.45800 29.73000
C  19.64000 -3.62200 29.00700
C  18.73000 -3.44100 24.31600
C  15.66500 0.32300 24.99700
N  18.12400 -1.54200 29.09800
C  17.67200 -0.65400 30.11000
C  18.08900 -1.09900 31.55100
C  19.08500 -2.30000 31.12800
C  18.93600 -2.55900 29.61700
C  20.61300 -2.18500 31.56300
C  16.90000 -1.44600 32.40100
C  17.00900 -1.24600 33.91600
H  18.18800 -0.54900 34.56900
N  18.90700 -3.35300 26.73500
C  19.64700 -4.03600 27.66700
C  20.34600 -5.15800 27.11100
C  20.10600 -5.13700 25.69300
C  19.26400 -3.92900 25.54300
C  21.16800 -6.20000 27.91000
C  20.64200 -6.13300 24.65800
O  20.37400 -6.04100 23.43200
C  21.51300 -7.35100 24.93300
N  17.29900 -1.46000 24.95400
C  17.92000 -2.27000 24.08000
C  17.49500 -1.82200 22.61000
C  16.34700 -0.83500 22.86300
C  16.37300 -0.60300 24.33800
C  18.68100 -1.28000 21.80200
C  14.91300 -1.27200 22.44000
C  14.12500 -2.25000 23.34000
N  16.40700 -0.02900 27.29900
C  15.65700 0.64300 26.37700
C  15.07100 1.76100 27.05900
C  15.53600 1.73400 28.37000
C  16.31300 0.60900 28.43200
C  14.11100 2.73300 26.49700
C  15.39300 2.38900 29.64300
O  14.65000 3.33100 29.96800
C  16.22300 1.51800 30.63000
C  17.21400 2.33700 31.44100
O  18.32800 2.71200 31.15800
O  16.54200 2.77300 32.60700
C  17.24100 3.62600 33.57400
H  20.10100 -4.27100 29.75500
H  19.09500 -3.90400 23.39600
H  15.09700 1.03300 24.39300
H  18.70800 -0.31500 31.98700
H  18.79600 -3.23000 31.61600
H  20.94000 -1.25300 32.02300
H  21.24800 -2.43700 30.71300
H  20.88700 -2.94100 32.29900
H  16.83100 -2.52300 32.24400
H  16.02300 -0.94200 31.99600
H  16.87300 -2.28300 34.22300
H  16.13600 -0.69200 34.26100
H  22.20100 -6.25700 27.56900
H  20.61600 -7.11900 27.71600
H  21.35900 -5.98300 28.96100
H  22.37800 -7.15000 25.56600
H  21.97300 -7.81000 24.05800
H  20.94600 -8.08000 25.51200
H  17.04800 -2.69900 22.14000
H  16.50400 0.12200 22.36600
H  18.37400 -0.82000 20.86200
H  19.35800 -2.12700 21.69200
H  19.20800 -0.45700 22.28400
H  15.06800 -1.81000 21.50400
H  14.37300 -0.37000 22.15300
H  13.31000 -1.68600 23.79300
H  14.71300 -2.69000 24.14600
H  13.67000 -3.00400 22.69700
H  13.65200 2.55400 25.52500
H  14.69300 3.65500 26.48200
H  13.35600 2.99600 27.23900
H  15.53500 1.06400 31.34300
H  16.85600 4.64500 33.55000
H  18.27200 3.78800 33.25900
H  17.16000 3.26100 34.59800
Mg 47.33600 24.78000 28.82600
C  47.84900 27.43500 31.17900
C  46.34400 22.76100 31.39700
C  46.95500 22.42800 26.46500
C  48.64700 27.00400 26.41200
N  47.14600 25.06600 31.02300
C  47.31200 26.24500 31.75100
C  46.94300 25.95800 33.15800
C  46.68200 24.37000 33.28000
C  46.74200 24.03700 31.80200
C  47.68500 23.51500 34.28900
C  45.77100 26.84400 33.61700
C  45.70700 27.43700 35.05300
H  46.17200 26.61800 36.26400
N  46.80400 22.89600 28.89300
C  46.38300 22.20000 30.06000
C  45.89800 20.89600 29.69600
C  46.19000 20.74600 28.34400
C  46.70300 22.03000 27.83500
C  45.22600 19.93300 30.66700
C  45.95100 19.56100 27.44800
O  46.48300 19.52300 26.31800
C  45.39800 18.37200 27.97000
N  48.03400 24.63900 26.67100
C  47.58400 23.62100 25.95800
C  47.79200 23.88500 24.43200
C  48.36200 25.37700 24.44000
C  48.34500 25.71000 25.93500
C  48.70300 22.70000 23.83000
C  47.46000 26.26200 23.45800
C  46.27000 27.06200 24.14900
N  48.14500 26.75200 28.74200
C  48.67300 27.49200 27.70900
C  49.04800 28.84700 28.18800
C  48.75400 28.79500 29.51200
C  48.16200 27.53300 29.82800
C  49.67900 30.00900 27.38200
C  48.74000 29.66400 30.68100
O  49.08200 30.85400 30.78200
C  48.04600 28.79900 31.79600
C  49.01500 28.69300 32.90600
O  50.17100 28.32500 32.85200
O  48.47000 29.03700 34.07500
C  49.37900 29.03100 35.23700
H  45.98500 22.17600 32.24700
H  46.73600 21.76700 25.62300
H  48.97300 27.61900 25.57100
H  47.81600 26.23700 33.74900
H  45.63900 24.26900 33.58100
H  48.56800 24.11600 34.50800
H  48.03900 22.58300 33.85000
H  47.15700 23.30500 35.22000
H  44.79900 26.37800 33.45300
H  45.72900 27.73000 32.98400
H  44.65900 27.65000 35.26000
H  46.09500 28.45500 35.09100
H  44.21600 19.66700 30.35700
H  45.11400 20.35100 31.66800
H  45.83300 19.02800 30.63800
H  44.40100 18.58900 28.35200
H  45.96200 18.01900 28.83300
H  45.30200 17.67800 27.13500
H  46.81300 23.83700 23.95500
H  49.37800 25.33400 24.04700
H  49.50100 23.09700 23.20300
H  48.07600 22.10700 23.16500
H  49.09200 21.99300 24.56300
H  47.13100 25.53700 22.71400
H  48.15800 26.96500 23.00500
H  46.34600 26.92100 25.22700
H  45.28200 26.89700 23.71800
H  46.39100 28.13700 24.01200
H  49.67400 29.58600 26.37700
H  50.70500 30.18100 27.70900
H  49.18200 30.97000 27.51000
H  47.17100 29.37900 32.09000
H  50.22300 29.68300 35.01300
H  49.88400 28.09300 35.46700
H  48.93400 29.43800 36.14500

