158

Mg 27.52500 49.69100 26.96600
C  25.58300 50.58400 29.75200
C  30.15800 49.15600 29.21800
C  29.51000 48.61200 24.39400
C  24.98000 50.45500 24.89100
N  27.77900 49.87400 29.24800
C  26.86400 50.20100 30.15900
C  27.26800 49.82400 31.59200
C  28.78300 49.56800 31.42900
C  28.93600 49.59100 29.86300
C  29.74100 50.65100 31.95400
C  26.44500 48.70400 32.29300
C  25.49500 49.11600 33.51100
H  25.80200 48.47000 34.87500
N  29.55600 48.99100 26.86300
C  30.45600 48.84400 27.86100
C  31.71700 48.19800 27.30400
C  31.60400 48.29500 25.88000
C  30.17200 48.63600 25.66000
C  32.84500 47.80300 28.19800
C  32.51600 48.01000 24.85200
O  32.28400 48.27000 23.63000
C  33.84200 47.48300 25.18300
N  27.33200 49.69000 24.99000
C  28.23200 49.10900 24.11800
C  27.68400 49.07300 22.66200
C  26.25500 49.62500 22.83000
C  26.19800 49.99400 24.36000
C  28.57700 49.82400 21.62700
C  25.04300 48.60900 22.48600
C  23.82000 49.20200 21.76500
N  25.67900 50.44800 27.18000
C  24.75800 50.74500 26.25500
C  23.60500 51.29400 26.85900
C  23.83100 51.20800 28.29500
C  25.11000 50.65900 28.40300
C  22.27300 51.70100 26.21600
C  23.30300 51.48400 29.66100
O  22.20300 51.80800 30.03600
C  24.49300 51.11800 30.66600
C  24.78300 52.33900 31.47100
O  25.62600 53.23900 31.29100
O  23.98200 52.20200 32.52700
C  24.08700 53.38300 33.41700
H  30.97800 49.05300 29.93200
H  30.07300 48.18800 23.56000
H  24.08300 50.73300 24.33400
H  27.10000 50.73800 32.16200
H  29.15200 48.56800 31.65700
H  29.24200 51.42600 32.53600
H  30.27400 51.08400 31.10800
H  30.45400 50.12000 32.58400
H  27.19400 48.07400 32.77200
H  25.92500 48.07400 31.57100
H  24.51700 48.76100 33.18600
H  25.25800 50.17600 33.60300
H  32.53800 47.55600 29.21400
H  33.51700 48.65900 28.26900
H  33.32600 46.88100 27.87000
H  34.20200 48.09100 26.01300
H  34.49100 47.58800 24.31300
H  33.78000 46.42900 25.45500
H  27.66800 48.03100 22.34500
H  26.19900 50.51600 22.20400
H  29.50800 50.15400 22.08700
H  28.13400 50.64200 21.05800
H  28.95800 49.07900 20.92800
H  24.68100 48.09000 23.37400
H  25.41700 47.89800 21.75000
H  24.04100 50.19600 21.37500
H  23.01200 49.43300 22.46000
H  23.42900 48.52300 21.00800
H  22.26500 51.38400 25.17300
H  22.15100 52.77400 26.37000
H  21.43700 51.28800 26.78000
H  24.06200 50.39100 31.35300
H  24.02700 54.39600 33.01800
H  24.95500 53.41400 34.07500
H  23.30400 53.41000 34.17400
Mg -12.78800 16.61300 42.16500
C  -9.94600 14.68900 41.36100
C  -11.35600 19.23000 40.81600
C  -15.95100 18.02900 42.31300
C  -14.37300 13.45400 42.96400
N  -10.87900 16.88300 40.95900
C  -9.89400 15.95800 40.80700
C  -8.64900 16.58600 40.13100
C  -9.03700 18.02700 40.17300
C  -10.52800 18.14000 40.74400
C  -8.10700 18.95200 40.92300
C  -8.14700 15.95100 38.79600
C  -6.68600 15.30100 38.78800
H  -5.77700 15.68600 37.60400
N  -13.51600 18.39400 41.63200
C  -12.76500 19.40700 41.13800
C  -13.61100 20.60100 40.98100
C  -14.91600 20.27900 41.45300
C  -14.86300 18.84500 41.82300
C  -13.05300 21.88400 40.36700
C  -16.07200 21.21700 41.42200
O  -15.97500 22.37200 41.01000
C  -17.40000 20.91200 42.00300
N  -14.88000 15.84200 42.63300
C  -15.95600 16.68600 42.62100
C  -17.22100 15.95000 42.81200
C  -16.75100 14.45100 43.09000
C  -15.24500 14.54200 42.83900
C  -17.99600 16.62400 43.98900
C  -17.36800 13.28700 42.17900
C  -18.40200 12.33500 42.88000
N  -12.24600 14.53900 42.39700
C  -13.01100 13.40000 42.71200
C  -12.07900 12.26400 42.85900
C  -10.85500 12.73700 42.38200
C  -11.03100 14.09300 42.05600
C  -12.40900 10.89800 43.35300
C  -9.46700 12.39800 42.13500
O  -8.84900 11.34500 42.39900
C  -8.83300 13.58300 41.35200
C  -7.55200 14.00700 42.04700
O  -7.37200 14.48700 43.13800
O  -6.47600 13.34100 41.39800
C  -5.20600 13.34100 41.99800
H  -10.78700 20.09200 40.46100
H  -16.93000 18.51300 42.27700
H  -14.79900 12.46200 43.12600
H  -7.87800 16.47400 40.89400
H  -9.08300 18.37800 39.14200
H  -8.65600 19.12000 41.85000
H  -8.03900 19.93500 40.45600
H  -7.11000 18.52000 41.00300
H  -8.15400 16.73700 38.04100
H  -8.88300 15.20000 38.51000
H  -6.97100 14.24900 38.76400
H  -6.21400 15.50600 39.74900
H  -13.63000 22.37800 39.58600
H  -12.09200 21.61400 39.93000
H  -12.77500 22.56100 41.17500
H  -17.36500 20.55300 43.03200
H  -17.81600 20.15900 41.33500
H  -18.01900 21.80500 41.91500
H  -17.81400 16.06900 41.90500
H  -16.92100 14.13100 44.11800
H  -17.56700 17.56700 44.32700
H  -18.11900 15.92400 44.81600
H  -18.97500 17.01700 43.71500
H  -16.57900 12.75100 41.65200
H  -17.92000 13.77800 41.37700
H  -18.05500 11.30300 42.93000
H  -19.40000 12.46600 42.46100
H  -18.43100 12.61100 43.93400
H  -11.48200 10.33200 43.26400
H  -13.21500 10.46300 42.76100
H  -12.64500 10.86200 44.41600
H  -8.59400 13.22200 40.35200
H  -5.11000 13.89300 42.93300
H  -4.54100 13.70700 41.21600
H  -4.80200 12.34300 42.16800

