158

Mg 24.56900 -6.11400 46.25300
C  26.38400 -3.51300 44.69000
C  22.05900 -5.52600 44.32200
C  23.33500 -9.00200 47.50500
C  27.75000 -6.94300 47.91000
N  24.25500 -4.66700 44.61500
C  25.15500 -3.71800 44.11900
C  24.53100 -2.95800 42.93900
C  23.07000 -3.42000 42.93100
C  23.09700 -4.59600 44.01900
C  22.02300 -2.25200 43.04900
C  25.41500 -3.21200 41.61000
C  25.96000 -1.90100 40.99900
H  25.41000 -1.62100 39.64100
N  22.83000 -7.02200 46.11100
C  21.86500 -6.61100 45.25600
C  20.71900 -7.43000 45.39200
C  20.99000 -8.49500 46.31700
C  22.40600 -8.19100 46.73900
C  19.49700 -7.03400 44.64700
C  20.06700 -9.56400 46.74300
O  18.88800 -9.66200 46.31800
C  20.51500 -10.66900 47.75100
N  25.47000 -7.76300 47.40000
C  24.67700 -8.83500 47.82300
C  25.59000 -9.97700 48.35600
C  26.94200 -9.30400 48.63700
C  26.76200 -7.92100 47.91500
C  25.13400 -10.72400 49.58700
C  28.24200 -10.10300 48.22800
C  29.52400 -9.91000 49.12800
N  26.61900 -5.37900 46.34100
C  27.71500 -5.79500 47.11900
C  28.70300 -4.78200 47.06800
C  28.24600 -3.88400 46.06100
C  26.90500 -4.26500 45.69900
C  29.98500 -4.83600 47.79400
C  28.68000 -2.80400 45.25300
O  29.74700 -2.22400 45.26700
C  27.48900 -2.45600 44.29600
C  26.96700 -1.08500 44.52400
O  26.22800 -0.72700 45.41800
O  27.51100 -0.23500 43.50800
C  26.90700 1.13200 43.51200
H  21.26900 -5.14800 43.66900
H  22.90200 -9.94400 47.84800
H  28.68400 -7.27400 48.36700
H  24.67600 -1.91600 43.22400
H  22.65600 -3.84000 42.01500
H  22.52800 -1.35900 42.67900
H  21.71800 -2.13100 44.08800
H  21.11200 -2.50100 42.50500
H  24.76900 -3.69200 40.87500
H  26.19300 -3.96000 41.76700
H  27.04300 -1.88500 40.87900
H  25.76400 -0.98300 41.55200
H  18.77000 -7.84500 44.60500
H  19.74600 -6.67100 43.65000
H  19.03300 -6.23900 45.23000
H  19.68600 -11.27600 48.11500
H  21.03500 -10.09500 48.51800
H  21.19000 -11.37700 47.27000
H  25.75800 -10.73800 47.59400
H  27.03100 -8.97800 49.67300
H  24.10300 -10.84400 49.92000
H  25.68600 -10.26800 50.41000
H  25.46900 -11.75100 49.44600
H  28.54400 -9.85000 47.21200
H  28.00300 -11.16600 48.26000
H  30.34800 -9.68800 48.45000
H  29.74800 -10.83900 49.65200
H  29.42300 -9.09500 49.84600
H  30.69000 -5.57600 47.41600
H  29.72200 -5.08600 48.82200
H  30.30600 -3.79700 47.73200
H  27.75700 -2.64700 43.25700
H  27.44800 1.71400 42.76600
H  27.06500 1.56700 44.49900
H  25.83400 1.22100 43.34300
Mg 27.26200 50.46800 25.55400
C  25.25800 51.82700 28.13800
C  29.47500 49.41800 28.05600
C  28.92500 49.07300 23.22600
C  24.90300 51.72300 23.23200
N  27.28100 50.56600 27.85900
C  26.34400 51.16700 28.64900
C  26.75300 50.95400 30.15300
C  28.16700 50.39800 30.13500
C  28.32300 50.11800 28.60500
C  29.24500 51.46500 30.58000
C  25.79800 49.99400 30.99800
C  25.01400 50.67100 32.16300
H  25.80200 51.03000 33.52200
N  29.04100 49.49500 25.60100
C  29.79300 49.12300 26.69800
C  30.94700 48.39300 26.16200
C  30.75700 48.11300 24.78600
C  29.57000 48.94100 24.46300
C  32.02900 47.81300 27.03800
C  31.40600 47.07800 23.87600
O  31.05200 46.91900 22.70100
C  32.36000 46.11400 24.40500
N  27.01500 50.46100 23.52700
C  27.78700 49.84300 22.68200
C  27.35800 49.86500 21.24300
C  25.86800 50.30600 21.32700
C  25.89900 50.88500 22.79100
C  28.22400 50.93600 20.46200
C  24.74200 49.26900 21.22100
C  25.11900 47.77100 21.05200
N  25.48400 51.59000 25.59100
C  24.65700 52.06500 24.59700
C  23.65400 52.90300 25.12400
C  23.78700 52.81900 26.49300
C  24.91700 51.97700 26.78100
C  22.60900 53.67100 24.43300
C  23.19400 53.20400 27.73500
O  22.19800 53.79800 28.03600
C  24.17600 52.63300 28.88200
C  24.73000 53.77000 29.69100
O  25.66000 54.50300 29.28400
O  24.00800 53.92400 30.81200
C  24.42800 54.97900 31.73500
H  30.23500 49.20000 28.81000
H  29.45900 48.73100 22.33600
H  24.14600 51.92100 22.47100
H  26.63600 51.91400 30.65400
H  28.42500 49.50100 30.69700
H  28.82400 52.38900 30.97800
H  29.78400 51.83600 29.70800
H  29.93100 50.99500 31.28400
H  26.29600 49.13500 31.44900
H  25.14900 49.53300 30.25300
H  24.27400 49.91900 32.43700
H  24.44000 51.56400 31.91600
H  33.00800 47.88000 26.56400
H  31.99700 46.73500 27.19900
H  32.11400 48.21200 28.04800
H  32.71300 45.53600 23.55100
H  31.70300 45.50300 25.02500
H  33.28400 46.49700 24.83700
H  27.45400 48.92500 20.70000
H  25.62500 51.17400 20.71300
H  27.70200 51.32100 19.58600
H  29.21200 50.59600 20.15300
H  28.24800 51.77700 21.15600
H  24.05200 49.48400 20.40500
H  24.11700 49.38900 22.10600
H  25.57700 47.55300 22.01600
H  25.78900 47.41500 20.27000
H  24.16500 47.24300 21.05400
H  21.96500 53.14100 23.73100
H  23.04600 54.56200 23.98200
H  22.02700 54.06500 25.26700
H  23.62000 52.14300 29.68200
H  25.39900 54.66200 32.11500
H  23.70100 55.13900 32.53100
H  24.71600 55.89500 31.21800

