158

Mg 25.06400 2.20700 30.44000
C  27.17300 2.18400 33.12500
C  22.41600 2.46200 32.50100
C  22.96400 1.99600 27.80500
C  27.74400 1.72200 28.31600
N  24.85800 2.19100 32.61900
C  25.83700 2.32000 33.50700
C  25.23700 2.76800 34.83100
C  23.71600 2.66000 34.60400
C  23.65500 2.43500 33.09300
C  23.06500 1.58600 35.55500
C  25.82900 4.10300 35.48200
C  26.12600 3.89000 37.01400
H  25.41500 4.84900 37.97800
N  23.01300 2.14200 30.17600
C  22.04900 2.24600 31.17600
C  20.75900 2.16900 30.61900
C  20.92100 2.06800 29.22600
C  22.34300 2.12200 28.99600
C  19.49500 2.30100 31.46500
C  19.88900 2.05200 28.13000
O  20.14300 1.75900 26.96700
C  18.43700 1.96300 28.54400
N  25.24700 1.64600 28.39700
C  24.28300 1.83300 27.49600
C  24.89100 1.86200 26.07100
C  26.41200 1.91900 26.22300
C  26.49600 1.76000 27.73100
C  24.33500 0.82100 25.01300
C  27.06300 3.24100 25.58000
C  26.72100 4.59600 26.24800
N  27.12300 1.83200 30.66900
C  28.10100 1.63000 29.72800
C  29.35500 1.45100 30.42900
C  29.06100 1.70800 31.75800
C  27.69800 1.97400 31.80600
C  30.66900 1.12900 29.74900
C  29.62100 1.76900 33.01900
O  30.77500 1.63700 33.38800
C  28.44200 2.21800 33.95600
C  28.32900 1.30100 35.12300
O  27.70500 0.23000 35.07900
O  28.93800 1.79800 36.25800
C  28.86800 1.14800 37.48400
H  21.51200 2.58300 33.10100
H  22.28400 1.97700 26.95100
H  28.56400 1.72900 27.59500
H  25.53500 1.92100 35.44900
H  23.29100 3.63800 34.83100
H  23.77800 1.27900 36.32000
H  22.74500 0.72100 34.97400
H  22.10900 1.97900 35.90000
H  25.24300 5.01200 35.35000
H  26.71400 4.25700 34.86300
H  27.19300 4.08100 37.12800
H  25.90600 2.89400 37.39800
H  18.88200 3.15300 31.17200
H  19.54600 2.29100 32.55400
H  19.04500 1.31400 31.35900
H  18.20300 2.77100 29.23700
H  18.28400 1.05600 29.12800
H  17.74000 2.03600 27.70900
H  24.63700 2.85200 25.69100
H  26.71000 1.03200 25.66500
H  23.68900 0.07400 25.47300
H  25.15400 0.28400 24.53500
H  23.78000 1.36000 24.24500
H  26.70900 3.29500 24.55100
H  28.15000 3.15600 25.58800
H  26.57700 4.45100 27.31900
H  25.93900 5.09000 25.67200
H  27.59100 5.22800 26.06700
H  31.46000 1.59200 30.33900
H  30.72200 1.58100 28.75800
H  30.84500 0.07300 29.54500
H  28.51300 3.22400 34.37000
H  27.82100 1.34200 37.71700
H  29.56000 1.55900 38.21900
H  29.06900 0.08200 37.37200
Mg 44.54900 4.36500 47.83900
C  42.49200 7.12800 47.35200
C  41.83400 2.29800 47.73800
C  46.60100 1.71800 48.02700
C  47.28900 6.53400 47.44000
N  42.43800 4.72500 47.42100
C  41.78700 5.88700 47.39300
C  40.37400 5.72700 47.05100
C  40.12200 4.22900 47.40800
C  41.60200 3.68200 47.69600
C  39.23700 4.08800 48.66200
C  40.06500 6.10600 45.55500
C  39.12200 7.36900 45.33000
H  39.52600 8.06700 44.06700
N  44.23200 2.28800 47.95700
C  43.07600 1.63100 47.86300
C  43.31900 0.22800 47.95600
C  44.67000 0.03400 48.17800
C  45.22700 1.33200 48.06700
C  42.28100 -0.90400 47.83000
C  45.39300 -1.31100 48.42600
O  44.75500 -2.36100 48.49100
C  46.85100 -1.43600 48.63900
N  46.66800 4.22800 47.76700
C  47.17500 2.98700 47.88800
C  48.78700 3.09600 47.93300
C  49.03700 4.60700 47.69600
C  47.62600 5.20200 47.65000
C  49.59800 2.63200 49.12800
C  50.06700 5.07300 46.61300
C  51.20600 6.02400 47.12400
N  44.90000 6.46400 47.49000
C  46.08900 7.20000 47.48700
C  45.76500 8.63900 47.45500
C  44.33800 8.68400 47.34100
C  43.92200 7.32600 47.36700
C  46.76000 9.79700 47.42800
C  43.18500 9.55800 47.29900
O  43.01300 10.78800 47.24400
C  41.96400 8.57300 47.39200
C  41.29700 8.83600 48.70200
O  41.36300 8.17200 49.69000
O  40.40000 9.89800 48.57000
C  39.41800 9.97000 49.59900
H  40.94800 1.66000 47.71900
H  47.36800 0.95200 48.15600
H  48.11800 7.23500 47.55800
H  39.87800 6.36300 47.78400
H  39.50700 3.68800 46.68900
H  38.54100 4.90400 48.85300
H  39.83700 3.86600 49.54500
H  38.59800 3.22400 48.47800
H  39.48100 5.29900 45.11100
H  40.96800 6.39200 45.01600
H  39.25200 7.96500 46.23400
H  38.07400 7.06900 45.32800
H  42.47700 -1.48700 46.93000
H  41.35200 -0.37100 47.62700
H  42.14000 -1.52000 48.71900
H  47.28000 -1.38000 47.63800
H  46.97400 -2.42200 49.08700
H  47.08700 -0.71200 49.42000
H  49.16500 2.53800 47.07600
H  49.24400 5.07800 48.65700
H  50.39000 3.25900 49.53900
H  50.14500 1.77200 48.74200
H  48.88400 2.34500 49.90100
H  49.53100 5.46000 45.74700
H  50.55600 4.14600 46.31300
H  52.14600 5.51800 47.34500
H  51.00900 6.40200 48.12800
H  51.41800 6.87600 46.47800
H  47.66000 9.66000 46.82800
H  47.20500 9.84500 48.42200
H  46.24900 10.72100 47.15800
H  41.37900 8.87500 46.52300
H  39.79700 10.04200 50.61800
H  38.68700 9.18400 49.41100
H  38.86700 10.90200 49.46900

