158

Mg 24.38300 -7.79400 46.83300
C  26.16500 -5.12800 45.39500
C  21.68000 -7.15200 44.78900
C  23.01800 -10.70000 47.76100
C  27.39400 -8.77600 48.28300
N  24.00200 -6.34100 45.30100
C  24.94700 -5.39300 44.81300
C  24.23500 -4.58700 43.65700
C  22.69800 -4.95000 43.79200
C  22.80500 -6.24700 44.64400
C  21.78700 -3.91300 44.42800
C  24.92100 -4.77500 42.22400
C  25.39100 -3.46000 41.59800
H  24.61600 -3.00200 40.36500
N  22.53200 -8.73500 46.41600
C  21.59700 -8.32600 45.51700
C  20.45500 -9.21600 45.56800
C  20.72200 -10.15700 46.56300
C  22.11700 -9.95100 46.95100
C  19.18000 -9.04700 44.62900
C  19.75600 -11.13300 47.01800
O  18.62500 -11.09100 46.60500
C  20.07000 -12.18600 47.99400
N  25.12800 -9.48200 47.74600
C  24.37000 -10.51000 48.07000
C  25.05500 -11.64600 48.84100
C  26.45100 -11.10000 49.00100
C  26.36200 -9.73500 48.25500
C  24.42900 -12.12500 50.18800
C  27.50700 -12.05900 48.47100
C  28.77300 -12.22400 49.33200
N  26.42100 -7.06800 46.90300
C  27.45600 -7.54200 47.61100
C  28.51400 -6.58300 47.57800
C  28.10800 -5.59300 46.70800
C  26.83200 -5.99200 46.24800
C  29.72100 -6.47800 48.55400
C  28.40700 -4.38000 46.06100
O  29.48000 -3.75400 46.01700
C  27.14400 -4.03900 45.16400
C  26.66000 -2.67300 45.29800
O  26.85600 -1.84600 44.40600
O  25.79600 -2.54200 46.34800
C  25.33400 -1.24300 46.65100
H  20.86100 -6.91000 44.10800
H  22.73100 -11.69600 48.10400
H  28.25200 -9.06300 48.89500
H  24.16200 -3.52000 43.86600
H  22.24200 -5.16500 42.82600
H  22.37100 -3.00700 44.59200
H  21.52500 -4.29600 45.41400
H  20.96100 -3.61500 43.78200
H  24.18900 -5.20000 41.53700
H  25.79900 -5.42100 42.22300
H  26.40800 -3.58300 41.22700
H  25.41700 -2.58000 42.24100
H  18.48700 -8.43500 45.20600
H  18.72000 -9.97900 44.29900
H  19.42600 -8.50900 43.71400
H  20.57500 -12.98600 47.45300
H  19.17400 -12.57300 48.47900
H  20.57800 -11.68200 48.81600
H  25.00100 -12.52600 48.20000
H  26.67400 -10.83300 50.03400
H  23.42900 -11.69000 50.19700
H  24.97600 -11.76000 51.05700
H  24.34000 -13.20200 50.32800
H  27.75300 -11.81800 47.43700
H  27.08100 -13.05900 48.54400
H  29.57200 -11.66800 48.84100
H  29.13200 -13.24000 49.49300
H  28.67200 -11.71900 50.29300
H  30.38000 -7.33100 48.39200
H  29.40900 -6.53400 49.59700
H  30.20100 -5.50900 48.41600
H  27.61600 -4.05100 44.18200
H  24.37500 -1.42400 47.13700
H  25.18200 -0.48300 45.88500
H  25.94100 -0.78000 47.42900
Mg 40.62300 8.05600 29.49800
C  42.64500 9.21200 32.31600
C  38.43400 7.05800 31.63400
C  39.17000 6.74800 26.78500
C  43.38500 8.99200 27.46000
N  40.67100 7.99600 31.79100
C  41.43000 8.68400 32.68500
C  40.70000 8.67600 34.07700
C  39.39900 7.95500 33.74900
C  39.44000 7.69900 32.29900
C  39.21500 6.75000 34.68800
C  40.49000 10.12300 34.71400
C  41.32700 10.34500 35.99900
H  41.16600 9.54900 37.22700
N  39.09800 7.03800 29.24200
C  38.20300 6.74700 30.27900
C  36.98500 6.09200 29.77000
C  37.23900 5.93700 28.40600
C  38.52900 6.61500 28.06800
C  35.90200 5.58600 30.73600
C  36.36000 5.41100 27.33700
O  36.56400 5.46400 26.14900
C  34.99700 4.89500 27.74700
N  41.19200 7.96000 27.39300
C  40.38000 7.43700 26.45000
C  40.90700 7.69900 25.05100
C  42.19100 8.53000 25.31000
C  42.31500 8.49700 26.79600
C  41.17000 6.30800 24.37200
C  42.18400 9.97000 24.64300
C  41.42100 11.01300 25.51500
N  42.66200 8.87900 29.78200
C  43.54900 9.31400 28.80700
C  44.63000 10.05300 29.36200
C  44.35000 10.01100 30.78000
C  43.14400 9.24100 30.99500
C  45.64800 10.84600 28.65900
C  44.81800 10.45500 32.05900
O  45.74900 11.11700 32.39200
C  43.74300 10.05600 33.09600
C  44.51200 9.23300 34.17100
O  44.79700 8.05800 34.11400
O  44.84600 10.03900 35.20200
C  45.37600 9.38200 36.39800
H  37.64700 6.80000 32.34600
H  38.71500 6.23500 25.93400
H  44.07900 9.44500 26.74900
H  41.33200 8.10300 34.75500
H  38.49600 8.54800 33.89700
H  39.50500 5.80900 34.22000
H  38.14200 6.65600 34.85600
H  39.82100 6.81500 35.59200
H  39.46100 10.22800 35.05600
H  40.80500 10.90000 34.01600
H  41.22600 11.38700 36.30200
H  42.39400 10.22800 35.80600
H  35.85700 4.49800 30.68100
H  35.07000 6.14000 30.30100
H  36.12300 5.94900 31.73900
H  35.25200 4.20500 28.55100
H  34.51700 4.35300 26.93200
H  34.45700 5.73400 28.18500
H  40.20500 8.33400 24.51000
H  43.04100 8.10500 24.77500
H  40.40600 5.54900 24.53900
H  42.11600 5.90600 24.73400
H  41.29700 6.44300 23.29700
H  41.76500 9.98400 23.63700
H  43.16700 10.37900 24.40900
H  41.12700 10.56000 26.46200
H  40.46300 11.32200 25.09600
H  42.08900 11.83800 25.76200
H  45.73000 11.83100 29.11800
H  45.54400 11.04100 27.59200
H  46.58500 10.32300 28.85200
H  43.32900 10.95000 33.56300
H  46.06100 8.54600 36.25500
H  44.59700 9.10900 37.11000
H  45.91100 10.07000 37.05300

