158

Mg 43.79500 4.57400 47.09700
C  41.83900 7.60000 46.54300
C  41.02300 2.82900 46.23000
C  45.84800 1.97000 46.77700
C  46.67700 6.78600 47.08000
N  41.68600 5.18100 46.38100
C  41.09900 6.39100 46.55600
C  39.59800 6.23600 46.49100
C  39.42200 4.67600 46.54500
C  40.81100 4.15600 46.38700
C  38.66800 4.17200 47.78700
C  38.82700 6.94200 45.25100
C  39.59600 7.08200 43.98600
H  39.07800 6.22800 42.81800
N  43.44300 2.60600 46.70200
C  42.24800 2.05500 46.34100
C  42.47900 0.70000 46.05800
C  43.78100 0.41000 46.45800
C  44.42700 1.66600 46.71500
C  41.40300 -0.25700 45.53600
C  44.46000 -1.01500 46.54800
O  43.90600 -1.93900 46.01200
C  45.71300 -1.16700 47.34300
N  45.94300 4.38000 46.87500
C  46.50900 3.16100 46.93000
C  48.07900 3.25900 46.95900
C  48.34900 4.81000 46.98500
C  46.89900 5.40800 47.01900
C  48.67900 2.51300 48.26300
C  49.23900 5.34300 45.76100
C  50.43200 4.54700 45.30700
N  44.25600 6.74100 46.93400
C  45.45400 7.44700 46.96700
C  45.18500 8.86900 46.76400
C  43.77300 8.97200 46.62700
C  43.26600 7.67000 46.69800
C  46.14400 10.05100 46.68700
C  42.62500 9.91200 46.62500
O  42.65000 11.11400 46.66900
C  41.38000 9.05800 46.46800
C  40.42300 9.25900 47.60800
O  40.59500 8.72200 48.71900
O  39.41200 10.05800 47.21400
C  38.32300 10.13900 48.17100
H  40.12800 2.20300 46.21400
H  46.57800 1.16800 46.64800
H  47.53200 7.46500 47.08100
H  39.21300 6.64900 47.42400
H  38.77800 4.33100 45.73600
H  39.31600 3.85900 48.60500
H  38.12100 3.29900 47.43000
H  38.08500 4.98300 48.22400
H  38.48900 7.86800 45.71700
H  37.85000 6.49500 45.06700
H  40.62000 6.72400 44.08400
H  39.55900 8.13800 43.72100
H  40.41500 0.20100 45.50100
H  41.30900 -1.11000 46.20900
H  41.72700 -0.56400 44.54200
H  45.87400 -0.57900 48.24700
H  46.57800 -1.03400 46.69400
H  45.73100 -2.18300 47.73700
H  48.48800 2.75700 46.08200
H  48.82200 5.01100 47.94500
H  47.83600 2.14500 48.84800
H  49.41000 3.03000 48.88400
H  49.17000 1.62200 47.87100
H  49.61500 6.33100 46.02500
H  48.50900 5.43300 44.95600
H  50.27300 4.05200 44.34900
H  50.63000 3.73800 46.01000
H  51.37600 5.09300 45.29300
H  45.74400 10.66300 47.49500
H  46.14900 10.64900 45.77600
H  47.15100 9.71100 46.93000
H  41.01900 9.33700 45.47800
H  38.56800 9.73100 49.15200
H  37.40600 9.93200 47.61800
H  38.12800 11.18300 48.41700
Mg 53.48600 24.33000 44.68400
C  50.72700 26.26000 44.16000
C  51.55200 21.58400 43.67800
C  56.26800 22.38500 44.20600
C  55.37300 27.06600 45.23100
N  51.32400 23.91700 44.07900
C  50.44500 24.95400 43.81500
C  49.11600 24.41300 43.19500
C  49.27100 22.95600 43.61700
C  50.79300 22.80300 43.76100
C  48.40100 22.60200 44.80500
C  49.10100 24.62600 41.68500
C  47.66700 24.83500 41.19500
H  47.41500 24.47700 39.74800
N  53.85400 22.28000 44.23800
C  52.92200 21.33400 43.86100
C  53.49500 20.10000 43.74200
C  54.83600 20.16400 43.99100
C  55.05200 21.65300 44.22200
C  52.66300 18.91500 43.36100
C  55.80100 19.13500 43.99900
O  55.52600 17.98800 43.64500
C  57.10800 19.42600 44.43100
N  55.58500 24.61000 44.61700
C  56.54500 23.72400 44.38100
C  57.96400 24.43900 44.34700
C  57.63700 25.91600 44.65700
C  56.14400 25.88600 44.91200
C  58.91100 23.78800 45.43000
C  57.90500 26.84000 43.38200
C  59.00300 27.95000 43.73500
N  53.10500 26.20600 44.89500
C  53.98300 27.22600 45.21900
C  53.21600 28.39600 45.50000
C  51.84300 28.09500 45.12000
C  51.89200 26.72000 44.67800
C  53.70900 29.74100 45.94300
C  50.59900 28.63100 44.85300
O  50.08300 29.71200 45.19100
C  49.81300 27.48300 44.22200
C  49.20200 27.96900 42.90600
O  49.70700 27.97600 41.76000
O  47.93600 28.33500 43.10100
C  47.22900 28.88900 41.91600
H  50.89300 20.74800 43.43300
H  57.10500 21.75700 43.89300
H  55.96500 27.94100 45.50700
H  48.22800 24.90800 43.58700
H  48.91400 22.42300 42.73500
H  47.68300 21.80400 44.61800
H  47.92900 23.48200 45.24300
H  49.10300 22.36200 45.60300
H  49.48300 23.73000 41.19700
H  49.72600 25.45700 41.35700
H  47.38500 25.88100 41.30900
H  47.00100 24.23600 41.81500
H  52.31000 18.85600 42.33100
H  51.84900 18.99400 44.08100
H  53.18500 17.96400 43.47300
H  57.79900 19.70400 43.63500
H  57.48900 18.43500 44.67800
H  57.20200 20.07600 45.30000
H  58.45400 24.30800 43.38200
H  58.09300 26.33100 45.55700
H  59.95100 23.81100 45.10500
H  58.61100 22.80500 45.79400
H  58.86800 24.40200 46.33000
H  56.97600 27.28300 43.02200
H  58.24000 26.25500 42.52600
H  59.81500 27.61500 44.38000
H  58.62100 28.74600 44.37500
H  59.40000 28.37000 42.81100
H  53.20500 30.62700 45.55800
H  54.76100 29.82700 45.66800
H  53.43700 29.89800 46.98700
H  48.94900 27.28300 44.85500
H  46.94200 27.95800 41.42600
H  47.74200 29.47200 41.15100
H  46.39800 29.50600 42.25600

