158

Mg -1.85500 17.41700 26.03600
C  -2.60500 15.14300 28.73400
C  -2.63900 19.96800 28.15900
C  -1.64500 19.38100 23.34800
C  -1.40400 14.60400 23.99100
N  -2.50900 17.50600 28.25600
C  -2.77300 16.46700 29.06600
C  -2.91000 17.05000 30.50000
C  -3.39100 18.54800 30.23300
C  -2.85500 18.71200 28.79700
C  -4.93400 18.63900 30.41700
C  -1.56500 17.08200 31.31000
C  -1.73000 17.48500 32.78000
H  -1.81300 16.38500 33.81900
N  -2.01800 19.40500 25.82100
C  -2.25200 20.31000 26.83100
C  -2.14200 21.70100 26.22700
C  -1.73900 21.52700 24.85900
C  -1.84000 20.06900 24.60800
C  -2.35000 23.01000 27.06700
C  -1.24900 22.51400 23.83300
O  -1.06300 22.25900 22.65900
C  -0.76200 23.86700 24.18600
N  -1.72200 17.01500 23.81600
C  -1.51700 18.04800 22.98600
C  -1.23500 17.55000 21.56600
C  -1.05500 16.00700 21.85500
C  -1.41900 15.82100 23.28600
C  -2.34100 17.85300 20.59100
C  0.38400 15.40100 21.57300
C  1.47600 16.01500 22.47700
N  -1.95600 15.36800 26.27000
C  -1.67700 14.39400 25.35900
C  -1.75500 13.05700 25.96100
C  -2.03600 13.30300 27.30500
C  -2.18700 14.71900 27.48100
C  -1.57700 11.74600 25.18000
C  -2.29600 12.65700 28.52700
O  -2.31100 11.47100 28.87200
C  -2.66600 13.82200 29.55200
C  -1.70800 13.59000 30.67200
O  -0.50900 14.01200 30.65600
O  -2.20700 12.78500 31.66500
C  -1.19800 12.26100 32.58300
H  -2.81800 20.79500 28.85000
H  -1.39500 19.90800 22.42400
H  -1.18600 13.75000 23.34600
H  -3.56500 16.46500 31.14500
H  -2.95300 19.24700 30.94600
H  -5.14200 19.52700 31.01500
H  -5.41700 17.75700 30.83700
H  -5.33100 18.83600 29.42100
H  -1.07700 17.92900 30.82700
H  -0.93200 16.20300 31.19200
H  -2.58400 18.15300 32.89000
H  -0.80300 17.99900 33.03200
H  -2.73600 22.93000 28.08300
H  -2.99400 23.50500 26.34000
H  -1.50400 23.68700 27.19000
H  -1.29200 24.39900 24.97600
H  -0.76300 24.62300 23.40000
H  0.22900 23.65500 24.58800
H  -0.30200 17.99400 21.21900
H  -1.69000 15.50600 21.12400
H  -2.99100 17.01000 20.35600
H  -2.01400 18.18000 19.60400
H  -3.05800 18.59900 20.93400
H  0.74200 15.48400 20.54700
H  0.24400 14.34800 21.81800
H  1.01000 16.78600 23.09000
H  2.22100 16.52700 21.86800
H  1.97000 15.22900 23.04800
H  -1.41700 10.92100 25.87300
H  -0.83300 11.75100 24.38400
H  -2.57500 11.66600 24.74700
H  -3.67100 13.58000 29.89900
H  -0.47000 12.97400 32.96900
H  -0.63200 11.39800 32.22900
H  -1.83800 11.84200 33.36000
Mg -11.61800 17.24300 42.23400
C  -8.12800 17.25300 42.58200
C  -11.57600 20.56800 41.56600
C  -14.90300 16.92800 41.48000
C  -11.42800 13.62500 42.29500
N  -10.04600 18.70100 42.17000
C  -8.69000 18.51200 42.26700
C  -7.92500 19.82900 42.02700
C  -9.11000 20.87000 42.24800
C  -10.32100 20.01600 41.94500
C  -9.08900 21.56300 43.65100
C  -7.35000 19.93200 40.62400
C  -5.81800 20.09100 40.60700
H  -5.01900 19.10500 39.85100
N  -13.09100 18.60100 41.67000
C  -12.84700 19.94800 41.47200
C  -14.08700 20.54300 41.17400
C  -15.13400 19.57000 41.14600
C  -14.41500 18.27200 41.39300
C  -14.19800 21.97500 40.86600
C  -16.61400 19.87100 40.95600
O  -16.99300 21.03800 40.83000
C  -17.65300 18.68000 40.83100
N  -12.93700 15.40200 41.55800
C  -14.23700 15.68600 41.61800
C  -15.09200 14.41900 41.88600
C  -13.96900 13.27900 41.98500
C  -12.72700 14.14100 42.05200
C  -16.05900 14.44700 43.09400
C  -13.91300 12.24800 40.80600
C  -14.13900 10.77000 41.24100
N  -10.10800 15.73000 42.38800
C  -10.20200 14.29500 42.43400
C  -8.84200 13.79100 42.63000
C  -8.05300 14.93200 42.78400
C  -8.84900 16.04200 42.60400
C  -8.34900 12.38300 42.64100
C  -6.66900 15.37800 43.14400
O  -5.68900 14.72300 43.38500
C  -6.69000 16.90900 43.06700
C  -6.39500 17.50100 44.38200
O  -6.89600 17.20000 45.46100
O  -5.44000 18.48600 44.21600
C  -5.30900 19.54900 45.20100
H  -11.51100 21.65700 41.51500
H  -15.96400 16.77200 41.27100
H  -11.31100 12.54200 42.37300
H  -7.11800 19.91700 42.75300
H  -9.15300 21.65500 41.49300
H  -8.24900 21.33900 44.30800
H  -9.92800 21.02000 44.08700
H  -9.19200 22.64700 43.69800
H  -7.80300 20.70500 40.00400
H  -7.55800 18.99500 40.10700
H  -5.39600 20.17800 41.60800
H  -5.65100 21.09800 40.22500
H  -14.31700 22.10900 39.79100
H  -13.32300 22.54600 41.17500
H  -15.03500 22.37000 41.44200
H  -18.59900 19.06900 40.45300
H  -17.90700 18.40600 41.85500
H  -17.34400 17.84900 40.19700
H  -15.72600 14.22300 41.02100
H  -13.96200 12.82800 42.97700
H  -16.32900 15.49200 43.24200
H  -15.63800 14.03200 44.00900
H  -16.98600 13.90800 42.89700
H  -12.93100 12.39000 40.35500
H  -14.58300 12.53800 39.99600
H  -13.35500 10.13700 40.82800
H  -15.06900 10.51700 40.73300
H  -14.35500 10.66900 42.30500
H  -8.76800 11.86400 41.78000
H  -8.91100 12.02200 43.50300
H  -7.26500 12.37100 42.75300
H  -5.93300 17.18900 42.33300
H  -5.03600 20.46800 44.68100
H  -4.63400 19.37100 46.03700
H  -6.25600 19.69200 45.72100

