158

Mg 48.14100 35.29900 26.86100
C  46.20800 33.99300 29.48100
C  48.54200 38.12700 28.70200
C  49.36400 36.60500 24.05600
C  47.16700 32.40100 24.95800
N  47.64900 35.87100 28.97500
C  46.96300 35.10800 29.88200
C  47.13800 35.65500 31.25900
C  47.61200 37.22400 30.98600
C  47.93300 37.08400 29.40600
C  46.63400 38.33100 31.44300
C  48.26800 34.77700 31.86600
C  48.21200 34.50600 33.30200
H  47.26300 35.36900 34.11800
N  48.86800 37.12100 26.39700
C  49.10800 38.14500 27.36100
C  49.89800 39.16900 26.70800
C  50.01700 38.81000 25.32100
C  49.36300 37.49400 25.16100
C  50.35400 40.40400 27.37900
C  50.71000 39.55400 24.20900
O  50.87400 39.13400 23.07800
C  51.22200 40.94500 24.46600
N  48.23400 34.61000 24.76700
C  48.86000 35.40600 23.79500
C  48.98200 34.64100 22.41700
C  48.50000 33.16400 22.83300
C  47.91200 33.38000 24.27100
C  48.35800 35.32900 21.20300
C  49.52400 31.96300 22.76600
C  49.56400 31.10600 21.46800
N  47.03700 33.54200 27.11700
C  46.61100 32.53400 26.24600
C  45.68500 31.65500 26.93500
C  45.44400 32.23000 28.16800
C  46.32100 33.32900 28.23100
C  45.13800 30.37800 26.35100
C  44.69300 32.14200 29.40400
O  43.78800 31.42500 29.74400
C  45.13300 33.34100 30.25200
C  45.49400 32.78100 31.57800
O  46.45300 32.17700 31.84800
O  44.41300 33.00400 32.40800
C  44.37800 32.33400 33.68700
H  48.86300 39.02700 29.23100
H  49.83600 37.10500 23.20800
H  47.02000 31.47300 24.40100
H  46.21200 35.57600 31.82900
H  48.57400 37.41300 31.46200
H  45.67500 37.95100 31.79600
H  46.44800 39.02300 30.62200
H  47.09300 38.78400 32.32200
H  49.19700 35.33300 31.73500
H  48.38300 33.78600 31.42700
H  49.23800 34.66400 33.63500
H  48.00400 33.44200 33.41400
H  50.25400 40.23300 28.45000
H  49.69400 41.23800 27.13800
H  51.41100 40.66000 27.30000
H  50.58700 41.59700 25.06500
H  51.19200 41.44600 23.49800
H  52.21900 40.85800 24.89700
H  50.04500 34.66100 22.17600
H  47.65500 32.82400 22.23400
H  47.59100 34.75000 20.68900
H  49.22100 35.55500 20.57800
H  47.94000 36.28400 21.52200
H  49.19800 31.24700 23.52000
H  50.46000 32.48900 22.95100
H  49.15000 30.11800 21.67000
H  50.62000 31.06300 21.20300
H  49.00700 31.50700 20.62200
H  44.37200 29.97700 27.01500
H  45.96700 29.67000 26.33500
H  44.72900 30.48200 25.34600
H  44.28600 34.00900 30.40400
H  45.29900 32.29800 34.26900
H  44.00100 31.32900 33.49800
H  43.62800 32.91900 34.21900
Mg -9.92700 39.77300 39.75100
C  -8.61100 36.60400 38.98600
C  -6.91400 41.16100 38.94000
C  -11.44300 42.91600 39.61700
C  -13.01500 38.33900 39.90800
N  -8.00900 38.90700 39.04500
C  -7.67900 37.60100 38.86900
C  -6.20200 37.50200 38.49300
C  -5.61700 38.92200 38.70800
C  -6.92000 39.74800 38.84800
C  -4.56100 39.12400 39.84800
C  -6.02500 36.98400 37.02200
C  -6.69700 37.79700 35.79700
H  -7.45400 37.05500 34.71300
N  -9.19500 41.80700 39.38400
C  -7.94400 42.13600 39.06200
C  -7.86900 43.55700 38.87700
C  -9.11400 44.09500 39.14000
C  -10.01700 42.93500 39.39600
C  -6.65300 44.26000 38.23700
C  -9.45600 45.65400 38.99700
O  -8.63100 46.52100 38.72600
C  -10.90700 46.15700 39.24000
N  -11.89800 40.52800 39.85800
C  -12.31000 41.82500 39.85500
C  -13.85300 42.00900 40.01500
C  -14.31400 40.54200 39.99300
C  -12.99100 39.74600 39.90000
C  -14.34400 42.80100 41.23600
C  -15.28500 40.25800 38.76700
C  -16.34600 39.12100 38.93700
N  -10.70600 37.78700 39.78700
C  -12.02500 37.39500 39.72000
C  -12.04400 35.94700 39.70200
C  -10.74800 35.57900 39.38400
C  -9.98300 36.77300 39.41700
C  -13.32900 35.11500 39.82500
C  -9.88800 34.45200 39.05500
O  -10.13200 33.27400 38.92200
C  -8.47400 35.10200 38.85700
C  -7.42000 34.50500 39.82200
O  -7.55600 34.35400 41.01900
O  -6.42300 34.01500 39.04200
C  -5.42900 33.06700 39.70100
H  -5.88500 41.51700 38.85700
H  -12.09300 43.79300 39.63700
H  -14.00600 37.89000 39.99600
H  -5.77200 36.71300 39.11000
H  -5.13900 39.26000 37.78900
H  -4.71500 40.16000 40.14900
H  -3.54000 38.94600 39.51000
H  -4.80900 38.41900 40.64100
H  -6.35300 35.96700 36.80400
H  -4.95000 37.03100 36.84900
H  -5.86800 38.22300 35.23100
H  -7.31300 38.64900 36.08400
H  -6.69400 44.51000 37.17700
H  -5.72900 43.68500 38.28600
H  -6.54400 45.13900 38.87200
H  -11.33200 45.72400 40.14600
H  -11.53600 45.74000 38.45300
H  -11.09800 47.22600 39.14700
H  -14.11600 42.62800 39.15800
H  -14.82000 40.31500 40.93100
H  -14.87000 42.25100 42.01600
H  -14.96400 43.68200 41.07100
H  -13.46800 43.27100 41.68400
H  -14.69000 40.11400 37.86600
H  -15.86000 41.16600 38.58400
H  -17.32500 39.59900 38.91600
H  -16.21500 38.62400 39.89800
H  -16.32800 38.36500 38.15200
H  -14.05900 35.60700 39.18200
H  -13.68200 35.02300 40.85200
H  -13.25300 34.05400 39.58700
H  -8.14000 34.79100 37.86700
H  -5.80200 32.09800 39.36700
H  -5.30200 32.94700 40.77700
H  -4.52600 33.07000 39.09000

