158

Mg 7.15700 1.68900 28.15700
C  8.96400 0.51200 30.89900
C  5.66300 4.01900 30.22500
C  5.55000 2.96900 25.49100
C  8.40400 -0.85900 26.18000
N  7.36500 2.27600 30.26200
C  8.00500 1.52000 31.26100
C  7.81800 2.11700 32.68700
C  6.51700 3.04800 32.39000
C  6.48800 3.12100 30.88000
C  5.20000 2.39100 33.02600
C  9.04500 2.83400 33.28900
C  9.49100 2.43900 34.70700
H  9.92100 3.57200 35.65900
N  5.81200 3.30600 27.86200
C  5.38300 4.15500 28.86100
C  4.58300 5.18500 28.25700
C  4.65400 5.00700 26.84500
C  5.37800 3.71300 26.67000
C  3.90400 6.35100 28.94200
C  4.08600 5.88800 25.66100
O  4.13800 5.51400 24.54000
C  3.20100 7.20800 25.89100
N  6.93600 1.02100 26.16100
C  6.26400 1.77700 25.24900
C  6.38600 1.11300 23.80800
C  7.45100 -0.06000 24.05300
C  7.49000 -0.05000 25.53900
C  5.06700 0.60800 23.12900
C  8.83100 0.20000 23.43700
C  9.50500 -0.96900 22.65900
N  8.39600 0.17800 28.40500
C  8.83000 -0.77900 27.49600
C  9.90800 -1.56700 28.15300
C  9.96100 -1.14600 29.46800
C  8.99600 -0.10300 29.60500
C  10.77700 -2.56500 27.45800
C  10.64500 -1.28200 30.70000
O  11.55000 -2.04700 30.92600
C  10.01000 -0.29000 31.73100
C  9.52200 -0.99300 32.94800
O  8.60300 -1.84100 32.83400
O  10.19900 -0.58300 34.05900
C  9.42100 -0.90200 35.26800
H  5.20400 4.75100 30.89300
H  5.16000 3.23900 24.50700
H  8.79400 -1.75900 25.70000
H  7.47000 1.24200 33.23700
H  6.52600 4.10100 32.67300
H  4.78000 3.13000 33.70700
H  5.43200 1.44000 33.50600
H  4.55100 2.17800 32.17700
H  8.77100 3.88900 33.31000
H  9.90200 2.62700 32.64900
H  10.39000 1.82500 34.66400
H  8.67500 1.90500 35.19400
H  4.24000 7.30100 28.52600
H  4.21600 6.38300 29.98600
H  2.82300 6.21600 28.92000
H  3.09300 7.77100 24.96400
H  3.58000 7.86200 26.67700
H  2.23300 6.82800 26.21600
H  6.77500 1.95100 23.22900
H  7.22800 -1.04100 23.63400
H  4.55600 0.21800 24.00900
H  5.13500 -0.14000 22.34000
H  4.49400 1.45300 22.74500
H  9.54900 0.40300 24.23200
H  8.88700 1.09800 22.82200
H  10.32800 -1.32200 23.28000
H  9.94800 -0.53300 21.76300
H  8.91900 -1.85700 22.41800
H  11.28000 -2.07800 26.62300
H  10.32900 -3.50900 27.15100
H  11.71800 -2.78700 27.96100
H  10.73500 0.47600 32.00900
H  10.00300 -0.73000 36.17300
H  8.97700 -1.89500 35.19700
H  8.57100 -0.24600 35.45900
Mg -11.35500 37.40800 42.64900
C  -9.20900 34.76900 41.72600
C  -9.00300 39.66600 41.29600
C  -13.59500 39.79300 42.95500
C  -13.75500 34.99200 43.44900
N  -9.50800 37.26200 41.57000
C  -8.85300 36.05200 41.27000
C  -7.53600 36.27700 40.38100
C  -7.26800 37.83000 40.63000
C  -8.70700 38.33000 41.20400
C  -6.11300 38.14500 41.60500
C  -7.68200 35.83200 38.88100
C  -6.75200 34.68300 38.37800
H  -5.91100 35.01200 37.11900
N  -11.21600 39.48300 42.35800
C  -10.21600 40.17700 41.79200
C  -10.58900 41.60600 41.71700
C  -11.91600 41.70000 42.11400
C  -12.33100 40.29700 42.50300
C  -9.68000 42.65100 41.24700
C  -12.68100 43.02200 41.95500
O  -12.12800 44.07800 41.63100
C  -14.18300 42.99500 42.18100
N  -13.38600 37.39400 43.21300
C  -14.06000 38.54800 43.36400
C  -15.53200 38.33400 43.91200
C  -15.61700 36.78000 43.98900
C  -14.20300 36.33100 43.52700
C  -15.93600 39.06300 45.20100
C  -16.69500 36.05600 43.17500
C  -17.47900 34.90900 43.90300
N  -11.47100 35.30800 42.63800
C  -12.45800 34.49900 43.05500
C  -11.97600 33.14700 43.10400
C  -10.65000 33.24100 42.63400
C  -10.43200 34.57400 42.22800
C  -12.72300 31.86300 43.65000
C  -9.45400 32.45800 42.33100
O  -9.20700 31.25300 42.51100
C  -8.45900 33.37900 41.66100
C  -7.14300 33.28100 42.38000
O  -6.21900 32.69400 41.85000
O  -7.12500 33.92900 43.60000
C  -5.81800 34.13000 44.16000
H  -8.22600 40.42400 41.18200
H  -14.25900 40.63300 43.16900
H  -14.49900 34.28300 43.82000
H  -6.68900 35.67600 40.71100
H  -7.05000 38.28700 39.66500
H  -5.29100 38.46200 40.96400
H  -5.85900 37.25600 42.18200
H  -6.35200 38.98200 42.26100
H  -7.53500 36.63400 38.15800
H  -8.68900 35.46900 38.67600
H  -7.26900 33.72500 38.32300
H  -6.08100 34.46900 39.21000
H  -8.60700 42.54900 41.08600
H  -9.70700 43.54500 41.87100
H  -10.17100 42.83400 40.29100
H  -14.71200 43.80600 41.67900
H  -14.45600 42.92300 43.23300
H  -14.66400 42.10500 41.77600
H  -16.20400 38.79900 43.19000
H  -15.68300 36.55900 45.05400
H  -14.97900 39.33000 45.65000
H  -16.54200 38.40600 45.82500
H  -16.42800 40.02100 45.03200
H  -16.29000 35.78600 42.20000
H  -17.44300 36.80500 42.91400
H  -18.51700 35.23200 43.98500
H  -16.98700 34.68400 44.84900
H  -17.32600 33.99300 43.33200
H  -12.50200 31.54000 44.66700
H  -12.41100 31.10400 42.93200
H  -13.79600 32.04800 43.58600
H  -8.28400 33.01600 40.64800
H  -5.13500 33.36900 43.78300
H  -5.86600 34.09400 45.24800
H  -5.39100 35.12100 44.00000

