158

Mg 44.39800 2.61000 46.94600
C  42.48500 5.43700 47.08900
C  41.55600 0.64800 46.62200
C  46.38200 -0.12800 46.62800
C  47.23100 4.63900 46.84700
N  42.31200 2.98400 46.65900
C  41.74600 4.23700 46.81300
C  40.25900 4.11800 46.59900
C  39.85400 2.66900 46.58500
C  41.33400 2.03200 46.61700
C  39.06700 2.21800 47.84800
C  39.86300 4.71500 45.20500
C  38.59100 5.56900 45.15200
H  37.80400 5.43400 43.80800
N  43.97100 0.51800 46.81000
C  42.75500 -0.06400 46.74000
C  42.94800 -1.53000 46.61200
C  44.38100 -1.75300 46.45800
C  44.95700 -0.40300 46.65500
C  41.79800 -2.49700 46.38000
C  45.00800 -3.24900 46.24400
O  44.35600 -4.31200 46.27900
C  46.53300 -3.40700 46.09500
N  46.47100 2.29400 46.72400
C  47.06000 1.09300 46.58800
C  48.59700 1.11700 46.39500
C  48.86700 2.68600 46.43100
C  47.44300 3.28300 46.76300
C  49.31700 0.32500 47.50700
C  49.52000 3.44400 45.21200
C  50.98900 3.75300 45.41500
N  44.82400 4.62900 46.83400
C  46.02800 5.36300 46.90600
C  45.75400 6.74500 47.07200
C  44.36300 6.79600 47.13600
C  43.83900 5.51100 47.07800
C  46.74800 7.88700 46.99100
C  43.26600 7.74900 47.23300
O  43.23300 8.93700 47.35100
C  41.92800 6.80700 47.32500
C  41.15900 6.96800 48.60100
O  41.54800 6.95200 49.75400
O  39.85700 7.10200 48.27000
C  38.96700 7.40200 49.38100
H  40.65300 0.07000 46.41200
H  47.08500 -0.96100 46.56400
H  48.08700 5.31100 46.94700
H  39.69600 4.60800 47.39400
H  39.33000 2.36200 45.68000
H  38.25300 2.92600 48.00000
H  39.71500 2.23800 48.72400
H  38.62800 1.22700 47.73200
H  39.78800 3.87200 44.51800
H  40.64700 5.35100 44.79600
H  38.86800 6.60900 45.32600
H  38.01900 5.15000 45.97900
H  41.58700 -2.61500 45.31700
H  40.88600 -1.97700 46.67500
H  41.81000 -3.42200 46.95700
H  46.97400 -2.99700 47.00400
H  46.99300 -2.75000 45.35600
H  46.87900 -4.40800 45.83900
H  48.87800 0.76000 45.40400
H  49.40600 2.96700 47.33600
H  48.77900 0.41800 48.45000
H  50.33500 0.69600 47.63100
H  49.33800 -0.68200 47.08800
H  49.04500 4.39200 44.95900
H  49.33200 2.76900 44.37700
H  51.28300 3.81700 46.46300
H  51.07000 4.74100 44.96100
H  51.39100 2.87900 44.90300
H  47.71500 7.59900 46.57900
H  46.87800 8.22600 48.01900
H  46.32300 8.63900 46.32700
H  41.22800 7.07300 46.53300
H  39.37100 8.20000 50.00200
H  38.76300 6.46700 49.90300
H  38.04700 7.78700 48.94000
Mg 15.46600 51.72500 25.08400
C  17.47200 50.79800 27.88500
C  12.85700 52.18700 27.27800
C  13.52500 52.42200 22.41000
C  17.85400 50.43000 23.00700
N  15.25400 51.61000 27.30300
C  16.24200 51.30400 28.27700
C  15.70200 51.68900 29.66300
C  14.14100 51.83200 29.40100
C  14.07100 51.87700 27.90400
C  13.26700 50.74100 29.96900
C  16.46000 52.89700 30.17100
C  16.47100 53.24900 31.69500
H  15.67600 52.34000 32.66100
N  13.49000 52.34500 24.86600
C  12.56100 52.35500 25.84600
C  11.26800 52.68100 25.38200
C  11.40700 52.64900 23.97200
C  12.85000 52.48600 23.69300
C  10.07600 52.87400 26.24700
C  10.36900 52.70200 22.85400
O  10.56400 52.78700 21.64900
C  8.88900 52.66500 23.28200
N  15.68900 51.56600 23.00100
C  14.79500 52.05100 22.11600
C  15.44300 52.19400 20.72100
C  16.80100 51.36500 20.89400
C  16.77200 51.02400 22.35700
C  14.70600 51.66400 19.45700
C  18.13000 51.96800 20.37100
C  18.77000 51.37000 19.18000
N  17.33300 50.86600 25.38200
C  18.16700 50.36500 24.43600
C  19.33500 49.78300 25.08200
C  19.11200 49.89700 26.44800
C  17.87900 50.56500 26.58000
C  20.46200 49.07000 24.34200
C  19.58400 49.56500 27.72000
O  20.61000 49.01800 28.06600
C  18.57100 50.19600 28.73400
C  18.10500 49.09900 29.48900
O  17.27700 48.28400 29.19600
O  18.74900 49.16800 30.71700
C  18.46800 48.23500 31.79900
H  12.06000 52.26600 28.02000
H  13.01700 52.72500 21.49200
H  18.63000 50.07000 22.32900
H  15.90100 50.92500 30.41500
H  13.83100 52.81300 29.76000
H  12.72900 51.21100 30.79200
H  13.93300 49.91800 30.22900
H  12.62900 50.42800 29.14300
H  16.07700 53.77800 29.65600
H  17.48300 52.68900 29.85600
H  16.20300 54.30300 31.77400
H  17.51800 53.06700 31.93700
H  10.43700 53.28100 27.19200
H  9.50000 51.95800 26.38200
H  9.41700 53.66900 25.89900
H  8.91900 51.75200 23.87600
H  8.35900 52.31700 22.39500
H  8.67000 53.56000 23.86300
H  15.66100 53.24300 20.52200
H  16.69900 50.36100 20.48100
H  15.31600 50.97900 18.86900
H  14.48000 52.50500 18.80100
H  13.82000 51.11100 19.76800
H  18.83100 52.20700 21.17100
H  17.89800 52.95900 19.98100
H  18.83200 52.06200 18.34100
H  18.19000 50.54100 18.77600
H  19.76700 50.96000 19.34700
H  20.97500 49.79800 23.71400
H  20.03200 48.29200 23.71200
H  21.08100 48.62000 25.11900
H  19.16300 50.89700 29.32300
H  19.04900 48.39900 32.70700
H  18.64800 47.22200 31.44000
H  17.43800 48.26200 32.15500

