158

Mg 8.70000 4.34500 27.83300
C  9.98200 2.41300 30.45900
C  6.62000 6.03000 29.99900
C  7.17200 5.55600 25.25700
C  10.25700 1.77000 25.70300
N  8.29800 4.14800 29.96300
C  9.05000 3.39400 30.87800
C  8.76800 3.90300 32.31400
C  7.71100 5.06700 32.10500
C  7.44600 5.05400 30.58600
C  6.45200 4.81600 32.92100
C  10.07300 4.42000 32.97100
C  9.95800 5.26400 34.31500
H  10.12300 4.52500 35.65100
N  7.26600 5.82600 27.67500
C  6.44200 6.34500 28.64900
C  5.66100 7.37800 28.02800
C  5.91800 7.39500 26.61900
C  6.85600 6.22100 26.43400
C  4.66900 8.21900 28.83400
C  5.42200 8.33300 25.50000
O  5.79800 8.23300 24.35000
C  4.49000 9.41600 25.88000
N  8.62900 3.66000 25.80400
C  7.98000 4.45500 24.98800
C  8.06500 3.85500 23.54000
C  9.13300 2.71000 23.64800
C  9.28000 2.73400 25.15600
C  6.76400 3.50400 22.89800
C  10.45600 2.92500 22.89200
C  11.05800 1.59200 22.33000
N  9.99800 2.55000 27.96400
C  10.48900 1.64900 27.07100
C  11.45600 0.77900 27.66800
C  11.28200 1.00100 29.07000
C  10.31700 2.06900 29.16500
C  12.38200 -0.15600 27.02000
C  11.64300 0.57300 30.36200
O  12.33700 -0.35000 30.75400
C  10.90400 1.57400 31.31200
C  10.12500 0.76800 32.28000
O  9.05800 0.26500 31.99300
O  10.78400 0.65000 33.47200
C  10.02600 0.02000 34.53000
H  6.02200 6.59000 30.72100
H  6.55300 6.04400 24.50200
H  10.67800 1.05800 24.99000
H  8.43300 3.00500 32.83300
H  8.06100 6.07000 32.35100
H  5.63500 5.01000 32.22600
H  6.39500 5.39000 33.84500
H  6.25700 3.75600 33.08600
H  10.59900 5.07600 32.27700
H  10.75200 3.57900 33.11000
H  9.09500 5.92700 34.37100
H  10.78200 5.96800 34.19700
H  5.10000 9.20500 29.00600
H  4.53000 7.71600 29.79100
H  3.74800 8.35600 28.26700
H  4.29900 10.00000 24.98000
H  5.07000 9.99600 26.59700
H  3.53600 9.20700 26.36400
H  8.38600 4.63900 22.85400
H  8.66300 1.76600 23.37300
H  5.94400 3.62800 23.60600
H  7.00400 2.52500 22.48500
H  6.57500 4.05100 21.97400
H  11.18700 3.39000 23.55400
H  10.29100 3.66400 22.10800
H  12.00300 1.46600 22.85900
H  11.29100 1.72600 21.27400
H  10.35100 0.80700 22.60000
H  13.02900 0.41700 26.35600
H  11.89100 -0.94500 26.45100
H  13.06800 -0.68700 27.68100
H  11.75100 2.14100 31.70000
H  9.77500 0.84900 35.19200
H  10.67400 -0.59600 35.15300
H  9.26100 -0.69500 34.22700
Mg 55.17200 23.15800 44.63100
C  52.77700 25.43100 43.81300
C  53.20300 20.57500 43.52500
C  57.86700 21.09800 44.65300
C  57.27000 25.91400 45.65500
N  53.31200 22.97500 43.66200
C  52.46600 24.10300 43.45100
C  51.02600 23.67400 42.97900
C  51.04800 22.13500 43.34700
C  52.57800 21.81000 43.55000
C  50.19500 21.58400 44.50300
C  50.83600 23.87800 41.46600
C  49.50500 24.14100 40.91900
H  49.30800 23.82700 39.39100
N  55.46700 21.09600 44.18400
C  54.58200 20.20100 43.65000
C  55.12000 18.94400 43.53100
C  56.39900 19.03200 44.11000
C  56.65500 20.48500 44.37000
C  54.33000 17.78200 42.92000
C  57.26200 17.80500 44.48300
O  56.91100 16.67800 44.15200
C  58.56400 17.95600 45.24000
N  57.25500 23.44500 45.16700
C  58.13900 22.41200 45.03800
C  59.58600 22.83000 45.41500
C  59.35900 24.35700 45.95100
C  57.89800 24.66200 45.52800
C  60.38000 22.01900 46.43600
C  60.39700 25.30200 45.36000
C  61.35000 25.84200 46.46400
N  54.99300 25.23400 44.86100
C  55.86600 26.25800 45.27100
C  55.16200 27.54000 45.34200
C  53.91200 27.24700 44.80400
C  53.91600 25.87100 44.46300
C  55.80000 28.81900 45.92800
C  52.69200 27.81600 44.30700
O  52.41400 28.99200 44.31400
C  51.85800 26.66400 43.68900
C  51.67000 27.08600 42.33200
O  52.53900 27.00200 41.45200
O  50.35500 27.39600 42.12400
C  49.98600 28.04500 40.85200
H  52.49000 19.79700 43.24600
H  58.74700 20.45200 44.60100
H  57.81300 26.79600 46.00300
H  50.22900 24.09600 43.59200
H  50.78300 21.61800 42.42400
H  49.93400 22.37800 45.20300
H  50.67500 20.82400 45.12100
H  49.27400 21.23600 44.03600
H  51.41800 23.12000 40.94200
H  51.42200 24.79200 41.37700
H  49.26500 25.18700 41.10900
H  48.86300 23.50500 41.52800
H  53.63100 18.20600 42.19800
H  53.78800 17.24800 43.70100
H  55.06500 17.11100 42.47600
H  59.36700 18.28800 44.58300
H  58.98100 17.04500 45.67000
H  58.36400 18.50400 46.16100
H  60.19400 22.93700 44.51600
H  59.43500 24.35500 47.03900
H  61.26600 21.61200 45.94700
H  59.81900 21.17500 46.83800
H  60.55000 22.59800 47.34300
H  59.85600 26.04000 44.76900
H  61.03000 24.79100 44.63500
H  62.31000 25.33200 46.37600
H  61.02300 25.66600 47.48900
H  61.40900 26.93000 46.48900
H  56.39400 29.28100 45.14000
H  56.49800 28.58300 46.73200
H  54.96500 29.46500 46.19700
H  50.97400 26.51300 44.30900
H  50.80500 28.49300 40.28900
H  49.18600 28.77500 40.97800
H  49.62400 27.15900 40.33100

