158

Mg 47.72800 25.17900 28.70400
C  48.59000 27.48400 31.21000
C  47.21400 22.76800 31.16700
C  47.36600 22.78900 26.30700
C  49.02800 27.36900 26.37100
N  47.94100 25.16900 30.95400
C  48.13700 26.26500 31.74400
C  47.82800 25.96200 33.18400
C  47.49900 24.48200 33.15200
C  47.61300 24.00400 31.65400
C  48.40400 23.62800 34.11100
C  46.78300 26.93800 33.80200
C  47.25200 27.79300 35.02300
H  46.18800 28.05500 36.06900
N  47.17800 23.11800 28.74500
C  47.02400 22.36100 29.85800
C  46.48500 21.09200 29.38800
C  46.60700 21.01400 27.98400
C  47.05100 22.34500 27.62000
C  45.97200 20.12700 30.40800
C  46.33600 19.85800 27.04700
O  46.57000 19.89100 25.85100
C  45.73400 18.63400 27.61000
N  48.06700 25.08800 26.60000
C  47.86200 23.99500 25.82100
C  48.26100 24.24900 24.38100
C  48.69900 25.80900 24.40100
C  48.60700 26.13000 25.84200
C  49.37900 23.33400 23.84300
C  47.74100 26.77700 23.64400
C  48.36400 28.11700 23.03900
N  48.55000 27.08900 28.72700
C  49.05500 27.86100 27.68100
C  49.54300 29.08900 28.18800
C  49.42500 28.94400 29.58400
C  48.79900 27.73800 29.87300
C  50.23900 30.16500 27.43000
C  49.67800 29.71800 30.81600
O  50.26800 30.79100 31.07700
C  49.17400 28.70900 31.93300
C  50.28600 28.38500 32.85500
O  51.10700 27.47600 32.76500
O  50.16900 29.15300 33.93700
C  51.16400 28.80200 35.02900
H  46.97100 22.03900 31.94200
H  47.20200 22.09000 25.48400
H  49.37200 28.05900 25.59800
H  48.83800 26.12500 33.56200
H  46.45300 24.31800 33.41300
H  47.83200 23.49800 35.03000
H  49.34500 24.13700 34.32200
H  48.57900 22.62400 33.72600
H  45.86300 26.45700 34.13500
H  46.56300 27.62400 32.98400
H  47.58100 28.78600 34.71400
H  48.08800 27.30000 35.51900
H  44.94900 19.88900 30.11500
H  45.91500 20.36900 31.46900
H  46.57400 19.22400 30.50500
H  46.42100 17.86500 27.96200
H  45.36700 18.04500 26.77000
H  44.92000 18.83900 28.30500
H  47.37600 24.24200 23.74500
H  49.73100 26.01200 24.11500
H  49.51600 22.39900 24.38700
H  50.34300 23.82800 23.72400
H  49.23400 23.08100 22.79200
H  47.01000 27.08200 24.39300
H  47.17000 26.24400 22.88500
H  47.75000 28.38500 22.17900
H  49.43200 27.98000 22.87300
H  48.23800 28.87100 23.81600
H  49.53600 30.99700 27.44900
H  50.42200 29.87500 26.39600
H  51.09600 30.55500 27.97900
H  48.38300 29.26700 32.43400
H  52.20400 28.66800 34.73200
H  50.98500 27.85100 35.53100
H  51.19200 29.64200 35.72300
Mg 49.66900 45.12600 42.88700
C  46.47800 45.84900 41.63400
C  49.39100 41.99200 41.45000
C  53.00400 44.75900 43.02400
C  50.06200 48.56600 43.41500
N  48.17900 44.13500 41.57700
C  46.94200 44.59100 41.22600
C  46.03500 43.51700 40.62400
C  46.91800 42.27700 40.85900
C  48.22900 42.82800 41.31900
C  46.26600 41.32800 42.01600
C  45.75000 43.81300 39.14600
C  44.41900 43.16400 38.63300
H  44.40300 42.16700 37.43400
N  51.00200 43.55200 42.58700
C  50.70800 42.33100 42.01000
C  51.84200 41.48700 41.95100
C  52.95600 42.24500 42.41400
C  52.32700 43.57600 42.74400
C  51.72000 40.06600 41.60500
C  54.40000 41.79700 42.65300
O  54.66500 40.65300 42.51600
C  55.45800 42.75700 43.17500
N  51.31400 46.40600 43.36600
C  52.55300 46.01900 43.30200
C  53.53400 47.17100 43.65200
C  52.60600 48.44200 43.81300
C  51.19100 47.82900 43.51900
C  54.53900 46.86900 44.78400
C  52.84600 49.64100 42.87700
C  52.94700 50.98000 43.50800
N  48.45400 46.89600 42.92000
C  48.75000 48.18400 43.07500
C  47.56600 49.03800 42.83400
C  46.60600 48.09600 42.36300
C  47.23200 46.83400 42.33700
C  47.51800 50.44100 42.98800
C  45.20500 47.93200 41.91500
O  44.16600 48.61600 41.98500
C  45.02700 46.40600 41.57000
C  44.26700 45.79800 42.60900
O  44.62700 45.76800 43.78800
O  43.16200 45.20200 42.11200
C  42.38100 44.34900 43.00500
H  49.16100 40.99000 41.08100
H  54.09400 44.81800 43.00900
H  50.19000 49.63100 43.62200
H  45.04500 43.39700 41.06500
H  47.02000 41.79300 39.88700
H  45.23100 41.61900 42.19400
H  46.80300 41.39800 42.96200
H  46.36400 40.27700 41.74200
H  46.50900 43.31900 38.54000
H  45.73200 44.89800 39.03600
H  43.73800 43.99400 38.44500
H  43.96500 42.61000 39.45500
H  52.41000 39.39400 42.11500
H  51.97500 39.99900 40.54700
H  50.69000 39.71300 41.63700
H  55.63000 43.41400 42.32200
H  56.37800 42.26200 43.48700
H  55.05400 43.30300 44.02800
H  54.22800 47.46400 42.86400
H  52.49400 48.67200 44.87200
H  54.54200 47.69100 45.50000
H  55.55200 46.97300 44.39500
H  54.45800 45.88400 45.24400
H  52.07600 49.61200 42.10600
H  53.71200 49.44500 42.24500
H  52.03700 51.49800 43.20600
H  53.79100 51.40600 42.96600
H  52.91300 50.94100 44.59700
H  47.53400 50.78400 44.02200
H  46.69300 50.87500 42.42300
H  48.41200 50.86100 42.52700
H  44.43800 46.33700 40.65500
H  41.33500 44.62300 42.87100
H  42.59100 44.45000 44.07000
H  42.46900 43.30200 42.71800

