158

Mg 34.57500 2.97400 29.70400
C  32.52100 4.09100 32.27800
C  37.28200 3.37200 31.79800
C  36.49200 2.62500 26.95500
C  31.70700 3.31000 27.49900
N  34.90400 3.76600 31.78300
C  33.89900 4.05400 32.69000
C  34.40600 4.04100 34.13000
C  35.95400 4.00400 33.86800
C  36.07500 3.60300 32.40200
C  36.70600 5.31100 34.26000
C  33.88400 2.77800 34.91800
C  33.53200 3.04500 36.46600
H  34.16800 4.30600 37.14300
N  36.58900 2.76300 29.47700
C  37.51000 3.01800 30.45100
C  38.86400 2.90500 29.90800
C  38.67100 2.72800 28.48400
C  37.17100 2.66300 28.23500
C  40.15700 3.15800 30.76200
C  39.63200 2.62600 27.30100
O  39.35700 2.41300 26.10800
C  41.13300 2.73400 27.63200
N  34.08900 2.87400 27.49900
C  35.12500 2.88100 26.58400
C  34.59800 2.94800 25.17700
C  33.03800 2.83900 25.36100
C  32.89100 2.99900 26.83100
C  35.12700 4.24100 24.45500
C  32.39700 1.52000 24.89500
C  32.36200 0.26500 25.78200
N  32.57300 3.44000 29.76600
C  31.47700 3.47000 28.87500
C  30.31500 3.99000 29.52600
C  30.62500 4.07700 30.90900
C  32.00600 3.85100 30.94500
C  28.95200 4.12700 28.98000
C  30.08200 4.38600 32.19500
O  28.96400 4.73900 32.47600
C  31.35500 4.40300 33.15400
C  31.46100 5.77300 33.76000
O  32.09000 6.70000 33.31700
O  30.76000 5.83000 34.86700
C  30.86900 7.10100 35.66300
H  38.15200 3.47000 32.45100
H  37.06300 2.64000 26.02500
H  30.81000 3.57400 26.93500
H  34.17700 5.03200 34.52200
H  36.40600 3.24800 34.51000
H  37.51600 4.89800 34.86200
H  36.15500 5.95900 34.94200
H  37.00200 5.85600 33.36300
H  34.61600 1.97900 34.79700
H  33.00400 2.47100 34.35200
H  33.88500 2.16700 37.00600
H  32.45800 3.03400 36.65100
H  40.17200 4.24100 30.88300
H  41.07100 2.69300 30.39400
H  39.87800 2.64900 31.68500
H  41.22800 3.68400 28.15700
H  41.60000 2.68500 26.64800
H  41.57400 1.99000 28.29500
H  34.85500 2.11300 24.52500
H  32.58500 3.76400 25.00500
H  34.65900 5.15900 24.81000
H  35.10700 4.17100 23.36700
H  36.17900 4.33600 24.72200
H  32.76300 1.18800 23.92300
H  31.33700 1.70800 24.72600
H  33.21300 0.22600 26.46200
H  32.33700 -0.64400 25.18100
H  31.47600 0.27200 26.41700
H  28.20700 3.93400 29.75300
H  28.84600 3.38600 28.18800
H  28.70700 5.09900 28.55300
H  31.11600 3.59500 33.84500
H  31.86100 7.26800 36.08200
H  30.26700 7.02400 36.56900
H  30.46800 7.94200 35.09600
Mg 2.35800 41.67300 25.42400
C  4.59300 41.75400 28.12000
C  -0.07000 40.74100 27.68000
C  0.31500 41.13500 22.78700
C  4.92700 42.35400 23.21500
N  2.23600 41.38500 27.72600
C  3.26100 41.56700 28.61900
C  2.79700 41.53500 30.08800
C  1.28300 40.99200 29.96200
C  1.11400 40.97700 28.33600
C  1.17900 39.55000 30.64500
C  2.79900 42.95500 30.68400
C  2.31300 43.25900 32.17700
H  2.26500 42.15500 33.22500
N  0.42900 41.07500 25.28900
C  -0.39200 40.74500 26.36300
C  -1.63600 40.34400 25.80000
C  -1.55500 40.35600 24.38800
C  -0.22400 40.93100 24.08800
C  -2.70800 39.78700 26.71600
C  -2.58200 40.01400 23.34900
O  -2.41700 40.32300 22.14600
C  -3.93300 39.34500 23.69200
N  2.51100 41.82400 23.29200
C  1.55300 41.71700 22.46900
C  2.01500 42.03700 21.03200
C  3.47600 42.55500 21.21500
C  3.67700 42.30500 22.66700
C  1.82700 40.91100 19.97300
C  3.76200 44.09100 20.80500
C  4.04100 44.37100 19.32800
N  4.32800 41.97800 25.54300
C  5.24600 42.30500 24.61100
C  6.55300 42.40000 25.18600
C  6.35100 42.09400 26.50500
C  4.95500 41.86100 26.72600
C  7.76400 42.93500 24.48100
C  7.00300 42.00100 27.79700
O  8.22500 41.97100 28.07700
C  5.86400 41.91200 28.94800
C  6.10000 40.83900 29.94000
O  5.79900 39.66200 29.80500
O  6.43600 41.31000 31.16600
C  6.34700 40.56400 32.42900
H  -0.85900 40.53300 28.40500
H  -0.30500 40.92600 21.91300
H  5.72400 42.72200 22.56500
H  3.45600 40.86600 30.64200
H  0.55700 41.69200 30.37800
H  0.81000 38.83600 29.91000
H  0.40900 39.57400 31.41700
H  2.11200 39.17200 31.06300
H  2.15400 43.60700 30.09600
H  3.78600 43.39700 30.55100
H  1.36800 43.80100 32.13100
H  3.04500 44.00900 32.47900
H  -2.23500 39.17500 27.48500
H  -3.50500 39.20900 26.24800
H  -3.11700 40.70400 27.14000
H  -4.38600 39.20100 22.71100
H  -4.43900 40.02000 24.38300
H  -3.57100 38.42200 24.14400
H  1.45000 42.91600 20.72400
H  4.18900 41.94100 20.66400
H  2.79400 40.74700 19.49800
H  1.06500 41.13100 19.22500
H  1.43900 40.01300 20.45500
H  4.66800 44.42300 21.31300
H  3.01400 44.71600 21.29200
H  4.03800 43.44200 18.75800
H  5.08500 44.67000 19.24400
H  3.37700 45.13000 18.91200
H  8.60100 42.29500 24.75900
H  7.95700 43.90900 24.93200
H  7.85700 42.96200 23.39500
H  5.92200 42.84500 29.50900
H  5.63800 39.74200 32.32400
H  5.95400 41.14600 33.26300
H  7.33900 40.18600 32.67200

