158

Mg -2.58800 17.28800 26.36500
C  -2.76000 14.90100 29.02900
C  -3.23500 19.65300 28.67900
C  -2.64200 19.44300 23.92100
C  -2.46600 14.65500 24.06700
N  -2.76800 17.26300 28.73000
C  -2.85600 16.18700 29.52400
C  -3.41000 16.58000 30.87600
C  -3.72600 18.11300 30.73100
C  -3.24600 18.36500 29.30400
C  -5.22600 18.53100 30.92100
C  -2.46400 16.25500 32.12600
C  -2.56300 16.99600 33.42600
H  -2.59100 16.25000 34.72300
N  -2.79200 19.33100 26.28400
C  -3.04600 20.12500 27.33100
C  -3.24900 21.51400 26.83600
C  -3.02500 21.44200 25.41500
C  -2.76900 20.02100 25.17100
C  -3.44900 22.75100 27.70100
C  -2.86700 22.57100 24.44100
O  -2.41100 22.34200 23.31700
C  -3.06400 24.02500 24.72700
N  -2.85600 17.05800 24.32300
C  -2.71100 18.11400 23.53700
C  -2.48300 17.67100 22.08800
C  -2.30200 16.15100 22.13000
C  -2.44300 15.94300 23.62200
C  -3.56400 18.04800 21.05500
C  -1.04300 15.59100 21.41700
C  0.27800 15.57400 22.20700
N  -2.55900 15.22100 26.42200
C  -2.51600 14.29500 25.39700
C  -2.47500 12.93700 25.96300
C  -2.61200 13.17300 27.32800
C  -2.66500 14.58800 27.59200
C  -2.47900 11.66200 25.19200
C  -2.76700 12.47800 28.59500
O  -2.76100 11.25600 28.74900
C  -2.81000 13.55200 29.69300
C  -1.66200 13.32500 30.62600
O  -0.59900 13.91400 30.59500
O  -2.07000 12.56400 31.63100
C  -0.93500 12.17500 32.47800
H  -3.29800 20.49600 29.37000
H  -2.51400 20.05500 23.02600
H  -2.41400 13.83600 23.34700
H  -4.32700 15.99100 30.86700
H  -3.05000 18.72600 31.32600
H  -5.75700 18.08300 31.76100
H  -5.81800 18.46300 30.00800
H  -5.22100 19.57300 31.24200
H  -1.44600 16.21300 31.73800
H  -2.77000 15.25900 32.44300
H  -3.43400 17.63200 33.27100
H  -1.71800 17.68300 33.47100
H  -3.64600 22.53200 28.75100
H  -4.35900 23.26400 27.39100
H  -2.67600 23.51400 27.61400
H  -4.08200 24.29800 25.00600
H  -3.00200 24.49300 23.74400
H  -2.35000 24.37200 25.47300
H  -1.48400 18.06600 21.90800
H  -3.14300 15.61300 21.69200
H  -3.41800 17.42600 20.17200
H  -3.39800 19.06700 20.70600
H  -4.55300 17.86600 21.47500
H  -0.86500 16.34100 20.64700
H  -1.30500 14.62400 20.98800
H  0.23000 15.80000 23.27200
H  0.91200 16.27300 21.66200
H  0.68400 14.56900 22.09400
H  -1.42800 11.43000 25.02400
H  -2.90100 11.78600 24.19400
H  -3.06700 10.91900 25.73100
H  -3.70000 13.50000 30.32100
H  0.04700 11.94900 32.06300
H  -1.22100 11.28200 33.03300
H  -0.84700 12.95800 33.23200
Mg 0.80900 8.04200 25.34100
C  1.47500 9.77700 28.20000
C  1.32600 5.03900 27.00300
C  0.46100 6.25700 22.41300
C  1.03300 10.96700 23.46600
N  1.53600 7.52600 27.27300
C  1.44900 8.40800 28.33000
C  1.42900 7.74700 29.69200
C  1.72400 6.30600 29.32100
C  1.57200 6.23800 27.74000
C  3.04600 5.78200 30.02600
C  0.06400 7.99000 30.50400
C  0.26400 8.15600 31.98800
H  1.33300 7.40800 32.66300
N  0.85800 5.96200 24.77100
C  1.03200 4.90800 25.62600
C  0.96500 3.72800 24.81700
C  0.57400 4.01200 23.50400
C  0.53600 5.46200 23.51600
C  1.27100 2.40800 25.37300
C  0.14800 3.10000 22.34700
O  -0.20500 3.47300 21.21200
C  0.07300 1.63400 22.55700
N  0.81500 8.56200 23.21200
C  0.67600 7.66100 22.22500
C  0.67100 8.36400 20.84400
C  0.69900 9.86800 21.09400
C  0.75500 9.85200 22.66200
C  1.83500 7.84300 19.98800
C  -0.39700 10.76800 20.47900
C  -1.85000 10.43700 21.15300
N  1.18200 9.91200 25.68700
C  1.22400 10.99400 24.85000
C  1.49400 12.19400 25.62200
C  1.61000 11.77100 26.95500
C  1.45400 10.33800 26.91300
C  1.59400 13.66300 25.29700
C  1.88000 12.16300 28.29700
O  2.23100 13.26200 28.73100
C  1.61400 10.89300 29.22900
C  2.82100 10.72700 30.11100
O  3.91200 10.37600 29.73000
O  2.44100 11.11400 31.35800
C  3.39600 11.09100 32.49900
H  1.66800 4.17500 27.57600
H  0.31000 5.75900 21.45300
H  0.96200 11.95000 22.99700
H  2.24500 8.17300 30.27600
H  0.91100 5.72100 29.75100
H  3.80200 6.42600 30.47500
H  3.51300 5.08300 29.33200
H  2.77300 5.17300 30.88800
H  -0.62700 7.18800 30.24500
H  -0.30400 8.95800 30.16300
H  -0.73300 8.03300 32.41000
H  0.42800 9.23400 32.00300
H  0.38200 1.81700 25.14900
H  1.35200 2.49000 26.45600
H  2.13900 2.05800 24.81500
H  1.00000 1.36200 23.06100
H  0.22000 1.13600 21.59900
H  -0.76900 1.37700 23.19800
H  -0.24400 8.06600 20.33200
H  1.63600 10.32700 20.77700
H  2.47600 8.68400 19.72500
H  1.44100 7.53500 19.02000
H  2.39900 7.06200 20.49800
H  -0.39500 10.69300 19.39200
H  -0.13000 11.80100 20.70100
H  -2.33800 9.98600 20.29000
H  -2.35800 11.37700 21.36800
H  -1.75900 9.71100 21.96100
H  1.63200 13.77700 24.21400
H  2.46800 14.16000 25.71700
H  0.75800 14.23800 25.69700
H  0.70300 11.05100 29.80600
H  4.18900 10.39100 32.23200
H  2.95700 10.78000 33.44700
H  3.84300 12.05700 32.73400

