158

Mg 9.18100 3.04400 27.59700
C  10.74500 1.52300 30.36600
C  7.22700 4.80600 29.70800
C  7.65100 4.35900 24.79700
C  10.95200 0.88700 25.43200
N  8.97900 3.10800 29.80900
C  9.81500 2.53400 30.75900
C  9.52900 3.12900 32.16500
C  8.29100 4.02600 31.92900
C  8.10400 3.95900 30.41000
C  7.00100 3.69700 32.66100
C  10.76200 3.73000 32.90200
C  10.37200 4.52800 34.19100
H  11.05400 4.25600 35.52700
N  7.61900 4.49900 27.33600
C  6.95400 5.12100 28.38800
C  5.97900 6.07300 27.70600
C  6.26700 6.05000 26.28200
C  7.18300 4.92800 26.09800
C  4.95000 6.75200 28.50700
C  5.68800 6.90100 25.21300
O  5.73700 6.70200 24.02800
C  4.92000 8.02000 25.71900
N  9.19800 2.52700 25.45800
C  8.50600 3.29100 24.53000
C  8.75400 2.86600 23.06500
C  9.96600 1.79700 23.29800
C  10.06500 1.76300 24.81800
C  7.54800 2.28700 22.27300
C  11.40400 2.05800 22.72500
C  12.05800 1.07100 21.64800
N  10.55000 1.49500 27.80100
C  11.17700 0.72400 26.84400
C  12.12300 -0.15200 27.50000
C  11.92500 0.05500 28.87300
C  10.94600 1.09300 29.03000
C  12.96400 -1.28900 26.92300
C  12.35200 -0.37000 30.18900
O  13.15900 -1.25200 30.52800
C  11.74800 0.70900 31.24700
C  11.08800 0.02100 32.38800
O  10.37500 -0.96300 32.32600
O  11.47400 0.53400 33.60500
C  10.88600 -0.08300 34.77200
H  6.79400 5.56000 30.36900
H  7.09200 4.69500 23.92100
H  11.57000 0.19700 24.85300
H  9.20600 2.24200 32.71000
H  8.35900 5.09600 32.12100
H  6.75600 4.42900 33.43100
H  7.00900 2.66700 33.01600
H  6.15300 3.68200 31.97600
H  11.21600 4.40200 32.17400
H  11.38000 2.89700 33.23900
H  9.29600 4.45200 34.34600
H  10.51900 5.59000 33.99600
H  3.94800 6.41300 28.24300
H  5.15500 7.82300 28.52300
H  5.07500 6.52200 29.56500
H  4.01100 7.63100 26.17800
H  4.53100 8.70500 24.96600
H  5.54500 8.46400 26.49400
H  9.07800 3.73800 22.49600
H  9.64000 0.87400 22.81800
H  6.58900 2.34400 22.78800
H  7.64600 1.21000 22.13700
H  7.42500 2.84700 21.34500
H  12.10900 2.14500 23.55100
H  11.36500 3.07100 22.32400
H  11.32500 0.48100 21.09800
H  12.80600 0.38400 22.04500
H  12.50800 1.71700 20.89500
H  12.54400 -2.22800 27.28400
H  14.01000 -1.31600 27.22600
H  12.95400 -1.29100 25.83300
H  12.55700 1.26800 31.71900
H  9.82400 -0.30400 34.66100
H  10.90700 0.62100 35.60400
H  11.37600 -1.01300 35.06100
Mg 48.90300 46.46200 44.11800
C  45.66400 46.63000 42.84500
C  49.36100 43.54100 42.58500
C  52.11500 46.56100 45.09700
C  48.73900 49.99400 44.69400
N  47.60400 45.30500 42.82100
C  46.34800 45.46900 42.40900
C  45.86600 44.24800 41.64900
C  47.02600 43.29500 41.62700
C  48.07600 44.10300 42.31400
C  46.66800 41.92100 42.32300
C  45.27700 44.57500 40.25300
C  43.72400 44.54200 40.02800
H  43.17000 43.80400 38.80300
N  50.45200 45.21800 43.91600
C  50.44700 44.02200 43.27000
C  51.76900 43.37500 43.34500
C  52.48100 44.09800 44.31000
C  51.72000 45.39200 44.49500
C  52.13400 42.14400 42.65300
C  53.90000 43.85900 44.74600
O  54.56800 42.90800 44.35400
C  54.59200 44.64900 45.81200
N  50.29400 48.12900 44.61800
C  51.52200 47.85500 45.10000
C  52.26700 49.12700 45.66300
C  51.19400 50.25400 45.30600
C  50.01900 49.40600 44.88400
C  52.45500 49.00800 47.22700
C  51.57000 51.19200 44.10400
C  50.78100 52.47000 43.72000
N  47.52300 47.92900 43.81000
C  47.57300 49.32500 44.09000
C  46.26400 49.88700 43.89500
C  45.45800 48.81300 43.45600
C  46.30800 47.71600 43.31900
C  45.80700 51.28400 44.18400
C  44.14200 48.40700 43.04200
O  43.05300 48.99800 42.94800
C  44.14000 46.92100 42.63500
C  43.16800 46.17200 43.47800
O  43.43700 45.63400 44.52900
O  41.90800 46.23600 42.88300
C  40.72900 45.63300 43.55300
H  49.35100 42.51600 42.20800
H  53.05100 46.61300 45.65600
H  48.59600 51.03800 44.98000
H  45.05800 43.78700 42.21700
H  47.38200 42.99200 40.64200
H  45.60700 41.81200 42.54500
H  47.21500 41.81600 43.26100
H  47.00100 41.24100 41.54000
H  45.83300 44.01700 39.49900
H  45.54300 45.60700 40.02500
H  43.47700 45.58900 39.85200
H  43.16200 44.32100 40.93400
H  52.87100 42.47400 41.92200
H  51.33100 41.54000 42.23000
H  52.61900 41.47500 43.36400
H  54.01900 44.87900 46.71000
H  54.90800 45.60200 45.38700
H  55.34900 43.95000 46.16700
H  53.22100 49.11800 45.13600
H  50.91900 50.93600 46.11200
H  52.97600 48.08300 47.47200
H  51.46400 49.08700 47.67300
H  52.98800 49.88000 47.60500
H  51.61500 50.49500 43.26700
H  52.61300 51.47000 44.25500
H  49.95200 52.67900 44.39600
H  50.21500 52.31600 42.80100
H  51.46300 53.30500 43.56000
H  46.06000 51.52200 45.21700
H  44.77000 51.56800 44.00300
H  46.33300 51.95200 43.50100
H  43.96600 46.84700 41.56200
H  40.02500 45.42600 42.74800
H  40.24700 46.25800 44.30500
H  41.12900 44.69100 43.92900

