158

Mg 40.21100 8.13800 28.80900
C  42.08800 9.35100 31.64700
C  38.33400 6.30100 31.15600
C  38.62400 6.65600 26.25800
C  42.41900 9.56400 26.72000
N  40.24600 7.81200 31.17200
C  40.97600 8.58000 32.03100
C  40.48900 8.35800 33.51000
C  39.35200 7.27900 33.30800
C  39.24200 7.11400 31.78500
C  39.60600 5.88100 33.98900
C  40.01600 9.66000 34.25100
C  39.60600 9.51900 35.72000
H  40.40200 10.42100 36.64500
N  38.61800 6.73600 28.71000
C  38.00800 6.09000 29.81000
C  37.02300 5.18700 29.24900
C  37.04800 5.25500 27.78400
C  38.11600 6.25600 27.50600
C  36.12000 4.40400 30.03100
C  36.17400 4.61200 26.70900
O  36.38100 4.84400 25.54200
C  35.17300 3.56900 27.06800
N  40.42000 8.17200 26.76600
C  39.71900 7.48500 25.88900
C  40.04500 7.87000 24.45100
C  41.21800 8.91800 24.66800
C  41.35200 8.91700 26.12000
C  40.42200 6.78800 23.47000
C  40.98600 10.30600 24.06600
C  40.20900 11.46500 24.86600
N  41.96400 9.14600 29.10600
C  42.78800 9.75900 28.12200
C  43.84200 10.45600 28.78400
C  43.52900 10.39600 30.15500
C  42.41000 9.56500 30.30000
C  45.05500 11.12300 28.17900
C  44.06600 10.81900 31.41600
O  45.08200 11.44600 31.66000
C  43.13800 10.12100 32.46600
C  43.94400 9.19300 33.39000
O  44.70300 8.32300 33.03800
O  43.59000 9.41100 34.68600
C  44.44500 8.69200 35.60200
H  37.59000 5.93900 31.86900
H  38.14200 6.28900 25.34900
H  43.08700 10.05900 26.01200
H  41.32100 7.98700 34.10900
H  38.35500 7.62100 33.58700
H  39.68400 5.12300 33.21000
H  38.70500 5.64200 34.55400
H  40.47200 5.79300 34.64600
H  39.11400 9.98200 33.73100
H  40.78500 10.41000 34.06600
H  39.82500 8.51800 36.09100
H  38.53300 9.69600 35.80300
H  36.10900 4.44700 31.12000
H  36.32600 3.35600 29.81200
H  35.10200 4.63900 29.72100
H  34.19700 3.86300 27.45400
H  35.57100 2.89000 27.82200
H  35.13200 3.04000 26.11600
H  39.19700 8.41900 24.04100
H  42.11600 8.50800 24.20600
H  41.03200 7.28700 22.71600
H  39.59400 6.23900 23.02100
H  41.05700 6.05600 23.96800
H  40.47900 10.19200 23.10700
H  41.98500 10.65600 23.80700
H  39.51700 11.91000 24.15200
H  40.84100 12.24000 25.30000
H  39.52500 11.07900 25.62200
H  44.83100 11.43700 27.15900
H  45.90900 10.45000 28.25300
H  45.16900 12.01200 28.79900
H  42.76100 10.94000 33.07700
H  43.94900 8.75400 36.57100
H  45.48500 9.01300 35.64500
H  44.44100 7.62100 35.40300
Mg -2.46900 35.57700 26.90200
C  -3.93000 33.53400 29.36600
C  -1.19200 37.48800 29.43100
C  -1.23200 37.50000 24.51000
C  -4.11000 33.57300 24.54300
N  -2.50400 35.42100 29.16500
C  -3.12300 34.49600 29.95100
C  -2.80700 34.75200 31.47900
C  -1.81800 36.00400 31.38800
C  -1.82900 36.36100 29.90900
C  -2.20500 37.19600 32.30100
C  -2.19400 33.51200 32.26200
C  -1.25700 33.83100 33.47500
H  -1.68200 33.40900 34.88100
N  -1.30100 37.20400 26.99300
C  -0.82000 37.83600 28.05400
C  0.12600 38.82800 27.59300
C  0.13000 38.83900 26.17200
C  -0.86100 37.85400 25.80600
C  0.97200 39.61500 28.62400
C  0.88100 39.74600 25.25900
O  0.63200 39.90700 24.08500
C  1.86700 40.74000 25.95300
N  -2.70000 35.59200 24.86200
C  -2.05900 36.46900 24.01600
C  -2.38500 36.15600 22.54300
C  -3.28800 34.91100 22.58700
C  -3.38800 34.64000 24.09000
C  -3.00000 37.42500 21.78100
C  -2.62800 33.79100 21.74600
C  -1.59200 32.87900 22.53400
N  -3.88800 33.93300 26.84300
C  -4.39600 33.21400 25.84700
C  -5.15600 32.05500 26.34200
C  -4.98200 32.21500 27.73700
C  -4.16100 33.27600 27.96600
C  -5.84400 31.07900 25.56000
C  -5.25000 31.61600 29.02100
O  -5.86900 30.60300 29.31900
C  -4.58500 32.42400 30.08100
C  -5.71800 32.74800 30.99100
O  -6.83300 33.17800 30.59600
O  -5.41400 32.41000 32.23600
C  -6.47100 32.72400 33.22700
H  -0.75300 38.15300 30.17800
H  -0.78000 38.03600 23.67300
H  -4.43900 32.93000 23.72400
H  -3.78500 35.02900 31.87200
H  -0.79200 35.76000 31.66400
H  -1.48600 38.00900 32.40600
H  -2.10300 36.71800 33.27500
H  -3.24900 37.49800 32.22400
H  -1.72700 32.83900 31.54400
H  -3.05300 32.95600 32.63900
H  -1.13900 34.91300 33.53000
H  -0.31500 33.40800 33.12600
H  0.89900 39.32300 29.67100
H  0.86900 40.70000 28.62900
H  2.01200 39.31600 28.49300
H  1.39300 41.50400 26.56900
H  2.58900 40.99100 25.17700
H  2.45700 40.01000 26.50700
H  -1.43700 35.97300 22.03600
H  -4.27600 35.19100 22.22100
H  -2.17100 37.65900 21.11400
H  -3.06300 38.27500 22.46100
H  -3.98300 37.19400 21.37000
H  -2.21700 34.25100 20.84700
H  -3.47900 33.18700 21.43300
H  -1.05900 33.32600 23.37400
H  -0.88600 32.76100 21.71300
H  -1.97200 31.91300 22.86500
H  -6.85000 31.38400 25.27300
H  -5.76500 30.12500 26.08100
H  -5.28100 30.93400 24.63800
H  -3.78800 32.01400 30.70100
H  -7.14700 31.87000 33.18100
H  -7.11300 33.60000 33.13900
H  -6.05100 32.72200 34.23300

