158

Mg 43.95500 3.22400 47.52600
C  41.76300 5.89400 46.94100
C  41.23200 1.08000 47.29400
C  46.03100 0.57900 47.86300
C  46.56800 5.45400 47.54000
N  41.73600 3.52800 47.29800
C  41.02900 4.68900 47.01800
C  39.52800 4.48800 46.75600
C  39.44800 2.96000 47.15000
C  40.92700 2.44300 47.22400
C  38.77600 2.69000 48.55600
C  39.08400 4.83500 45.31400
C  37.72100 5.55000 45.17500
H  37.63400 6.62100 44.00800
N  43.65500 1.04800 47.64500
C  42.47000 0.42800 47.44500
C  42.68000 -1.00800 47.53400
C  44.09800 -1.21400 47.59100
C  44.67500 0.16200 47.74100
C  41.56200 -2.01100 47.35600
C  44.74000 -2.60900 47.46500
O  43.97300 -3.59200 47.36500
C  46.26800 -2.80200 47.43500
N  46.04500 3.00000 47.59900
C  46.61700 1.78900 47.82100
C  48.15000 2.06000 47.92100
C  48.41000 3.57800 47.69500
C  46.94900 4.06300 47.64900
C  48.80600 1.21800 49.10100
C  49.43900 4.02600 46.64200
C  50.84500 4.51700 47.17600
N  44.20300 5.32700 47.17300
C  45.35200 6.06800 47.22400
C  44.97900 7.47300 46.96000
C  43.60900 7.44400 46.96900
C  43.16400 6.10300 47.07300
C  45.85200 8.60700 46.96500
C  42.44100 8.31100 46.77900
O  42.48200 9.56000 46.60000
C  41.20000 7.28200 46.76100
C  40.25300 7.68800 47.81400
O  40.04300 7.08000 48.83200
O  39.52200 8.83500 47.40700
C  38.48000 9.30000 48.34500
H  40.41400 0.35800 47.34100
H  46.71500 -0.26300 47.98500
H  47.31000 6.25300 47.59500
H  38.91600 4.95300 47.52800
H  38.89200 2.38800 46.40600
H  39.54800 2.39000 49.26600
H  38.04800 1.87900 48.58200
H  38.29700 3.56000 49.00400
H  38.89500 3.86500 44.85400
H  39.85100 5.25800 44.66700
H  37.26400 5.86700 46.11200
H  37.04200 4.74600 44.89100
H  41.45300 -2.49900 46.38700
H  40.60400 -1.58200 47.64600
H  41.61800 -2.78300 48.12300
H  46.87900 -2.50100 46.58400
H  46.35300 -3.88700 47.51000
H  46.60800 -2.44200 48.40600
H  48.45900 1.61200 46.97700
H  48.76500 4.02200 48.62500
H  48.01000 1.07400 49.83200
H  49.55600 1.96300 49.36400
H  49.25100 0.24400 48.89800
H  48.94300 4.89900 46.21800
H  49.51200 3.22700 45.90400
H  51.67100 3.88300 46.85400
H  50.83500 4.38400 48.25800
H  51.13900 5.52100 46.86800
H  45.51600 9.20000 46.11500
H  46.90700 8.49300 46.71900
H  45.86300 9.15700 47.90600
H  40.62500 7.47500 45.85500
H  37.74300 9.83300 47.74400
H  38.94100 9.98800 49.05400
H  38.02000 8.44200 48.83500
Mg -11.34800 16.20800 42.92400
C  -7.89300 16.54200 42.48100
C  -11.59000 19.53200 42.44400
C  -14.70800 15.69800 42.88800
C  -10.93000 12.75600 42.74400
N  -9.84300 17.78300 42.33400
C  -8.53800 17.72800 42.28200
C  -7.91900 19.13600 42.08100
C  -9.07300 20.11100 42.39900
C  -10.27100 19.09900 42.34200
C  -9.03100 20.78800 43.77000
C  -7.37200 19.15000 40.57300
C  -5.90200 19.59200 40.38000
H  -5.05600 18.82800 39.34700
N  -12.95500 17.43600 42.60600
C  -12.84800 18.80900 42.44800
C  -14.22300 19.27800 42.31800
C  -15.15900 18.18400 42.43700
C  -14.28600 16.98900 42.64000
C  -14.47700 20.77300 42.25700
C  -16.67900 18.27300 42.40700
O  -17.29500 19.34700 42.20000
C  -17.63200 17.12000 42.70600
N  -12.66500 14.41800 42.84300
C  -14.01100 14.52300 43.00600
C  -14.63900 13.14200 43.19700
C  -13.45900 12.13000 42.91600
C  -12.27200 13.15500 42.78400
C  -15.33800 12.99500 44.61000
C  -13.58300 11.28100 41.67700
C  -13.43600 9.73900 41.84200
N  -9.80900 14.89100 42.71200
C  -9.75300 13.51300 42.73100
C  -8.34100 13.08000 42.65200
C  -7.65700 14.20700 42.43500
C  -8.48900 15.29500 42.56700
C  -7.86000 11.64900 42.80700
C  -6.24900 14.72300 42.25400
O  -5.21700 14.13000 42.14300
C  -6.38300 16.28700 42.34200
C  -5.59200 16.82700 43.51100
O  -5.57900 16.35600 44.62800
O  -4.64000 17.77700 43.05600
C  -3.51500 18.35600 43.88600
H  -11.65200 20.62200 42.48100
H  -15.77600 15.53400 43.04700
H  -10.83100 11.67100 42.67000
H  -7.11900 19.37000 42.78400
H  -9.02800 20.88400 41.63200
H  -8.19100 20.36800 44.32300
H  -9.95800 20.65500 44.32700
H  -8.93000 21.87100 43.69000
H  -8.00900 19.85300 40.03700
H  -7.38200 18.17500 40.08600
H  -5.46200 19.33000 41.34200
H  -5.87900 20.68100 40.35200
H  -14.87800 21.21700 43.16800
H  -15.14600 20.98400 41.42200
H  -13.56100 21.29100 41.97200
H  -18.64300 17.34000 42.36600
H  -17.51500 16.67100 43.69300
H  -17.20600 16.42500 41.98200
H  -15.34100 13.01800 42.37300
H  -13.25700 11.56000 43.82300
H  -16.37400 12.65700 44.58500
H  -15.31800 13.95300 45.13100
H  -14.79500 12.23400 45.17000
H  -12.85200 11.54000 40.91200
H  -14.52900 11.32300 41.13800
H  -14.38600 9.26400 41.59700
H  -13.11400 9.60900 42.87500
H  -12.67100 9.29600 41.20300
H  -8.14700 11.17000 43.74200
H  -6.79500 11.66600 42.57500
H  -8.33200 11.07300 42.01100
H  -6.00700 16.73000 41.42000
H  -2.59700 17.95600 43.45500
H  -3.50500 18.11500 44.94900
H  -3.65100 19.42100 43.70000

