158

Mg 47.73400 44.88300 42.71200
C  44.36200 45.61300 41.63800
C  47.45400 41.86500 41.16000
C  51.05200 44.73500 42.66600
C  47.77400 48.12100 43.86000
N  46.13700 43.94800 41.32300
C  44.88000 44.44300 41.10200
C  44.14200 43.39600 40.26600
C  44.96000 42.03500 40.57700
C  46.27100 42.64500 41.06000
C  44.28300 40.99300 41.62800
C  44.07300 43.86600 38.79500
C  42.87000 43.46000 37.95900
H  43.30100 42.59700 36.80100
N  49.08600 43.42600 42.01000
C  48.76600 42.20300 41.54200
C  49.96000 41.42000 41.57300
C  51.06800 42.28500 41.86600
C  50.43500 43.56600 42.12700
C  50.01500 40.01100 41.22700
C  52.51900 41.83300 41.90700
O  52.83800 40.70400 41.63100
C  53.74600 42.72800 42.31800
N  49.20900 46.34100 42.97600
C  50.50900 45.95000 43.09000
C  51.35100 47.16300 43.53900
C  50.33400 48.12100 44.20900
C  49.03600 47.46400 43.72100
C  52.54200 46.75000 44.55900
C  50.47600 49.60200 43.82000
C  50.21300 50.49600 45.05700
N  46.29800 46.46400 42.99300
C  46.49200 47.75100 43.55100
C  45.18400 48.38500 43.65000
C  44.30500 47.61100 42.88400
C  45.05500 46.45900 42.46500
C  44.93800 49.66700 44.34000
C  42.97400 47.51600 42.43700
O  41.96300 48.11800 42.67800
C  42.98200 46.23100 41.50500
C  42.00100 45.22600 42.04500
O  40.95700 44.88200 41.42700
O  42.32200 44.81700 43.32000
C  41.25200 44.03000 43.99700
H  47.24700 40.85500 40.80100
H  52.14000 44.79700 42.73300
H  47.86000 49.07700 44.38000
H  43.13400 43.34200 40.67700
H  45.15100 41.49400 39.65100
H  43.20700 41.16500 41.58500
H  44.57300 41.41500 42.59100
H  44.63500 39.96300 41.59200
H  44.95500 43.45300 38.30600
H  44.22400 44.94400 38.73400
H  42.47100 44.36700 37.50600
H  42.20200 42.90800 38.62000
H  50.38100 39.47500 42.10300
H  50.55800 39.74600 40.32000
H  48.98200 39.68000 41.12100
H  53.78600 43.12500 43.33200
H  53.82800 43.55900 41.61800
H  54.53200 41.99700 42.12800
H  51.78600 47.52400 42.60700
H  50.25900 47.99100 45.28800
H  53.40700 46.51000 43.94100
H  52.11900 45.89300 45.08400
H  52.77700 47.50500 45.30900
H  49.88900 49.83400 42.93100
H  51.43000 49.92900 43.40600
H  50.23600 49.87600 45.95400
H  49.30500 51.09700 45.02100
H  51.02500 51.21900 44.98300
H  43.92600 49.91200 44.01600
H  45.64600 50.44700 44.06300
H  45.10700 49.52200 45.40700
H  42.62000 46.43300 40.49700
H  41.71700 43.14000 44.42200
H  40.53000 43.56800 43.32400
H  40.60000 44.48800 44.74100
Mg -4.58300 25.51300 25.77300
C  -3.67000 27.05500 28.80700
C  -6.65200 23.51800 27.57500
C  -5.06500 23.63200 23.06500
C  -2.36600 27.52500 24.21000
N  -5.07100 25.37200 28.00600
C  -4.60000 26.03600 29.03600
C  -5.17200 25.53200 30.35200
C  -6.10400 24.29100 29.97700
C  -5.94300 24.37200 28.43900
C  -5.49800 22.92700 30.36400
C  -5.84800 26.73200 31.16700
C  -5.46800 26.94000 32.57400
H  -5.25000 25.74400 33.42500
N  -5.80700 23.82700 25.37600
C  -6.60800 23.23700 26.18800
C  -7.40600 22.26900 25.44500
C  -6.96000 22.22100 24.08600
C  -5.92700 23.29200 24.11400
C  -8.45600 21.42400 26.09000
C  -7.31400 21.31300 22.89300
O  -6.84600 21.40900 21.71600
C  -8.10500 20.13100 23.16900
N  -3.89000 25.64200 23.85300
C  -4.21200 24.77000 22.83900
C  -3.43400 25.18000 21.55600
C  -2.86300 26.56500 21.92100
C  -3.08100 26.64200 23.39900
C  -2.45500 24.09100 21.03200
C  -3.65300 27.73900 21.22100
C  -3.03700 28.49800 20.01200
N  -3.35200 27.04400 26.26400
C  -2.43100 27.77200 25.54100
C  -1.73000 28.77500 26.37800
C  -2.26600 28.55100 27.63300
C  -3.18100 27.47900 27.55500
C  -0.56100 29.61800 26.02700
C  -2.00800 28.86000 29.03400
O  -1.21600 29.59400 29.59900
C  -2.96100 27.92400 29.80000
C  -2.19300 27.18700 30.83200
O  -1.63700 26.10200 30.61700
O  -2.18100 27.89500 32.00700
C  -1.26400 27.42400 33.04000
H  -7.30500 22.90700 28.20200
H  -5.21300 23.04500 22.15600
H  -1.78900 28.20100 23.57500
H  -4.39000 25.16500 31.01700
H  -7.18300 24.38700 30.10200
H  -4.49200 23.02800 30.77000
H  -5.48000 22.32100 29.45900
H  -6.27900 22.57600 31.03900
H  -6.88200 26.39000 31.12600
H  -5.77600 27.69300 30.65800
H  -6.33100 27.41800 33.03700
H  -4.59300 27.57700 32.70100
H  -7.99600 20.54800 26.54800
H  -9.29100 21.12700 25.45600
H  -9.00100 21.98600 26.84900
H  -8.19300 19.55500 22.24700
H  -9.07600 20.58400 23.37300
H  -7.66900 19.50100 23.94300
H  -4.22400 25.16400 20.80400
H  -1.78500 26.49100 21.77900
H  -2.32800 23.29900 21.76900
H  -1.41800 24.42400 20.98400
H  -2.86600 23.72900 20.08900
H  -3.80900 28.53700 21.94700
H  -4.64500 27.34600 20.99900
H  -2.92100 29.57300 20.14900
H  -3.61600 28.20200 19.13700
H  -1.99600 28.18400 19.93300
H  -0.21600 30.25300 26.84300
H  -0.87700 30.18000 25.14800
H  0.18900 28.88000 25.74400
H  -3.62000 28.51200 30.43900
H  -0.36300 28.01700 32.88300
H  -1.00300 26.36800 32.95800
H  -1.55700 27.68200 34.05700

