158

Mg 40.86700 8.57000 29.98800
C  42.49000 9.87100 32.85300
C  38.28100 7.45100 32.02500
C  39.20000 7.72600 27.27100
C  43.49000 9.81400 28.02400
N  40.47600 8.58700 32.20300
C  41.23300 9.24000 33.09900
C  40.65300 9.08400 34.54700
C  39.23500 8.33800 34.29300
C  39.28300 8.12800 32.75300
C  39.09800 6.91000 34.96400
C  40.58000 10.44600 35.28200
C  39.75200 10.60900 36.54800
H  40.48000 11.66200 37.55600
N  39.14300 7.52300 29.66900
C  38.19500 7.13400 30.63900
C  37.12500 6.43100 29.96800
C  37.27800 6.62900 28.54600
C  38.52900 7.34100 28.45200
C  35.93500 5.90700 30.75000
C  36.43900 6.22400 27.39300
O  36.70600 6.50700 26.25200
C  35.30300 5.33900 27.56300
N  41.28100 8.84500 27.99200
C  40.39900 8.36200 27.03200
C  40.87600 8.68500 25.62800
C  42.23100 9.41400 25.79200
C  42.36200 9.30700 27.36000
C  40.93900 7.48000 24.64600
C  42.23300 10.87100 25.25200
C  43.26400 11.13500 24.27900
N  42.64600 9.57600 30.39300
C  43.64300 10.03000 29.43100
C  44.65700 10.64000 30.11800
C  44.26800 10.65600 31.50400
C  43.00200 10.03000 31.63700
C  45.97600 11.05900 29.52000
C  44.71400 11.00100 32.89300
O  45.76100 11.40700 33.31000
C  43.48300 10.57700 33.78300
C  44.05000 9.63800 34.72000
O  44.10200 8.41600 34.61600
O  44.53200 10.34300 35.80600
C  45.25400 9.52000 36.75400
H  37.41800 7.16100 32.62900
H  38.83400 7.49200 26.26900
H  44.34700 10.17000 27.44800
H  41.31400 8.44400 35.13100
H  38.44600 9.06100 34.50400
H  38.11600 6.59200 35.31400
H  39.89200 6.85500 35.70800
H  39.26200 6.11300 34.23900
H  40.17700 11.16300 34.56700
H  41.56900 10.79500 35.58200
H  39.76700 9.64000 37.04700
H  38.74600 10.89500 36.23900
H  34.98300 6.24800 30.34400
H  36.04100 6.15700 31.80500
H  35.89500 4.81700 30.75600
H  35.64000 4.54900 28.23300
H  35.08300 5.11100 26.52000
H  34.44300 5.90000 27.93000
H  40.08200 9.35500 25.29800
H  42.96900 8.75300 25.33800
H  40.77000 6.53100 25.15400
H  41.90700 7.33400 24.16700
H  40.37300 7.62900 23.72700
H  42.40900 11.48400 26.13600
H  41.23000 10.98400 24.83900
H  44.05100 10.38800 24.17500
H  43.85900 11.95200 24.68800
H  42.86000 11.46100 23.32000
H  46.53000 11.35100 30.41300
H  45.82900 11.94000 28.89600
H  46.39000 10.16600 29.05300
H  43.07200 11.45800 34.27600
H  45.81700 10.18000 37.41300
H  46.07700 9.08200 36.18800
H  44.73900 8.78900 37.37800
Mg 8.73500 48.14300 25.30700
C  6.62100 48.60400 28.06700
C  11.37400 49.15500 27.21000
C  10.62300 47.56000 22.73000
C  5.82900 47.89100 23.19800
N  8.95300 48.75200 27.40800
C  7.95700 48.91100 28.42200
C  8.56700 49.10700 29.78700
C  9.85500 49.86500 29.23600
C  10.11600 49.18600 27.85700
C  9.58100 51.40900 29.15500
C  8.76400 47.88600 30.65000
C  8.31400 48.11000 32.12800
H  8.23000 46.78300 32.99600
N  10.66900 48.32900 24.99700
C  11.62500 48.72400 25.87600
C  12.95000 48.60700 25.32600
C  12.81400 48.04100 24.03000
C  11.32700 47.96800 23.80100
C  14.26800 48.75800 26.15700
C  13.82000 47.65500 22.94500
O  13.53400 47.25000 21.80500
C  15.25900 47.99400 23.11400
N  8.20200 47.90200 23.23300
C  9.26500 47.52500 22.45100
C  8.74700 47.09300 21.04200
C  7.18300 47.00400 21.20200
C  7.02500 47.67800 22.60600
C  9.34900 47.89200 19.83900
C  6.59900 45.52400 21.16600
C  5.43700 45.17900 20.28400
N  6.71800 48.34600 25.54500
C  5.70000 48.19000 24.59200
C  4.44500 48.06800 25.37800
C  4.86200 48.22600 26.72000
C  6.17200 48.45300 26.76000
C  3.07900 47.67700 24.86100
C  4.31900 48.22400 27.98800
O  3.13500 48.07500 28.30800
C  5.43800 48.56300 28.96300
C  5.56000 47.35200 29.86600
O  6.12200 46.27900 29.62900
O  4.94400 47.66700 30.99500
C  4.67400 46.66000 32.05500
H  12.22300 49.35700 27.86700
H  11.23100 47.15600 21.91800
H  4.97900 47.55200 22.60200
H  7.81800 49.74600 30.25500
H  10.70200 49.68100 29.89700
H  9.97200 51.80200 28.21600
H  10.23100 51.79100 29.94200
H  8.55000 51.70000 29.35400
H  9.82700 47.64800 30.70000
H  8.26900 47.05600 30.14600
H  7.33900 48.59300 32.06600
H  8.99400 48.81700 32.60300
H  14.15000 48.49100 27.20800
H  14.62300 49.78800 26.12200
H  15.02300 48.03000 25.86200
H  15.79400 47.26200 23.71900
H  15.23900 48.99500 23.54400
H  15.84400 47.92200 22.19800
H  9.08500 46.06400 20.91900
H  6.72200 47.63600 20.44300
H  10.27500 48.40100 20.10500
H  8.59700 48.61800 19.53100
H  9.55000 47.20800 19.01400
H  6.48900 45.15100 22.18500
H  7.38700 44.95300 20.67500
H  5.65000 44.35200 19.60700
H  5.12200 45.96600 19.59800
H  4.56200 44.93100 20.88400
H  2.88500 47.86200 23.80400
H  2.45400 48.27000 25.52800
H  2.83000 46.68000 25.22600
H  5.34500 49.40900 29.64500
H  4.99700 47.09200 33.00200
H  5.13800 45.69200 31.86700
H  3.58900 46.56800 32.11100

