158

Mg -3.37500 17.15900 26.70200
C  -3.75000 14.95900 29.31500
C  -3.48500 19.76300 28.87400
C  -3.30500 19.33600 24.10700
C  -3.72400 14.51300 24.50700
N  -3.65700 17.21600 28.84000
C  -3.70700 16.22200 29.74400
C  -3.66100 16.75100 31.26300
C  -3.61300 18.28800 31.06900
C  -3.60600 18.45900 29.48800
C  -4.74700 19.11600 31.73500
C  -2.43800 16.14400 32.08500
C  -1.88400 16.95800 33.28300
H  -1.49000 16.29500 34.60800
N  -3.23100 19.19300 26.53000
C  -3.30500 20.12900 27.52300
C  -2.96100 21.44200 26.96500
C  -2.73900 21.28200 25.55800
C  -3.07200 19.85200 25.36800
C  -2.74100 22.69200 27.80200
C  -2.17900 22.16700 24.46900
O  -2.02900 21.77500 23.36700
C  -1.67900 23.59500 24.82000
N  -3.72600 16.92200 24.61400
C  -3.56100 18.00500 23.77000
C  -3.63400 17.54100 22.31500
C  -3.83600 16.03300 22.46000
C  -3.68900 15.78900 23.97100
C  -4.76300 18.24700 21.51200
C  -2.77700 15.21800 21.67200
C  -1.24100 15.23700 22.11900
N  -3.59300 15.09500 26.79400
C  -3.80900 14.17000 25.88600
C  -3.90900 12.86800 26.43100
C  -3.75800 13.06100 27.81200
C  -3.69600 14.48100 27.96200
C  -4.15100 11.54200 25.77300
C  -3.67000 12.45500 29.05300
O  -3.63700 11.24900 29.19600
C  -3.84900 13.66700 30.13200
C  -2.74800 13.37700 31.03700
O  -1.60000 13.63300 30.70200
O  -3.16200 12.72300 32.14700
C  -2.08800 12.35000 33.14600
H  -3.47900 20.68400 29.46100
H  -3.54000 20.05300 23.31800
H  -3.84100 13.58300 23.94800
H  -4.59800 16.46100 31.73900
H  -2.69800 18.79100 31.38300
H  -5.22400 19.76200 30.99800
H  -4.39000 19.88000 32.42600
H  -5.39700 18.45900 32.31200
H  -1.60500 15.91400 31.42000
H  -2.73300 15.21700 32.57600
H  -2.59000 17.73400 33.58000
H  -1.00400 17.46800 32.89300
H  -3.29600 23.54300 27.40800
H  -1.68700 22.96800 27.83500
H  -3.12000 22.55500 28.81500
H  -0.74600 23.57600 25.38200
H  -2.52100 24.08800 25.30600
H  -1.44300 24.15600 23.91600
H  -2.68200 17.84900 21.88200
H  -4.82500 15.64600 22.21300
H  -5.29600 19.00400 22.08800
H  -5.45600 17.56700 21.01700
H  -4.25100 18.79400 20.72100
H  -2.79800 15.67700 20.68400
H  -3.20800 14.21700 21.64700
H  -1.04300 15.93500 22.93300
H  -0.70800 15.69400 21.28600
H  -0.77800 14.27000 22.31800
H  -3.18000 11.11500 25.52200
H  -4.76500 11.67000 24.88100
H  -4.65800 10.90200 26.49500
H  -4.84700 13.65400 30.57000
H  -1.83100 11.30300 32.98400
H  -2.55700 12.56400 34.10700
H  -1.16700 12.92800 33.06700
Mg 49.44200 34.99100 28.16800
C  47.28600 33.49900 30.44300
C  49.62600 37.83600 30.13700
C  51.24200 36.46300 25.77300
C  49.14100 32.09100 26.24200
N  48.53600 35.57200 29.97900
C  47.84300 34.73300 30.87100
C  47.97400 35.25600 32.35500
C  48.26200 36.81400 32.07500
C  48.81400 36.75400 30.65700
C  47.01800 37.76100 32.32800
C  49.18000 34.56700 33.12500
C  49.27400 34.69000 34.69200
H  48.24600 35.49600 35.40600
N  50.37900 36.88300 27.99300
C  50.28400 37.90600 28.89800
C  51.14100 38.96400 28.45800
C  51.65800 38.61100 27.12100
C  51.10300 37.25400 26.85000
C  51.32700 40.25500 29.29200
C  52.61300 39.33200 26.23200
O  53.00100 38.86800 25.18400
C  52.98400 40.73000 26.57000
N  49.95700 34.43300 26.13300
C  50.82400 35.16700 25.39300
C  51.32000 34.31600 24.20100
C  50.76200 32.88900 24.50600
C  49.87400 33.16400 25.69100
C  50.98700 34.91500 22.85800
C  51.88000 31.83200 24.79000
C  51.83900 30.58800 23.86000
N  48.29400 33.23100 28.17700
C  48.30800 32.16700 27.36500
C  47.57100 31.13300 27.90500
C  47.05500 31.61800 29.06200
C  47.50600 32.92700 29.21400
C  47.43600 29.74600 27.39900
C  46.16000 31.38500 30.13400
O  45.50200 30.44100 30.45600
C  46.17700 32.65700 31.14800
C  46.53600 32.25500 32.52500
O  47.47900 31.58800 32.84500
O  45.47200 32.60900 33.36500
C  45.69000 32.45200 34.80100
H  49.68200 38.74800 30.73500
H  51.89300 36.80200 24.96400
H  49.42900 31.15800 25.75300
H  47.01900 35.02600 32.82600
H  49.09100 37.20600 32.66500
H  46.56800 38.11000 31.39900
H  47.18300 38.68900 32.87500
H  46.28200 37.10400 32.79200
H  50.12000 35.02000 32.81000
H  49.15800 33.53000 32.78900
H  50.20900 35.21200 34.89400
H  49.27700 33.69100 35.12800
H  52.38900 40.49800 29.33700
H  50.93900 40.33500 30.30700
H  50.93400 41.08400 28.70400
H  51.99100 41.16300 26.68900
H  53.47800 41.13800 25.68800
H  53.70400 40.69500 27.38700
H  52.40300 34.42400 24.24800
H  50.20100 32.47500 23.66800
H  51.97000 35.03100 22.40200
H  50.41100 35.82000 23.05200
H  50.40800 34.23300 22.23500
H  51.90400 31.57000 25.84700
H  52.83800 32.32100 24.61300
H  51.44900 29.82600 24.53500
H  52.80500 30.30100 23.44200
H  51.10500 30.75600 23.07200
H  48.08100 29.05400 27.94000
H  47.91800 29.79500 26.42200
H  46.40900 29.38400 27.35900
H  45.18500 33.10300 31.22300
H  46.76900 32.43200 34.95200
H  45.25500 31.55500 35.24200
H  45.40000 33.34900 35.34900

