158

Mg 35.45500 2.85200 28.09600
C  33.80300 3.52400 30.98800
C  38.36000 2.61000 29.73300
C  37.00500 2.15600 25.09700
C  32.39800 2.91300 26.39800
N  35.99300 3.11500 30.17900
C  35.14500 3.24200 31.25000
C  35.87100 3.16300 32.59700
C  37.27700 2.77100 32.14100
C  37.27700 2.97500 30.62000
C  38.58100 3.30100 32.89300
C  35.15900 2.11400 33.55100
C  35.02400 2.40000 35.13900
H  35.41300 3.85500 35.59800
N  37.43700 2.50900 27.47900
C  38.45400 2.40000 28.32800
C  39.68200 2.02300 27.68100
C  39.31900 1.87400 26.27900
C  37.83700 2.13200 26.24600
C  41.04500 1.85000 28.36500
C  40.14700 1.62800 25.06000
O  39.73900 1.37400 23.90800
C  41.69100 1.49800 25.26300
N  34.75700 2.37800 26.14900
C  35.58800 2.24500 25.04000
C  34.79900 2.13400 23.76400
C  33.32000 2.03300 24.27700
C  33.49800 2.46200 25.70800
C  34.95300 3.44400 22.90900
C  32.59600 0.65100 24.09400
C  31.50100 0.55300 23.03200
N  33.45900 3.09400 28.52800
C  32.32700 3.18600 27.76700
C  31.24800 3.68300 28.50400
C  31.73900 3.80000 29.82700
C  33.10800 3.42700 29.73500
C  29.84700 3.99100 27.88600
C  31.34500 4.18700 31.14500
O  30.32300 4.58000 31.65300
C  32.71300 3.97400 31.97500
C  33.11300 5.19400 32.72900
O  34.05000 5.98800 32.52000
O  32.18300 5.36600 33.74500
C  32.33100 6.64900 34.45000
H  39.23200 2.45100 30.37000
H  37.60500 2.06600 24.19000
H  31.47400 2.87000 25.81800
H  35.97000 4.10100 33.14200
H  37.41000 1.69200 32.21400
H  39.14800 2.46000 33.29200
H  38.12800 3.86700 33.70700
H  39.21300 3.79500 32.15400
H  35.64700 1.13900 33.54300
H  34.17700 1.80200 33.19500
H  35.60000 1.64400 35.67200
H  33.95600 2.28600 35.32700
H  40.89000 1.97000 29.43700
H  41.84900 2.51400 28.04700
H  41.47500 0.85800 28.22200
H  42.24100 1.41800 24.32600
H  41.91500 0.58800 25.82000
H  41.93500 2.34800 25.90100
H  35.07700 1.19300 23.28900
H  32.71700 2.77200 23.74900
H  35.00000 4.35000 23.51300
H  34.05800 3.55200 22.29500
H  35.94200 3.38200 22.45600
H  32.08100 0.49800 25.04300
H  33.24400 -0.22300 24.03500
H  31.64100 -0.29400 22.36000
H  31.40600 1.43800 22.40300
H  30.58000 0.46600 23.60800
H  29.03300 3.45700 28.37600
H  29.83400 3.71800 26.83100
H  29.53900 5.03500 27.94500
H  32.60700 3.20000 32.73500
H  33.07700 7.36500 34.10700
H  32.57400 6.47500 35.49900
H  31.33400 7.08000 34.35600
Mg 54.55600 23.58400 44.75000
C  52.03200 25.66400 43.57200
C  52.96000 20.97800 42.84500
C  57.31500 21.61300 44.85800
C  56.32500 26.32100 45.58700
N  52.85100 23.43400 43.14100
C  51.93900 24.40500 42.88400
C  50.84500 23.98400 41.87400
C  51.05500 22.42700 41.84500
C  52.34200 22.20900 42.70600
C  49.82700 21.58500 42.36100
C  51.06600 24.85500 40.59100
C  51.22000 24.12000 39.26300
H  51.30200 24.84900 37.90600
N  55.03000 21.55500 44.16300
C  54.20400 20.69600 43.42200
C  54.87300 19.36200 43.39400
C  56.06400 19.48100 44.12400
C  56.18300 20.88000 44.50700
C  54.30400 18.34300 42.51200
C  57.04000 18.40800 44.28800
O  56.92700 17.32700 43.67600
C  58.22800 18.46000 45.23400
N  56.53300 23.94900 45.01500
C  57.51400 22.91700 45.11700
C  58.81200 23.56600 45.51200
C  58.58400 25.11000 45.66000
C  57.06600 25.11800 45.43300
C  59.48000 22.95800 46.75500
C  59.44500 26.04600 44.80400
C  60.06400 27.15500 45.63800
N  54.22400 25.62700 44.85500
C  54.97400 26.57000 45.41900
C  54.28400 27.82300 45.46100
C  53.05600 27.50600 44.79000
C  53.12400 26.19400 44.33600
C  54.72700 29.08500 46.10000
C  51.79300 28.01800 44.39300
O  51.37300 29.15400 44.55200
C  51.06600 26.84000 43.60200
C  50.62900 27.42300 42.35400
O  51.38700 27.90300 41.52300
O  49.25800 27.44200 42.27900
C  48.67500 28.09300 41.06100
H  52.46600 20.11500 42.39400
H  58.18800 20.98600 44.66700
H  56.95100 27.15500 45.91100
H  49.89200 24.31500 42.28800
H  51.24100 22.07000 40.83200
H  49.07700 21.63300 41.57100
H  49.45700 21.88300 43.34200
H  50.24800 20.58200 42.29400
H  52.00500 25.40600 40.63500
H  50.31100 25.63800 40.51900
H  50.52300 23.28700 39.17800
H  52.21500 23.67500 39.24000
H  54.11500 18.77400 41.52900
H  53.38300 17.96500 42.95600
H  54.81800 17.40000 42.32300
H  58.17100 19.20000 46.03200
H  58.89300 18.94800 44.52200
H  58.51300 17.47500 45.60500
H  59.57400 23.44600 44.74200
H  58.56700 25.41600 46.70600
H  59.31600 23.60300 47.61700
H  60.56600 23.04600 46.71400
H  59.04400 21.97700 46.94300
H  58.82600 26.46300 44.01000
H  60.24100 25.48500 44.31400
H  59.74400 28.13200 45.27600
H  61.14000 26.98200 45.62300
H  59.80000 27.07800 46.69200
H  55.81000 29.12000 45.98600
H  54.59900 29.15800 47.18000
H  54.35400 29.87300 45.44500
H  50.17200 26.51600 44.13500
H  49.08600 27.64700 40.15600
H  48.91100 29.15600 41.00500
H  47.58700 28.11000 41.12200

