158

Mg 41.02100 7.79500 29.52100
C  42.92200 9.22400 32.08100
C  38.65000 6.80200 31.81800
C  39.54900 5.99500 27.12500
C  43.81600 8.03900 27.34700
N  40.86700 7.90700 31.74900
C  41.68500 8.73200 32.54700
C  41.03000 8.81000 33.96300
C  39.82000 7.86200 33.95300
C  39.75700 7.40000 32.43800
C  39.75300 6.64200 34.85000
C  40.72900 10.35900 34.16900
C  40.03500 10.72600 35.47400
H  40.75200 11.67200 36.45700
N  39.35800 6.61000 29.54600
C  38.41300 6.44800 30.50800
C  37.31200 5.70100 30.02700
C  37.51800 5.41500 28.66400
C  38.91100 5.93600 28.41000
C  36.09600 5.36000 30.93100
C  36.62000 4.72600 27.63300
O  36.98600 4.49600 26.45400
C  35.10300 4.44400 27.95800
N  41.58500 7.07500 27.48900
C  40.75300 6.41700 26.74500
C  41.31700 6.07000 25.39400
C  42.50100 7.05700 25.35200
C  42.72100 7.28900 26.83300
C  41.60100 4.64500 25.04900
C  42.23200 8.39600 24.58200
C  43.43500 9.38800 24.16200
N  42.95000 8.47700 29.63600
C  43.96800 8.47000 28.66400
C  45.07100 9.17300 29.17200
C  44.72500 9.45000 30.51800
C  43.45100 9.01500 30.74800
C  46.27600 9.66300 28.42600
C  45.15100 10.11100 31.77000
O  46.20100 10.65500 32.06700
C  43.98600 10.00900 32.85600
C  44.48800 9.31400 34.06400
O  44.92300 8.16300 34.04900
O  44.39700 10.08800 35.20700
C  44.38300 9.28500 36.45000
H  37.84300 6.69100 32.54600
H  39.07200 5.40800 26.33700
H  44.69300 8.13500 26.70300
H  41.76900 8.48400 34.69400
H  38.85400 8.35100 34.07500
H  39.97300 5.73800 34.28200
H  38.89700 6.59600 35.52400
H  40.54400 6.67600 35.59900
H  40.23200 10.80400 33.30800
H  41.64000 10.95500 34.22600
H  39.87400 9.77300 35.97700
H  39.15500 11.33400 35.26300
H  35.17100 5.75700 30.51400
H  36.15300 5.61200 31.99000
H  36.01200 4.27400 30.95600
H  35.07200 3.80800 28.84300
H  34.56700 3.95500 27.14400
H  34.55400 5.36900 28.13600
H  40.63300 6.44200 24.63100
H  43.31900 6.58300 24.81000
H  41.06500 3.86700 25.59300
H  42.66800 4.54900 25.24600
H  41.44900 4.51500 23.97700
H  41.64100 8.92800 25.32700
H  41.56700 8.07300 23.78100
H  43.39100 9.48900 23.07800
H  44.30900 8.85400 24.53600
H  43.33500 10.39200 24.57600
H  45.86700 9.90400 27.44500
H  47.01000 8.86500 28.31800
H  46.67100 10.62300 28.75900
H  43.79300 11.03700 33.16200
H  45.42900 9.13000 36.71700
H  43.81200 8.37000 36.29300
H  43.90200 9.78800 37.28800
Mg 35.95000 50.25500 24.18400
C  35.78700 48.67400 27.44500
C  35.02600 53.22900 25.76500
C  36.09300 51.49500 21.26700
C  36.85400 47.05400 23.06000
N  35.48100 50.85600 26.35400
C  35.49500 50.04500 27.47800
C  35.17900 50.88800 28.81200
C  34.89200 52.33600 28.21400
C  35.15600 52.14100 26.66900
C  33.51500 52.94800 28.55100
C  36.42200 50.87200 29.83300
C  36.14600 50.56800 31.30200
H  34.73100 50.72100 31.83000
N  35.59200 52.12500 23.59600
C  35.28600 53.20600 24.38100
C  35.04900 54.33400 23.45600
C  35.37400 53.85900 22.13300
C  35.79900 52.48800 22.31800
C  34.77900 55.78500 24.00300
C  35.18300 54.56700 20.86100
O  35.48600 54.03500 19.74200
C  34.55100 55.99200 20.84700
N  36.19700 49.36900 22.48000
C  36.38500 50.09400 21.32500
C  36.79700 49.24800 20.11000
C  37.06500 47.83300 20.69700
C  36.64500 48.09800 22.18300
C  35.76800 49.15800 19.02500
C  38.53400 47.24700 20.51000
C  38.61700 45.85500 20.00400
N  36.05300 48.17000 24.97400
C  36.42100 47.03300 24.36100
C  36.54600 45.98000 25.31200
C  36.35300 46.58500 26.52700
C  36.01700 47.92900 26.29200
C  36.93800 44.51500 25.01900
C  36.30300 46.34400 27.94800
O  36.52000 45.30500 28.55700
C  35.84300 47.62400 28.64900
C  34.53400 47.42100 29.31900
O  33.43100 47.33500 28.81800
O  34.80900 47.24700 30.72100
C  33.78100 46.71700 31.63500
H  34.72400 54.19500 26.17500
H  36.18800 51.88900 20.25300
H  37.25000 46.15600 22.57900
H  34.34700 50.32600 29.23700
H  35.65200 52.99200 28.63900
H  32.95100 52.75300 27.64000
H  33.61900 53.98500 28.87000
H  33.08500 52.39700 29.38700
H  36.96800 51.81400 29.88900
H  37.09700 50.10600 29.45100
H  36.82100 51.21800 31.85800
H  36.38500 49.53200 31.53900
H  35.09000 55.92000 25.03900
H  33.72600 56.03100 24.14700
H  35.36700 56.47600 23.39900
H  34.26600 56.25400 19.82800
H  35.28600 56.65900 21.29800
H  33.58600 56.02000 21.35200
H  37.70400 49.74300 19.76200
H  36.27600 47.12800 20.43300
H  34.76700 48.91200 19.37800
H  36.12500 48.40600 18.32100
H  35.72500 50.12800 18.52700
H  39.24100 47.28200 21.34000
H  39.08900 47.87300 19.81100
H  38.74900 45.80700 18.92300
H  37.66600 45.38300 20.24900
H  39.23000 45.19100 20.61300
H  36.21200 43.99300 24.39700
H  37.10500 43.97500 25.95100
H  37.75500 44.71000 24.32400
H  36.45800 48.04500 29.44500
H  32.86000 47.30100 31.64000
H  34.14900 46.63000 32.65700
H  33.46400 45.73000 31.29900

