158

Mg -11.64700 39.33500 42.69500
C  -10.06500 36.36500 41.59100
C  -9.12900 40.96700 41.19900
C  -13.39200 42.13100 43.13500
C  -14.38000 37.39800 43.65200
N  -9.84800 38.62600 41.44400
C  -9.30800 37.43900 41.20100
C  -8.01600 37.49000 40.40800
C  -7.57800 39.03100 40.59100
C  -8.92600 39.58000 41.10800
C  -6.47000 39.26800 41.68200
C  -8.18800 37.05500 38.90100
C  -7.09500 36.09300 38.34000
H  -6.03900 36.73300 37.48700
N  -11.23000 41.35100 42.37700
C  -10.17100 41.78100 41.64800
C  -10.25000 43.21700 41.56900
C  -11.51700 43.59800 42.14800
C  -12.09500 42.32900 42.62100
C  -9.07400 44.07300 41.13000
C  -11.97800 45.00000 42.34700
O  -11.40000 45.98100 41.94100
C  -13.20000 45.37500 43.28400
N  -13.52200 39.70200 43.39000
C  -14.04500 40.95500 43.47900
C  -15.37400 40.95600 44.31200
C  -15.74300 39.42600 44.10800
C  -14.47100 38.76700 43.66600
C  -15.06300 41.39000 45.74700
C  -17.04900 38.96200 43.26200
C  -18.27200 38.32200 44.03200
N  -12.23100 37.24300 42.59800
C  -13.32100 36.67900 43.08600
C  -13.15700 35.25500 42.99100
C  -11.95000 35.09700 42.38600
C  -11.38900 36.35300 42.23300
C  -14.07900 34.25200 43.53900
C  -11.03100 34.11600 41.92400
O  -10.99900 32.90400 41.93300
C  -9.76600 34.90600 41.41200
C  -8.55100 34.39600 42.13800
O  -8.26100 34.55400 43.30200
O  -7.78800 33.74400 41.25000
C  -6.58500 33.07400 41.80200
H  -8.47700 41.64000 40.63900
H  -14.02200 43.01900 43.22700
H  -15.20700 36.91100 44.17300
H  -7.26500 36.85700 40.88100
H  -7.27400 39.50700 39.66000
H  -5.56100 39.72900 41.29400
H  -6.19400 38.26400 42.00600
H  -6.82200 39.85400 42.53100
H  -8.10000 37.96100 38.30000
H  -9.13800 36.55500 38.71100
H  -7.77400 35.41800 37.82000
H  -6.57200 35.45900 39.05600
H  -8.09600 43.60000 41.21500
H  -9.09000 44.92400 41.81100
H  -9.17700 44.38600 40.09200
H  -14.14500 45.28000 42.74900
H  -13.14500 46.39900 43.65400
H  -13.14900 44.72400 44.15700
H  -16.14100 41.55400 43.82100
H  -15.76400 39.06900 45.13800
H  -14.12500 41.94200 45.80300
H  -15.03300 40.63900 46.53600
H  -15.72100 42.17000 46.13100
H  -16.72000 38.25300 42.50300
H  -17.39000 39.80600 42.66300
H  -18.26500 38.43500 45.11600
H  -18.38500 37.25700 43.82800
H  -19.19900 38.84400 43.79700
H  -13.56600 33.29400 43.62300
H  -14.91800 34.21600 42.84400
H  -14.48200 34.56600 44.50200
H  -9.65500 34.70500 40.34600
H  -5.76600 33.79400 41.78900
H  -6.33800 32.25000 41.13300
H  -6.72500 32.73100 42.82700
Mg 0.94400 43.71500 26.02100
C  3.01800 43.63100 28.81300
C  -1.59700 42.75900 28.17500
C  -1.26100 43.71800 23.36800
C  3.47300 44.55900 23.97700
N  0.72900 43.35000 28.24400
C  1.68400 43.42000 29.15800
C  1.05100 43.33900 30.61700
C  -0.35600 42.77600 30.33500
C  -0.40800 42.91500 28.80100
C  -0.78400 41.40800 30.90100
C  1.15600 44.66800 31.47800
C  0.79100 44.62000 32.97900
H  0.71800 43.28700 33.60800
N  -0.99400 43.20600 25.77400
C  -1.89600 42.80400 26.78200
C  -3.16400 42.50800 26.22500
C  -3.20600 43.00800 24.86100
C  -1.76000 43.33200 24.62400
C  -4.26900 41.77200 27.00300
C  -4.25700 43.07100 23.80900
O  -4.09400 43.35900 22.62400
C  -5.67900 42.64000 24.14700
N  1.11600 43.84500 23.86000
C  0.08900 43.95600 23.08400
C  0.52400 44.53800 21.69400
C  1.99300 45.00800 21.95800
C  2.19100 44.52000 23.34100
C  0.38000 43.65400 20.45100
C  2.25700 46.47700 21.82900
C  2.20300 47.14100 20.41300
N  2.84800 43.96700 26.26300
C  3.83700 44.27200 25.31600
C  5.13600 44.33700 25.98500
C  4.85300 44.00000 27.30900
C  3.44200 43.96700 27.44700
C  6.45800 44.77900 25.35900
C  5.35600 43.69700 28.64400
O  6.51800 43.67100 29.05300
C  4.19000 43.71100 29.68500
C  4.28500 42.43700 30.50500
O  3.99700 41.31800 30.15600
O  4.63100 42.79900 31.79200
C  4.94000 41.61200 32.63300
H  -2.31500 42.41700 28.92300
H  -1.86100 43.95700 22.48700
H  4.30700 44.94100 23.38600
H  1.63400 42.63500 31.21200
H  -1.13500 43.44900 30.69300
H  -0.04800 40.88900 31.51600
H  -1.14000 40.70800 30.14500
H  -1.66300 41.51000 31.53800
H  0.43200 45.36100 31.05100
H  2.17700 45.02700 31.34800
H  -0.15900 45.10800 33.19800
H  1.47800 45.18500 33.61000
H  -3.95500 41.07200 27.77700
H  -4.90900 41.17300 26.35500
H  -4.72300 42.53600 27.63400
H  -5.85500 43.21000 25.06000
H  -5.77900 41.58000 24.37800
H  -6.39400 42.89800 23.36600
H  -0.15700 45.37000 21.51600
H  2.75500 44.47300 21.39200
H  -0.25400 42.82800 20.77400
H  1.38100 43.29500 20.21400
H  -0.01800 44.23900 19.62100
H  3.20600 46.80400 22.25400
H  1.54100 46.96700 22.48900
H  2.33500 46.34900 19.67700
H  3.00100 47.85000 20.19200
H  1.29400 47.68000 20.14600
H  6.87400 45.49900 26.06400
H  6.26000 45.19600 24.37200
H  7.13700 43.92800 25.31500
H  4.25200 44.58100 30.33900
H  4.15100 40.89700 32.86800
H  5.33600 42.05600 33.54700
H  5.74800 41.00900 32.21900

