158

Mg 24.46200 -5.96100 47.57000
C  27.06200 -3.90000 46.38400
C  22.46300 -4.47500 45.11800
C  22.05700 -8.30100 48.31500
C  26.70200 -7.68300 49.45800
N  24.81000 -4.46900 45.78900
C  25.90100 -3.66900 45.66500
C  25.66300 -2.67500 44.48300
C  24.13700 -2.62800 44.35900
C  23.74000 -3.95100 45.11900
C  23.48900 -1.18100 44.71900
C  26.41900 -3.22500 43.13900
C  27.25400 -2.08800 42.46300
H  26.96500 -1.77500 40.97400
N  22.44900 -6.28400 46.88100
C  21.89400 -5.64100 45.76400
C  20.54900 -6.24100 45.53900
C  20.42100 -7.25700 46.56900
C  21.57900 -7.31000 47.38600
C  19.59700 -5.69000 44.45800
C  19.14800 -8.04100 46.81100
O  18.14800 -7.85200 46.14900
C  19.01300 -9.13500 47.91200
N  24.40400 -7.63500 48.69800
C  23.31100 -8.41200 48.93600
C  23.66700 -9.81800 49.53900
C  25.13800 -9.49500 50.15100
C  25.45500 -8.21100 49.38000
C  22.72100 -10.41200 50.68900
C  26.17100 -10.69200 50.10000
C  26.71100 -11.12400 51.45000
N  26.50000 -5.84600 47.93200
C  27.24500 -6.59400 48.79400
C  28.59300 -6.08300 48.75800
C  28.53000 -5.04300 47.91600
C  27.24000 -4.93600 47.36900
C  29.76000 -6.41200 49.57700
C  29.28100 -3.86700 47.39600
O  30.37500 -3.40200 47.63100
C  28.36800 -3.21000 46.30800
C  28.41300 -1.70300 46.35800
O  28.75900 -0.97900 45.44500
O  27.97600 -1.20600 47.56900
C  27.51400 0.14200 47.40400
H  21.81500 -4.02500 44.36300
H  21.35800 -9.13300 48.42000
H  27.37700 -8.30000 50.05500
H  26.01500 -1.70900 44.84500
H  23.82300 -2.69400 43.31700
H  24.33300 -0.50200 44.84200
H  22.84400 -1.37900 45.57500
H  22.85900 -0.95400 43.85900
H  25.69300 -3.75100 42.51800
H  27.18200 -3.91200 43.50300
H  28.31900 -2.29500 42.57000
H  27.15000 -1.15600 43.01900
H  18.84500 -4.95000 44.73300
H  19.16100 -6.49800 43.87200
H  20.17500 -5.16600 43.69700
H  18.01900 -9.56800 47.80200
H  19.03000 -8.85600 48.96600
H  19.76500 -9.88500 47.66800
H  23.77200 -10.57000 48.75700
H  25.04400 -9.16600 51.18600
H  22.44500 -11.43100 50.41800
H  21.84400 -9.78200 50.84100
H  23.24200 -10.30000 51.64000
H  27.01500 -10.42600 49.46300
H  25.58600 -11.52000 49.69900
H  27.72200 -11.47900 51.25200
H  26.18400 -12.03200 51.74100
H  26.65800 -10.35600 52.22200
H  29.59400 -7.36000 50.09000
H  29.73600 -5.63700 50.34300
H  30.69400 -6.48000 49.02000
H  28.71800 -3.49600 45.31600
H  28.27300 0.89200 47.62600
H  26.66900 0.20400 48.09000
H  27.00000 0.46000 46.49700
Mg 47.78300 34.49200 26.71400
C  45.99000 33.13900 29.40600
C  48.20000 37.20400 28.87500
C  48.96600 36.24600 24.16300
C  47.14500 31.70400 24.83100
N  47.32400 34.96400 28.99600
C  46.59000 34.28400 29.84500
C  46.63000 34.87400 31.25800
C  46.87300 36.38900 30.89500
C  47.59100 36.17600 29.56900
C  45.60800 37.26000 30.85200
C  47.80100 34.35100 32.13000
C  47.93200 34.53400 33.65600
H  46.88900 35.39100 34.46100
N  48.51400 36.48900 26.60600
C  48.73800 37.39700 27.60100
C  49.27500 38.60600 27.04700
C  49.40800 38.38800 25.63200
C  48.97600 36.98000 25.39900
C  49.47300 39.84500 27.99700
C  49.84400 39.31900 24.49200
O  49.98600 38.97500 23.31700
C  50.32900 40.70400 24.93200
N  47.99500 34.03600 24.81000
C  48.46600 34.95500 23.91400
C  48.67100 34.32400 22.51600
C  48.26800 32.83300 22.81300
C  47.77800 32.81500 24.23600
C  47.78400 34.98100 21.30500
C  49.38000 31.80500 22.54000
C  50.60400 31.81000 23.39700
N  46.74700 32.79200 26.94200
C  46.56500 31.73300 26.09400
C  45.82600 30.72100 26.85400
C  45.41900 31.33300 28.06200
C  46.08600 32.49800 28.11700
C  45.30200 29.43400 26.43900
C  44.64500 31.09100 29.25100
O  43.88900 30.22700 29.56300
C  44.92400 32.36900 30.14900
C  45.22100 31.86000 31.51600
O  46.22300 31.20700 31.85100
O  44.22100 32.26800 32.37800
C  44.52200 31.93800 33.80200
H  48.22200 38.04800 29.56700
H  49.43600 36.70500 23.29000
H  47.02600 30.74900 24.31400
H  45.74400 34.81200 31.89000
H  47.47700 36.86000 31.67000
H  45.79900 38.26300 31.23300
H  44.83300 36.73800 31.41300
H  45.19100 37.31800 29.84700
H  48.72500 34.66700 31.64600
H  47.89400 33.29600 31.87100
H  48.96600 34.83500 33.82100
H  47.91900 33.50100 34.00100
H  50.38700 40.36400 27.71000
H  49.63200 39.75500 29.07200
H  48.69600 40.56400 27.73700
H  51.21000 40.61400 25.56800
H  49.47100 41.13400 25.44800
H  50.59200 41.32700 24.07700
H  49.72900 34.50300 22.32300
H  47.41500 32.48400 22.23100
H  48.47800 35.52800 20.66800
H  47.09300 35.65900 21.80500
H  47.20900 34.24300 20.74600
H  49.77700 31.94400 21.53400
H  48.91800 30.82100 22.62300
H  50.96000 30.85300 23.77700
H  50.53400 32.46500 24.26500
H  51.39100 32.21100 22.75800
H  45.49900 29.36400 25.36900
H  44.24200 29.35200 26.67900
H  45.79000 28.56800 26.88600
H  44.04500 33.01300 30.19300
H  44.07700 32.77700 34.33800
H  45.56600 31.92500 34.11400
H  44.04200 31.01100 34.11700

