158

Mg 44.29000 4.27000 47.15000
C  42.21900 7.13400 47.10900
C  41.31300 2.45400 46.79800
C  46.09700 1.52000 46.66300
C  47.01200 6.31200 46.40100
N  42.06500 4.76000 46.91100
C  41.52500 5.94600 47.11200
C  39.97500 5.93400 47.22200
C  39.76400 4.42900 47.26100
C  41.09300 3.84900 46.93700
C  39.20400 3.84000 48.57600
C  39.13900 6.61700 46.00600
C  39.84900 7.05200 44.71800
H  39.57400 6.13700 43.62900
N  43.77500 2.20400 46.76400
C  42.50300 1.74300 46.71300
C  42.60200 0.26400 46.63200
C  43.96800 -0.05100 46.56300
C  44.69700 1.25800 46.71700
C  41.36900 -0.73100 46.66600
C  44.49300 -1.46900 46.49400
O  43.72800 -2.37100 46.23100
C  45.96400 -1.74600 46.65200
N  46.18700 4.03800 46.51500
C  46.73300 2.79600 46.64500
C  48.33600 2.90900 46.82200
C  48.55800 4.30200 46.25400
C  47.13300 4.95000 46.38100
C  48.71900 2.71300 48.27300
C  49.12400 4.34700 44.81300
C  50.60500 4.37700 44.73200
N  44.62700 6.29800 46.94300
C  45.77800 7.01300 46.60100
C  45.51700 8.45300 46.70200
C  44.08700 8.50100 46.94100
C  43.62200 7.20100 47.05300
C  46.50700 9.62900 46.48200
C  42.93600 9.41400 47.06100
O  42.91800 10.63800 47.09600
C  41.77900 8.52600 47.30300
C  41.30600 8.73200 48.66700
O  41.84900 8.56800 49.73800
O  40.10200 9.30800 48.57600
C  39.35100 9.69400 49.77600
H  40.44300 1.79500 46.80500
H  46.83700 0.71700 46.68300
H  47.86100 6.97800 46.23500
H  39.59600 6.32500 48.16700
H  39.09800 4.11800 46.45600
H  38.82700 4.59000 49.27100
H  39.78300 3.02900 49.01600
H  38.25400 3.37100 48.31800
H  38.47000 7.37200 46.42000
H  38.38900 5.92400 45.62500
H  40.93000 6.92600 44.78900
H  39.74100 8.07700 44.36600
H  41.42200 -1.40300 45.81000
H  40.38800 -0.25500 46.63700
H  41.47800 -1.27700 47.60300
H  46.20500 -1.18300 47.55300
H  46.61600 -1.32700 45.88600
H  46.10400 -2.81800 46.79100
H  48.87300 2.32600 46.07300
H  49.26600 4.77800 46.93200
H  48.86600 1.64600 48.44000
H  47.97700 3.22500 48.88500
H  49.63100 3.23200 48.56900
H  48.69100 5.26100 44.40600
H  48.89300 3.46900 44.20800
H  51.11900 4.44200 45.69200
H  50.94500 5.19900 44.10200
H  50.94600 3.38400 44.44200
H  46.04000 10.50400 46.02900
H  47.40300 9.32900 45.93900
H  46.88300 10.01100 47.43100
H  40.91700 8.68400 46.65500
H  39.69500 10.67400 50.10900
H  39.37400 8.93900 50.56100
H  38.29400 9.72300 49.51300
Mg 6.67600 58.02400 41.24000
C  5.50900 54.62200 41.09100
C  9.67700 57.00400 40.44100
C  7.38700 61.18500 40.73400
C  3.29900 58.91100 41.86900
N  7.48600 56.00800 40.56300
C  6.83000 54.76000 40.70100
C  7.95100 53.64100 40.37700
C  9.36100 54.50100 40.64000
C  8.85400 55.92200 40.56600
C  10.11200 54.27200 41.93000
C  7.83900 53.14400 38.92200
C  8.42600 51.77400 38.60400
H  7.71000 50.83700 37.69900
N  8.26700 58.97000 40.61200
C  9.49300 58.35700 40.45000
C  10.46800 59.40500 40.09300
C  9.89800 60.66300 40.09000
C  8.46200 60.29100 40.42100
C  11.91200 59.04300 39.81100
C  10.57100 62.03900 39.75900
O  11.76200 62.06200 39.44800
C  9.85000 63.36200 39.88600
N  5.50200 59.77500 41.41600
C  6.16500 60.94400 41.21200
C  5.21900 62.08300 41.52300
C  3.82300 61.39700 41.41600
C  4.17500 59.93600 41.65100
C  5.41900 62.76100 42.87200
C  3.05200 61.68600 40.16300
C  1.55800 61.70800 40.36200
N  4.86800 57.06000 41.50000
C  3.56500 57.53200 41.78700
C  2.59200 56.35500 41.96100
C  3.35600 55.20600 41.83000
C  4.62900 55.68900 41.38900
C  1.19300 56.45900 42.42700
C  3.42400 53.79800 41.93700
O  2.47600 53.00100 42.13800
C  4.87000 53.29800 41.47500
C  4.73300 52.25200 40.43400
O  4.47000 52.48900 39.25500
O  4.88000 50.95800 41.00200
C  4.79400 49.86500 40.02900
H  10.75300 56.81900 40.41100
H  7.69400 62.23300 40.70900
H  2.28000 59.30400 41.88400
H  7.79300 52.79600 41.04700
H  10.03700 54.24600 39.82400
H  11.17700 54.31600 41.70100
H  9.79600 53.38700 42.48300
H  9.85700 55.06600 42.63100
H  8.30200 53.97300 38.38800
H  6.79800 53.20900 38.60400
H  8.52700 51.32600 39.59200
H  9.45900 51.86900 38.26800
H  11.90100 58.04200 39.38000
H  12.73500 59.13300 40.52000
H  12.23400 59.65300 38.96700
H  8.96300 63.34700 39.25200
H  10.38900 64.18700 39.42100
H  9.60900 63.61000 40.92000
H  5.34700 62.84400 40.75400
H  3.11600 61.55600 42.23000
H  4.81800 63.65400 43.04400
H  6.48600 62.91300 43.03500
H  5.33300 62.02900 43.67500
H  3.35600 61.15700 39.26000
H  3.29500 62.72500 39.94100
H  0.97500 61.59700 39.44800
H  1.26900 62.68000 40.76100
H  1.23800 60.92700 41.05200
H  1.12800 56.14700 43.46900
H  0.42600 56.03500 41.78000
H  1.00100 57.53100 42.37900
H  5.44400 52.88900 42.30600
H  3.87600 49.33500 40.28200
H  5.61000 49.14600 40.09700
H  4.66700 50.27100 39.02500

