158

Mg 7.74900 2.73400 27.44300
C  9.07600 0.90100 30.16400
C  5.86900 4.57700 29.47800
C  6.24100 3.96400 24.73700
C  9.11800 0.26800 25.31300
N  7.53600 2.75800 29.53300
C  8.28100 2.06500 30.48900
C  8.11100 2.73500 31.87700
C  6.94600 3.74400 31.66200
C  6.69100 3.67900 30.12700
C  5.81700 3.65700 32.62900
C  9.39500 3.40800 32.42400
C  9.18600 3.95100 33.82300
H  10.10600 3.51500 34.95700
N  6.21500 4.15400 27.10200
C  5.54500 4.81500 28.12900
C  4.67600 5.81900 27.56400
C  4.78400 5.67900 26.17700
C  5.80300 4.55600 25.95100
C  3.70200 6.62400 28.37600
C  4.00200 6.41500 25.07800
O  4.06200 6.11600 23.88800
C  2.96100 7.45400 25.45000
N  7.55100 2.01600 25.30400
C  6.92100 2.84800 24.44300
C  7.02200 2.29600 23.02500
C  8.01500 1.10100 23.22000
C  8.21700 1.07100 24.71900
C  5.69100 1.70800 22.47000
C  9.32200 1.37900 22.47100
C  9.98000 0.05400 22.13800
N  8.93500 1.07000 27.65600
C  9.41400 0.12300 26.68100
C  10.24800 -0.88600 27.30300
C  10.26600 -0.53200 28.66600
C  9.28100 0.54100 28.85000
C  11.00000 -1.99800 26.63200
C  10.80000 -0.85500 30.00200
O  11.59300 -1.68600 30.44000
C  10.03300 0.15200 31.03400
C  9.33200 -0.67400 32.08100
O  8.44600 -1.44500 31.86100
O  9.84400 -0.34400 33.28900
C  9.49900 -1.19500 34.50000
H  5.34800 5.28700 30.12400
H  5.91600 4.54000 23.86800
H  9.67700 -0.46900 24.73200
H  7.78400 2.01900 32.63100
H  7.41300 4.72100 31.77900
H  4.98200 3.15600 32.14100
H  5.46800 4.68100 32.76400
H  6.10300 3.12100 33.53300
H  9.73500 4.15600 31.70800
H  10.17500 2.64700 32.45600
H  8.15600 3.64000 33.99700
H  9.26100 5.03600 33.74700
H  3.90800 7.69400 28.34500
H  3.75600 6.41600 29.44500
H  2.64500 6.51100 28.13400
H  2.15300 6.93100 25.96200
H  2.58700 8.11600 24.66900
H  3.40000 8.16100 26.15300
H  7.38800 3.08600 22.37000
H  7.53200 0.20000 22.84000
H  4.93400 1.93700 23.22000
H  5.60800 0.64400 22.24900
H  5.39700 2.25800 21.57600
H  9.98000 1.95900 23.11800
H  9.13200 1.94400 21.55800
H  9.34000 -0.79500 22.37900
H  10.95200 0.03500 22.63100
H  10.03100 -0.04400 21.05400
H  11.44500 -1.75600 25.66700
H  10.54700 -2.97700 26.47400
H  11.84900 -2.06000 27.31300
H  10.75500 0.73400 31.60600
H  9.25500 -0.49800 35.30100
H  10.40200 -1.68800 34.85900
H  8.64800 -1.81700 34.22200
Mg 34.83800 2.91500 30.04000
C  32.56300 4.22000 32.53900
C  37.35000 3.29200 32.24400
C  36.82000 2.11100 27.56000
C  32.14700 3.13700 27.88800
N  34.91800 3.74300 32.14800
C  33.88100 4.00100 32.98900
C  34.35400 4.12800 34.44900
C  35.91300 4.10500 34.28100
C  36.06300 3.69100 32.81400
C  36.57800 5.42100 34.59600
C  33.85900 2.93700 35.32600
C  33.74400 3.05700 36.84000
H  34.40700 4.29900 37.31800
N  36.84400 2.71800 29.88200
C  37.70300 2.90700 30.91800
C  39.08100 2.61200 30.44000
C  38.92500 2.18800 29.08100
C  37.49100 2.28100 28.77900
C  40.17300 2.75800 31.29000
C  39.98600 1.58600 28.05900
O  39.78200 1.41900 26.84800
C  41.29900 1.01300 28.58800
N  34.59900 3.00100 27.98300
C  35.50100 2.37000 27.14900
C  34.97100 2.32600 25.69600
C  33.44100 2.33100 25.97600
C  33.42500 2.88200 27.36300
C  35.40800 3.43600 24.75400
C  32.60500 1.04000 25.73400
C  31.47900 1.19300 24.64700
N  32.75800 3.48200 30.16600
C  31.79100 3.44900 29.19400
C  30.48900 3.89700 29.78900
C  30.80500 4.13400 31.09100
C  32.19200 4.00200 31.22000
C  29.21800 4.07600 29.03000
C  30.17500 4.61100 32.25500
O  29.05300 4.96500 32.55700
C  31.33700 4.67700 33.27200
C  31.44800 5.99900 33.90600
O  32.19900 6.89200 33.52900
O  30.72300 6.03500 35.11100
C  30.91100 7.23100 35.96900
H  38.20200 3.44800 32.90900
H  37.40100 1.97700 26.64500
H  31.23400 3.15000 27.28900
H  34.10000 5.12400 34.81400
H  36.39800 3.32600 34.87000
H  36.89400 5.36900 35.63800
H  35.91300 6.26100 34.39300
H  37.42800 5.65900 33.95700
H  34.53700 2.10100 35.15600
H  32.89500 2.62200 34.92700
H  34.29000 2.23100 37.29600
H  32.71400 3.01100 37.19200
H  40.28400 3.80700 31.56300
H  41.10700 2.43400 30.82900
H  39.95600 2.14200 32.16200
H  41.34300 0.49000 29.54300
H  41.83700 1.93700 28.80400
H  41.89800 0.41100 27.90400
H  35.11900 1.32700 25.28500
H  32.90600 3.15400 25.50100
H  35.94500 4.16700 25.35800
H  34.61000 3.95900 24.22800
H  36.08300 3.08000 23.97500
H  32.06300 0.80600 26.65000
H  33.22500 0.23500 25.33900
H  31.43800 2.20500 24.24600
H  30.47300 1.02400 25.03100
H  31.77900 0.60100 23.78200
H  28.43700 3.37100 29.31300
H  29.40400 4.08100 27.95600
H  28.82200 5.05900 29.28300
H  31.11000 4.01300 34.10600
H  31.77500 7.04100 36.60600
H  30.07300 7.33600 36.65800
H  30.98400 8.16100 35.40500

