158

Mg 30.57500 59.80500 39.67800
C  27.76000 58.07900 38.74200
C  32.44800 56.84900 39.00800
C  33.40300 61.67900 39.65800
C  28.63000 62.64600 39.85900
N  30.10600 57.70800 38.94700
C  28.92200 57.27500 38.59200
C  28.94400 55.83100 38.10000
C  30.43100 55.38200 38.30200
C  31.06500 56.72400 38.84100
C  30.61300 54.15200 39.21700
C  28.55300 55.68900 36.52100
C  27.38300 54.72100 36.06100
H  26.69400 55.06000 34.76500
N  32.66900 59.31100 39.44500
C  33.21200 58.04100 39.20400
C  34.64200 58.16000 39.16100
C  34.90200 59.53500 39.28100
C  33.60100 60.24600 39.35700
C  35.46700 56.94100 38.99400
C  36.31300 60.23200 39.21600
O  37.35600 59.57200 39.02700
C  36.55800 61.68200 39.35700
N  30.98800 62.04000 39.61000
C  32.26100 62.47400 39.75800
C  32.13200 64.03700 39.92700
C  30.64000 64.35800 40.13800
C  30.00500 62.95200 39.90700
C  33.18500 64.62600 40.99500
C  30.01400 65.39900 39.18200
C  29.16800 66.51400 39.78100
N  28.51700 60.27400 39.54500
C  27.89500 61.45200 39.60800
C  26.46500 61.27600 39.52000
C  26.33400 59.91400 39.19300
C  27.59500 59.41300 39.16200
C  25.35100 62.27400 39.49500
C  25.35000 58.90200 38.77400
O  24.12400 59.04500 38.66900
C  26.30600 57.63100 38.45400
C  25.93300 56.47500 39.40300
O  26.42900 56.26000 40.51300
O  24.80900 55.82300 38.87900
C  24.04200 54.98400 39.74700
H  33.04900 55.95800 38.81500
H  34.28900 62.31400 39.58300
H  28.04100 63.51400 40.16200
H  28.26700 55.17100 38.64200
H  30.87200 55.19400 37.32300
H  31.19800 53.43800 38.63800
H  29.66800 53.66900 39.46400
H  31.22400 54.28600 40.11000
H  29.40900 55.28500 35.98100
H  28.42000 56.70700 36.15300
H  26.57300 54.55200 36.77200
H  27.71600 53.68300 36.06800
H  36.54300 57.11500 38.98000
H  35.12200 56.21300 38.25900
H  35.29000 56.36300 39.90100
H  37.63400 61.83100 39.26500
H  36.19500 62.12300 40.28600
H  36.20900 62.21600 38.47300
H  32.37700 64.60500 39.02900
H  30.37100 64.62400 41.16100
H  33.93800 65.22100 40.47800
H  33.64300 63.89400 41.66000
H  32.55600 65.32100 41.55000
H  29.34800 64.83500 38.52900
H  30.73000 65.77800 38.45200
H  29.87900 67.34000 39.78900
H  28.86200 66.16800 40.76800
H  28.32500 66.71000 39.11800
H  24.47900 61.77700 39.92100
H  24.98600 62.43100 38.48000
H  25.62100 63.14300 40.09500
H  26.14500 57.27000 37.43800
H  23.32100 55.65400 40.21400
H  24.72700 54.62600 40.51600
H  23.57600 54.12200 39.27000
Mg -11.57800 16.94300 42.56700
C  -8.17400 17.26200 42.60100
C  -11.77000 20.39200 41.92300
C  -14.87000 16.65800 41.95600
C  -11.14200 13.43900 42.35600
N  -10.07800 18.66200 42.32400
C  -8.76000 18.50900 42.43500
C  -8.11300 19.93400 42.23700
C  -9.26500 20.86800 42.27700
C  -10.48400 19.95300 42.21700
C  -9.35900 21.83000 43.49200
C  -7.25000 19.93200 40.96100
C  -5.90100 20.64100 41.10000
H  -5.40400 21.44000 39.88100
N  -13.05200 18.32000 42.18000
C  -12.94000 19.68400 42.02500
C  -14.26300 20.28900 41.82400
C  -15.18000 19.22400 41.87000
C  -14.38100 17.99500 42.05400
C  -14.58800 21.75800 41.78000
C  -16.70500 19.41500 41.85300
O  -17.26200 20.48300 41.63100
C  -17.57400 18.21900 41.95300
N  -12.81700 15.22100 42.20300
C  -14.16900 15.41500 42.08800
C  -14.87800 14.07100 42.13100
C  -13.67000 13.09400 41.95900
C  -12.44800 13.96400 42.22200
C  -16.00400 13.86200 43.29100
C  -13.57700 12.43900 40.50700
C  -13.73500 10.88700 40.48100
N  -10.05700 15.60100 42.56400
C  -10.03600 14.20900 42.50200
C  -8.62100 13.73300 42.70200
C  -7.90900 14.97900 42.73900
C  -8.83300 16.00600 42.66700
C  -8.21000 12.35300 42.62400
C  -6.53100 15.43200 42.87000
O  -5.44500 14.88600 43.02000
C  -6.71000 17.01400 42.95100
C  -6.33800 17.49200 44.35600
O  -6.98900 17.32100 45.38500
O  -5.08100 18.17100 44.27000
C  -4.61800 18.91100 45.44300
H  -11.89500 21.44900 41.67800
H  -15.89900 16.53400 41.61200
H  -10.90700 12.37300 42.37600
H  -7.38500 20.00700 43.04500
H  -9.27500 21.50500 41.39300
H  -9.95500 22.69500 43.20000
H  -8.35300 22.11600 43.79900
H  -9.95600 21.39000 44.29100
H  -7.88500 20.33000 40.17000
H  -6.94100 18.89700 40.81700
H  -5.10800 19.92800 41.32400
H  -5.81500 21.38900 41.88900
H  -15.22200 21.94900 40.91400
H  -13.72900 22.34800 41.46300
H  -14.94700 22.10700 42.74800
H  -18.59400 18.60200 41.93400
H  -17.43800 17.72000 42.91300
H  -17.52700 17.60300 41.05500
H  -15.53800 14.09600 41.26400
H  -13.59200 12.31400 42.71600
H  -16.31700 14.84400 43.64600
H  -15.61900 13.26800 44.12000
H  -16.84600 13.26900 42.93400
H  -12.60700 12.79400 40.16000
H  -14.40700 12.84000 39.92500
H  -14.28700 10.43200 41.30200
H  -12.88500 10.24800 40.23800
H  -14.33900 10.58400 39.62600
H  -8.80100 11.79100 41.90100
H  -8.21700 11.84100 43.58600
H  -7.22900 12.38000 42.15100
H  -5.94700 17.34500 42.24800
H  -5.11400 18.42500 46.28300
H  -4.76000 19.99100 45.46100
H  -3.55300 18.79000 45.64000

