158

Mg 40.54800 8.16800 29.49900
C  42.82400 9.63100 31.99000
C  38.67600 7.00600 32.03700
C  38.92400 6.33600 27.22900
C  43.13500 8.89200 27.11700
N  40.84900 8.24200 31.70300
C  41.65600 8.98900 32.50200
C  41.12900 9.08000 33.91300
C  39.89800 8.11100 33.89300
C  39.79800 7.69800 32.44000
C  39.80000 6.99300 34.88400
C  40.81800 10.55000 34.31400
C  39.79700 10.65800 35.49800
H  40.09000 11.82900 36.41300
N  38.85400 7.06100 29.60300
C  38.23600 6.64400 30.75800
C  37.08500 5.90300 30.41400
C  37.06200 5.75100 28.98800
C  38.29000 6.37900 28.53700
C  36.08400 5.49600 31.46200
C  36.17100 5.07400 28.08800
O  36.38200 4.96100 26.89200
C  34.92200 4.55500 28.58800
N  41.05300 7.60200 27.48800
C  40.18700 6.87600 26.70300
C  40.57600 6.87400 25.20800
C  41.65900 8.03100 25.20900
C  41.99300 8.24200 26.67000
C  41.07500 5.45300 24.70800
C  41.26600 9.40700 24.58800
C  40.09500 10.12700 25.15900
N  42.57600 8.99100 29.54900
C  43.39800 9.19900 28.41500
C  44.58200 9.90700 28.94900
C  44.41000 10.05000 30.35500
C  43.14600 9.57200 30.61600
C  45.81500 10.25100 28.15000
C  44.95200 10.66000 31.62900
O  45.91800 11.38200 31.80300
C  43.91600 10.40200 32.69500
C  44.41400 9.67300 33.83200
O  44.90800 8.58500 33.76600
O  44.08400 10.39600 34.92900
C  44.08200 9.66800 36.19400
H  38.09800 6.56600 32.85300
H  38.30700 5.78800 26.51400
H  43.89000 9.23300 26.40600
H  41.87200 8.80600 34.66200
H  38.97000 8.64100 34.11000
H  40.73500 6.97200 35.44400
H  39.66100 6.09300 34.28600
H  38.93900 6.99800 35.55200
H  40.29100 10.88100 33.42000
H  41.75400 11.09200 34.44600
H  39.58300 9.75900 36.07600
H  38.89000 10.89700 34.94200
H  35.03800 5.63300 31.19000
H  36.22500 5.85900 32.48000
H  36.29700 4.44000 31.62900
H  35.14100 3.79300 29.33600
H  34.35000 3.92400 27.90800
H  34.39500 5.38800 29.05100
H  39.75700 7.16100 24.54800
H  42.59600 7.73100 24.73900
H  42.16200 5.48700 24.62500
H  40.66800 4.99400 23.80700
H  40.90600 4.75700 25.53000
H  41.08600 9.26300 23.52300
H  42.11300 10.09000 24.52100
H  40.43700 11.14100 25.36600
H  39.84300 9.66100 26.11200
H  39.21200 10.10700 24.52100
H  46.68300 9.59700 28.22900
H  46.15800 11.04600 28.81300
H  45.74700 10.53600 27.10000
H  43.67100 11.41900 33.00100
H  44.91100 9.98600 36.82600
H  44.03400 8.58500 36.08200
H  43.09200 9.75200 36.64100
Mg -4.39800 24.64200 26.83200
C  -3.06000 26.63200 29.16500
C  -5.77300 22.61200 29.27900
C  -5.77400 22.60100 24.35200
C  -2.73300 26.36000 24.23900
N  -4.20800 24.53000 28.96600
C  -3.77300 25.59500 29.72300
C  -4.15500 25.34600 31.22600
C  -4.52800 23.85200 31.21600
C  -4.90900 23.62100 29.69500
C  -3.36600 22.93600 31.57600
C  -5.37400 26.24600 31.63500
C  -5.34900 26.77000 33.12500
H  -6.39400 26.28300 33.99900
N  -5.71000 22.91500 26.83600
C  -6.15800 22.28900 27.93300
C  -6.95500 21.15800 27.59400
C  -7.03200 21.12100 26.17400
C  -6.13900 22.25000 25.68300
C  -7.53900 20.13700 28.54600
C  -7.80800 20.14500 25.29400
O  -7.65100 20.14100 24.10800
C  -8.75000 19.11700 25.92700
N  -4.27900 24.50800 24.56700
C  -5.04000 23.65800 23.82600
C  -4.76100 23.81400 22.31400
C  -3.75400 25.01400 22.29500
C  -3.56200 25.34100 23.79400
C  -4.18000 22.49600 21.57200
C  -4.07300 26.21700 21.41100
C  -5.35000 26.95200 21.84100
N  -3.13900 26.24300 26.66400
C  -2.45200 26.80400 25.54700
C  -1.70300 27.89700 26.04200
C  -1.94700 27.95300 27.45100
C  -2.78200 26.86600 27.74800
C  -0.95400 28.82500 25.11900
C  -1.80500 28.63700 28.71800
O  -1.31600 29.71400 28.98000
C  -2.50000 27.81800 29.86200
C  -1.54100 27.39000 30.86700
O  -0.83100 26.39400 30.79800
O  -1.58000 28.29200 31.93800
C  -0.84000 27.79600 33.15200
H  -6.12200 21.96700 30.08800
H  -6.20200 21.92100 23.61400
H  -2.20700 26.97300 23.50300
H  -3.25600 25.59500 31.79000
H  -5.38800 23.81100 31.88300
H  -3.46300 21.97500 31.07000
H  -3.25400 22.77800 32.64800
H  -2.49500 23.49700 31.23700
H  -6.30300 25.77000 31.32100
H  -5.31800 27.19100 31.09500
H  -5.26800 27.85600 33.16800
H  -4.39300 26.54100 33.59500
H  -8.61400 20.27400 28.42900
H  -7.19100 20.25900 29.57200
H  -7.28700 19.10100 28.32100
H  -9.22900 18.57700 25.11000
H  -9.47300 19.66200 26.53200
H  -8.13300 18.42800 26.50400
H  -5.72400 24.09100 21.88400
H  -2.73700 24.70300 22.05700
H  -4.04100 21.74900 22.35300
H  -3.24600 22.75200 21.07100
H  -4.89700 22.13200 20.83600
H  -4.31700 25.70000 20.48300
H  -3.19900 26.82200 21.16900
H  -5.10800 27.78100 22.50600
H  -5.98100 26.36800 22.51000
H  -5.88800 27.24500 20.93900
H  -0.11400 28.36900 24.59500
H  -0.69600 29.68500 25.73700
H  -1.52500 29.09400 24.23100
H  -3.22500 28.45400 30.37100
H  -0.99400 26.72600 33.28900
H  -1.19500 28.40000 33.98700
H  0.24300 27.88100 33.06300

