158

Mg -0.14500 7.90000 26.58600
C  0.62300 9.81900 29.30500
C  -0.60200 5.23500 28.71000
C  -0.84800 6.07800 23.80900
C  0.48200 10.72900 24.56200
N  -0.19900 7.66100 28.82400
C  0.18200 8.57500 29.79800
C  -0.05400 8.05500 31.19800
C  -0.35100 6.50300 31.02200
C  -0.37500 6.41200 29.43000
C  0.62500 5.48000 31.59800
C  -1.19900 8.78900 31.99500
C  -0.86400 8.93200 33.40100
H  -1.00100 7.67500 34.24200
N  -0.62200 5.90400 26.32300
C  -0.80100 4.99000 27.27900
C  -1.15400 3.76700 26.67400
C  -1.14000 3.87300 25.25400
C  -0.92300 5.35600 25.06800
C  -1.58300 2.47300 27.45600
C  -1.20500 2.88100 24.12400
O  -1.10300 3.20800 22.96300
C  -1.26800 1.37300 24.38100
N  -0.40300 8.39800 24.52700
C  -0.41000 7.41400 23.58200
C  -0.04500 7.95300 22.18900
C  -0.07700 9.46700 22.43800
C  0.01100 9.56700 23.98200
C  1.26800 7.41700 21.65500
C  -1.37300 10.14800 21.92000
C  -1.31600 11.64300 21.44900
N  0.44900 9.89000 26.82000
C  0.70600 10.90500 25.89900
C  1.20000 12.09200 26.55000
C  1.26000 11.68700 27.95100
C  0.70800 10.35100 28.04100
C  1.56100 13.39300 25.95900
C  1.60900 12.16100 29.24300
O  2.04100 13.22300 29.67900
C  1.08100 11.03300 30.18400
C  2.18800 10.72700 31.12500
O  3.05300 9.93200 30.95400
O  1.98200 11.49900 32.28500
C  2.97700 11.45200 33.31800
H  -0.78800 4.42300 29.41600
H  -0.76700 5.39900 22.95800
H  0.81500 11.46800 23.83000
H  0.91300 8.14800 31.69400
H  -1.38300 6.31400 31.32000
H  1.51400 5.89400 32.07300
H  0.95500 4.82200 30.79500
H  0.12800 4.90900 32.38300
H  -2.09800 8.21200 31.77700
H  -1.39500 9.71800 31.46100
H  -1.47600 9.70900 33.85800
H  0.15800 9.30900 33.36200
H  -2.58600 2.13300 27.19700
H  -1.63500 2.69200 28.52200
H  -0.78100 1.73700 27.39600
H  -0.55400 1.09500 25.15600
H  -1.05300 0.94200 23.40400
H  -2.29900 1.18800 24.68300
H  -0.80600 7.58200 21.50300
H  0.73800 10.06900 22.03600
H  1.77000 8.24900 21.16100
H  1.24200 6.55200 20.99200
H  1.86200 7.09000 22.50800
H  -2.09800 10.16500 22.73400
H  -1.77400 9.51800 21.12600
H  -1.55500 11.78500 20.39500
H  -0.34300 12.09400 21.64300
H  -2.04700 12.27500 21.95200
H  2.34300 13.93500 26.49200
H  0.65900 13.99300 26.08200
H  1.85700 13.25300 24.92000
H  0.20900 11.40100 30.72500
H  3.46200 12.42800 33.35300
H  3.70600 10.66700 33.11800
H  2.54500 11.18800 34.28300
Mg 10.70900 47.95800 25.64800
C  7.97100 48.10900 27.89400
C  12.72500 49.23700 28.04400
C  13.02800 47.92200 23.30400
C  8.19200 47.44100 22.97500
N  10.37000 48.62300 27.70000
C  9.28700 48.36900 28.47800
C  9.53800 48.46400 30.04700
C  10.99300 49.22700 29.97600
C  11.38500 49.08100 28.44200
C  11.00100 50.72800 30.29500
C  9.45300 47.15800 30.90600
C  10.10400 47.07100 32.33400
H  9.39200 46.53800 33.51900
N  12.59000 48.44700 25.67100
C  13.26900 48.93400 26.79500
C  14.67000 49.10900 26.38100
C  14.84500 48.65900 25.04900
C  13.45900 48.25200 24.64300
C  15.67100 49.71000 27.30800
C  16.10600 48.58900 24.22500
O  16.15900 48.12200 23.11200
C  17.38500 48.98100 24.84100
N  10.54800 47.67400 23.40800
C  11.72500 47.78600 22.77600
C  11.51700 47.29200 21.32600
C  9.97900 47.28700 21.15500
C  9.51500 47.39700 22.58700
C  12.17800 48.15100 20.21900
C  9.45500 45.98500 20.48800
C  8.49400 46.12100 19.27000
N  8.56200 47.78800 25.41500
C  7.75100 47.61600 24.29100
C  6.37800 47.54200 24.73000
C  6.40600 47.64000 26.14600
C  7.79200 47.73300 26.50000
C  5.14700 47.33900 23.78500
C  5.59300 47.61900 27.38700
O  4.34100 47.56100 27.41000
C  6.58100 47.92800 28.56800
C  6.48000 46.69200 29.28800
O  7.14900 45.68300 29.06100
O  5.63400 46.87100 30.28300
C  5.54500 45.78600 31.22700
H  13.42300 49.50000 28.84100
H  13.77000 47.95100 22.50300
H  7.46100 47.27200 22.18100
H  8.61800 48.95900 30.35800
H  11.67600 48.73300 30.66600
H  10.79800 50.91500 31.35000
H  10.24500 51.16000 29.63900
H  11.87800 51.34600 30.10500
H  9.66600 46.31500 30.24800
H  8.37800 47.05900 31.05900
H  10.32700 48.11400 32.55700
H  11.06500 46.56200 32.26600
H  15.25800 49.93800 28.29000
H  16.07900 50.61600 26.85900
H  16.46900 48.99400 27.50600
H  17.56400 48.31000 25.68100
H  17.15000 49.91200 25.35600
H  18.20500 49.03600 24.12500
H  11.87700 46.26300 21.31100
H  9.65100 48.18600 20.63200
H  11.46700 48.73900 19.63900
H  12.48900 47.34000 19.56100
H  13.05100 48.74700 20.48600
H  8.79700 45.43900 21.16300
H  10.34200 45.46600 20.12400
H  7.59900 45.51600 19.41400
H  9.04500 45.68800 18.43500
H  8.20100 47.12500 18.96600
H  4.65900 48.30500 23.91900
H  4.49700 46.53200 24.12400
H  5.41600 47.25600 22.73200
H  6.28800 48.77700 29.18600
H  5.22700 44.89200 30.69100
H  4.83100 46.10600 31.98700
H  6.50500 45.56300 31.69200

