158

Mg 24.16400 -5.36000 44.97000
C  26.34300 -2.96300 43.49300
C  21.63300 -4.11700 42.92600
C  22.56400 -8.22400 45.40300
C  27.08400 -6.94800 46.35100
N  24.03700 -3.69200 43.47200
C  25.01700 -2.92100 42.99000
C  24.52900 -2.00200 41.90500
C  22.90600 -2.04800 42.01400
C  22.82900 -3.37600 42.81300
C  22.23300 -0.99000 42.91600
C  25.08300 -2.59800 40.53900
C  25.57400 -1.64700 39.48300
H  25.05000 -1.79500 38.03800
N  22.36700 -6.02600 44.39400
C  21.43100 -5.36800 43.59200
C  20.25700 -6.22300 43.46000
C  20.50000 -7.45500 44.15800
C  21.89400 -7.28300 44.65300
C  19.00200 -5.81600 42.65100
C  19.46700 -8.51000 44.39600
O  18.35600 -8.38000 43.85800
C  19.64000 -9.60200 45.36300
N  24.72000 -7.25900 45.88200
C  23.83500 -8.28600 45.91300
C  24.46800 -9.46100 46.60000
C  25.75200 -8.92300 47.18600
C  25.91100 -7.64800 46.42200
C  23.46100 -10.17000 47.64400
C  27.02600 -9.84600 46.94900
C  27.84600 -10.22900 48.19500
N  26.25100 -4.98300 45.08300
C  27.29400 -5.74300 45.65300
C  28.52000 -4.99600 45.50600
C  28.17500 -3.86900 44.69400
C  26.78500 -3.96400 44.40200
C  29.85000 -5.35100 46.00900
C  28.67100 -2.67800 44.04700
O  29.78500 -2.17600 44.09400
C  27.53500 -2.08200 43.14700
C  27.18900 -0.67700 43.59500
O  26.64600 -0.24600 44.56500
O  27.61500 0.11000 42.59500
C  27.38500 1.57000 42.69500
H  20.78300 -3.68800 42.39200
H  22.01700 -9.13100 45.66500
H  27.97400 -7.42300 46.76900
H  24.92200 -0.99100 42.01200
H  22.41000 -2.04700 41.04400
H  21.45400 -0.43600 42.39200
H  23.01600 -0.30500 43.24100
H  21.73500 -1.43100 43.78000
H  24.34800 -3.27300 40.10000
H  25.97300 -3.09600 40.92300
H  26.65200 -1.78100 39.57700
H  25.38000 -0.62800 39.81900
H  18.78100 -6.53600 41.86300
H  19.10700 -4.85200 42.15400
H  18.04300 -5.76200 43.16700
H  20.11800 -9.25700 46.28100
H  20.20200 -10.36200 44.82000
H  18.65500 -10.00800 45.59200
H  24.77800 -10.24900 45.91400
H  25.79700 -8.67900 48.24700
H  22.51700 -9.64700 47.79600
H  23.80400 -10.40100 48.65200
H  23.21600 -11.13800 47.20500
H  27.70400 -9.48300 46.17700
H  26.69200 -10.77700 46.49100
H  28.81000 -9.72700 48.28600
H  27.95500 -11.31400 48.22000
H  27.23300 -9.96400 49.05600
H  29.83600 -5.33100 47.09900
H  30.63700 -4.70600 45.61600
H  30.08900 -6.31700 45.56500
H  27.70900 -2.05000 42.07200
H  27.90900 2.00100 41.84200
H  27.75400 1.87100 43.67600
H  26.30200 1.67200 42.63000
Mg 54.08600 24.39200 44.89700
C  51.44600 26.68300 44.16900
C  51.85100 21.86000 44.03100
C  56.75300 22.46400 44.84700
C  56.12400 27.18600 45.47400
N  51.89200 24.24600 44.27100
C  51.09300 25.33700 43.92700
C  49.73200 24.78300 43.29700
C  49.72500 23.32500 43.97300
C  51.20800 23.09100 44.21000
C  48.86500 23.27400 45.26400
C  49.66400 24.80500 41.71000
C  48.23700 25.10900 41.21500
H  48.13700 25.28300 39.77100
N  54.34300 22.45700 44.38000
C  53.28500 21.58800 44.03700
C  53.89000 20.33600 43.83200
C  55.29400 20.39000 44.12400
C  55.56800 21.79400 44.41800
C  53.00100 19.13200 43.48000
C  56.31900 19.25000 43.92700
O  55.87800 18.15700 43.62200
C  57.76200 19.40600 44.13900
N  56.21000 24.86000 44.89600
C  56.99200 23.85000 45.09300
C  58.40900 24.36700 45.35400
C  58.23400 25.92100 45.54900
C  56.76200 26.03700 45.28300
C  59.21100 23.57500 46.41900
C  58.96100 26.75000 44.50700
C  59.26200 28.27800 44.98500
N  53.81600 26.48400 44.96100
C  54.76000 27.43300 45.34600
C  54.03900 28.68400 45.52500
C  52.74100 28.42200 44.97400
C  52.69600 27.10600 44.63000
C  54.50500 29.96200 46.06200
C  51.48300 28.94200 44.75700
O  51.19000 30.06700 44.98200
C  50.52600 27.88900 44.22200
C  50.14200 28.30800 42.88300
O  50.96000 28.55200 41.98100
O  48.76000 28.53200 42.83300
C  48.42400 29.22600 41.57200
H  51.12700 21.04800 43.93400
H  57.63200 21.81700 44.88200
H  56.69500 28.08200 45.72700
H  48.93700 25.43400 43.66200
H  49.39600 22.64900 43.18300
H  48.29800 22.37200 45.03400
H  48.27100 24.18400 45.34800
H  49.56900 23.00600 46.05200
H  49.98600 23.82300 41.36200
H  50.40300 25.46000 41.24900
H  47.80600 25.95800 41.74500
H  47.60400 24.24400 41.41400
H  53.52800 18.19000 43.32600
H  52.41900 19.45400 42.61700
H  52.33400 18.91900 44.31600
H  58.00700 20.22600 43.46400
H  58.15800 18.49900 43.68100
H  58.01400 19.43100 45.19900
H  58.79200 24.12900 44.36200
H  58.44800 26.15000 46.59200
H  59.41500 24.16300 47.31300
H  60.09500 23.12300 45.97000
H  58.52200 22.78900 46.72900
H  58.26900 26.72600 43.66500
H  59.93000 26.38700 44.16300
H  60.33000 28.26000 45.20400
H  58.76100 28.48400 45.93100
H  58.94700 28.94600 44.18400
H  55.47500 30.18600 45.61700
H  54.57300 29.79800 47.13700
H  53.73500 30.72200 45.93200
H  49.68500 27.75800 44.90300
H  49.07700 30.08500 41.41700
H  47.44000 29.69100 41.62200
H  48.48500 28.44300 40.81500

