158

Mg 45.22800 3.15800 47.73200
C  43.67600 6.03500 46.71000
C  42.42400 1.35500 47.08000
C  47.08500 0.33000 47.48200
C  48.24400 5.03900 48.00900
N  43.26000 3.69800 47.01200
C  42.80700 4.93400 46.63300
C  41.26100 4.94500 46.27300
C  40.85200 3.46500 46.66900
C  42.27300 2.81400 46.93700
C  39.84600 3.29300 47.87200
C  41.10000 5.37800 44.79900
C  39.80100 6.26800 44.59400
H  38.95000 5.96500 43.32000
N  44.77400 1.08700 47.56500
C  43.55700 0.51700 47.34100
C  43.68400 -0.91200 47.27700
C  45.06400 -1.22300 47.38800
C  45.72600 0.05700 47.47800
C  42.57100 -1.91900 46.75400
C  45.66400 -2.63600 47.31800
O  44.92800 -3.58300 47.02000
C  47.12400 -2.78600 47.66700
N  47.35000 2.78300 47.41300
C  47.82100 1.53700 47.54100
C  49.33500 1.53100 47.67700
C  49.71500 3.06200 47.74500
C  48.37500 3.69100 47.70700
C  50.11600 0.52700 48.61100
C  50.61200 3.55100 46.56400
C  51.65000 4.62000 46.89300
N  45.86300 5.15100 47.62300
C  47.05900 5.77800 47.79000
C  46.97800 7.17600 47.53300
C  45.65800 7.35700 46.96500
C  45.00400 6.06700 47.14200
C  48.09500 8.13200 47.62800
C  44.74100 8.26900 46.33900
O  44.96200 9.37800 45.85600
C  43.40300 7.55800 46.27600
C  42.45400 8.10400 47.33800
O  42.20500 7.60800 48.41400
O  41.79900 9.15800 46.74100
C  40.55800 9.53600 47.46800
H  41.46200 0.84400 47.01000
H  47.83600 -0.46300 47.50700
H  49.15100 5.59500 48.25900
H  40.80100 5.66900 46.94600
H  40.50600 2.95400 45.77000
H  39.41000 4.21800 48.25000
H  40.48000 2.94000 48.68500
H  39.00000 2.63100 47.68700
H  41.05100 4.53600 44.10900
H  41.98100 5.93400 44.47800
H  40.15100 7.29700 44.50800
H  39.23300 6.15200 45.51700
H  42.32400 -2.70000 47.47300
H  42.71100 -2.53000 45.86300
H  41.64800 -1.36300 46.59100
H  47.78200 -2.39200 46.89200
H  47.24300 -3.86900 47.63800
H  47.39100 -2.40100 48.65100
H  49.60700 1.28000 46.65200
H  50.12300 3.34500 48.71500
H  49.47000 -0.26400 48.99000
H  50.50800 1.15600 49.41000
H  50.96900 0.06000 48.11900
H  50.07000 3.88100 45.67700
H  51.22900 2.75900 46.14200
H  51.77800 5.37800 46.12100
H  52.58400 4.10900 47.12500
H  51.23200 5.21600 47.70400
H  48.56900 7.92300 48.58700
H  47.65600 9.12000 47.76500
H  48.83300 8.16000 46.82600
H  43.04600 7.64300 45.24900
H  40.88100 10.01000 48.39500
H  39.89100 8.67800 47.54900
H  40.00400 10.33200 46.96900
Mg 26.83900 50.77300 25.52900
C  25.12400 52.11300 28.15200
C  29.57300 50.13300 27.75600
C  28.73600 49.79300 22.91700
C  24.48100 52.20900 23.35700
N  27.26300 51.06300 27.77400
C  26.29900 51.52800 28.59500
C  26.63100 51.13200 30.01300
C  28.21600 50.80800 29.89900
C  28.41000 50.61400 28.39200
C  29.16700 51.87400 30.46500
C  25.76800 50.13000 30.77500
C  25.35900 50.42900 32.23100
H  26.47800 50.59100 33.24100
N  28.77800 49.88900 25.36500
C  29.70400 49.71500 26.39100
C  30.83900 48.97600 25.89300
C  30.57700 48.76700 24.48400
C  29.35800 49.47300 24.16000
C  32.00700 48.36300 26.66100
C  31.43600 47.89700 23.51800
O  31.08600 47.61500 22.43000
C  32.72700 47.33600 23.99100
N  26.64800 51.04000 23.40700
C  27.61000 50.51500 22.55700
C  27.23800 50.81000 21.05100
C  25.76400 51.37100 21.17700
C  25.61400 51.59600 22.74100
C  28.22700 51.60600 20.16500
C  24.53200 50.47300 20.69400
C  24.22800 49.19700 21.50300
N  25.11300 51.78100 25.64000
C  24.21500 52.30800 24.68700
C  23.08600 52.93700 25.37000
C  23.43200 52.85900 26.76600
C  24.67400 52.23100 26.85100
C  21.94900 53.63800 24.75500
C  22.96400 53.20000 28.12100
O  21.90400 53.69400 28.40600
C  24.06900 52.75700 29.06200
C  24.52900 53.78200 30.04500
O  25.34100 54.66600 29.76700
O  23.68300 53.84200 31.15400
C  23.87100 54.94000 32.09000
H  30.43600 49.95800 28.40100
H  29.34700 49.42000 22.09300
H  23.72100 52.52300 22.63900
H  26.67900 52.05600 30.59000
H  28.50500 49.84100 30.31000
H  30.00400 52.15600 29.82500
H  29.53400 51.40700 31.37800
H  28.87500 52.90000 30.69000
H  26.34000 49.20900 30.88000
H  24.86000 49.96300 30.19600
H  24.73600 49.54300 32.35300
H  24.68200 51.27100 32.37800
H  31.86400 48.44800 27.73900
H  32.97000 48.83100 26.45900
H  31.99800 47.27300 26.65000
H  33.15200 46.88000 23.09700
H  32.50600 46.52600 24.68600
H  33.45200 47.99800 24.46500
H  27.14300 49.82700 20.59000
H  25.79400 52.35600 20.70900
H  29.03600 51.82900 20.86100
H  27.88500 52.55300 19.74600
H  28.54500 50.94000 19.36200
H  24.80300 50.02600 19.73800
H  23.59300 51.01400 20.57700
H  24.74100 49.19500 22.46500
H  24.61100 48.32000 20.98100
H  23.19600 49.06900 21.82700
H  22.32400 54.18900 23.89300
H  21.49300 54.21100 25.56200
H  21.13400 52.98400 24.44300
H  23.61000 51.97200 29.66300
H  24.61600 54.67800 32.84100
H  22.89500 55.12100 32.54200
H  24.27100 55.78800 31.53400

