158

Mg 7.41500 3.47700 27.05700
C  9.16400 2.07500 29.82900
C  5.31200 5.08400 29.20800
C  5.70100 4.61200 24.37200
C  9.00500 1.19800 25.01100
N  7.26900 3.52600 29.23800
C  8.16200 3.00600 30.19000
C  7.80900 3.58400 31.54800
C  6.50100 4.35400 31.31300
C  6.31700 4.31700 29.82600
C  5.17900 3.92700 32.08300
C  9.08200 4.36900 32.10900
C  8.88200 5.13200 33.42900
H  9.70800 4.66400 34.66900
N  5.75500 4.81500 26.85300
C  4.99100 5.36600 27.80200
C  3.92900 6.15800 27.25300
C  4.16100 6.17700 25.82900
C  5.23300 5.13000 25.64800
C  3.09200 7.10700 28.13500
C  3.47800 6.93100 24.80300
O  3.83500 6.76700 23.66500
C  2.38900 7.88500 25.07000
N  7.32200 2.97700 25.02300
C  6.65900 3.72400 24.08000
C  6.94900 3.18900 22.65200
C  8.18000 2.21600 22.84000
C  8.11400 2.06100 24.37700
C  5.75900 2.53800 21.90100
C  9.51900 2.85300 22.30800
C  9.79700 2.28700 20.89700
N  8.86700 1.95400 27.37200
C  9.36500 1.12000 26.45600
C  10.31900 0.23100 27.03000
C  10.32600 0.62800 28.42600
C  9.41000 1.68600 28.53200
C  10.93300 -0.97100 26.43200
C  10.84100 0.37100 29.73600
O  11.67100 -0.48100 30.08900
C  10.13300 1.30600 30.73600
C  9.54000 0.57000 31.95100
O  8.62300 -0.22700 31.92500
O  10.20000 1.00100 33.10900
C  9.81000 0.33600 34.45200
H  4.68100 5.59500 29.93800
H  5.29600 4.99400 23.43300
H  9.49300 0.47800 24.35000
H  7.62000 2.76100 32.23700
H  6.67100 5.39900 31.57100
H  5.44000 3.17500 32.82800
H  4.44500 3.62900 31.33400
H  4.80900 4.80600 32.61000
H  9.37000 5.02800 31.29100
H  9.93400 3.71100 32.27800
H  7.90600 5.08200 33.91100
H  9.17400 6.16600 33.24400
H  3.68200 7.37000 29.01300
H  2.24700 6.49300 28.44800
H  2.76600 7.99600 27.59500
H  2.05700 8.24200 24.09500
H  2.96300 8.68500 25.53600
H  1.56100 7.48900 25.65900
H  7.19700 4.08900 22.09000
H  8.09800 1.21600 22.41600
H  4.88100 2.81600 22.48400
H  5.86400 1.45300 21.88600
H  5.57700 2.98600 20.92400
H  10.31900 2.60800 23.00700
H  9.48700 3.94200 22.27300
H  9.63900 2.91800 20.02200
H  9.12900 1.46000 20.65700
H  10.81100 1.88900 20.85600
H  11.39600 -1.45300 27.29200
H  11.71200 -0.60100 25.76500
H  10.25000 -1.59600 25.85600
H  10.84700 2.05100 31.08700
H  8.97300 -0.35000 34.32200
H  9.48800 1.11600 35.14200
H  10.67800 -0.11800 34.93000
Mg -12.78800 16.61300 42.16500
C  -9.94600 14.68900 41.36100
C  -11.35600 19.23000 40.81600
C  -15.95100 18.02900 42.31300
C  -14.37300 13.45400 42.96400
N  -10.87900 16.88300 40.95900
C  -9.89400 15.95800 40.80700
C  -8.64900 16.58600 40.13100
C  -9.03700 18.02700 40.17300
C  -10.52800 18.14000 40.74400
C  -8.10700 18.95200 40.92300
C  -8.14700 15.95100 38.79600
C  -6.68600 15.30100 38.78800
H  -5.77700 15.68600 37.60400
N  -13.51600 18.39400 41.63200
C  -12.76500 19.40700 41.13800
C  -13.61100 20.60100 40.98100
C  -14.91600 20.27900 41.45300
C  -14.86300 18.84500 41.82300
C  -13.05300 21.88400 40.36700
C  -16.07200 21.21700 41.42200
O  -15.97500 22.37200 41.01000
C  -17.40000 20.91200 42.00300
N  -14.88000 15.84200 42.63300
C  -15.95600 16.68600 42.62100
C  -17.22100 15.95000 42.81200
C  -16.75100 14.45100 43.09000
C  -15.24500 14.54200 42.83900
C  -17.99600 16.62400 43.98900
C  -17.36800 13.28700 42.17900
C  -18.40200 12.33500 42.88000
N  -12.24600 14.53900 42.39700
C  -13.01100 13.40000 42.71200
C  -12.07900 12.26400 42.85900
C  -10.85500 12.73700 42.38200
C  -11.03100 14.09300 42.05600
C  -12.40900 10.89800 43.35300
C  -9.46700 12.39800 42.13500
O  -8.84900 11.34500 42.39900
C  -8.83300 13.58300 41.35200
C  -7.55200 14.00700 42.04700
O  -7.37200 14.48700 43.13800
O  -6.47600 13.34100 41.39800
C  -5.20600 13.34100 41.99800
H  -10.78700 20.09200 40.46100
H  -16.93000 18.51300 42.27700
H  -14.79900 12.46200 43.12600
H  -7.87800 16.47400 40.89400
H  -9.08300 18.37800 39.14200
H  -8.65600 19.12000 41.85000
H  -8.03900 19.93500 40.45600
H  -7.11000 18.52000 41.00300
H  -8.15400 16.73700 38.04100
H  -8.88300 15.20000 38.51000
H  -6.97100 14.24900 38.76400
H  -6.21400 15.50600 39.74900
H  -13.63000 22.37800 39.58600
H  -12.09200 21.61400 39.93000
H  -12.77500 22.56100 41.17500
H  -17.36500 20.55300 43.03200
H  -17.81600 20.15900 41.33500
H  -18.01900 21.80500 41.91500
H  -17.81400 16.06900 41.90500
H  -16.92100 14.13100 44.11800
H  -17.56700 17.56700 44.32700
H  -18.11900 15.92400 44.81600
H  -18.97500 17.01700 43.71500
H  -16.57900 12.75100 41.65200
H  -17.92000 13.77800 41.37700
H  -18.05500 11.30300 42.93000
H  -19.40000 12.46600 42.46100
H  -18.43100 12.61100 43.93400
H  -11.48200 10.33200 43.26400
H  -13.21500 10.46300 42.76100
H  -12.64500 10.86200 44.41600
H  -8.59400 13.22200 40.35200
H  -5.11000 13.89300 42.93300
H  -4.54100 13.70700 41.21600
H  -4.80200 12.34300 42.16800

