158

Mg 42.09100 41.77100 26.53400
C  41.01100 44.03100 28.95400
C  43.26800 39.73000 28.96400
C  43.19400 39.74200 24.07800
C  41.37700 44.23900 24.11400
N  42.12500 41.95200 28.65700
C  41.54100 42.86800 29.45000
C  41.58600 42.50800 30.92200
C  42.31200 41.12500 30.86500
C  42.66300 40.92800 29.42100
C  43.57900 40.93800 31.78300
C  40.18400 42.42400 31.71200
C  40.24600 42.98800 33.21000
H  39.39700 42.29400 34.33600
N  43.13800 39.96400 26.55100
C  43.50300 39.21400 27.66200
C  44.00800 37.97500 27.20600
C  44.03800 37.97500 25.77300
C  43.50400 39.24400 25.35800
C  44.45600 36.97800 28.14800
C  44.54100 37.00500 24.67700
O  44.90100 37.23300 23.49200
C  44.92500 35.62400 25.21600
N  42.28300 42.01900 24.41000
C  42.63100 40.95400 23.66700
C  42.25100 41.20300 22.20300
C  41.92700 42.76300 22.12500
C  41.84300 43.05200 23.67200
C  43.22700 40.67700 21.13300
C  40.67300 43.09300 21.26800
C  40.45400 44.44000 20.66100
N  41.34000 43.67400 26.48100
C  41.20500 44.59400 25.44900
C  40.73600 45.88200 25.96400
C  40.53400 45.62500 27.32600
C  40.95100 44.32000 27.59400
C  40.53800 47.06500 25.14400
C  40.05500 46.16500 28.51500
O  39.52800 47.25800 28.75200
C  40.27300 45.14600 29.63500
C  41.24900 45.82100 30.57400
O  42.42400 46.03500 30.39000
O  40.66500 45.83100 31.83400
C  41.49200 46.33100 32.90000
H  43.29100 38.96400 29.74100
H  43.52800 38.94500 23.41000
H  41.08000 45.00600 23.39600
H  42.23800 43.25700 31.37200
H  41.68500 40.29100 31.18000
H  43.44700 41.46400 32.72800
H  44.41200 41.49800 31.35900
H  43.90900 39.91300 31.95300
H  39.93100 41.36300 31.71300
H  39.42700 43.05900 31.25300
H  39.91300 44.02500 33.22400
H  41.28000 42.94400 33.55400
H  44.49600 37.33900 29.17500
H  45.41500 36.55100 27.85300
H  43.70700 36.18700 28.19000
H  44.84400 34.93100 24.37900
H  44.13900 35.36200 25.92400
H  45.84700 35.60700 25.79700
H  41.27700 40.71300 22.18600
H  42.84000 43.22700 21.75200
H  44.19800 40.34600 21.50100
H  43.49400 41.49300 20.46100
H  42.88300 39.81900 20.55600
H  39.77200 42.96100 21.86800
H  40.51200 42.28700 20.55300
H  40.72200 44.23900 19.62400
H  41.05700 45.19900 21.15800
H  39.41100 44.74500 20.75500
H  39.49000 47.36200 25.16300
H  40.79400 46.91900 24.09400
H  40.91100 47.96600 25.63100
H  39.32200 44.96300 30.13400
H  41.82400 45.39600 33.35000
H  40.90800 46.90700 33.61800
H  42.27100 47.04800 32.64100
Mg -11.70600 38.73000 42.32600
C  -9.45100 36.17400 41.25800
C  -9.87500 40.91900 40.36500
C  -14.08200 40.99600 43.00600
C  -13.81800 36.22000 43.35700
N  -9.92200 38.54500 40.99100
C  -9.10300 37.43600 40.71600
C  -7.98400 37.72200 39.77200
C  -8.05800 39.28000 39.72500
C  -9.39300 39.59000 40.32800
C  -6.94200 40.29300 40.08100
C  -8.18800 36.89900 38.41700
C  -7.12400 35.76800 38.13500
H  -6.25500 35.93400 36.91000
N  -11.87000 40.73300 41.87300
C  -11.01400 41.42100 41.01400
C  -11.49300 42.76500 40.98000
C  -12.59300 42.88600 41.85800
C  -12.86300 41.51500 42.35000
C  -10.89800 43.73900 40.06600
C  -13.33500 44.20400 42.10300
O  -12.95200 45.27600 41.62900
C  -14.57100 44.28900 42.97500
N  -13.65200 38.58700 43.16600
C  -14.39200 39.67000 43.37900
C  -15.80800 39.36800 43.67800
C  -15.80600 37.78100 43.51600
C  -14.34200 37.47700 43.35400
C  -16.40200 40.03300 45.00000
C  -16.71300 37.25400 42.35100
C  -18.19700 37.06900 42.72400
N  -11.66700 36.63700 42.46800
C  -12.57900 35.73300 42.91400
C  -12.07700 34.40000 42.98400
C  -10.80900 34.53000 42.32900
C  -10.59900 35.90200 42.08100
C  -12.67100 33.22600 43.65800
C  -9.64000 33.83900 41.89300
O  -9.37100 32.65800 41.92000
C  -8.69500 34.84400 41.21900
C  -7.32100 34.80200 41.82300
O  -6.43100 34.00300 41.69200
O  -7.18900 35.91400 42.69500
C  -6.03000 35.91300 43.56300
H  -9.28800 41.66100 39.81900
H  -14.88900 41.70500 43.20200
H  -14.59100 35.53500 43.71100
H  -7.07600 37.29500 40.19800
H  -8.15300 39.48800 38.65900
H  -6.13600 39.66100 40.45400
H  -7.31600 41.08800 40.72600
H  -6.73700 40.69900 39.09100
H  -8.20600 37.59400 37.57700
H  -9.14100 36.37200 38.45800
H  -7.65100 34.82400 37.99500
H  -6.53500 35.65200 39.04500
H  -10.29200 43.31200 39.26600
H  -10.15600 44.28400 40.64900
H  -11.52300 44.46400 39.54400
H  -15.34800 43.79500 42.39200
H  -14.71000 45.34700 43.20000
H  -14.49200 43.79700 43.94400
H  -16.42200 39.76300 42.86900
H  -16.15500 37.31100 44.43600
H  -16.94000 39.23300 45.50900
H  -17.08500 40.83000 44.70700
H  -15.52400 40.27500 45.59900
H  -16.23900 36.41400 41.84400
H  -16.63900 37.96200 41.52600
H  -18.57800 37.79300 43.44400
H  -18.34100 36.02900 43.01600
H  -18.78200 37.27000 41.82600
H  -13.35000 32.65600 43.02400
H  -13.23700 33.68500 44.46900
H  -11.83800 32.58400 43.94300
H  -8.51000 34.35400 40.26200
H  -6.28700 36.48700 44.45300
H  -5.19200 36.47100 43.14400
H  -5.54400 35.02400 43.96300

