158

Mg 36.04500 50.32100 25.44600
C  35.95000 48.43800 28.53000
C  34.74700 52.95300 27.26800
C  35.99200 52.03400 22.58800
C  37.06700 47.47000 23.76000
N  35.46400 50.73800 27.69800
C  35.60500 49.82100 28.72000
C  35.19200 50.48300 30.06100
C  34.75900 51.89900 29.61300
C  34.97800 51.94200 28.10600
C  33.33300 52.32000 30.05900
C  36.28100 50.42700 31.15900
C  35.88600 49.71600 32.47000
H  34.47000 49.83600 33.04200
N  35.64500 52.27200 25.02400
C  34.99900 53.20600 25.84500
C  34.60200 54.40100 25.09400
C  35.01300 54.21700 23.76500
C  35.62000 52.82900 23.74800
C  33.89800 55.54100 25.74500
C  34.83000 55.07500 22.54400
O  35.29900 54.90800 21.42200
C  34.17600 56.41100 22.80800
N  36.26300 49.77900 23.47200
C  36.25200 50.66000 22.42200
C  36.67000 49.99300 21.09200
C  37.29200 48.66700 21.50200
C  36.80300 48.63500 23.01400
C  35.46500 49.98300 20.07500
C  38.84000 48.57100 21.37300
C  39.72300 49.29100 22.41500
N  36.34500 48.40100 25.94000
C  36.84100 47.32700 25.15900
C  37.01300 46.11500 25.97500
C  36.63000 46.50700 27.23700
C  36.23200 47.91700 27.20600
C  37.50900 44.81500 25.43700
C  36.50600 46.04800 28.61800
O  36.77000 44.95100 29.10400
C  36.17400 47.29000 29.48500
C  35.01500 46.82900 30.29800
O  33.81000 47.05700 29.96800
O  35.33100 46.12000 31.41900
C  34.24000 45.50600 32.23400
H  34.19700 53.80900 27.66400
H  35.95900 52.61400 21.66400
H  37.44900 46.58900 23.24100
H  34.31200 49.95900 30.43400
H  35.44700 52.65600 29.99300
H  32.79800 52.73400 29.20400
H  33.36700 53.15200 30.76200
H  32.67900 51.49900 30.35300
H  36.72200 51.40600 31.34900
H  37.07900 49.85000 30.69200
H  36.54200 50.05500 33.27100
H  36.15000 48.68400 32.23400
H  33.79600 55.61100 26.82800
H  32.94100 55.65200 25.23400
H  34.29900 56.53800 25.56500
H  33.12300 56.32500 23.07800
H  34.30200 57.05200 21.93600
H  34.75400 56.93400 23.56900
H  37.37000 50.63900 20.56200
H  36.78500 47.82300 21.03500
H  34.57900 50.11000 20.69700
H  35.41900 49.00300 19.60000
H  35.47700 50.87700 19.45200
H  39.09100 49.03600 20.41900
H  39.07200 47.51200 21.25900
H  39.10800 49.86700 23.10700
H  40.48000 49.85600 21.87100
H  40.27500 48.55700 23.00100
H  38.17300 45.13800 24.63500
H  36.60200 44.32700 25.07900
H  37.97500 44.13600 26.15100
H  37.00100 47.55500 30.14300
H  33.62200 44.90200 31.57000
H  33.71000 46.38400 32.60200
H  34.58700 44.82200 33.00800
Mg 9.15600 46.85400 25.64900
C  6.82300 47.04500 28.25100
C  11.61400 47.88900 27.69500
C  11.34200 47.25500 22.91600
C  6.52000 46.60300 23.42800
N  9.11000 47.57400 27.70300
C  8.14100 47.34800 28.62900
C  8.60500 47.68100 30.06600
C  10.09400 48.22100 29.78100
C  10.36800 47.87100 28.25300
C  10.37800 49.73300 30.05500
C  8.50100 46.42500 31.02300
C  9.55100 46.29200 32.25700
H  8.96000 45.88900 33.59100
N  11.23700 47.25700 25.38800
C  12.12800 47.57500 26.38200
C  13.49000 47.76700 25.85300
C  13.42500 47.47500 24.45400
C  11.97700 47.33400 24.20600
C  14.64000 48.12900 26.77700
C  14.50000 47.34700 23.43900
O  14.25100 46.94200 22.28800
C  15.92100 47.56000 23.81800
N  8.91500 46.97800 23.48200
C  9.95200 47.11400 22.58100
C  9.47900 47.04000 21.16200
C  7.94700 46.77600 21.35500
C  7.77300 46.76300 22.83200
C  9.99800 48.09000 20.21400
C  7.39700 45.49400 20.65900
C  6.20600 45.78500 19.72700
N  7.03700 46.77600 25.75900
C  6.15700 46.61200 24.77300
C  4.84100 46.61600 25.38100
C  5.06900 46.71800 26.74600
C  6.42300 46.88300 26.92300
C  3.50300 46.46600 24.72700
C  4.39500 46.74100 28.00200
O  3.20900 46.57500 28.23400
C  5.52600 47.01700 29.13400
C  5.50000 45.75800 30.05000
O  5.94000 44.64400 29.68500
O  4.91000 46.05700 31.24600
C  4.98900 45.05100 32.36500
H  12.33900 48.23100 28.43700
H  11.96200 47.44000 22.03700
H  5.76200 46.28300 22.70900
H  7.95200 48.40800 30.54900
H  10.79200 47.61500 30.35800
H  11.21500 49.68900 30.75100
H  9.47400 50.06800 30.56500
H  10.67100 50.49600 29.33400
H  8.55700 45.47500 30.49200
H  7.46900 46.46800 31.37300
H  10.09200 47.22000 32.44300
H  10.29600 45.55800 31.95000
H  15.28300 48.90400 26.35900
H  15.30700 47.27400 26.88200
H  14.27700 48.31000 27.78900
H  16.55500 47.27000 22.98000
H  16.11300 47.11400 24.79400
H  15.99100 48.63100 24.00900
H  9.93100 46.11600 20.80400
H  7.50600 47.73100 21.06600
H  11.02000 48.38500 20.45400
H  9.54000 49.04900 20.45600
H  9.92500 47.86600 19.15000
H  7.01300 44.85000 21.45000
H  8.17900 44.90100 20.18500
H  5.32200 45.60200 20.33900
H  6.26600 45.18200 18.82100
H  6.24000 46.86800 19.61000
H  3.11200 45.51500 25.09000
H  3.60900 46.67600 23.66300
H  2.71000 47.11400 25.09800
H  5.44800 47.92700 29.72800
H  5.97900 44.63000 32.54400
H  4.18400 44.31800 32.30900
H  4.93900 45.55800 33.32800

