158

Mg 35.56800 48.91500 24.67600
C  35.74300 47.08600 27.78800
C  34.40600 51.59100 26.49900
C  35.18000 50.36400 21.85000
C  36.60100 45.98800 23.06600
N  35.16900 49.26200 26.83900
C  35.34900 48.42200 27.93700
C  35.07900 49.12700 29.24000
C  34.43900 50.53100 28.75400
C  34.70000 50.46000 27.27500
C  32.95700 50.91300 29.05300
C  36.32600 49.47400 30.15300
C  36.21000 48.95300 31.53400
H  34.78400 49.07400 32.26300
N  34.95100 50.71300 24.22500
C  34.47700 51.71500 25.07000
C  34.38200 52.92500 24.25600
C  34.55100 52.59800 22.88900
C  34.90300 51.13700 22.94700
C  34.20100 54.36700 24.88500
C  34.38900 53.42700 21.55300
O  34.42400 52.96300 20.40800
C  34.10200 54.91400 21.84000
N  35.90600 48.28500 22.73700
C  35.69900 49.14500 21.70900
C  36.06500 48.52000 20.33500
C  36.64400 47.12100 20.77400
C  36.34600 47.08200 22.26900
C  34.86400 48.44700 19.33400
C  38.11400 46.86900 20.35200
C  39.13400 47.75700 20.96600
N  36.12400 46.95900 25.20600
C  36.47700 45.85700 24.45700
C  36.84800 44.76400 25.30900
C  36.51000 45.14000 26.57100
C  36.09100 46.47500 26.47400
C  37.33800 43.46500 24.84000
C  36.48000 44.76000 28.03100
O  36.73200 43.68900 28.62300
C  36.06500 46.01400 28.87100
C  34.78500 45.61100 29.44500
O  33.63300 45.47200 29.01400
O  35.17600 45.13700 30.63400
C  34.16800 44.37600 31.40400
H  34.14800 52.51100 27.02800
H  35.24700 50.79000 20.84700
H  36.97800 45.15400 22.47100
H  34.33500 48.52700 29.76500
H  34.96800 51.39600 29.15300
H  32.92600 51.71800 29.78700
H  32.57400 50.06500 29.62100
H  32.31100 51.10300 28.19600
H  36.38400 50.54000 30.36900
H  37.20500 49.04500 29.67200
H  37.04100 49.37900 32.09600
H  36.44700 47.88900 31.55300
H  33.35700 54.94700 24.51200
H  35.07000 55.00200 24.71400
H  34.11100 54.34300 25.97100
H  33.84700 55.50000 20.95800
H  34.99000 55.31200 22.33100
H  33.22800 54.95500 22.49000
H  36.74900 49.22700 19.86500
H  36.07300 46.34900 20.25800
H  34.27000 47.58400 19.63600
H  35.14400 48.50100 18.28200
H  34.25200 49.34000 19.46400
H  38.10300 46.89100 19.26200
H  38.46100 45.89200 20.68900
H  39.27900 48.58900 20.27700
H  39.99500 47.26100 21.41400
H  38.78500 48.08600 21.94600
H  37.93000 43.06500 25.66400
H  37.93600 43.55600 23.93300
H  36.53200 42.78600 24.56200
H  36.86400 46.28800 29.56000
H  33.60100 45.03800 32.05800
H  34.71500 43.73700 32.09700
H  33.53400 43.74400 30.78200
Mg 26.60700 50.28500 26.96400
C  24.72900 51.68600 29.64800
C  28.93600 49.40200 29.25600
C  28.45900 49.36200 24.40200
C  24.14000 51.55800 24.87200
N  26.84100 50.70500 29.18400
C  25.86600 51.04800 30.09100
C  26.38300 50.93500 31.55900
C  27.75500 50.19300 31.36800
C  27.87600 50.08300 29.83800
C  29.02600 50.98000 31.94000
C  25.31000 50.12600 32.46600
C  25.82800 49.11000 33.60800
H  25.01900 48.86700 34.83100
N  28.41600 49.43900 26.81100
C  29.18300 48.99600 27.86200
C  30.39400 48.38500 27.29400
C  30.29200 48.44300 25.86200
C  29.02700 49.14500 25.63900
C  31.42300 47.88900 28.18000
C  31.26200 48.01400 24.84300
O  31.12800 48.16600 23.59500
C  32.47900 47.27700 25.28500
N  26.41300 50.72300 24.88300
C  27.27600 50.06300 24.05000
C  26.72900 49.97400 22.57700
C  25.29500 50.60800 22.79800
C  25.24200 50.94000 24.29400
C  27.64300 50.67500 21.46700
C  24.14600 49.59100 22.43000
C  23.20700 50.09700 21.28200
N  24.85600 51.48800 27.14400
C  23.92000 51.82700 26.22600
C  22.82400 52.55000 26.76800
C  23.06300 52.52500 28.17200
C  24.32900 51.85900 28.28800
C  21.82200 53.29000 25.89400
C  22.63300 52.87900 29.51100
O  21.67300 53.56700 29.88100
C  23.67200 52.25900 30.52900
C  24.31000 53.42300 31.27800
O  25.24300 54.06900 30.81600
O  23.78700 53.65500 32.55500
C  24.47900 54.74600 33.30800
H  29.56300 48.98000 30.04400
H  28.89700 48.86400 23.53500
H  23.44000 51.92900 24.12100
H  26.58100 51.97900 31.80300
H  27.74700 49.12900 31.60300
H  29.44700 50.41600 32.77200
H  28.67000 51.95700 32.26800
H  29.80900 50.94400 31.18300
H  24.75400 49.61400 31.68100
H  24.77700 50.91900 32.99000
H  26.87500 49.30300 33.84500
H  25.96200 48.14400 33.12000
H  31.29600 46.83500 28.42700
H  31.38100 48.40100 29.14200
H  32.41700 48.21400 27.87400
H  33.06200 48.09600 25.70600
H  33.06100 46.71300 24.55500
H  32.38800 46.43300 25.96900
H  26.62000 48.89800 22.44000
H  25.21800 51.55100 22.25600
H  28.45500 51.32300 21.79700
H  26.97200 51.33000 20.91100
H  27.96800 49.84300 20.84100
H  23.51800 49.37900 23.29500
H  24.48000 48.60100 22.11900
H  23.69200 50.90500 20.73400
H  22.20700 50.39500 21.59900
H  23.06700 49.28100 20.57200
H  21.11500 53.89200 26.46500
H  21.34600 52.56000 25.23900
H  22.27500 53.97100 25.17400
H  23.22000 51.51400 31.18400
H  24.00400 54.92700 34.27200
H  24.45900 55.74000 32.86200
H  25.53100 54.46600 33.35300

