158

Mg 8.64300 3.85900 28.04900
C  9.77500 2.29600 30.97300
C  6.52000 5.73000 29.98200
C  7.24600 5.01000 25.08400
C  10.44900 1.44400 26.15400
N  8.32100 3.97100 30.22600
C  8.92100 3.31600 31.23000
C  8.30200 3.74300 32.63300
C  7.25900 4.77200 32.22100
C  7.33900 4.82100 30.68700
C  5.75600 4.64500 32.70600
C  9.44400 4.11900 33.69400
C  9.18600 5.17400 34.71300
H  9.58400 4.90300 36.17400
N  7.20200 5.24500 27.61500
C  6.42200 5.89600 28.54100
C  5.56800 6.86100 27.83800
C  5.79200 6.70000 26.47300
C  6.75300 5.59000 26.36100
C  4.50000 7.63100 28.57200
C  5.15100 7.42200 25.27300
O  5.49900 7.16200 24.14900
C  4.16200 8.57700 25.46400
N  8.65600 3.17400 25.95500
C  8.09900 3.93100 24.97800
C  8.67200 3.50300 23.61400
C  9.95200 2.71000 24.01700
C  9.68700 2.39900 25.44700
C  7.61300 2.73800 22.82100
C  11.32300 3.43000 23.91400
C  11.25600 4.96700 23.83300
N  9.91900 2.18100 28.44400
C  10.56100 1.31200 27.57500
C  11.18500 0.24200 28.40400
C  11.03900 0.66600 29.73200
C  10.13800 1.76400 29.68900
C  11.87700 -1.03600 27.91000
C  11.35700 0.35100 31.08600
O  12.08000 -0.58800 31.52200
C  10.53200 1.37600 32.07300
C  9.60000 0.50300 32.81300
O  8.50800 0.15300 32.43600
O  10.16000 0.27700 34.02800
C  9.44400 -0.72000 34.86800
H  6.07600 6.46500 30.65700
H  6.94100 5.47000 24.14200
H  11.20100 0.88700 25.59200
H  7.79000 2.85100 32.99300
H  7.52100 5.74400 32.64000
H  5.64600 5.37900 33.50400
H  5.62600 3.64400 33.11700
H  5.01000 4.85600 31.93900
H  10.37400 4.38500 33.19200
H  9.64500 3.23700 34.30200
H  8.09800 5.17300 34.65200
H  9.55100 6.15000 34.39400
H  4.35600 7.43600 29.63500
H  3.60700 7.27500 28.05800
H  4.74400 8.67900 28.40000
H  3.60300 8.72000 24.54000
H  4.64500 9.54000 25.63100
H  3.47200 8.42900 26.29400
H  8.98700 4.41300 23.10400
H  9.97800 1.77800 23.45200
H  6.75800 2.45900 23.43600
H  8.02900 1.86800 22.31300
H  7.15600 3.49800 22.18700
H  11.74200 3.32500 22.91300
H  12.09800 3.16300 24.63300
H  11.19200 5.37900 22.82600
H  12.09700 5.52000 24.25100
H  10.35500 5.27500 24.36200
H  12.83500 -0.75200 27.47400
H  11.20700 -1.65100 27.30900
H  12.15500 -1.52500 28.84300
H  11.26600 1.91800 32.67000
H  9.30200 -1.70200 34.41500
H  8.44700 -0.36400 35.12500
H  10.07200 -0.80500 35.75500
Mg -10.50900 39.06100 40.48400
C  -9.47400 35.97500 39.60200
C  -7.53400 40.39700 39.11000
C  -11.79000 42.20300 40.37300
C  -13.61900 37.75200 41.45900
N  -8.74500 38.30000 39.38800
C  -8.54300 36.97000 39.22500
C  -7.07800 36.66900 38.67400
C  -6.41700 38.08100 38.95300
C  -7.63100 39.00200 39.07100
C  -5.58200 38.13400 40.24600
C  -7.12100 36.15200 37.13700
C  -7.86200 37.01900 36.08800
H  -8.62700 36.21500 35.07600
N  -9.71600 40.98300 39.97500
C  -8.50700 41.31600 39.43100
C  -8.35700 42.71500 39.37300
C  -9.59000 43.24700 39.75000
C  -10.45700 42.12700 40.01500
C  -7.06600 43.40700 38.82000
C  -9.84600 44.74300 39.94700
O  -9.08700 45.61800 39.41500
C  -11.01800 45.22000 40.65000
N  -12.43100 39.87700 40.97500
C  -12.71500 41.20300 40.70900
C  -14.19600 41.42900 40.94800
C  -14.88300 40.00100 41.11900
C  -13.57400 39.12800 41.26500
C  -14.53500 42.44900 42.07000
C  -15.79300 39.63500 39.92300
C  -17.23800 39.20400 40.30800
N  -11.35200 37.24900 40.64500
C  -12.66400 36.80300 41.07800
C  -12.72000 35.43800 40.98400
C  -11.47500 35.03100 40.45100
C  -10.69200 36.18300 40.26600
C  -13.94200 34.52800 41.13700
C  -10.73700 33.88500 39.93200
O  -11.03100 32.69700 39.94400
C  -9.40000 34.47900 39.41000
C  -8.33600 33.87700 40.24400
O  -8.41100 33.65600 41.42500
O  -7.15200 33.57300 39.51900
C  -6.03800 33.06100 40.24000
H  -6.62400 40.84900 38.71100
H  -12.38200 43.11800 40.29600
H  -14.56700 37.31700 41.78100
H  -6.67100 35.84900 39.26500
H  -5.81200 38.32600 38.08000
H  -4.52900 38.07300 39.97100
H  -5.84900 37.41200 41.01800
H  -5.74000 39.10000 40.72300
H  -7.55100 35.15200 37.08800
H  -6.11800 36.05700 36.72200
H  -7.19900 37.73900 35.60700
H  -8.67900 37.57400 36.54700
H  -6.89400 43.20300 37.76300
H  -6.26300 43.00000 39.43500
H  -6.98700 44.47800 39.00400
H  -11.25100 44.68500 41.57000
H  -11.79100 45.25900 39.88200
H  -11.01700 46.27400 40.92900
H  -14.51900 42.03700 40.10300
H  -15.49100 39.97200 42.02300
H  -15.56700 42.78500 42.17000
H  -13.91700 43.34400 41.99700
H  -14.12600 42.03000 42.99000
H  -15.31700 38.80900 39.39400
H  -15.86600 40.54700 39.33000
H  -17.88200 39.78400 39.64700
H  -17.46300 39.31700 41.36900
H  -17.49400 38.17100 40.07500
H  -13.77700 33.84100 41.96700
H  -13.89300 33.91200 40.23900
H  -14.94500 34.94800 41.05800
H  -9.12000 34.19600 38.39500
H  -5.17500 33.69400 40.03200
H  -5.76800 32.07800 39.85500
H  -6.14500 33.11500 41.32400

