158

Mg 25.31700 1.55500 29.15800
C  27.31000 1.32800 32.13500
C  22.61300 1.84000 31.13900
C  23.71000 1.41800 26.42300
C  28.41000 0.62100 27.37900
N  25.06700 1.73900 31.38900
C  25.98700 1.72500 32.36300
C  25.31000 2.07900 33.69700
C  23.76700 2.13900 33.37500
C  23.78600 1.88100 31.88500
C  22.93900 1.09700 34.21300
C  25.92100 3.41300 34.28000
C  25.17400 4.03700 35.58600
H  26.09300 4.21500 36.86100
N  23.34200 1.67100 28.87000
C  22.34100 1.75700 29.78100
C  21.06500 1.57000 29.05400
C  21.39300 1.50800 27.61500
C  22.83700 1.49800 27.60000
C  19.76200 1.37000 29.79600
C  20.44900 1.35300 26.43900
O  20.87400 1.36300 25.28100
C  18.99400 1.14900 26.68000
N  25.92300 1.06400 27.17200
C  25.05500 1.23400 26.19500
C  25.64300 0.97900 24.80800
C  27.20600 0.88100 25.06700
C  27.23200 0.86300 26.66300
C  25.09000 -0.31400 24.13600
C  28.06500 2.03900 24.48400
C  27.56200 3.47100 24.84200
N  27.41700 1.19000 29.59800
C  28.52700 0.82800 28.78800
C  29.66100 0.65300 29.59900
C  29.24800 0.75400 30.91100
C  27.90700 1.13100 30.86800
C  31.01000 0.12300 29.12700
C  29.62400 0.69100 32.30200
O  30.69400 0.50600 32.83500
C  28.39200 1.18500 33.08000
C  28.14900 0.29700 34.26700
O  27.54600 -0.76800 34.22500
O  28.77300 0.91600 35.37200
C  28.41200 0.25800 36.64900
H  21.78200 2.16300 31.76900
H  23.18100 1.36600 25.47000
H  29.33100 0.59200 26.79400
H  25.49900 1.21200 34.33000
H  23.44700 3.16500 33.55800
H  23.06500 0.09900 33.79300
H  21.89500 1.38900 34.33000
H  23.36400 1.16900 35.21400
H  25.94200 4.14100 33.46900
H  26.93100 3.11800 34.56500
H  24.34800 3.36100 35.80600
H  24.71200 4.97600 35.27900
H  19.41200 0.41300 29.40900
H  19.04000 2.15500 29.57200
H  19.97400 1.35300 30.86500
H  18.67100 1.81300 27.48200
H  18.87200 0.13400 27.05600
H  18.34300 1.27800 25.81400
H  25.37100 1.84700 24.20700
H  27.59400 -0.11000 24.83400
H  24.00100 -0.27000 24.11900
H  25.48000 -1.27300 24.47800
H  25.48900 -0.30900 23.12200
H  28.24200 2.05100 23.40900
H  29.05800 1.88900 24.90800
H  26.59800 3.35800 25.33800
H  27.38400 3.96700 23.88700
H  28.27100 4.11900 25.35700
H  31.26300 -0.92100 29.31200
H  31.76800 0.75400 29.59100
H  31.18000 0.23600 28.05600
H  28.67900 2.19900 33.36100
H  28.42300 -0.82700 36.54700
H  27.43500 0.63100 36.95700
H  29.27600 0.57200 37.23400
Mg 44.58300 4.71400 46.94700
C  42.64400 7.49900 46.25400
C  42.05100 2.73700 46.10100
C  46.70800 2.12800 47.32700
C  47.41800 6.86000 47.20700
N  42.66400 5.11300 46.09800
C  42.10000 6.31900 45.85900
C  40.69800 6.11400 45.17000
C  40.36300 4.61700 45.48800
C  41.78200 4.08600 45.89900
C  39.25800 4.47500 46.58300
C  40.81500 6.46800 43.65200
C  39.92300 7.55600 43.13600
H  40.47600 8.40900 42.10200
N  44.42000 2.66300 46.74000
C  43.22600 2.05700 46.52700
C  43.42300 0.60500 46.58400
C  44.81300 0.43600 46.91700
C  45.39800 1.76200 47.01500
C  42.42000 -0.36500 46.20000
C  45.41800 -1.00500 47.13700
O  44.68500 -1.98700 47.03300
C  46.78800 -1.41600 47.37500
N  46.78700 4.54300 47.30300
C  47.35900 3.32300 47.50900
C  48.91200 3.43500 47.64000
C  49.09200 4.99500 47.69800
C  47.66600 5.47900 47.38400
C  49.44200 2.72300 48.93100
C  50.25100 5.54600 46.90100
C  51.30100 6.29800 47.74700
N  44.97300 6.76800 46.86200
C  46.12500 7.49300 47.05600
C  45.80200 8.88400 47.05300
C  44.39100 8.96400 46.79600
C  44.00000 7.66100 46.60400
C  46.81200 9.94300 47.20200
C  43.33200 9.83300 46.76600
O  43.28200 11.04100 46.86400
C  42.06500 8.91600 46.41600
C  41.07300 9.02000 47.58200
O  41.31300 8.53200 48.71200
O  39.91700 9.74600 47.14800
C  38.98400 10.11700 48.27100
H  41.17500 2.11400 45.90900
H  47.33900 1.24000 47.40300
H  48.26500 7.53900 47.32200
H  39.95700 6.71600 45.69600
H  39.94200 4.20500 44.57100
H  39.46500 3.53700 47.09900
H  38.25400 4.39100 46.16600
H  39.17000 5.27800 47.31400
H  40.71400 5.54500 43.08100
H  41.87900 6.63500 43.48600
H  39.65700 8.29000 43.89700
H  38.97600 7.13900 42.79500
H  42.70100 -0.70600 45.20400
H  41.39400 -0.01000 46.29000
H  42.40400 -1.20200 46.89800
H  46.98700 -2.30700 46.78000
H  46.96200 -1.55600 48.44200
H  47.63200 -0.78700 47.09200
H  49.59200 3.10700 46.85400
H  49.26100 5.33400 48.72000
H  50.29500 3.27700 49.32300
H  49.87100 1.75300 48.67900
H  48.66200 2.52900 49.66800
H  49.86500 6.16600 46.09200
H  50.73000 4.72800 46.36300
H  52.21800 5.71000 47.70300
H  50.97500 6.55300 48.75500
H  51.44000 7.29400 47.32500
H  47.53300 9.75800 46.40600
H  47.23600 9.91500 48.20600
H  46.37200 10.89400 46.90100
H  41.52900 9.32500 45.55900
H  39.10600 9.59700 49.22100
H  38.02600 9.72300 47.93200
H  38.86500 11.18400 48.45700

