158

Mg 7.94900 3.57900 27.27500
C  9.37500 2.04300 30.17100
C  5.67000 5.16000 29.29700
C  6.75600 4.82300 24.55500
C  9.94800 1.40500 25.37200
N  7.50800 3.56000 29.53700
C  8.25400 2.95400 30.49200
C  7.72100 3.21400 31.90800
C  6.51500 4.16700 31.56300
C  6.61500 4.40300 30.08500
C  5.10000 3.68400 32.01500
C  8.78300 3.88500 32.83700
C  8.25100 4.44500 34.17600
H  9.22200 4.36100 35.38300
N  6.47400 4.88200 27.04400
C  5.59600 5.37800 27.96000
C  4.66000 6.22500 27.25500
C  4.95900 6.09200 25.86200
C  6.12600 5.26100 25.74200
C  3.52200 6.98100 27.94900
C  4.43600 6.74700 24.74100
O  4.48500 6.39400 23.56100
C  3.73800 8.13700 24.90900
N  8.32300 3.22400 25.26900
C  7.66300 3.87900 24.30200
C  7.95600 3.37100 22.82600
C  9.14500 2.34000 23.16900
C  9.10200 2.25000 24.69800
C  6.75900 2.93600 21.96000
C  10.53000 2.62000 22.54400
C  11.56200 3.44200 23.44100
N  9.45500 2.12700 27.64000
C  10.15600 1.32700 26.73500
C  10.99500 0.34000 27.43800
C  10.68400 0.68800 28.77000
C  9.75900 1.73100 28.82500
C  11.72500 -0.79200 26.90400
C  11.05400 0.29600 30.09600
O  11.78800 -0.58300 30.46700
C  10.23000 1.22000 31.04100
C  9.44100 0.33400 31.93300
O  8.73500 -0.66800 31.59800
O  9.66400 0.68400 33.16600
C  8.58400 0.25800 34.07100
H  4.93000 5.72300 29.86900
H  6.38600 5.10500 23.56700
H  10.60900 0.76100 24.78800
H  7.55300 2.32200 32.51100
H  6.60400 5.17400 31.97000
H  4.55300 4.45700 32.55400
H  5.19200 2.76800 32.59900
H  4.45000 3.58200 31.14500
H  9.24800 4.65100 32.21600
H  9.52600 3.19700 33.24100
H  7.39200 3.79300 34.33400
H  7.93900 5.48000 34.03800
H  3.98500 7.81200 28.48000
H  3.17200 6.26500 28.69200
H  2.67800 7.29400 27.33400
H  2.75000 7.93200 25.32000
H  3.72900 8.61500 23.92900
H  4.38300 8.65200 25.62000
H  8.22700 4.28600 22.30000
H  8.80700 1.44200 22.65200
H  6.00500 2.34000 22.47400
H  7.12000 2.41900 21.07200
H  6.26100 3.83000 21.58300
H  10.40000 3.09300 21.57100
H  10.97300 1.68400 22.20400
H  11.13700 4.01600 24.26500
H  11.87000 4.33600 22.89900
H  12.41200 2.83300 23.74900
H  11.88000 -0.76900 25.82500
H  11.34300 -1.76300 27.22000
H  12.74500 -0.67700 27.27100
H  11.00000 1.77900 31.57300
H  8.77900 -0.68700 34.57700
H  7.56500 0.21000 33.68600
H  8.56000 0.89100 34.95800
Mg 16.87100 -1.36600 27.81500
C  15.80900 0.46700 30.64000
C  18.67100 -3.32200 29.76300
C  18.19000 -2.70700 24.99200
C  14.94800 0.85100 25.79400
N  17.20300 -1.38300 29.94900
C  16.66100 -0.62000 30.95500
C  17.11200 -1.07600 32.31800
C  18.21100 -2.26600 31.95400
C  18.04400 -2.34800 30.45000
C  19.63600 -1.91300 32.41400
C  15.82400 -1.50200 33.15600
C  15.66600 -0.96300 34.60000
H  16.92600 -0.37400 35.30500
N  18.25500 -2.84200 27.46600
C  18.90700 -3.54400 28.42200
C  19.77000 -4.51600 27.80700
C  19.70900 -4.31500 26.36000
C  18.68000 -3.23900 26.19000
C  20.58600 -5.51600 28.52300
C  20.48200 -4.97400 25.24900
O  20.52900 -4.56000 24.07900
C  21.33900 -6.23500 25.40500
N  16.46100 -1.14900 25.73300
C  17.18600 -1.79400 24.74400
C  16.81300 -1.34800 23.30500
C  15.67800 -0.34600 23.61800
C  15.67600 -0.18200 25.17300
C  17.98700 -0.88600 22.48200
C  14.31000 -0.67000 23.09600
C  13.98900 -0.15900 21.69600
N  15.53000 0.28900 28.13100
C  14.86700 1.06000 27.21000
C  14.11300 2.15400 27.92900
C  14.46200 1.94900 29.26800
C  15.32900 0.82800 29.34700
C  13.09200 3.11600 27.22400
C  14.24200 2.42300 30.60100
O  13.57600 3.35300 31.01600
C  15.11300 1.56200 31.58800
C  16.01500 2.50700 32.25600
O  16.99000 3.09200 31.72800
O  15.55000 2.87900 33.49200
C  16.27600 3.92400 34.26100
H  19.24900 -4.03700 30.35200
H  18.75900 -2.98500 24.10200
H  14.52400 1.72200 25.29000
H  17.50900 -0.24600 32.90200
H  17.95300 -3.21700 32.42100
H  20.03700 -1.25400 31.64300
H  20.21500 -2.82200 32.57800
H  19.61600 -1.35000 33.34700
H  15.77600 -2.58900 33.21400
H  14.93400 -1.16600 32.62300
H  15.18700 -1.67200 35.27500
H  14.92800 -0.16700 34.49300
H  21.64400 -5.26400 28.45800
H  20.52700 -6.47700 28.01200
H  20.22200 -5.68000 29.53700
H  21.92600 -6.22900 24.48700
H  20.74900 -7.12300 25.63600
H  22.09600 -6.00400 26.15500
H  16.44200 -2.11200 22.62100
H  16.05300 0.61100 23.25500
H  17.91200 0.18700 22.30500
H  18.09900 -1.47300 21.57100
H  18.89300 -0.95600 23.08400
H  13.47200 -0.36200 23.72200
H  14.23800 -1.75500 23.16500
H  13.86000 -1.08900 21.14200
H  14.81100 0.44200 21.30900
H  13.06800 0.40000 21.53300
H  12.17700 3.15900 27.81500
H  12.88400 2.73000 26.22600
H  13.43500 4.14900 27.28300
H  14.54800 1.13800 32.41900
H  17.36200 3.88500 34.18600
H  16.03700 3.74100 35.30900
H  15.93900 4.91800 33.96800

