158

Mg 40.06700 9.31000 30.31600
C  42.13500 10.67700 32.92400
C  38.26500 7.60900 32.74900
C  38.26700 7.89700 27.77900
C  42.17500 10.74000 27.98900
N  40.17200 9.16400 32.59900
C  41.01600 9.90600 33.41500
C  40.62200 9.76900 34.87300
C  39.37200 8.76100 34.84600
C  39.19500 8.50100 33.32800
C  39.50000 7.48800 35.79000
C  40.21700 11.16300 35.53400
C  40.91800 11.63500 36.80400
H  40.01800 12.52800 37.73300
N  38.47000 8.02600 30.28900
C  37.90300 7.41000 31.36200
C  36.69100 6.69900 30.89400
C  36.73600 6.64700 29.40500
C  37.90000 7.51400 29.06900
C  35.68900 6.09500 31.99800
C  35.86200 5.85000 28.43100
O  36.09600 5.73900 27.21800
C  34.54900 5.32300 29.07400
N  40.14800 9.35000 28.20200
C  39.26800 8.77100 27.41500
C  39.46000 9.22500 25.98000
C  40.51400 10.37300 26.10600
C  40.98900 10.14500 27.48700
C  39.66900 8.28300 24.71100
C  39.84400 11.75100 25.86900
C  40.69400 12.74300 24.96500
N  41.89100 10.46600 30.40400
C  42.57400 10.88400 29.33800
C  43.73700 11.70300 29.85900
C  43.54600 11.69900 31.26800
C  42.43400 10.85900 31.55100
C  44.82100 12.18800 29.04800
C  44.08100 12.16300 32.51600
O  45.13500 12.78100 32.70400
C  43.22900 11.54200 33.66200
C  44.01700 10.67700 34.60200
O  44.52000 9.53800 34.40800
O  44.05400 11.38000 35.82500
C  44.45400 10.46100 36.92000
H  37.51100 7.20000 33.42500
H  37.60700 7.66400 26.94100
H  42.85000 11.22300 27.27800
H  41.49100 9.38900 35.41000
H  38.43400 9.27400 35.05800
H  39.18000 6.52400 35.39400
H  38.74600 7.71200 36.54400
H  40.45400 7.48700 36.31600
H  39.14400 11.18300 35.72300
H  40.28700 11.90100 34.73500
H  41.78400 12.22300 36.50000
H  41.25500 10.75500 37.35300
H  35.56400 6.75800 32.85400
H  36.01900 5.08900 32.25700
H  34.70400 5.96200 31.55200
H  33.95400 4.79100 28.33200
H  34.07100 6.21200 29.48500
H  34.75500 4.57000 29.83500
H  38.49300 9.69100 25.79300
H  41.43900 10.24800 25.54300
H  39.82900 7.27500 25.09300
H  40.55100 8.49600 24.10700
H  38.83500 8.27200 24.00900
H  39.74400 12.20000 26.85700
H  38.80900 11.64300 25.54400
H  40.96100 13.71200 25.38600
H  40.32100 12.80600 23.94300
H  41.63500 12.23300 24.75900
H  44.91400 11.77400 28.04400
H  45.73900 11.87800 29.54600
H  44.73300 13.27400 29.02500
H  42.77200 12.34800 34.23700
H  43.79300 9.59400 36.92600
H  44.42100 11.04100 37.84200
H  45.46600 10.11200 36.71500
Mg -12.69500 36.92200 42.86800
C  -9.92400 34.95100 42.04700
C  -10.94600 39.70400 41.47500
C  -15.43000 38.75400 43.23500
C  -14.42300 34.04800 43.99700
N  -10.70500 37.24500 41.74200
C  -9.81700 36.19800 41.47000
C  -8.59200 36.81000 40.69600
C  -8.84200 38.34800 40.65300
C  -10.23500 38.48000 41.37600
C  -7.77700 39.41600 41.11900
C  -8.37700 36.09600 39.31700
C  -6.98600 35.48400 38.99100
H  -6.13000 36.34500 37.99900
N  -13.07700 38.88200 42.53800
C  -12.27400 39.83700 41.99300
C  -13.04000 41.09800 41.83800
C  -14.37200 40.78900 42.10000
C  -14.34600 39.41000 42.58400
C  -12.43500 42.42600 41.36400
C  -15.52200 41.72000 41.98200
O  -15.37400 42.86100 41.62500
C  -16.93400 41.37500 42.25400
N  -14.81400 36.37400 43.24800
C  -15.64200 37.44300 43.63500
C  -16.92500 36.92900 44.17100
C  -16.58900 35.35200 44.38500
C  -15.18100 35.25900 43.84100
C  -17.45000 37.68500 45.47500
C  -17.54200 34.54000 43.56200
C  -18.88300 34.19100 44.17400
N  -12.33700 34.94600 43.03500
C  -13.06500 33.93100 43.66000
C  -12.19700 32.75900 43.74200
C  -10.99400 33.09300 43.09900
C  -11.12700 34.43500 42.76700
C  -12.52700 31.36000 44.37800
C  -9.65400 32.66600 42.66000
O  -9.14500 31.55100 42.70200
C  -8.90800 33.90800 42.11400
C  -7.84200 34.09100 43.22000
O  -6.65500 33.91000 43.02500
O  -8.31700 34.57400 44.37300
C  -7.45800 34.48700 45.57500
H  -10.38500 40.55800 41.08800
H  -16.18800 39.44900 43.60500
H  -14.99700 33.19300 44.36100
H  -7.70600 36.68200 41.31800
H  -9.18800 38.67600 39.67200
H  -6.92500 38.79200 41.38800
H  -8.19900 39.94400 41.97400
H  -7.43400 40.19100 40.43400
H  -8.57000 36.79700 38.50500
H  -9.01000 35.24300 39.07300
H  -7.12300 34.50700 38.52800
H  -6.26600 35.45600 39.80800
H  -12.73500 43.24300 42.02100
H  -12.87200 42.77700 40.42900
H  -11.36000 42.36400 41.19600
H  -17.57300 42.01700 41.64800
H  -17.14000 41.53000 43.31300
H  -17.12300 40.35400 41.92000
H  -17.72700 37.00600 43.43600
H  -16.60200 35.06600 45.43600
H  -18.28400 38.34500 45.23700
H  -16.69600 38.37300 45.85800
H  -17.70300 36.94200 46.23100
H  -17.09600 33.58000 43.29900
H  -17.74200 34.99200 42.59000
H  -18.94900 33.16700 44.54200
H  -19.69900 34.38200 43.47700
H  -19.04700 34.88200 45.00200
H  -13.29300 30.84600 43.79700
H  -12.89700 31.38700 45.40300
H  -11.63300 30.74500 44.27400
H  -8.48600 33.68800 41.13300
H  -6.44700 34.67500 45.21400
H  -7.51000 33.56000 46.14600
H  -7.71400 35.37200 46.15800

