158

Mg -2.03100 16.22900 26.06700
C  -2.48000 14.24400 28.84300
C  -2.76500 19.02100 27.97700
C  -1.60500 18.26900 23.29800
C  -1.89700 13.49500 23.99500
N  -2.48800 16.55700 28.08200
C  -2.67500 15.62000 29.08500
C  -2.96500 16.22200 30.52100
C  -3.34500 17.67100 30.06000
C  -2.77400 17.76300 28.64300
C  -4.91900 17.86700 30.00000
C  -1.78300 16.15400 31.54000
C  -2.08500 15.27400 32.80000
H  -2.74400 15.98600 33.92200
N  -2.10500 18.32900 25.72000
C  -2.45100 19.28700 26.71700
C  -2.24400 20.62700 26.07600
C  -2.00900 20.39900 24.71100
C  -1.85600 18.93200 24.55000
C  -2.38800 21.91100 26.87300
C  -1.91500 21.38000 23.58000
O  -1.86800 21.05300 22.38800
C  -1.79000 22.87700 23.96500
N  -2.11500 15.95200 23.87200
C  -1.72200 16.95100 22.98400
C  -1.49900 16.33000 21.60100
C  -1.34800 14.78100 21.94000
C  -1.72800 14.73900 23.33800
C  -2.65000 16.59600 20.58900
C  0.13900 14.28600 21.70600
C  1.21700 14.99600 22.46500
N  -2.19900 14.25400 26.30500
C  -2.10200 13.23200 25.38300
C  -2.23700 12.05100 26.08200
C  -2.26400 12.33000 27.47400
C  -2.28000 13.70600 27.56000
C  -2.07600 10.68800 25.34700
C  -2.39100 11.77600 28.78400
O  -2.46700 10.62600 29.15400
C  -2.44200 12.99500 29.77800
C  -1.29000 12.94400 30.77900
O  -0.20500 13.48300 30.52800
O  -1.55700 12.17200 31.85600
C  -0.55500 11.83900 32.76400
H  -3.07300 19.85800 28.60800
H  -1.52900 18.86300 22.38400
H  -1.76200 12.66200 23.30200
H  -3.72500 15.62100 31.02100
H  -2.84600 18.43000 30.66200
H  -5.51400 17.01100 30.31800
H  -5.18900 18.21000 29.00100
H  -5.13900 18.74700 30.60400
H  -1.56800 17.17300 31.85900
H  -0.83100 15.89800 31.07400
H  -1.12400 14.86900 33.11700
H  -2.77500 14.47800 32.52100
H  -2.40000 21.75700 27.95200
H  -3.29600 22.50100 26.75300
H  -1.55900 22.58100 26.64700
H  -1.86200 23.60600 23.15800
H  -0.90500 23.08600 24.56600
H  -2.57000 23.19600 24.65600
H  -0.60900 16.83100 21.21900
H  -1.99300 14.29400 21.20700
H  -2.18900 16.99100 19.68400
H  -3.40000 17.20400 21.09400
H  -3.14300 15.71700 20.17400
H  0.37600 14.41400 20.64900
H  0.29600 13.24900 22.00100
H  1.90400 14.25500 22.87400
H  0.76800 15.62300 23.23500
H  1.71200 15.68600 21.78200
H  -1.57000 10.79900 24.38900
H  -3.03500 10.17500 25.27400
H  -1.49900 10.10800 26.06700
H  -3.41500 12.91500 30.26300
H  0.18700 11.29100 32.18400
H  -1.02000 11.16900 33.48800
H  -0.12800 12.67100 33.32500
Mg -10.13800 17.43200 43.04800
C  -6.64000 17.08100 43.00800
C  -9.65100 20.66000 42.04900
C  -13.36000 17.56900 42.23500
C  -10.28800 13.88900 43.01000
N  -8.28700 18.73500 42.62200
C  -6.99600 18.35400 42.61700
C  -6.04800 19.55700 42.43900
C  -7.07900 20.79600 42.39700
C  -8.39800 20.03800 42.26700
C  -6.89100 21.64700 43.63300
C  -5.10900 19.39600 41.12900
C  -5.62700 18.41100 40.02800
H  -5.16000 18.69600 38.59700
N  -11.40400 18.97300 42.49700
C  -11.01700 20.25200 42.12800
C  -12.15900 21.10500 41.99000
C  -13.28200 20.21500 41.93100
C  -12.73000 18.85300 42.18600
C  -12.15100 22.66700 41.75000
C  -14.73800 20.65900 41.61500
O  -14.94500 21.85700 41.30100
C  -15.79300 19.60400 41.50000
N  -11.57700 15.96600 42.44800
C  -12.89000 16.27800 42.33500
C  -13.77600 14.99300 42.30200
C  -12.75100 13.89600 42.64400
C  -11.49600 14.62200 42.78800
C  -15.11200 15.02800 43.07900
C  -12.58600 12.80300 41.58500
C  -12.48700 11.36400 42.24900
N  -8.82500 15.75900 43.14400
C  -9.01400 14.38700 43.07600
C  -7.71700 13.72000 43.27900
C  -6.76400 14.70000 43.27900
C  -7.50900 15.92200 43.15400
C  -7.61400 12.29800 43.34500
C  -5.36900 14.96100 43.34100
O  -4.43300 14.20500 43.57400
C  -5.18600 16.51000 43.17000
C  -4.66300 17.04600 44.42400
O  -3.63100 17.71100 44.50000
O  -5.41900 16.67200 45.53900
C  -4.76400 17.25400 46.78200
H  -9.58300 21.72500 41.81700
H  -14.40500 17.53400 41.92100
H  -10.39700 12.81200 43.15500
H  -5.26100 19.59100 43.19300
H  -6.91500 21.39400 41.50100
H  -5.86000 21.71900 43.97800
H  -7.62200 21.53600 44.43500
H  -6.97400 22.70700 43.39200
H  -4.17700 19.14900 41.63800
H  -4.93600 20.39700 40.73100
H  -6.71600 18.37600 40.04300
H  -5.30500 17.42100 40.35100
H  -12.26200 22.90800 40.69300
H  -11.25500 23.18900 42.08600
H  -12.99400 23.10700 42.28200
H  -15.87100 19.00400 42.40700
H  -15.43200 18.95800 40.70000
H  -16.77300 20.03300 41.29300
H  -14.16600 14.91100 41.28800
H  -13.00700 13.44700 43.60300
H  -16.01400 14.84200 42.49700
H  -15.37500 15.96200 43.57600
H  -15.12300 14.30500 43.89400
H  -11.75900 13.05100 40.91900
H  -13.49700 12.80700 40.98600
H  -13.38400 10.78900 42.01900
H  -12.41800 11.43700 43.33400
H  -11.67600 10.79400 41.79300
H  -7.85900 11.73600 42.44400
H  -8.37400 11.95200 44.04600
H  -6.69700 11.91800 43.79500
H  -4.41200 16.85800 42.48600
H  -3.83900 16.70000 46.93800
H  -5.35700 17.02900 47.66800
H  -4.60200 18.33000 46.84600

