158

Mg 54.94600 23.47600 44.39500
C  52.31000 25.89100 43.42000
C  52.62600 21.09500 43.51800
C  57.48600 21.52100 44.50400
C  56.97300 26.30600 45.00800
N  52.72200 23.55300 43.50800
C  51.93500 24.58700 43.12200
C  50.53900 24.09300 42.66100
C  50.49700 22.65500 43.33600
C  52.03600 22.38100 43.51600
C  49.70700 22.53200 44.80800
C  50.46400 24.04600 41.10700
C  49.01800 24.51000 40.63300
H  48.67200 24.43500 39.12300
N  55.12700 21.56900 44.12600
C  54.02800 20.74200 43.69500
C  54.57300 19.44800 43.46100
C  56.01800 19.51700 43.71700
C  56.29200 20.92400 44.10500
C  53.73600 18.24200 43.14300
C  56.91500 18.28700 43.79800
O  56.44400 17.18700 43.54000
C  58.41900 18.47000 44.04300
N  56.91500 23.83900 44.78700
C  57.84000 22.82100 44.88800
C  59.27800 23.28200 44.99900
C  59.06400 24.85000 44.75400
C  57.56300 25.00700 44.90300
C  59.95100 23.03800 46.42100
C  59.65700 25.28400 43.35600
C  60.45700 26.54000 43.28700
N  54.70100 25.61400 44.45400
C  55.56400 26.59100 44.80900
C  54.91200 27.89500 44.70900
C  53.67700 27.60500 44.16200
C  53.58700 26.22300 44.01600
C  55.51200 29.23400 45.10200
C  52.45400 28.28900 43.78400
O  52.17200 29.48000 43.99400
C  51.56500 27.17900 43.15000
C  51.47800 27.42000 41.67400
O  52.42200 27.45800 40.92000
O  50.19100 27.72200 41.28700
C  50.13500 27.95100 39.85600
H  51.93100 20.30800 43.21900
H  58.35900 20.86700 44.45100
H  57.71000 27.10800 44.93300
H  49.72700 24.65900 43.11900
H  50.03700 21.88700 42.71500
H  50.37200 22.19500 45.60300
H  48.78700 21.95700 44.70200
H  49.61400 23.57700 45.10300
H  50.40700 22.99200 40.83200
H  51.24300 24.54100 40.52600
H  48.87500 25.49800 41.07000
H  48.35300 23.88700 41.23000
H  52.72900 18.55700 42.87100
H  53.71900 17.49100 43.93300
H  54.20800 17.78800 42.27200
H  58.88600 19.27900 43.48200
H  58.83900 17.47900 43.86800
H  58.49500 18.68900 45.10800
H  59.86500 22.95100 44.14200
H  59.45200 25.50700 45.53300
H  60.91500 23.51100 46.23200
H  60.04800 21.96200 46.56500
H  59.48700 23.57800 47.24600
H  58.86700 25.41300 42.61600
H  60.18200 24.43600 42.91600
H  61.44800 26.30500 42.90000
H  60.54500 26.95000 44.29300
H  59.94100 27.26400 42.65600
H  56.05700 29.09500 46.03500
H  54.64000 29.86800 45.25900
H  56.17100 29.47200 44.26600
H  50.56200 27.19100 43.57600
H  49.07100 27.91200 39.62300
H  50.59200 27.18200 39.23400
H  50.44400 28.95800 39.57500
Mg -1.56000 34.91700 25.88000
C  -3.49000 33.50900 28.44800
C  -0.67700 37.42800 28.04500
C  0.14700 36.30600 23.37500
C  -2.87400 32.54300 23.68300
N  -2.06600 35.42000 28.04700
C  -2.83200 34.69500 28.85600
C  -2.69700 35.09600 30.32400
C  -1.95800 36.45700 30.18400
C  -1.59400 36.53100 28.67600
C  -2.82100 37.61800 30.70100
C  -1.99000 34.04300 31.13200
C  -1.53800 34.56900 32.49600
H  -1.79300 33.57900 33.60400
N  -0.35700 36.57700 25.70700
C  -0.11800 37.46800 26.71900
C  0.81200 38.43200 26.25400
C  1.07900 38.09300 24.88100
C  0.23400 36.99300 24.59300
C  1.49600 39.51100 27.09300
C  2.04500 38.82100 24.00800
O  2.24800 38.53300 22.84100
C  2.86100 39.96800 24.45500
N  -1.38100 34.56300 23.82500
C  -0.62200 35.23700 22.95600
C  -0.51500 34.63400 21.56500
C  -1.44200 33.40900 21.75000
C  -1.89700 33.43700 23.22500
C  -0.94100 35.61500 20.41000
C  -0.80500 32.08500 21.17100
C  -0.53600 30.94900 22.20600
N  -3.06800 33.41800 25.91400
C  -3.44000 32.53200 24.94400
C  -4.37100 31.65100 25.54700
C  -4.36600 31.96500 26.93200
C  -3.63200 33.09500 27.07300
C  -5.14100 30.44300 24.88900
C  -4.84000 31.53900 28.21200
O  -5.50400 30.54500 28.50000
C  -4.24200 32.49000 29.29200
C  -5.37100 32.87500 30.19500
O  -6.13500 33.81700 30.00000
O  -5.49400 31.93200 31.13400
C  -6.41600 32.09800 32.28100
H  -0.41700 38.20400 28.76800
H  0.75300 36.77300 22.59600
H  -3.23900 31.65900 23.15700
H  -3.69800 35.18400 30.74700
H  -1.00100 36.44300 30.70500
H  -2.20000 38.26500 31.32000
H  -3.57900 37.19200 31.35800
H  -3.21400 38.24900 29.90400
H  -1.09700 33.88700 30.52700
H  -2.60600 33.14600 31.19300
H  -1.89700 35.56900 32.74000
H  -0.45200 34.53400 32.58100
H  2.55900 39.27400 27.05000
H  1.18300 39.40400 28.13200
H  1.22100 40.49500 26.71300
H  2.42300 40.69400 25.14000
H  3.19000 40.57700 23.61300
H  3.65300 39.41100 24.95600
H  0.51300 34.27200 21.55800
H  -2.39800 33.55600 21.24800
H  -1.97400 35.42200 20.12100
H  -0.26200 35.62900 19.55700
H  -0.85100 36.65600 20.72100
H  0.20000 32.31700 20.81800
H  -1.47700 31.73000 20.38900
H  -0.10500 31.35700 23.12100
H  0.21600 30.27100 21.80200
H  -1.48000 30.41400 22.30600
H  -5.99000 30.29400 25.55700
H  -4.48400 29.57800 24.79600
H  -5.56300 30.69500 23.91600
H  -3.51600 31.81100 29.73800
H  -6.11400 33.01100 32.79500
H  -6.44000 31.24700 32.96100
H  -7.41000 32.09300 31.83200

