158

Mg 8.88600 2.85300 27.02600
C  10.12700 1.48300 30.05000
C  6.96100 4.90000 28.75600
C  7.34100 3.61100 24.15800
C  10.67100 0.22500 25.31600
N  8.39000 2.88200 29.24200
C  9.14500 2.47900 30.29500
C  8.70700 3.09100 31.64900
C  7.64000 4.13300 31.17600
C  7.62900 3.98200 29.57400
C  6.22700 4.13800 31.87300
C  9.95800 3.58200 32.40000
C  9.92500 4.56000 33.59500
H  10.49000 3.98500 34.89800
N  7.39600 4.12200 26.53100
C  6.71000 4.89700 27.38400
C  5.80100 5.75400 26.64900
C  5.95200 5.40200 25.27700
C  6.89900 4.33100 25.25800
C  4.95700 6.80600 27.31200
C  5.22500 5.88500 24.08200
O  5.41300 5.50400 22.93800
C  4.18500 6.86000 24.28200
N  9.00700 1.99600 25.06600
C  8.30900 2.59300 24.00400
C  8.73700 2.01300 22.67100
C  9.65700 0.81200 23.11600
C  9.83800 1.07200 24.59100
C  7.63700 1.70600 21.54900
C  10.94200 0.67900 22.23800
C  10.93600 -0.27100 21.07600
N  10.19700 1.23900 27.53200
C  10.85700 0.34300 26.70200
C  11.69900 -0.54600 27.56400
C  11.46300 -0.14900 28.90500
C  10.46700 0.90500 28.82200
C  12.69700 -1.47900 27.08000
C  11.78600 -0.39100 30.25800
O  12.54900 -1.25700 30.74300
C  10.86900 0.57500 31.07700
C  9.99000 -0.21600 31.99100
O  8.96400 -0.79900 31.63400
O  10.48700 -0.18100 33.29900
C  9.51000 -0.73300 34.17100
H  6.43300 5.58400 29.42200
H  6.82600 3.83100 23.22100
H  11.18400 -0.61800 24.85000
H  8.19400 2.39500 32.31400
H  8.08400 5.10700 31.37900
H  6.39400 4.65300 32.81900
H  5.92000 3.11600 32.09300
H  5.43600 4.68500 31.35900
H  10.66700 4.08300 31.74200
H  10.41800 2.65500 32.74500
H  8.85600 4.71600 33.74300
H  10.47800 5.42300 33.22500
H  3.92100 6.48300 27.21600
H  5.07800 7.71500 26.72300
H  5.26800 7.05900 28.32600
H  3.72300 7.26700 23.38200
H  4.47500 7.79800 24.75600
H  3.45100 6.43400 24.96500
H  9.23600 2.91500 22.31500
H  8.96800 -0.02000 22.97000
H  6.71900 1.33100 22.00200
H  7.94700 1.00000 20.77800
H  7.35600 2.64200 21.06700
H  11.80400 0.45300 22.86600
H  11.13200 1.69500 21.89200
H  11.79000 -0.94700 21.11200
H  11.06200 0.23800 20.12100
H  10.00300 -0.83500 21.05200
H  12.95700 -1.18400 26.06300
H  12.41200 -2.52100 26.93500
H  13.56500 -1.43900 27.73800
H  11.45800 1.12100 31.81300
H  8.58400 -0.22600 33.90100
H  9.65400 -0.32600 35.17200
H  9.45200 -1.82000 34.13600
Mg 17.59900 -1.76300 27.30800
C  16.26800 0.34300 29.78000
C  19.30400 -3.52100 29.63500
C  19.03000 -3.48400 24.79400
C  15.87500 0.27100 24.94200
N  17.91100 -1.40700 29.43800
C  17.16100 -0.61400 30.26800
C  17.40800 -1.01600 31.72600
C  18.62200 -2.09100 31.65400
C  18.63100 -2.38300 30.11600
C  20.02900 -1.66300 32.22800
C  16.07700 -1.54800 32.48500
C  15.84600 -0.88400 33.85200
H  17.02000 -0.14000 34.53400
N  18.92000 -3.40100 27.23000
C  19.46800 -3.98900 28.28000
C  20.21000 -5.22800 27.81600
C  20.20200 -5.16700 26.46300
C  19.39600 -3.98900 26.06700
C  20.99800 -6.21400 28.79700
C  20.86900 -6.06200 25.48100
O  20.96200 -5.84100 24.30700
C  21.44700 -7.32600 25.93400
N  17.46500 -1.65500 25.27200
C  18.19800 -2.44000 24.41200
C  18.03000 -1.95400 22.96400
C  16.99900 -0.87000 23.04600
C  16.70500 -0.76100 24.49800
C  19.38900 -1.51200 22.30100
C  15.76800 -1.01200 22.13600
C  14.35700 -1.43500 22.62700
N  16.26000 0.00900 27.26500
C  15.50800 0.61600 26.27700
C  14.64000 1.56000 26.79100
C  14.91500 1.53000 28.16500
C  15.89800 0.53300 28.40600
C  13.54200 2.28300 25.94800
C  14.56000 2.10200 29.46000
O  13.76400 3.02300 29.76700
C  15.36300 1.30800 30.52500
C  16.05200 2.27900 31.43700
O  17.04100 2.90300 31.15400
O  15.37000 2.39000 32.56600
C  15.83200 3.49200 33.47600
H  19.65000 -4.19300 30.42300
H  19.48100 -4.01500 23.95300
H  15.24000 0.83600 24.25700
H  17.68000 -0.01400 32.05800
H  18.24500 -2.94100 32.22300
H  20.53200 -2.41800 32.83200
H  19.99300 -0.65200 32.63600
H  20.66300 -1.73100 31.34500
H  16.11100 -2.58400 32.82200
H  15.19900 -1.39300 31.85800
H  15.55400 -1.63400 34.58700
H  15.02200 -0.18900 33.68600
H  22.07900 -6.21300 28.66100
H  20.70800 -7.26500 28.78000
H  20.80400 -5.92200 29.82900
H  22.48600 -7.24700 26.25300
H  21.40200 -8.03200 25.10500
H  20.76700 -7.91200 26.55300
H  17.71600 -2.81600 22.37500
H  17.39600 0.12300 22.83600
H  20.21500 -2.01200 22.80500
H  19.40900 -0.43900 22.49200
H  19.45200 -1.67300 21.22500
H  16.03800 -1.71300 21.34600
H  15.59600 -0.01900 21.72200
H  13.77200 -0.55900 22.90700
H  14.49400 -1.96200 23.57200
H  13.96500 -2.19000 21.94500
H  13.22500 1.57500 25.18300
H  13.99900 3.15200 25.47500
H  12.74500 2.65400 26.59300
H  14.64000 0.70500 31.07400
H  16.11400 4.41700 32.97400
H  16.65600 3.17000 34.11200
H  14.94900 3.60900 34.10500

