158

Mg 1.75600 -2.78000 44.67400
C  5.20900 -2.60800 43.68300
C  1.07300 -0.45500 42.21400
C  -1.47400 -3.72700 44.71100
C  2.54200 -5.89200 46.25100
N  3.05000 -1.67500 43.22300
C  4.42200 -1.66200 42.99900
C  4.89000 -0.56900 41.99300
C  3.47500 0.07000 41.59000
C  2.43400 -0.76000 42.34300
C  3.40700 1.60400 41.95700
C  5.59000 -1.28800 40.67200
C  7.10000 -0.94400 40.31800
H  7.42800 -0.41700 38.91600
N  0.03600 -1.97500 43.85100
C  -0.03600 -1.01200 42.89100
C  -1.41700 -0.64800 42.65300
C  -2.23700 -1.54900 43.48000
C  -1.23100 -2.47800 44.06600
C  -1.83300 0.57300 41.79800
C  -3.68500 -1.46600 43.62800
O  -4.35500 -0.62200 43.10700
C  -4.38500 -2.43500 44.44600
N  0.67400 -4.49200 45.57800
C  -0.66400 -4.59300 45.48300
C  -1.17200 -5.77800 46.21800
C  0.08200 -6.57000 46.56500
C  1.18600 -5.58100 46.19200
C  -2.09800 -5.43600 47.41200
C  0.08400 -7.99300 45.89100
C  0.59200 -9.21100 46.65200
N  3.51800 -3.95300 45.08900
C  3.65700 -5.12700 45.74200
C  5.08000 -5.40100 45.88400
C  5.73400 -4.38800 45.11000
C  4.72800 -3.54800 44.60300
C  5.76300 -6.57300 46.49700
C  7.00900 -3.85400 44.74700
O  8.13900 -4.22000 45.08600
C  6.70100 -2.90600 43.59300
C  7.62100 -1.80200 43.63000
O  8.64300 -1.63900 42.95700
O  7.25100 -0.85500 44.57900
C  8.11500 0.31000 44.53100
H  0.95300 0.38300 41.52400
H  -2.49100 -4.05900 44.49400
H  2.76600 -6.83800 46.74900
H  5.59200 0.15100 42.41500
H  3.32500 -0.08500 40.52100
H  4.42000 2.00400 41.97400
H  2.89600 1.68000 42.91700
H  2.83900 2.05700 41.14500
H  4.95000 -1.16700 39.79800
H  5.52400 -2.35800 40.86900
H  7.69100 -1.83800 40.51500
H  7.42800 -0.24100 41.08500
H  -1.67100 0.22500 40.77800
H  -1.13200 1.37100 42.04300
H  -2.85400 0.92300 41.95400
H  -4.30600 -3.40700 43.96100
H  -5.36600 -2.06900 44.74800
H  -3.91400 -2.43000 45.42900
H  -1.81500 -6.32200 45.52600
H  0.05700 -6.69100 47.64800
H  -2.43700 -6.31800 47.95600
H  -3.02800 -4.94300 47.12800
H  -1.62600 -4.80500 48.16600
H  0.72300 -7.95500 45.00800
H  -0.91800 -8.31300 45.60500
H  0.99500 -8.94900 47.63000
H  1.47000 -9.62500 46.15600
H  -0.17700 -9.97800 46.73600
H  6.81200 -6.49200 46.21300
H  5.29400 -7.49900 46.16500
H  5.82300 -6.51700 47.58400
H  6.90800 -3.43500 42.66300
H  9.00400 -0.13900 44.97200
H  7.75200 1.12200 45.16200
H  8.49000 0.59300 43.54700
Mg 46.49600 25.73100 29.24800
C  47.35000 27.80400 31.73000
C  45.70600 23.21500 31.71200
C  46.24100 23.18700 26.95100
C  48.13500 27.59200 26.87500
N  46.58400 25.55200 31.43700
C  46.77300 26.60600 32.27400
C  46.51900 26.31500 33.77900
C  46.36800 24.75100 33.73800
C  46.17300 24.44600 32.23200
C  47.49700 23.85700 34.38200
C  45.43000 27.21800 34.36200
C  45.69000 27.94200 35.69100
H  46.33500 27.22500 36.95900
N  45.72800 23.69600 29.24100
C  45.48000 22.87400 30.35700
C  44.81000 21.68300 29.90400
C  45.13300 21.62300 28.47700
C  45.66100 22.92100 28.16100
C  44.20000 20.65000 30.85400
C  45.00700 20.42700 27.56700
O  45.24500 20.36600 26.39300
C  44.37000 19.19700 28.11000
N  47.09400 25.41500 27.13700
C  46.89700 24.33600 26.42300
C  47.44900 24.35300 25.04400
C  47.97300 25.87500 24.99000
C  47.75100 26.31100 26.42300
C  48.45300 23.17800 24.81800
C  47.32900 26.84900 23.88400
C  48.32500 27.37900 22.84900
N  47.44900 27.44500 29.21100
C  47.98300 28.16900 28.18400
C  48.68700 29.33100 28.76000
C  48.35700 29.27700 30.12900
C  47.63600 28.09100 30.36300
C  49.36100 30.48600 28.14300
C  48.47300 29.93800 31.40000
O  48.95000 31.04300 31.57500
C  47.91400 28.98500 32.44100
C  49.06500 28.62000 33.26300
O  49.91000 27.80500 32.89700
O  49.00200 29.28600 34.45700
C  50.10200 29.14000 35.42500
H  45.35200 22.67000 32.59000
H  46.20500 22.46200 26.13600
H  48.76300 28.22700 26.24600
H  47.39900 26.72500 34.27400
H  45.48000 24.68300 34.36500
H  48.47100 24.27500 34.12600
H  47.41100 22.87600 33.91300
H  47.37400 23.77400 35.46200
H  44.43800 26.76900 34.41500
H  45.31700 28.11000 33.74700
H  44.67700 28.21800 35.98400
H  46.30500 28.81900 35.48900
H  43.23100 20.58400 30.36000
H  44.00400 21.08100 31.83600
H  44.84700 19.78000 30.96500
H  45.11800 18.83200 28.81400
H  44.29800 18.44700 27.32300
H  43.37400 19.30600 28.54100
H  46.64100 24.26700 24.31800
H  49.05800 25.92800 24.90100
H  48.04000 22.52800 24.04700
H  48.66900 22.64600 25.74400
H  49.39500 23.62100 24.49400
H  46.91900 27.74100 24.35600
H  46.50200 26.33100 23.39700
H  47.99700 27.16100 21.83200
H  49.37700 27.10500 22.92700
H  48.39200 28.46100 22.95700
H  48.80200 31.40500 28.32300
H  49.52700 30.29200 27.08400
H  50.24900 30.67000 28.74700
H  47.13700 29.54000 32.96700
H  51.00900 28.71000 35.00000
H  49.84900 28.71000 36.39400
H  50.43600 30.16100 35.61400

