158

Mg -2.96400 16.50400 26.85700
C  -3.47400 14.65100 29.83100
C  -3.78800 19.26200 28.64700
C  -3.25500 18.10000 23.93500
C  -2.93900 13.45300 25.12100
N  -3.55100 16.87100 29.16100
C  -3.63500 15.99900 30.17400
C  -4.03300 16.66500 31.49200
C  -4.18000 18.14700 31.04300
C  -3.86600 18.10300 29.49500
C  -5.48400 18.88100 31.34400
C  -3.14300 16.53700 32.75500
C  -3.87300 16.33500 34.01700
H  -2.96900 16.22000 35.29100
N  -3.33700 18.42200 26.39800
C  -3.53300 19.42300 27.25400
C  -3.58100 20.68300 26.50400
C  -3.28600 20.40300 25.12100
C  -3.33100 18.88900 25.07600
C  -3.68900 22.05500 27.20900
C  -3.16400 21.34100 23.94100
O  -3.14000 21.03200 22.74300
C  -3.21500 22.82600 24.21700
N  -3.07600 15.82400 24.86500
C  -3.21600 16.73400 23.75500
C  -3.11800 15.98400 22.42700
C  -2.60700 14.61500 22.89100
C  -2.86100 14.58600 24.40400
C  -4.34300 15.91900 21.49900
C  -1.11000 14.32800 22.63200
C  -0.05600 15.26200 23.17700
N  -3.17800 14.49200 27.33300
C  -3.25100 13.40700 26.47400
C  -3.60000 12.16800 27.30900
C  -3.60400 12.62500 28.65500
C  -3.33700 14.01500 28.57600
C  -3.80700 10.77900 26.77000
C  -3.82100 12.23400 30.03500
O  -4.19000 11.20200 30.53600
C  -3.76600 13.54500 30.89200
C  -2.72800 13.48000 31.83700
O  -1.58700 13.73800 31.61000
O  -3.19100 12.88800 33.01500
C  -2.22300 12.65400 34.07200
H  -3.88000 20.16200 29.25800
H  -2.95700 18.62200 23.02400
H  -2.75600 12.59700 24.46900
H  -5.00800 16.29400 31.80700
H  -3.39900 18.76400 31.48700
H  -5.91200 19.43700 30.50900
H  -5.14900 19.67100 32.01600
H  -6.10100 18.06800 31.72400
H  -2.62100 17.47000 32.97000
H  -2.37900 15.77000 32.62700
H  -4.28300 15.34300 33.82700
H  -4.74700 16.94900 34.23600
H  -2.71500 22.53700 27.29000
H  -3.96800 22.06400 28.26300
H  -4.55700 22.60500 26.84600
H  -2.51400 22.99300 25.03500
H  -4.13500 23.30500 24.55000
H  -2.70300 23.41700 23.45700
H  -2.32600 16.44000 21.83300
H  -3.17000 13.79000 22.45300
H  -4.94100 16.80700 21.70500
H  -4.93000 15.00400 21.56900
H  -3.94000 16.10200 20.50300
H  -1.04500 14.31800 21.54400
H  -0.77700 13.29700 22.75400
H  0.15500 16.07600 22.48300
H  0.90400 14.75400 23.07800
H  -0.24000 15.72800 24.14400
H  -2.83400 10.34600 26.53900
H  -4.43900 10.73200 25.88300
H  -4.24100 10.28500 27.63900
H  -4.65600 13.75400 31.48600
H  -1.56700 13.52100 34.14400
H  -1.66100 11.75800 33.80500
H  -2.67100 12.70500 35.06400
Mg 34.37800 3.21600 29.10000
C  32.25800 4.33900 31.60800
C  36.82900 2.73800 31.31200
C  36.38100 2.26900 26.60700
C  31.73600 3.44600 26.83600
N  34.50700 3.54100 31.25300
C  33.49100 3.89200 32.08900
C  33.91900 3.83900 33.55500
C  35.46300 3.63900 33.37500
C  35.60500 3.27000 31.88200
C  36.34500 4.85400 33.65900
C  33.20700 2.79000 34.32300
C  32.86800 3.03100 35.79800
H  33.70400 4.07500 36.54000
N  36.38800 2.59400 29.01000
C  37.24200 2.47800 30.00300
C  38.50100 1.97000 29.50500
C  38.35100 1.76300 28.15000
C  36.95700 2.22700 27.86100
C  39.61900 1.69100 30.37400
C  39.33300 1.15300 27.14500
O  39.07700 1.02700 25.94700
C  40.68600 0.60700 27.60200
N  34.06700 2.73700 27.06300
C  35.08400 2.55000 26.22000
C  34.59600 2.35800 24.77300
C  32.99400 2.42900 24.89100
C  32.90600 2.90100 26.32000
C  35.18800 3.18300 23.71200
C  32.33100 1.01200 24.78200
C  31.01300 1.10200 23.87900
N  32.40600 3.82800 29.10900
C  31.46300 3.86000 28.13300
C  30.19400 4.36200 28.72300
C  30.46100 4.56500 30.08200
C  31.82400 4.23200 30.21400
C  28.87100 4.38100 27.99800
C  29.85200 4.87200 31.34500
O  28.70200 5.21000 31.58500
C  30.99900 4.79400 32.35800
C  31.19200 6.14900 32.88700
O  31.19800 7.20900 32.18100
O  31.10400 6.04400 34.29400
C  30.92700 7.32800 34.98100
H  37.58400 2.70200 32.10000
H  37.06800 1.97800 25.80900
H  30.94500 3.49200 26.08400
H  33.75300 4.82600 33.98700
H  35.80100 2.79700 33.97800
H  35.75900 5.52500 34.28700
H  36.67000 5.25800 32.70000
H  37.23700 4.44900 34.13700
H  33.83300 1.90200 34.40100
H  32.45700 2.37300 33.65000
H  33.07000 2.17000 36.43600
H  31.81200 3.27600 35.90700
H  39.34300 1.96300 31.39300
H  40.45100 2.29700 30.01400
H  39.80400 0.61700 30.37600
H  41.51600 0.34900 26.94400
H  40.40400 -0.20500 28.27300
H  41.24700 1.37800 28.12900
H  35.02500 1.37700 24.56600
H  32.62400 3.17000 24.18300
H  36.11900 3.61900 24.07500
H  34.45100 3.93500 23.43200
H  35.36200 2.60000 22.80700
H  32.18700 0.53500 25.75200
H  33.10800 0.37100 24.36400
H  30.55000 2.08900 23.88600
H  30.24500 0.42500 24.25100
H  31.18300 0.91000 22.81900
H  28.82700 3.59700 27.24100
H  28.82200 5.41400 27.65500
H  28.05200 4.13400 28.67400
H  30.82700 4.14200 33.21400
H  31.76300 7.94600 34.65500
H  30.96200 7.19200 36.06200
H  30.04300 7.85200 34.61700

