158

Mg 0.29000 7.66900 26.21800
C  0.87100 9.23600 29.16300
C  0.44600 4.70300 27.85600
C  0.01200 6.00500 23.22100
C  0.36400 10.63500 24.40300
N  0.56000 7.07900 28.22000
C  0.68500 7.83700 29.32800
C  0.79300 7.06900 30.70400
C  0.90900 5.63500 30.10200
C  0.57700 5.82000 28.63200
C  2.36200 5.00900 30.37000
C  -0.55200 7.23200 31.53100
C  -0.34400 7.57600 33.01700
H  0.88300 6.92800 33.74000
N  0.31400 5.55900 25.56800
C  0.33100 4.51400 26.43500
C  0.14700 3.35000 25.74200
C  0.06000 3.70200 24.30500
C  0.12700 5.15500 24.31900
C  0.08800 2.00600 26.47200
C  0.03800 2.73500 23.10000
O  0.00200 3.28800 21.98500
C  0.04000 1.22200 23.22600
N  0.39100 8.25200 24.05900
C  0.15700 7.38000 23.05700
C  -0.01000 8.04000 21.61700
C  -0.20400 9.50400 22.12100
C  0.23200 9.47500 23.58000
C  1.14800 7.79500 20.53600
C  -1.64400 10.00500 21.96800
C  -1.98500 10.69200 20.65600
N  0.63200 9.56200 26.66800
C  0.62400 10.67300 25.85000
C  0.96000 11.84500 26.66100
C  1.06200 11.34700 28.01300
C  0.76400 9.97200 27.90500
C  1.10400 13.22300 26.17700
C  1.33900 11.69300 29.38200
O  1.70500 12.69900 29.84700
C  1.11500 10.30500 30.21000
C  2.31600 10.15300 31.05000
O  3.42000 9.86700 30.71900
O  1.87600 10.51700 32.31400
C  2.90100 11.02600 33.20400
H  0.63200 3.78600 28.42000
H  -0.26500 5.50800 22.28800
H  0.41800 11.51200 23.75500
H  1.69400 7.41700 31.20700
H  0.18200 4.92500 30.49500
H  2.23500 3.94900 30.59200
H  2.85000 5.55700 31.17700
H  3.02000 4.99800 29.50100
H  -1.16900 6.33500 31.58300
H  -1.19300 7.97600 31.05800
H  -1.25500 7.20900 33.49000
H  -0.15400 8.63800 33.16900
H  1.13000 1.83600 26.74300
H  -0.20600 1.25400 25.73900
H  -0.62200 2.00600 27.29900
H  0.92000 0.91600 23.79100
H  0.24400 0.80000 22.24200
H  -0.85800 0.80700 23.68400
H  -0.91800 7.70100 21.11800
H  0.55900 10.09200 21.61100
H  1.62500 6.81800 20.61200
H  1.86500 8.60900 20.64200
H  0.68500 7.89700 19.55500
H  -1.92500 10.68900 22.76800
H  -2.22500 9.09900 22.14200
H  -2.84200 10.14000 20.27200
H  -1.18700 10.54700 19.92800
H  -2.31900 11.72400 20.76900
H  0.79900 13.20800 25.13100
H  2.11300 13.59000 26.36500
H  0.38800 13.89700 26.64900
H  0.21400 10.47200 30.80000
H  2.41800 11.83600 33.75100
H  3.78100 11.38600 32.67000
H  3.13700 10.32400 34.00400
Mg -9.60700 39.87800 42.62000
C  -8.44900 36.69100 41.60600
C  -6.76200 41.12800 41.22800
C  -10.84500 42.84100 43.12100
C  -12.59400 38.34700 43.57200
N  -7.82100 38.99400 41.46300
C  -7.53800 37.66700 41.20600
C  -6.23000 37.47100 40.41000
C  -5.73100 38.96400 40.36000
C  -6.78900 39.75500 41.09200
C  -4.30500 39.08600 40.89100
C  -6.39300 36.84000 39.05100
C  -5.27500 35.77900 38.62800
H  -4.31500 36.20500 37.48400
N  -8.86000 41.80000 42.30200
C  -7.62000 42.11500 41.79100
C  -7.40000 43.49900 41.84100
C  -8.60900 44.11000 42.37800
C  -9.50100 42.92800 42.62800
C  -6.14700 44.13300 41.20100
C  -8.86200 45.60600 42.53400
O  -8.00900 46.47500 42.41300
C  -10.21600 46.13500 42.91300
N  -11.42500 40.51300 43.08200
C  -11.65900 41.75400 43.32300
C  -13.07600 41.98800 43.87100
C  -13.73300 40.54500 44.00700
C  -12.54400 39.72300 43.50600
C  -13.12100 42.86100 45.22900
C  -15.07800 40.28600 43.21200
C  -16.30000 40.64100 43.96200
N  -10.35500 37.91100 42.70600
C  -11.58800 37.45000 43.13500
C  -11.58100 36.01900 43.20000
C  -10.37300 35.66600 42.54800
C  -9.71100 36.90900 42.22000
C  -12.59600 35.15700 43.71200
C  -9.47300 34.50700 42.22300
O  -9.57900 33.31800 42.37600
C  -8.22400 35.21000 41.59300
C  -7.06400 34.85600 42.51000
O  -6.70800 35.49300 43.51700
O  -6.45800 33.73100 42.00400
C  -5.30300 33.14700 42.74000
H  -5.83400 41.62800 40.94100
H  -11.23500 43.81700 43.41700
H  -13.43800 37.77400 43.96000
H  -5.60300 36.74300 40.92600
H  -5.77300 39.28100 39.31800
H  -3.67700 39.42400 40.06700
H  -3.92000 38.10500 41.17000
H  -4.17800 39.86400 41.64400
H  -6.29600 37.60000 38.27600
H  -7.28200 36.29800 38.72900
H  -5.67000 34.79700 38.36700
H  -4.55000 35.60200 39.42300
H  -5.93200 43.62200 40.26200
H  -5.37700 44.13000 41.97100
H  -6.29200 45.20000 41.03100
H  -11.00900 45.67700 42.32100
H  -10.21300 47.20600 42.71400
H  -10.31500 45.93700 43.98000
H  -13.58100 42.59600 43.12200
H  -13.92200 40.22900 45.03300
H  -12.42800 43.70000 45.29200
H  -13.14600 42.14100 46.04800
H  -14.07200 43.38700 45.15400
H  -15.08900 39.25000 42.87200
H  -15.12000 40.86400 42.28900
H  -16.03900 40.96900 44.96900
H  -16.78900 39.66800 44.00600
H  -16.93700 41.38500 43.48400
H  -12.90900 35.68000 44.61500
H  -12.18300 34.17600 43.94700
H  -13.46400 35.19900 43.05400
H  -8.00900 34.75200 40.62700
H  -4.37500 33.67000 42.50700
H  -5.17800 32.09000 42.50400
H  -5.30100 33.17000 43.82900

