158

Mg 24.66400 -8.29300 47.45300
C  27.11100 -6.19700 46.16600
C  22.59400 -7.30900 44.77500
C  22.65400 -10.96800 47.96000
C  27.18200 -9.86400 49.30700
N  24.86200 -7.06300 45.64100
C  25.93400 -6.16700 45.42300
C  25.63600 -5.24800 44.22000
C  24.14300 -5.54100 43.84200
C  23.84200 -6.74200 44.78800
C  23.19000 -4.30800 44.07200
C  26.72200 -5.31800 43.09000
C  27.55000 -3.96600 42.74300
H  27.64900 -3.52900 41.24400
N  22.77400 -8.90400 46.66600
C  22.08600 -8.33900 45.59800
C  20.76700 -9.00000 45.51200
C  20.70900 -9.93200 46.51000
C  22.09000 -9.96600 47.15700
C  19.79900 -8.59700 44.40500
C  19.50900 -10.75400 46.86500
O  18.54900 -10.75700 46.13700
C  19.41200 -11.72600 48.00400
N  24.79000 -10.08500 48.65000
C  23.83100 -11.00500 48.75800
C  24.22500 -12.24600 49.49600
C  25.72600 -11.94600 49.86800
C  25.90600 -10.47400 49.29100
C  23.32300 -12.56600 50.77600
C  26.72100 -12.96800 49.29400
C  27.42300 -13.80300 50.40000
N  26.70500 -7.92900 47.91400
C  27.57600 -8.71300 48.60100
C  28.86200 -8.11300 48.48300
C  28.72300 -7.05700 47.60300
C  27.39100 -7.08100 47.23400
C  30.21400 -8.55000 48.97600
C  29.44700 -6.03500 46.93900
O  30.55600 -5.60800 47.07000
C  28.40600 -5.40600 45.99700
C  28.23800 -3.99000 46.36900
O  27.57300 -3.55000 47.30400
O  28.88700 -3.17800 45.46700
C  28.71100 -1.71400 45.67500
H  21.90900 -6.74200 44.14000
H  21.95700 -11.78100 48.17400
H  27.99900 -10.42600 49.76400
H  25.66800 -4.28700 44.73400
H  24.09000 -5.86500 42.80200
H  22.79600 -4.13000 45.07200
H  22.26600 -4.31200 43.49400
H  23.69900 -3.39100 43.77600
H  26.43100 -5.62400 42.08500
H  27.41500 -6.12500 43.32800
H  28.54200 -4.25300 43.09200
H  27.14000 -3.17100 43.36500
H  18.75400 -8.57900 44.71200
H  19.87500 -9.30000 43.57500
H  19.96700 -7.68900 43.82700
H  19.83800 -11.16000 48.83200
H  19.95600 -12.62400 47.71200
H  18.40200 -11.98400 48.32500
H  24.25100 -13.06800 48.78200
H  25.74800 -11.78000 50.94500
H  22.70400 -13.41300 50.48000
H  22.57600 -11.79800 50.97200
H  23.86500 -12.90100 51.66000
H  27.49300 -12.48700 48.69300
H  26.14900 -13.60400 48.61900
H  26.72200 -14.41500 50.96800
H  27.99600 -13.11000 51.01400
H  28.15900 -14.45600 49.93100
H  30.26700 -9.42600 49.62200
H  30.72800 -7.73000 49.47900
H  30.75700 -8.71400 48.04600
H  28.77400 -5.62400 44.99400
H  29.53700 -1.21000 45.17400
H  28.73600 -1.54700 46.75100
H  27.73700 -1.35100 45.34500
Mg 36.27800 1.12800 29.92400
C  33.77600 1.98700 32.42400
C  38.56500 0.96700 32.59300
C  38.68300 0.61600 27.71800
C  33.90200 1.65400 27.50900
N  36.12400 1.42000 32.33300
C  35.01400 1.78600 33.06200
C  35.37900 1.96200 34.57100
C  36.92900 1.82600 34.52300
C  37.24600 1.32300 33.09500
C  37.68700 3.14800 34.80500
C  34.71900 0.78400 35.26800
C  34.38900 1.04100 36.78000
H  34.81200 2.31600 37.55200
N  38.29600 0.62800 30.14200
C  39.01000 0.57700 31.29100
C  40.37300 0.05900 30.89700
C  40.45200 -0.00600 29.51100
C  39.10300 0.43400 29.04100
C  41.43900 -0.05400 31.99200
C  41.63200 -0.32300 28.49800
O  41.47300 -0.38400 27.27000
C  42.92400 -0.70800 29.08000
N  36.27100 1.07900 27.93200
C  37.42000 0.87500 27.17000
C  37.09300 1.02900 25.67200
C  35.52600 1.06400 25.62900
C  35.19000 1.30900 27.07500
C  37.70200 2.27200 25.00700
C  34.99900 -0.32900 25.11000
C  33.93800 -0.26800 23.99800
N  34.28300 1.69900 29.86000
C  33.44600 1.78800 28.83300
C  32.14500 2.10200 29.27000
C  32.21800 2.21900 30.68600
C  33.55000 1.95400 30.99000
C  30.93300 2.27300 28.42400
C  31.47900 2.63300 31.84100
O  30.34200 3.05400 32.00100
C  32.45600 2.44700 33.02600
C  32.67700 3.73900 33.71000
O  33.52300 4.54100 33.36900
O  31.68600 3.86700 34.66200
C  31.66600 5.16400 35.35600
H  39.24800 0.98200 33.44600
H  39.35800 0.66900 26.86200
H  33.14300 1.93300 26.77400
H  35.03900 2.86900 35.07100
H  37.21600 0.98800 35.15900
H  36.95400 3.94200 34.94700
H  38.33800 3.51500 34.01100
H  38.11300 2.95100 35.78800
H  35.40600 -0.05300 35.38800
H  33.81200 0.47400 34.74800
H  34.97700 0.36100 37.39700
H  33.32600 0.80200 36.80600
H  42.14400 0.76700 31.86400
H  41.96900 -1.00300 31.90300
H  41.13300 -0.00400 33.03700
H  43.19600 -0.14000 29.97000
H  43.72700 -0.72000 28.34400
H  42.74000 -1.75000 29.34200
H  37.58600 0.18600 25.18800
H  35.11600 1.90600 25.07200
H  38.37400 2.61800 25.79300
H  36.93700 3.02700 24.82700
H  38.38100 2.02800 24.19100
H  34.63900 -0.93400 25.94300
H  35.78500 -0.90200 24.61800
H  33.79900 0.73800 23.60200
H  33.05000 -0.69600 24.46100
H  34.26600 -0.94900 23.21300
H  31.20600 2.69700 27.45800
H  30.13100 2.73400 29.00200
H  30.48100 1.30700 28.19600
H  31.98700 1.75500 33.72600
H  31.88500 5.12400 36.42300
H  30.69000 5.58700 35.11800
H  32.39000 5.86300 34.93600

