158

Mg 24.65000 -4.43400 46.21700
C  26.94000 -2.23300 44.78100
C  22.28900 -3.40700 43.97200
C  22.84900 -7.21300 46.91500
C  27.36400 -5.83800 48.19400
N  24.72800 -3.05200 44.48100
C  25.68800 -2.18400 44.08700
C  25.22600 -1.19700 42.98300
C  23.66700 -1.42200 43.09600
C  23.55400 -2.71700 43.90600
C  22.83600 -0.27800 43.73700
C  25.76300 -1.59600 41.59300
C  26.05000 -0.41600 40.64600
H  25.58800 -0.54400 39.16900
N  22.74500 -5.18500 45.63400
C  21.98000 -4.67200 44.61100
C  20.77600 -5.51600 44.47300
C  20.85900 -6.65200 45.34100
C  22.19500 -6.33300 46.03100
C  19.67800 -5.14600 43.57200
C  19.87600 -7.80400 45.44400
O  18.91500 -7.97300 44.68800
C  20.07600 -8.88700 46.50300
N  25.01900 -6.16600 47.53600
C  24.09300 -7.08500 47.61700
C  24.54200 -8.28900 48.48400
C  25.96700 -7.76700 49.01200
C  26.13200 -6.50000 48.17500
C  23.54100 -8.95000 49.47600
C  27.10500 -8.74100 48.96500
C  28.26800 -8.55900 49.92200
N  26.69000 -4.08700 46.58400
C  27.62400 -4.69300 47.46200
C  28.88600 -3.96300 47.25600
C  28.63200 -2.91100 46.33600
C  27.29400 -3.07700 45.85400
C  30.15300 -4.27400 48.00900
C  29.29600 -1.78100 45.62000
O  30.45000 -1.43000 45.71000
C  28.26000 -1.33500 44.61700
C  28.02100 0.11400 44.89400
O  27.41200 0.60800 45.85400
O  28.51100 0.76400 43.81300
C  28.29000 2.22700 43.62000
H  21.55700 -2.99000 43.27700
H  22.42700 -8.20100 47.11300
H  28.22500 -6.12400 48.80300
H  25.43200 -0.19300 43.35400
H  23.30300 -1.73000 42.11600
H  21.82600 -0.27100 43.32500
H  23.14000 0.74800 43.53200
H  22.79100 -0.52200 44.79800
H  25.05700 -2.06600 40.90800
H  26.67600 -2.16900 41.75400
H  27.12600 -0.26300 40.73000
H  25.49600 0.43700 41.03800
H  19.74100 -4.05900 43.59900
H  18.70300 -5.40000 43.98900
H  19.78900 -5.61800 42.59500
H  20.18600 -8.45000 47.49500
H  20.96300 -9.43400 46.18200
H  19.18600 -9.51600 46.52600
H  24.72500 -9.15500 47.84800
H  26.03200 -7.43400 50.04800
H  22.59800 -8.40500 49.43500
H  23.94400 -8.88300 50.48700
H  23.29000 -10.00200 49.34300
H  27.51000 -8.74100 47.95300
H  26.78700 -9.77900 49.06500
H  28.49700 -9.52700 50.36700
H  28.26300 -7.80900 50.71300
H  29.08500 -8.31200 49.24400
H  30.63500 -5.17800 47.63600
H  29.95300 -4.33100 49.07900
H  30.88600 -3.47000 47.95300
H  28.73700 -1.40400 43.64000
H  29.17700 2.78400 43.32000
H  27.82000 2.70000 44.48200
H  27.68400 2.39700 42.73100
Mg 48.11100 15.45900 28.28500
C  45.86500 15.92400 30.89900
C  50.39100 17.19100 30.04500
C  50.01900 15.42100 25.48200
C  45.49100 14.04400 26.36600
N  48.03000 16.51600 30.16200
C  47.07600 16.46700 31.13300
C  47.55300 17.14200 32.42500
C  48.84600 17.80000 31.97000
C  49.16400 17.06400 30.64400
C  48.92100 19.38900 31.87400
C  47.57200 16.21900 33.63100
C  47.38200 16.90300 34.96600
H  47.37600 18.38900 35.11100
N  49.91600 16.23000 27.85500
C  50.71100 16.91900 28.69600
C  51.96500 17.18600 28.08700
C  51.95000 16.68800 26.79200
C  50.60900 16.04300 26.64800
C  52.99200 17.96300 28.86800
C  52.98400 16.78900 25.63800
O  52.69300 16.25200 24.55200
C  54.33400 17.39800 25.84300
N  47.74900 14.95300 26.16900
C  48.75200 14.91800 25.28200
C  48.29700 14.36400 23.89800
C  46.82300 13.83600 24.22700
C  46.64900 14.31400 25.68800
C  48.31400 15.40900 22.82600
C  46.48900 12.30800 24.02900
C  47.14200 11.32500 24.94300
N  46.12600 14.91200 28.57500
C  45.19100 14.31300 27.75100
C  44.01200 14.07400 28.49400
C  44.21600 14.70200 29.73200
C  45.53000 15.21400 29.73000
C  42.77300 13.45300 27.98100
C  43.54600 14.94500 30.99700
O  42.38100 14.73600 31.34200
C  44.60500 15.72400 31.91200
C  43.99500 16.91200 32.50600
O  44.05800 18.02100 32.04300
O  43.37800 16.55800 33.65700
C  42.79200 17.64400 34.43600
H  51.07800 17.78500 30.65200
H  50.67100 15.26200 24.62100
H  44.70300 13.45600 25.89000
H  46.83900 17.95200 32.57000
H  49.67600 17.47700 32.59800
H  49.39900 19.79200 32.76700
H  47.99000 19.92600 31.69200
H  49.55800 19.65100 31.02900
H  48.51700 15.67700 33.67800
H  46.80500 15.44500 33.63700
H  48.15900 16.43800 35.57200
H  46.38100 16.59000 35.26200
H  53.89300 18.17300 28.29200
H  53.19300 17.34400 29.74300
H  52.41100 18.83000 29.18400
H  54.03300 18.43700 25.97700
H  54.95400 17.29300 24.95200
H  54.84500 16.96700 26.70300
H  48.98100 13.58000 23.57100
H  46.10700 14.38800 23.61800
H  48.28800 16.39300 23.29200
H  47.56000 15.46200 22.04000
H  49.33100 15.48700 22.44200
H  47.01200 12.04400 23.11000
H  45.41200 12.14000 24.05900
H  47.80400 10.63500 24.42200
H  46.31100 10.79400 25.40600
H  47.79100 11.85400 25.64000
H  42.90600 13.07000 26.96900
H  42.02000 14.24100 27.97800
H  42.52300 12.58700 28.59300
H  44.92500 15.06800 32.72200
H  42.68900 18.65700 34.04700
H  43.47700 17.70400 35.28200
H  41.87700 17.24600 34.87400

