158

Mg 8.64400 3.16400 27.48300
C  10.02500 1.85800 30.33700
C  6.77300 5.38300 29.52900
C  7.25400 4.40600 24.69700
C  9.83900 0.39300 25.61300
N  8.41500 3.58400 29.72000
C  9.15600 2.95100 30.66000
C  8.86600 3.59800 32.02500
C  7.68700 4.59600 31.73800
C  7.62300 4.57500 30.24900
C  6.27700 4.25100 32.17700
C  10.10600 4.30200 32.63000
C  10.47200 3.96700 34.11700
H  10.74700 5.08800 35.14900
N  7.33500 4.79500 27.07500
C  6.65000 5.50700 28.10000
C  5.77800 6.39100 27.41100
C  5.91300 6.16700 25.99100
C  6.92800 5.09100 25.87700
C  4.93100 7.41200 28.05200
C  5.10900 6.76900 24.81100
O  5.45000 6.59000 23.63400
C  3.81600 7.54900 25.11100
N  8.76200 2.53800 25.31200
C  8.01200 3.22800 24.35600
C  8.07300 2.50900 22.94200
C  8.88600 1.22200 23.31500
C  9.16700 1.33700 24.80800
C  6.77900 2.12800 22.29900
C  10.17100 0.84600 22.50200
C  10.03600 -0.47000 21.79600
N  9.58900 1.46300 27.79600
C  10.08100 0.48300 27.01700
C  10.80600 -0.47700 27.88800
C  10.95300 0.05700 29.13700
C  10.15200 1.25000 29.07600
C  11.54100 -1.70300 27.35800
C  11.52900 -0.09200 30.46500
O  12.26200 -0.96900 30.96400
C  10.93600 1.10900 31.29100
C  10.20200 0.50100 32.42300
O  9.15500 -0.07200 32.29900
O  11.00500 0.64100 33.55400
C  10.34900 0.13900 34.79000
H  6.32700 6.16800 30.14300
H  6.74700 4.70500 23.77700
H  10.23400 -0.51000 25.14300
H  8.31200 2.85600 32.59900
H  7.88000 5.59700 32.12400
H  5.77500 5.16900 32.48000
H  6.22800 3.53100 32.99400
H  5.62100 3.79300 31.43700
H  10.00500 5.37700 32.48000
H  10.93900 3.90600 32.04800
H  11.37500 3.36700 34.00100
H  9.70600 3.29600 34.50800
H  5.32700 7.77300 29.00200
H  3.93200 7.00600 28.21000
H  5.12300 8.30800 27.46100
H  3.21900 7.63200 24.20300
H  4.19400 8.48400 25.52400
H  3.38200 6.94800 25.90900
H  8.67600 3.05700 22.21800
H  8.21300 0.36400 23.31900
H  6.10800 2.33400 23.13200
H  6.63200 1.07700 22.04900
H  6.55800 2.84400 21.50800
H  11.05900 0.81000 23.13300
H  10.41400 1.73300 21.91700
H  10.21200 -0.40600 20.72200
H  9.09200 -0.97800 21.98700
H  10.78200 -1.20900 22.08800
H  12.58800 -1.42400 27.23900
H  11.06200 -2.00800 26.42800
H  11.45100 -2.48700 28.11000
H  11.71500 1.81700 31.57300
H  9.66800 -0.70200 34.65900
H  9.64900 0.93700 35.03900
H  11.02800 -0.07800 35.61500
Mg 30.35600 57.56700 39.85500
C  27.54500 55.48600 39.24100
C  32.46000 55.09600 39.12700
C  32.87900 59.84500 40.10600
C  28.01800 60.15600 40.54900
N  30.01700 55.53300 39.26600
C  28.81500 54.93600 38.81100
C  29.14100 53.55000 38.23300
C  30.66900 53.42200 38.36600
C  31.06500 54.76200 39.02800
C  31.09700 52.21800 39.25300
C  28.42900 53.34900 36.86200
C  28.75300 54.35800 35.75600
H  27.61400 55.17300 35.20900
N  32.33300 57.48100 39.57600
C  33.04200 56.36200 39.33400
C  34.40600 56.65300 39.19100
C  34.57600 58.02700 39.46100
C  33.24400 58.52200 39.75800
C  35.49200 55.62600 38.96200
C  36.01300 58.69400 39.65400
O  36.93200 58.03700 39.27200
C  36.33500 60.05800 40.16200
N  30.44300 59.77700 40.15200
C  31.62000 60.47300 40.23700
C  31.34600 62.02000 40.48400
C  29.75900 62.03400 40.56900
C  29.39100 60.55200 40.48200
C  32.06600 62.63100 41.71700
C  29.08600 62.77700 39.37900
C  28.74400 64.23400 39.69500
N  28.21900 57.75900 39.98900
C  27.45800 58.85200 40.31000
C  26.08300 58.55100 40.27000
C  26.06600 57.18600 39.85200
C  27.37600 56.77800 39.68100
C  24.89500 59.36300 40.55600
C  25.18100 56.10000 39.62100
O  23.93700 56.07800 39.75500
C  26.13200 54.92900 39.20100
C  26.04400 53.80100 40.18600
O  26.55800 53.67900 41.30300
O  25.40200 52.84100 39.56800
C  25.33000 51.59900 40.34100
H  33.22200 54.36000 38.86500
H  33.72900 60.52700 40.02400
H  27.24500 60.91500 40.69200
H  28.58600 52.83700 38.84400
H  31.11600 53.36300 37.37400
H  31.73700 51.51900 38.71400
H  30.21500 51.72300 39.65900
H  31.56000 52.51400 40.19400
H  27.35700 53.26700 37.03900
H  28.67800 52.34000 36.53300
H  29.04200 53.77500 34.88200
H  29.52000 55.03500 36.13200
H  35.86400 55.87400 37.96800
H  35.21400 54.57300 38.92100
H  36.22100 55.68400 39.77100
H  36.22600 60.71500 39.29900
H  37.40800 60.15900 40.32400
H  35.76600 60.41700 41.02000
H  31.76200 62.49300 39.59400
H  29.42500 62.52400 41.48300
H  32.39800 63.66700 41.64600
H  32.93700 62.06200 42.04200
H  31.22800 62.77400 42.40000
H  28.29700 62.19200 38.90800
H  29.81300 62.91500 38.57800
H  29.29300 64.91700 39.04800
H  28.88800 64.52300 40.73600
H  27.73400 64.40100 39.32000
H  24.50000 58.99600 41.50400
H  24.19500 59.37000 39.72200
H  25.33400 60.33300 40.78800
H  25.85400 54.53600 38.22300
H  26.23200 51.01400 40.16600
H  24.41500 51.13200 39.97700
H  25.30000 51.76400 41.41800

