158

Mg 16.52400 51.98200 26.43400
C  18.30600 50.61300 29.17100
C  14.15100 52.99500 28.56400
C  15.00600 53.10300 23.80800
C  18.91200 50.39400 24.27100
N  16.23500 51.72000 28.62000
C  17.09000 51.20600 29.61100
C  16.45000 51.36000 30.95200
C  15.16700 52.13700 30.70700
C  15.13300 52.23400 29.17700
C  13.92900 51.62000 31.44400
C  17.47700 52.02800 31.95600
C  16.77600 52.54900 33.20600
H  16.09200 51.50500 34.04100
N  14.81000 53.00600 26.18700
C  13.97900 53.34900 27.22200
C  12.81400 53.98000 26.61000
C  13.10900 54.10500 25.22200
C  14.41200 53.44400 25.04900
C  11.60200 54.52200 27.38400
C  12.24300 54.58000 24.11200
O  12.59500 54.68000 22.93100
C  10.82900 54.89600 24.43100
N  16.92100 51.72500 24.37200
C  16.15500 52.34300 23.54100
C  16.60200 52.24800 22.05500
C  17.95600 51.48200 22.17900
C  17.94000 51.14100 23.65200
C  15.63700 51.38500 21.15800
C  19.19300 52.26700 21.78400
C  20.15700 51.39300 20.95700
N  18.21600 50.60200 26.62400
C  19.06000 50.13300 25.68400
C  20.12400 49.32500 26.32600
C  19.92400 49.59500 27.71400
C  18.67500 50.31600 27.80800
C  21.10200 48.51800 25.51700
C  20.37800 49.30100 29.04100
O  21.45300 48.74600 29.40000
C  19.36200 49.90500 30.00600
C  18.80100 48.85200 30.90600
O  17.97600 47.95500 30.69200
O  19.33600 49.02800 32.16200
C  18.93900 47.97100 33.19800
H  13.43700 53.41700 29.27600
H  14.54900 53.53500 22.91500
H  19.69300 49.88300 23.70300
H  16.28700 50.35600 31.34600
H  15.28500 53.14600 31.10400
H  13.25500 51.18700 30.70500
H  13.49400 52.51900 31.88100
H  14.29000 50.83600 32.10800
H  18.05000 52.86000 31.54600
H  18.18700 51.27200 32.29200
H  16.20300 53.47300 33.13100
H  17.65300 52.89000 33.75800
H  12.00700 54.48600 28.39500
H  10.71000 53.90500 27.27000
H  11.36100 55.56300 27.17000
H  10.39600 54.09000 25.02400
H  10.22800 54.99400 23.52800
H  11.01400 55.86200 24.90200
H  16.77100 53.19800 21.54700
H  17.85700 50.52000 21.67600
H  14.77000 51.99100 20.89300
H  15.31800 50.45100 21.62200
H  16.06600 51.15600 20.18300
H  19.64100 52.48400 22.75300
H  19.05300 53.16000 21.17300
H  19.73400 50.41800 20.71800
H  21.13500 51.29500 21.42900
H  20.23600 51.96800 20.03400
H  21.52600 47.76500 26.18200
H  21.89400 49.19400 25.19500
H  20.56600 48.01400 24.71300
H  19.99100 50.56700 30.60200
H  17.86700 48.08600 33.35300
H  19.42700 48.17200 34.15200
H  19.19000 46.97100 32.84500
Mg -3.58800 35.59400 26.74200
C  -4.87500 33.45900 29.31700
C  -2.40900 37.58700 29.30100
C  -2.50100 37.61700 24.38900
C  -5.39600 33.83400 24.42600
N  -3.50000 35.33300 29.09400
C  -4.09900 34.39700 29.89600
C  -3.78100 34.65900 31.37000
C  -3.10700 36.08500 31.37700
C  -2.96200 36.40600 29.83400
C  -3.82900 37.23400 32.16300
C  -3.04900 33.48500 32.11600
C  -3.61400 32.86100 33.40600
H  -2.63700 32.64000 34.62200
N  -2.44000 37.23200 26.84500
C  -2.08500 37.95500 27.94200
C  -1.24300 39.10800 27.55200
C  -1.07800 39.06200 26.11500
C  -1.94500 37.91200 25.72400
C  -0.64300 40.13500 28.59000
C  -0.34500 39.87300 25.15200
O  -0.24900 39.68700 23.97600
C  0.15500 41.12200 25.70900
N  -3.94300 35.73300 24.68900
C  -3.38100 36.65000 23.91800
C  -3.62200 36.33300 22.42600
C  -4.66000 35.18900 22.46000
C  -4.71100 34.93500 23.97300
C  -4.11200 37.59900 21.68500
C  -4.37300 33.92100 21.56700
C  -3.42900 32.78500 22.14400
N  -4.90200 34.00800 26.77100
C  -5.52100 33.31000 25.73300
C  -6.14000 32.04600 26.24200
C  -5.92300 32.09700 27.65600
C  -5.20100 33.31800 27.93300
C  -6.76800 31.02400 25.39500
C  -6.20300 31.37300 28.92700
O  -6.76300 30.29900 29.12300
C  -5.53200 32.24300 30.05700
C  -6.70200 32.69500 30.91000
O  -7.54800 33.45400 30.51600
O  -6.61900 32.21000 32.23600
C  -7.74300 32.43700 33.11700
H  -2.06400 38.31600 30.03700
H  -2.16600 38.42200 23.73100
H  -6.00400 33.34600 23.66200
H  -4.78200 34.64600 31.80200
H  -2.07800 36.01800 31.73100
H  -3.34200 37.38200 33.12700
H  -4.83200 36.89200 32.41800
H  -3.96400 38.19100 31.65900
H  -2.07600 33.86700 32.42300
H  -2.98100 32.62300 31.45300
H  -3.78000 31.82900 33.09800
H  -4.56900 33.36200 33.56500
H  -0.76500 39.98000 29.66200
H  -0.87400 41.17300 28.34900
H  0.44300 40.07400 28.52300
H  -0.63300 41.75600 26.11500
H  0.78600 41.59200 24.95500
H  0.94700 40.93200 26.43400
H  -2.65900 36.20400 21.93200
H  -5.67100 35.49900 22.19500
H  -4.94800 37.35800 21.02900
H  -3.46300 38.17500 21.02500
H  -4.31500 38.35000 22.44900
H  -3.99500 34.27100 20.60600
H  -5.35400 33.54000 21.28300
H  -2.93400 33.19700 23.02500
H  -2.71100 32.66500 21.33200
H  -4.04600 31.89700 22.27900
H  -5.90600 30.70700 24.80900
H  -7.52900 31.44600 24.73800
H  -6.90400 30.10400 25.96400
H  -4.89800 31.63600 30.70300
H  -8.09100 31.45500 33.43800
H  -8.54500 32.94300 32.58100
H  -7.34700 33.05900 33.92000

