158

Mg 47.42100 35.12500 27.57200
C  45.58900 33.66900 30.02300
C  47.76600 37.95000 29.44000
C  49.10100 36.67800 25.00600
C  46.51700 32.45800 25.47600
N  46.80300 35.66600 29.38000
C  46.25200 34.84700 30.30100
C  46.45700 35.42400 31.69300
C  46.59400 36.93600 31.39900
C  47.09600 36.86200 29.96300
C  45.44000 37.93900 31.72200
C  47.63600 34.75200 32.41600
C  47.41700 34.55500 33.97500
H  46.53800 35.52200 34.79900
N  48.34700 37.05600 27.25300
C  48.31900 38.09300 28.17000
C  49.21900 39.18000 27.82500
C  49.63200 38.77400 26.52300
C  49.01300 37.41100 26.19800
C  49.65700 40.35400 28.74800
C  50.70700 39.34400 25.61700
O  51.02200 38.75000 24.59400
C  51.36800 40.73500 25.91700
N  47.72900 34.65200 25.56200
C  48.52200 35.42400 24.71000
C  48.49800 34.80200 23.24400
C  47.74400 33.51600 23.48300
C  47.23100 33.55000 24.88300
C  47.86400 35.67700 22.14600
C  48.66700 32.18400 23.13500
C  49.92700 31.95900 24.07100
N  46.27000 33.34000 27.67900
C  46.05300 32.32100 26.80400
C  45.26300 31.26000 27.47400
C  45.06300 31.76900 28.70400
C  45.67800 32.96700 28.79500
C  44.70500 29.96200 26.84700
C  44.40200 31.47500 29.92700
O  43.81200 30.47200 30.29900
C  44.61400 32.75500 30.79200
C  45.18900 32.37100 32.15500
O  46.24900 31.78200 32.33700
O  44.22300 32.51600 33.14100
C  44.35900 31.79000 34.32400
H  47.97100 38.81100 30.08000
H  49.60600 37.09000 24.13000
H  46.27300 31.58900 24.86100
H  45.59100 35.30200 32.34300
H  47.36900 37.33100 32.05600
H  44.54500 37.34900 31.92000
H  45.25900 38.60600 30.87900
H  45.69200 38.51200 32.61400
H  48.50100 35.38100 32.20500
H  47.64500 33.75300 31.98100
H  48.42200 34.60400 34.39600
H  47.05800 33.56200 34.24700
H  50.63300 40.11800 29.17200
H  48.91600 40.65400 29.48900
H  49.79700 41.24500 28.13500
H  51.96800 40.67500 26.82600
H  50.60000 41.48000 26.12200
H  51.80000 41.05200 24.96800
H  49.54100 34.61600 22.98700
H  46.85300 33.37900 22.87000
H  48.45600 35.61600 21.23300
H  47.80600 36.73000 22.42400
H  46.84700 35.36100 21.91400
H  48.92800 32.25200 22.07900
H  48.07800 31.27300 23.24400
H  49.90200 32.68800 24.88100
H  50.89600 31.90000 23.57400
H  49.82200 30.90100 24.31200
H  44.79000 30.18600 25.78300
H  43.65600 29.94400 27.14200
H  45.33800 29.13000 27.15600
H  43.66400 33.26400 30.95300
H  43.81600 30.86200 34.14600
H  43.79200 32.29400 35.10600
H  45.37000 31.63100 34.69800
Mg 26.63700 50.52500 27.07600
C  24.80300 51.90400 29.65800
C  28.98900 49.52900 29.35800
C  28.64100 49.74600 24.55000
C  24.15600 51.59900 24.75000
N  26.92600 50.81100 29.15200
C  25.98400 51.28300 30.04300
C  26.22000 50.87600 31.50300
C  27.66500 50.23900 31.39100
C  27.82800 50.14800 29.91100
C  28.74900 51.24800 31.93900
C  25.15100 49.84800 32.03000
C  24.63900 50.31200 33.41400
H  24.78100 49.17400 34.49400
N  28.56400 49.79700 26.98500
C  29.32300 49.29700 28.04000
C  30.41700 48.63800 27.50100
C  30.48000 48.78300 26.09700
C  29.18900 49.46200 25.84600
C  31.34800 47.97700 28.43200
C  31.52100 48.38400 25.10100
O  31.31900 48.60900 23.88200
C  32.70100 47.53100 25.51700
N  26.41500 50.58300 24.94100
C  27.36800 50.16400 24.11800
C  27.04600 50.34300 22.59700
C  25.54200 50.82800 22.66300
C  25.32700 51.03100 24.20100
C  27.99300 51.32200 21.81000
C  24.37000 49.97600 22.11200
C  23.53600 50.49800 20.92100
N  24.83400 51.49100 27.13100
C  23.95200 51.91000 26.15200
C  22.84900 52.56100 26.72900
C  23.15500 52.60700 28.10100
C  24.36900 51.95700 28.30600
C  21.81000 53.10000 25.99900
C  22.63600 52.99000 29.38700
O  21.56400 53.46800 29.75100
C  23.67000 52.47700 30.47000
C  24.18600 53.56200 31.33500
O  25.28200 54.13500 31.27700
O  23.35300 53.81400 32.34300
C  23.79100 54.81100 33.39400
H  29.76300 49.31500 30.09800
H  29.29200 49.57000 23.69100
H  23.37500 51.79100 24.01100
H  26.18100 51.72200 32.18900
H  27.78000 49.25300 31.84000
H  29.64900 51.22100 31.32600
H  29.06300 50.75500 32.85900
H  28.38500 52.23400 32.22800
H  25.59500 48.85500 32.09800
H  24.29300 49.75700 31.36500
H  23.55400 50.36100 33.32100
H  25.03700 51.21900 33.86900
H  32.29400 48.51700 28.40800
H  31.53400 46.97800 28.03900
H  30.91900 47.79700 29.41800
H  33.26400 47.79900 26.41000
H  33.35800 47.27100 24.68700
H  32.18800 46.60200 25.76400
H  27.29200 49.37500 22.16000
H  25.33800 51.79900 22.21200
H  27.45300 52.19400 21.44100
H  28.42700 50.72700 21.00600
H  28.88900 51.51000 22.40200
H  23.71200 49.54600 22.86600
H  24.86700 49.07300 21.75800
H  23.91900 50.20100 19.94400
H  23.51000 51.58600 20.86300
H  22.56500 50.00300 20.89900
H  21.36100 52.41700 25.27800
H  22.15400 54.05900 25.61200
H  20.99800 53.34900 26.68300
H  23.25300 51.84700 31.25600
H  24.19300 55.72600 32.95900
H  24.68400 54.52200 33.94800
H  23.05800 55.08900 34.15100

