158

Mg 16.03100 52.29900 24.84400
C  17.40000 51.45200 27.97600
C  13.09300 53.35300 26.52900
C  14.49400 52.87300 21.85800
C  18.70700 50.70700 23.23700
N  15.39800 52.49700 27.01100
C  16.12500 52.08300 28.09800
C  15.47300 52.35000 29.42200
C  14.06700 52.77400 28.92100
C  14.13800 52.92300 27.40200
C  12.89800 51.91100 29.34900
C  16.19500 53.33400 30.37700
C  16.43100 52.98100 31.85200
H  15.29700 52.10000 32.48200
N  14.10400 53.10700 24.29000
C  13.09800 53.47000 25.12500
C  12.00900 53.91700 24.34100
C  12.39700 53.82800 22.96300
C  13.69400 53.26100 22.98600
C  10.72300 54.35600 24.97500
C  11.74400 54.33600 21.67600
O  12.34900 54.29400 20.56900
C  10.39400 54.97400 21.76500
N  16.49700 51.71000 22.81300
C  15.73100 52.13300 21.72700
C  16.42100 51.74800 20.48400
C  17.94100 51.64200 20.92600
C  17.72600 51.32100 22.41800
C  15.84900 50.38500 19.93300
C  18.89900 52.94300 20.81000
C  19.31700 53.42500 19.43300
N  17.79700 51.41100 25.38800
C  18.75200 50.81600 24.65400
C  19.72100 50.23700 25.49500
C  19.24800 50.50700 26.81400
C  18.00700 51.11000 26.71500
C  21.03100 49.57800 25.06700
C  19.61900 50.31100 28.17700
O  20.57500 49.76700 28.71200
C  18.37000 50.91500 29.04500
C  17.74600 49.86300 29.90000
O  16.93000 49.05100 29.45600
O  18.29900 49.82700 31.20300
C  17.76700 48.78500 32.09900
H  12.31000 53.89700 27.06100
H  14.14500 53.00400 20.83100
H  19.65200 50.48700 22.73600
H  15.54800 51.39200 29.93600
H  13.86000 53.73900 29.38400
H  13.17200 51.10000 30.02300
H  12.36700 51.47800 28.50100
H  12.19100 52.59200 29.82300
H  15.80100 54.34800 30.44500
H  17.18000 53.41700 29.91900
H  16.63200 53.86100 32.46300
H  17.28300 52.30700 31.94300
H  10.06400 53.78800 24.31900
H  10.56400 55.42000 24.79700
H  10.52500 54.09500 26.01500
H  9.96400 55.00200 20.76400
H  10.37600 55.93300 22.28300
H  9.82400 54.21100 22.29500
H  16.35400 52.61600 19.82800
H  18.50200 50.91700 20.33500
H  14.91000 50.19800 20.45400
H  16.57400 49.57400 19.87300
H  15.64500 50.71500 18.91400
H  19.79800 52.81200 21.41300
H  18.46100 53.79000 21.33800
H  19.05000 54.45100 19.18100
H  18.91600 52.66900 18.75800
H  20.40700 53.44300 19.41900
H  20.81000 48.77600 24.36200
H  21.51300 49.14100 25.94200
H  21.71400 50.26800 24.57000
H  18.88400 51.63200 29.68600
H  17.06900 49.18100 32.83600
H  18.67500 48.40200 32.56500
H  17.43300 47.93300 31.50600
Mg -10.72000 39.81500 43.83800
C  -9.61700 36.81100 42.40200
C  -8.10400 41.46700 42.05500
C  -12.23200 42.76600 44.54500
C  -13.57200 38.10000 44.80500
N  -9.05600 39.21200 42.43600
C  -8.84600 37.92200 41.99100
C  -7.62600 37.86800 40.98000
C  -7.07900 39.32100 41.18700
C  -8.11200 40.07700 41.95200
C  -5.65200 39.57300 41.65200
C  -7.94500 37.41700 39.52100
C  -7.19400 36.16400 39.08400
H  -6.01700 36.38200 37.97600
N  -10.19900 41.86300 43.44100
C  -9.13700 42.31200 42.59800
C  -9.21000 43.68700 42.57900
C  -10.38700 44.13100 43.34300
C  -11.00800 42.87800 43.85100
C  -8.26000 44.60100 41.78700
C  -10.68800 45.53600 43.60800
O  -10.04700 46.37900 43.04000
C  -11.70200 45.94500 44.69200
N  -12.61800 40.34300 44.64400
C  -13.01100 41.62100 44.75100
C  -14.55700 41.71900 45.13500
C  -14.92400 40.26500 45.36800
C  -13.65900 39.48800 44.93000
C  -14.80900 42.71800 46.34800
C  -16.16200 39.84500 44.57200
C  -17.05300 38.92900 45.33500
N  -11.46300 37.80900 43.72900
C  -12.61600 37.29000 44.17100
C  -12.65500 35.87200 44.07600
C  -11.48800 35.61400 43.39600
C  -10.80000 36.85100 43.17400
C  -13.56600 34.82800 44.57600
C  -10.67600 34.62000 42.72100
O  -10.79800 33.37100 42.65500
C  -9.39500 35.33900 41.99600
C  -8.24000 34.80400 42.75500
O  -7.75800 35.32700 43.72300
O  -7.74300 33.77900 42.06200
C  -6.53400 33.11900 42.57100
H  -7.35900 42.09600 41.56300
H  -12.87600 43.64800 44.52900
H  -14.52700 37.66900 45.11300
H  -6.96200 37.12900 41.42700
H  -6.89600 39.78900 40.22000
H  -4.99800 38.70300 41.70900
H  -5.68000 39.93200 42.68100
H  -5.15100 40.31100 41.02600
H  -7.57600 38.20800 38.86700
H  -9.01100 37.25500 39.36400
H  -7.99500 35.54000 38.68600
H  -6.81200 35.62200 39.94900
H  -8.83500 44.85300 40.89600
H  -7.45800 43.99300 41.37000
H  -7.98800 45.53300 42.28300
H  -12.71100 45.78100 44.31600
H  -11.50500 46.97600 44.98700
H  -11.62200 45.24600 45.52500
H  -15.00900 42.10700 44.22200
H  -15.01200 40.10300 46.44300
H  -15.26300 42.23000 47.21100
H  -15.44600 43.55900 46.07700
H  -13.81900 43.04300 46.66900
H  -15.94900 39.34100 43.62900
H  -16.73600 40.76900 44.50800
H  -17.07500 37.93700 44.88400
H  -18.06300 39.33000 45.25100
H  -16.78300 38.96300 46.39100
H  -13.95900 35.22900 45.51000
H  -13.06100 33.91900 44.90200
H  -14.29600 34.66100 43.78400
H  -9.27300 35.11200 40.93600
H  -5.66600 33.77100 42.66500
H  -6.39800 32.43900 41.72900
H  -6.69700 32.66600 43.54900

