158

Mg 47.05700 45.13800 43.06100
C  43.66700 44.12000 43.23900
C  47.76200 41.69800 42.45000
C  50.12600 45.99000 42.61200
C  46.00400 48.51200 43.40800
N  45.78100 43.14700 42.81200
C  44.49000 43.01400 43.01300
C  44.02300 41.52500 42.71800
C  45.40000 40.81000 42.85900
C  46.38700 41.96700 42.70000
C  45.55300 39.79800 44.03000
C  43.20000 41.23100 41.51800
C  43.62300 42.01200 40.30700
H  43.19800 41.50700 38.93700
N  48.73600 43.96900 42.42800
C  48.84500 42.54900 42.23300
C  50.21200 42.21300 41.91700
C  50.89900 43.49300 41.85700
C  49.97700 44.57100 42.33100
C  50.72800 40.86400 41.59900
C  52.40700 43.60100 41.53400
O  53.09900 42.65500 41.23200
C  53.06600 44.95700 41.53600
N  47.95500 47.05400 42.95500
C  49.27500 47.09800 42.92900
C  49.73300 48.54100 43.05700
C  48.47200 49.36300 43.35300
C  47.37600 48.28400 43.27100
C  50.96800 48.81600 43.95900
C  48.14600 50.51900 42.29100
C  47.64700 51.73800 42.99000
N  45.23400 46.12900 43.32300
C  44.99800 47.47300 43.42400
C  43.54500 47.70000 43.62000
C  42.98700 46.37800 43.50800
C  44.09000 45.51900 43.30700
C  42.76700 49.04800 43.83100
C  41.73500 45.63800 43.30800
O  40.62000 46.07200 43.13000
C  42.12800 44.15700 43.40600
C  41.80500 43.66400 44.81700
O  42.31900 44.15200 45.76900
O  41.09100 42.50600 44.77600
C  40.87400 41.87900 46.08900
H  47.98300 40.62900 42.44100
H  51.18400 46.25300 42.65700
H  45.78800 49.57300 43.55100
H  43.41300 41.23200 43.57200
H  45.56200 40.21700 41.95900
H  45.97400 38.89500 43.58800
H  44.61400 39.61100 44.55100
H  46.30500 40.23900 44.68500
H  42.12700 41.34400 41.67400
H  43.34900 40.15200 41.48500
H  44.71100 42.05200 40.26000
H  43.30400 43.04200 40.46800
H  49.80900 40.32300 41.37600
H  51.12400 40.36600 42.48400
H  51.30600 40.95900 40.68000
H  52.47400 45.78500 41.14900
H  53.92800 44.78700 40.89100
H  53.36200 45.12700 42.57100
H  50.06300 48.79000 42.04900
H  48.53700 49.72100 44.38100
H  51.08600 47.96700 44.63200
H  50.83500 49.77700 44.45700
H  51.83500 48.91200 43.30600
H  47.39700 50.14000 41.59600
H  49.09200 50.72300 41.78900
H  48.43600 52.48900 42.96100
H  47.33900 51.60400 44.02600
H  46.83100 52.14900 42.39700
H  41.68400 49.05900 43.71100
H  43.13400 49.75500 43.08700
H  43.03800 49.60100 44.73000
H  41.53600 43.53200 42.73800
H  41.86400 41.70400 46.51100
H  40.48600 40.87700 45.90500
H  40.36600 42.65400 46.66200
Mg 47.59700 34.85700 27.67500
C  45.56800 33.52400 30.30100
C  48.18500 37.53700 29.77000
C  48.79600 36.61400 24.98400
C  46.34400 32.41500 25.58200
N  46.93300 35.44800 29.81400
C  46.21900 34.71600 30.65400
C  46.50800 35.19600 32.09000
C  46.94900 36.68400 31.87200
C  47.43600 36.55300 30.40800
C  45.79500 37.68600 32.05700
C  47.68700 34.35300 32.76300
C  47.52600 34.26500 34.33900
H  46.60200 35.29700 34.97500
N  48.48200 36.75600 27.43400
C  48.59300 37.70200 28.42800
C  49.33200 38.88500 27.87400
C  49.62200 38.50800 26.50300
C  48.94600 37.25500 26.22000
C  49.62800 40.17900 28.55800
C  50.33900 39.34500 25.47000
O  50.48800 38.97400 24.33800
C  50.68200 40.81100 25.67000
N  47.58500 34.51100 25.56900
C  48.03100 35.42700 24.70000
C  47.95200 34.91600 23.25800
C  47.18100 33.53400 23.45200
C  46.97100 33.47300 24.94600
C  47.31900 35.83400 22.22900
C  48.14200 32.38500 22.87400
C  49.43000 32.25300 23.53000
N  46.43500 33.15600 27.91000
C  46.12100 32.22400 27.01100
C  45.56900 31.06800 27.67600
C  45.24300 31.54800 28.93500
C  45.87900 32.80500 29.08400
C  45.13400 29.82800 26.99100
C  44.55000 31.23700 30.14500
O  43.96400 30.18700 30.47700
C  44.61400 32.56800 31.01800
C  44.89800 32.18200 32.42400
O  45.81100 31.50000 32.88500
O  43.74700 32.55700 33.14000
C  43.56200 32.06300 34.44600
H  48.42600 38.35400 30.45300
H  48.94200 37.22000 24.08700
H  45.85800 31.82800 24.80000
H  45.57300 35.21000 32.65100
H  47.86000 36.84100 32.44800
H  45.36400 37.86000 31.07200
H  46.09400 38.70000 32.32200
H  45.05000 37.33000 32.76900
H  48.65000 34.70700 32.39400
H  47.66900 33.34800 32.34100
H  48.52300 34.48600 34.72000
H  47.18000 33.28200 34.65900
H  50.68700 40.42900 28.63600
H  49.31100 40.11800 29.59900
H  49.04300 40.94500 28.04800
H  50.01700 41.49400 26.19900
H  51.03400 41.26800 24.74500
H  51.59400 40.68400 26.25200
H  48.97500 34.75900 22.91600
H  46.18800 33.31100 23.06300
H  47.87400 36.10100 21.32900
H  47.06000 36.78900 22.68600
H  46.36700 35.41900 21.90100
H  48.29700 32.49500 21.80100
H  47.56600 31.46800 22.99800
H  49.63200 31.26900 23.95400
H  49.42600 32.89800 24.40900
H  50.24700 32.41700 22.82800
H  45.77300 28.98300 27.24900
H  45.27300 29.95000 25.91700
H  44.05800 29.66500 27.04400
H  43.68100 33.12300 30.92900
H  44.37600 31.41900 34.77900
H  42.65300 31.49600 34.64700
H  43.33800 32.77800 35.23700

