158

Mg 8.51100 3.36700 27.77700
C  9.91000 1.80700 30.51900
C  7.09900 5.62400 29.64700
C  6.85600 4.44400 24.95800
C  9.88400 0.75700 25.73100
N  8.54200 3.72500 29.88400
C  9.07100 2.89300 30.85300
C  9.06500 3.55700 32.28500
C  7.93400 4.71100 31.97300
C  7.88500 4.73600 30.40500
C  6.54800 4.40000 32.57700
C  10.43600 4.18800 32.70400
C  10.76100 3.89300 34.21600
H  11.28800 4.97900 35.12900
N  7.15400 4.86800 27.34600
C  6.73400 5.77000 28.28700
C  5.75600 6.67500 27.73900
C  5.64700 6.32900 26.34600
C  6.56200 5.20600 26.14000
C  5.05000 7.82800 28.40500
C  4.81600 6.87400 25.20900
O  4.76300 6.43500 24.03300
C  3.85200 8.09200 25.49200
N  8.34200 2.69800 25.65700
C  7.57600 3.30800 24.73400
C  7.81900 2.70700 23.29100
C  8.95500 1.66800 23.52700
C  9.08200 1.69700 25.05400
C  6.64000 2.22800 22.42500
C  10.30700 1.91300 22.85700
C  11.12300 0.75900 22.24300
N  9.77600 1.64100 28.00300
C  10.22100 0.67900 27.13200
C  11.02400 -0.32200 27.80700
C  11.03300 0.11400 29.13000
C  10.21900 1.28300 29.20000
C  11.68400 -1.53000 27.23600
C  11.45900 -0.20000 30.51100
O  12.21600 -1.05300 30.99300
C  10.77900 0.92000 31.45500
C  10.01100 0.23300 32.59200
O  8.97900 -0.36300 32.36300
O  10.51100 0.38800 33.90500
C  9.76300 -0.26200 35.01600
H  6.51800 6.26100 30.31700
H  6.47500 4.85700 24.02200
H  10.41400 0.05200 25.08600
H  8.70300 2.76800 32.94400
H  8.27200 5.66600 32.37500
H  6.68200 3.61600 33.32200
H  5.84800 4.18400 31.77000
H  6.16800 5.27900 33.09700
H  10.45500 5.22900 32.38100
H  11.23800 3.75400 32.10600
H  11.53800 3.13100 34.27700
H  9.86800 3.45800 34.66400
H  5.36000 8.70100 27.83100
H  5.22000 7.95100 29.47500
H  3.96600 7.77900 28.30000
H  3.15100 7.93300 26.31100
H  3.29800 8.25400 24.56700
H  4.49700 8.91800 25.79100
H  8.20800 3.43100 22.57600
H  8.58800 0.64800 23.41400
H  5.77700 2.18800 23.09100
H  6.88000 1.25800 21.99000
H  6.28500 2.86700 21.61700
H  10.94000 2.31200 23.64900
H  10.15100 2.78000 22.21600
H  10.59300 -0.14500 22.54100
H  12.09600 0.80700 22.73400
H  11.06400 0.69800 21.15700
H  11.30000 -1.75600 26.24100
H  11.42000 -2.39500 27.84400
H  12.72900 -1.22200 27.22400
H  11.49800 1.49900 32.03500
H  8.75900 -0.61500 34.78100
H  9.64900 0.39400 35.87800
H  10.37000 -1.10900 35.33700
Mg 47.96600 34.70600 26.95500
C  46.51800 33.34500 29.70200
C  48.01500 37.82300 28.60800
C  49.09300 36.05100 24.19800
C  47.33000 31.61900 25.21500
N  47.37800 35.43200 28.97300
C  46.84900 34.67400 29.94700
C  46.76500 35.40600 31.29700
C  46.98300 36.83800 30.81900
C  47.46400 36.72800 29.34500
C  45.87800 37.76000 31.02200
C  47.81400 34.88700 32.35900
C  47.41000 34.84200 33.83300
H  46.33200 35.89000 34.35900
N  48.66600 36.61800 26.48600
C  48.63100 37.74500 27.31600
C  49.35700 38.80600 26.59800
C  49.64000 38.31900 25.25000
C  49.11400 36.94700 25.24900
C  49.63400 40.09700 27.38900
C  50.32500 38.89700 24.06600
O  50.64100 38.27000 23.06000
C  50.71300 40.28800 24.13400
N  47.95700 34.02100 24.95300
C  48.61100 34.80300 24.02900
C  48.80200 34.05700 22.72000
C  48.30400 32.62700 23.05600
C  47.79300 32.74900 24.47400
C  48.13400 34.74900 21.42100
C  49.40300 31.56100 22.99200
C  50.64000 31.72200 24.01500
N  47.13300 32.86100 27.37200
C  46.90600 31.67500 26.53400
C  46.29600 30.67800 27.40400
C  46.00500 31.33400 28.61700
C  46.58900 32.60300 28.53900
C  45.94700 29.20700 27.11400
C  45.29600 31.19800 29.83700
O  44.62200 30.27500 30.28400
C  45.49700 32.52100 30.58300
C  45.65700 32.26700 32.01100
O  46.51200 31.48300 32.47300
O  44.57100 32.74700 32.70700
C  44.21000 32.35900 34.16000
H  48.20500 38.77000 29.11800
H  49.45800 36.36900 23.21900
H  47.30800 30.71200 24.60700
H  45.76300 35.32400 31.71700
H  47.85500 37.28300 31.29900
H  46.20600 38.72900 31.39600
H  45.07400 37.40400 31.66600
H  45.30900 37.94200 30.11000
H  48.78600 35.32700 32.13800
H  47.99900 33.85700 32.05500
H  48.34800 34.85600 34.38700
H  47.04000 33.87800 34.18300
H  50.24000 39.69100 28.19900
H  48.69400 40.53800 27.72000
H  50.21700 40.82600 26.82500
H  51.55400 40.30100 24.82800
H  49.86500 40.85600 24.51800
H  50.98000 40.68500 23.15500
H  49.87700 33.93700 22.59100
H  47.46900 32.38700 22.39800
H  48.86000 35.22600 20.76200
H  47.46200 35.57000 21.66900
H  47.54900 33.98400 20.91100
H  49.73200 31.52900 21.95300
H  48.92800 30.58900 23.11800
H  51.54900 31.67600 23.41600
H  50.96900 30.83100 24.55000
H  50.66700 32.58700 24.67800
H  46.19900 28.55300 27.94900
H  46.52400 28.92400 26.23300
H  44.94400 29.12100 26.69600
H  44.58300 33.11000 30.51400
H  43.17100 32.03200 34.10400
H  44.29700 33.27000 34.75200
H  44.92700 31.71700 34.67200

