158

Mg 27.95200 56.41300 40.73300
C  25.35600 54.07100 39.90400
C  30.28700 54.30700 39.56800
C  29.91900 59.02300 40.52400
C  25.20900 58.67100 41.39300
N  27.78300 54.50400 39.73100
C  26.70400 53.67400 39.57700
C  27.10100 52.46300 38.70600
C  28.65000 52.41700 38.91300
C  28.93200 53.84200 39.39500
C  29.28800 51.34200 39.85100
C  26.59100 52.26600 37.24600
C  26.36700 53.64800 36.55400
H  26.65600 53.72100 35.03400
N  29.91400 56.59200 40.27400
C  30.82300 55.56300 39.98500
C  32.17800 56.14500 39.77000
C  32.02100 57.62500 39.88800
C  30.59300 57.81900 40.23300
C  33.28600 55.26400 39.21500
C  33.13100 58.60400 39.75800
O  34.30800 58.25200 39.52200
C  32.94300 60.11300 39.94900
N  27.61100 58.51000 40.97100
C  28.64700 59.37700 40.90400
C  28.19100 60.82500 41.02100
C  26.76300 60.67800 41.41900
C  26.48100 59.14000 41.22400
C  29.04900 61.61800 42.00300
C  25.75700 61.69100 40.78700
C  24.67500 62.39100 41.74400
N  25.70500 56.35900 40.84600
C  24.79400 57.29400 41.17000
C  23.51200 56.67200 41.27300
C  23.70500 55.39500 40.75300
C  25.02600 55.23200 40.51400
C  22.25900 57.29600 41.80700
C  23.00100 54.17600 40.49900
O  21.82700 53.81700 40.58800
C  24.01100 53.30300 39.71000
C  23.97800 51.95200 40.26900
O  23.44900 50.97400 39.74600
O  24.68600 51.99200 41.46200
C  25.03400 50.69000 42.01800
H  31.11600 53.61700 39.39500
H  30.56300 59.87800 40.30900
H  24.42000 59.38600 41.63400
H  26.64400 51.64300 39.26100
H  29.23300 52.41300 37.99200
H  28.49400 50.73300 40.28200
H  29.71900 51.79400 40.74400
H  30.02800 50.65700 39.43500
H  25.70800 51.62900 37.29900
H  27.33100 51.74700 36.63600
H  26.88700 54.46200 37.05900
H  25.28100 53.69200 36.64600
H  33.97600 55.87600 38.63400
H  33.01400 54.44400 38.55000
H  33.73600 54.72200 40.04600
H  32.45200 60.22700 40.91600
H  32.23500 60.49500 39.21300
H  33.87800 60.65400 39.80800
H  28.25800 61.25300 40.02100
H  26.68400 60.84900 42.49300
H  28.43600 62.12300 42.74900
H  29.49700 62.44700 41.45400
H  29.77000 60.99500 42.53200
H  25.34100 61.14600 39.94000
H  26.28000 62.54000 40.34600
H  24.73500 63.47400 41.63800
H  24.94200 62.05500 42.74600
H  23.67400 62.04900 41.48300
H  21.66700 57.65700 40.96600
H  22.63500 58.21800 42.25000
H  21.59900 56.79500 42.51500
H  23.74600 53.19200 38.65800
H  26.11200 50.65800 42.17400
H  24.76800 49.88100 41.33800
H  24.51900 50.58300 42.97300
Mg -6.12500 24.70900 26.94100
C  -4.94500 26.68300 29.74000
C  -8.01000 22.97800 29.01000
C  -6.96700 22.99100 24.20000
C  -3.95400 26.85700 24.90200
N  -6.24300 24.74800 29.15900
C  -5.78200 25.60500 30.06700
C  -6.39200 25.33100 31.46700
C  -7.27200 24.08800 31.18000
C  -7.22200 23.91100 29.72300
C  -6.76700 22.83300 31.97100
C  -7.15000 26.51600 32.19200
C  -7.12600 26.73000 33.76200
H  -6.66600 25.51100 34.54500
N  -7.37600 23.19200 26.62400
C  -8.03800 22.58200 27.64600
C  -8.96500 21.64500 27.01700
C  -8.67000 21.57400 25.57500
C  -7.65800 22.60900 25.40900
C  -9.96600 20.98000 27.83600
C  -9.29700 20.73700 24.51200
O  -9.12100 20.95200 23.31900
C  -10.18200 19.53200 24.80600
N  -5.48400 24.91300 24.85300
C  -5.93200 23.95300 24.01100
C  -5.30300 24.15600 22.60500
C  -4.39800 25.39300 22.76300
C  -4.54700 25.70000 24.26000
C  -4.50900 22.87700 22.08000
C  -4.74400 26.58900 21.82400
C  -6.16200 27.18300 21.97900
N  -4.79000 26.46300 27.14600
C  -4.03200 27.19000 26.28000
C  -3.44300 28.37500 26.94800
C  -3.68300 28.13700 28.28800
C  -4.48800 26.97900 28.38200
C  -2.66200 29.42200 26.22900
C  -3.52700 28.68500 29.59100
O  -2.90500 29.64500 29.94900
C  -4.24400 27.75500 30.51600
C  -3.44300 27.27500 31.63200
O  -2.52900 26.50900 31.54800
O  -3.82200 27.92500 32.80800
C  -3.03300 27.59100 34.01800
H  -8.72800 22.40400 29.59900
H  -7.10000 22.30500 23.36100
H  -3.31300 27.48200 24.27600
H  -5.52400 25.12100 32.09100
H  -8.27100 24.39100 31.49200
H  -7.05000 21.90400 31.47500
H  -7.39800 22.78600 32.85900
H  -5.77300 22.87400 32.41600
H  -8.18200 26.53900 31.84300
H  -6.69300 27.45100 31.86700
H  -8.08900 27.12800 34.08200
H  -6.46900 27.57200 33.97800
H  -10.47100 20.17100 27.30900
H  -10.79700 21.60700 28.15900
H  -9.57300 20.37000 28.65000
H  -9.85000 18.91200 25.63900
H  -10.29600 18.91500 23.91500
H  -11.12100 19.91400 25.20700
H  -6.05400 24.30000 21.82800
H  -3.35500 25.11900 22.60500
H  -3.53800 23.12600 21.65200
H  -5.21300 22.28900 21.49200
H  -4.32300 22.17100 22.88900
H  -4.72000 26.28200 20.77800
H  -3.99000 27.33400 22.07800
H  -6.69200 26.71800 22.81100
H  -6.62100 26.99300 21.00900
H  -5.98600 28.25400 22.07300
H  -3.34100 29.96000 25.56800
H  -1.76800 29.00500 25.76600
H  -2.27800 30.04800 27.03500
H  -5.07500 28.32300 30.93500
H  -3.04500 26.51400 34.18500
H  -3.58000 28.05500 34.83900
H  -2.00500 27.94400 33.94300

