158

Mg 34.45400 3.05600 29.71000
C  32.32100 4.01800 32.28900
C  36.99800 2.98900 31.95500
C  36.55000 2.50500 27.09400
C  31.79900 3.75000 27.54800
N  34.60600 3.33000 31.87200
C  33.60500 3.75500 32.63900
C  34.12100 3.82200 34.10800
C  35.63300 3.70800 33.96100
C  35.79000 3.35700 32.49500
C  36.50200 4.98400 34.38800
C  33.51400 2.57200 34.85700
C  33.10700 2.80900 36.31800
H  33.96000 3.77700 37.13200
N  36.45500 2.75400 29.52500
C  37.33100 2.72700 30.59600
C  38.66700 2.53000 30.09200
C  38.51900 2.31900 28.67800
C  37.13700 2.56400 28.37300
C  39.77100 2.19800 31.13900
C  39.62300 1.98700 27.62700
O  39.43300 1.97200 26.40600
C  41.05400 1.74700 28.13400
N  34.18400 3.16300 27.58500
C  35.28500 2.97100 26.74700
C  34.78100 2.95500 25.28200
C  33.21700 3.17500 25.38800
C  33.01500 3.35000 26.94300
C  35.51000 3.98300 24.32200
C  32.37000 1.98800 24.85900
C  32.36100 0.73900 25.81000
N  32.51000 3.75400 29.78500
C  31.51600 3.87100 28.88400
C  30.26700 4.33300 29.45900
C  30.49200 4.24400 30.81800
C  31.85900 3.95600 30.93200
C  29.03900 4.55200 28.81600
C  29.94000 4.52900 32.09600
O  28.80700 4.88400 32.31000
C  31.11400 4.40700 33.09300
C  31.38700 5.76300 33.70200
O  31.69600 6.78100 33.04600
O  31.03000 5.64700 35.00800
C  31.21700 6.92300 35.78200
H  37.84800 3.15400 32.62000
H  37.15900 2.29400 26.21300
H  31.13500 3.88600 26.69200
H  33.94600 4.78400 34.59000
H  36.07000 2.90800 34.55800
H  37.06500 4.83900 35.31000
H  35.96800 5.93400 34.41500
H  37.28600 5.06200 33.63500
H  34.25700 1.77800 34.92500
H  32.57000 2.20400 34.45500
H  33.22900 1.85900 36.83900
H  32.06700 3.08100 36.13900
H  40.78300 1.99300 30.79000
H  39.60100 1.34600 31.79800
H  39.88300 3.06400 31.79100
H  41.56200 2.67600 28.39400
H  41.51200 1.24600 27.28100
H  41.03300 0.98700 28.91400
H  34.99300 1.92500 24.99500
H  32.90500 4.13800 24.98300
H  36.05500 4.74300 24.88200
H  34.80500 4.56000 23.72300
H  36.31700 3.54800 23.73200
H  32.88000 1.72400 23.93200
H  31.35400 2.25200 24.56700
H  32.48400 1.04400 26.84900
H  33.24000 0.10800 25.67400
H  31.36100 0.32600 25.67600
H  28.70100 3.59500 28.41900
H  29.14800 5.19200 27.94100
H  28.29700 5.11700 29.38000
H  30.97200 3.60300 33.81500
H  31.42400 6.64400 36.81500
H  30.33700 7.56200 35.69800
H  32.10100 7.36500 35.32300
Mg 53.82000 25.19800 43.85700
C  51.17800 27.37500 43.50800
C  51.59700 22.56000 43.21700
C  56.51200 23.08700 43.35300
C  56.04700 27.84300 43.87400
N  51.65000 25.00500 43.58000
C  50.79700 26.05400 43.36600
C  49.40800 25.53400 42.87600
C  49.47500 24.02900 43.41800
C  51.00000 23.80500 43.43300
C  48.81300 23.84300 44.82100
C  49.31400 25.60000 41.35700
C  47.94300 25.45600 40.79600
H  47.79500 25.48000 39.24300
N  54.00800 23.04500 43.43800
C  52.95600 22.19400 43.21700
C  53.56200 20.95200 42.96400
C  54.97600 21.07100 43.04300
C  55.22700 22.42100 43.28200
C  52.75500 19.70500 42.72100
C  55.90800 19.91900 42.80800
O  55.41100 18.74600 42.62800
C  57.43500 19.89600 42.89200
N  55.97400 25.45300 43.49000
C  56.82800 24.38700 43.43300
C  58.32500 24.98500 43.51300
C  58.09900 26.52100 43.43000
C  56.60200 26.60300 43.67700
C  59.21600 24.53200 44.69400
C  58.42800 27.22500 42.03300
C  59.42300 28.41100 42.04100
N  53.73800 27.26900 43.92800
C  54.67100 28.19900 44.06400
C  53.98900 29.44500 44.27400
C  52.60300 29.23600 44.01800
C  52.53200 27.85400 43.74900
C  54.59700 30.71100 44.70100
C  51.27900 29.82700 43.81500
O  50.94800 30.99200 43.97500
C  50.34500 28.67100 43.32500
C  50.10000 28.96800 41.92400
O  51.02200 29.19100 41.13000
O  48.74900 29.09100 41.76400
C  48.30400 29.84600 40.59000
H  50.89300 21.74700 43.02600
H  57.46300 22.55200 43.30100
H  56.70600 28.71100 43.94100
H  48.60400 26.07900 43.37100
H  49.01300 23.26900 42.78800
H  48.53100 24.85000 45.12800
H  49.55200 23.46800 45.52800
H  47.99100 23.13200 44.91100
H  49.94300 24.85300 40.87300
H  49.74600 26.53700 41.00800
H  47.32900 26.19000 41.31800
H  47.59700 24.46900 41.10100
H  52.70100 19.42600 41.66800
H  51.74500 19.89700 43.08200
H  53.01200 18.85600 43.35500
H  57.93500 20.59700 42.22300
H  57.81300 18.91200 42.61600
H  57.72300 20.06300 43.93000
H  58.88000 24.66900 42.63000
H  58.60200 27.07900 44.22000
H  59.24700 25.43000 45.31000
H  60.24700 24.22800 44.51100
H  58.68500 23.78800 45.28900
H  57.49200 27.57100 41.59500
H  58.79500 26.51500 41.29100
H  60.20400 28.23400 41.30100
H  59.89100 28.64000 42.99800
H  58.79900 29.27000 41.79500
H  54.31500 31.49200 43.99400
H  55.67000 30.57700 44.56200
H  54.50900 30.99600 45.74900
H  49.43700 28.69900 43.92600
H  47.40600 29.36800 40.19700
H  49.01700 30.14900 39.82300
H  47.86800 30.79200 40.90900

