158

Mg 31.22800 58.09200 40.43400
C  28.51200 56.12100 39.40300
C  33.28200 55.57600 39.34000
C  33.87300 60.10400 40.85400
C  28.99100 60.80400 40.60000
N  30.86700 56.08300 39.49100
C  29.70200 55.48300 39.12300
C  29.89800 54.25800 38.30500
C  31.40300 53.90200 38.59000
C  31.88800 55.26600 39.19900
C  31.57000 52.72300 39.55500
C  29.57700 54.58400 36.75900
C  28.45600 53.78900 35.99700
H  27.47000 54.58000 35.14500
N  33.31700 57.83400 40.32200
C  33.89300 56.77500 39.79800
C  35.35600 56.94100 39.86000
C  35.60000 58.23200 40.32000
C  34.26600 58.78300 40.62000
C  36.34600 55.88500 39.52200
C  36.97400 58.84800 40.58600
O  37.95300 58.24500 40.26500
C  37.11800 60.22600 41.06100
N  31.32200 60.12600 40.69400
C  32.57000 60.74500 40.93000
C  32.46500 62.26900 40.95800
C  30.89400 62.41400 41.07000
C  30.34900 61.05200 40.75900
C  33.18700 63.12900 42.00400
C  30.23400 63.45800 40.08300
C  29.22300 64.44300 40.82500
N  29.13500 58.42500 40.14300
C  28.35900 59.55900 40.28000
C  26.96800 59.28100 40.06500
C  26.96900 57.89800 39.76400
C  28.32200 57.43300 39.83500
C  25.77300 60.22800 40.14000
C  26.07900 56.76500 39.40100
O  24.91400 56.73000 39.22500
C  27.10300 55.55900 39.08300
C  26.65600 54.33100 39.78900
O  26.66100 54.20500 41.03800
O  26.27900 53.40200 38.91600
C  25.64200 52.24100 39.42500
H  33.79700 54.62100 39.21800
H  34.74700 60.73400 41.03300
H  28.23300 61.58500 40.69300
H  29.16600 53.52300 38.63800
H  31.95900 53.56400 37.71600
H  31.95400 52.95200 40.54900
H  32.21800 51.98200 39.08800
H  30.63800 52.15900 39.60100
H  30.55100 54.49800 36.27900
H  29.26100 55.62400 36.67400
H  27.99600 53.24300 36.82100
H  28.89100 53.00900 35.37200
H  37.02300 55.71800 40.35900
H  36.98900 56.11400 38.67200
H  35.85000 54.93100 39.34600
H  36.56900 60.30100 41.99900
H  36.77200 60.83700 40.22700
H  38.16600 60.50100 41.17800
H  32.75600 62.52300 39.93800
H  30.54900 62.70000 42.06400
H  33.51600 63.95400 41.37300
H  34.05200 62.54400 42.31600
H  32.64900 63.40000 42.91300
H  29.70500 63.14200 39.18400
H  30.96900 64.13000 39.64000
H  28.89200 64.05900 41.79000
H  28.29600 64.47300 40.25200
H  29.71900 65.38300 41.06800
H  25.00500 59.85700 39.46100
H  26.01500 61.24300 39.82400
H  25.39600 60.09700 41.15500
H  27.10900 55.42800 38.00100
H  24.69700 52.39000 39.94800
H  26.25300 51.70600 40.15200
H  25.44700 51.56000 38.59700
Mg -5.33000 25.20100 25.60700
C  -3.69400 26.68400 28.27100
C  -6.95900 23.07100 27.96200
C  -6.70800 23.52800 22.99200
C  -3.39700 27.12400 23.38100
N  -5.20900 24.82400 27.93300
C  -4.59100 25.66100 28.80900
C  -5.10900 25.48200 30.24200
C  -5.89500 24.12400 30.13500
C  -6.03600 23.96900 28.57200
C  -5.05900 22.98300 30.73600
C  -5.78100 26.68200 30.96300
C  -6.09500 26.45700 32.50900
H  -5.47600 25.30300 33.31500
N  -6.58800 23.49300 25.51900
C  -7.17100 22.85900 26.62200
C  -8.19200 21.95700 26.08100
C  -8.21200 22.17200 24.66300
C  -7.04800 23.02300 24.31900
C  -9.11100 21.22400 27.03400
C  -9.29000 21.67700 23.69900
O  -9.12600 21.72900 22.49700
C  -10.56800 21.09200 24.25100
N  -5.01000 25.20600 23.46000
C  -5.79700 24.50600 22.58800
C  -5.34500 24.74700 21.14100
C  -4.46400 26.01000 21.29800
C  -4.27500 26.10900 22.80900
C  -4.59200 23.52500 20.55800
C  -5.00000 27.33500 20.67600
C  -4.10400 28.19500 19.73400
N  -3.91600 26.61700 25.76300
C  -3.27500 27.36200 24.79900
C  -2.43700 28.34200 25.40800
C  -2.54700 28.04300 26.79100
C  -3.46700 27.02200 26.96100
C  -1.55600 29.32100 24.71300
C  -2.00400 28.48500 28.07900
O  -1.11000 29.34100 28.29500
C  -2.76900 27.60500 29.08900
C  -1.85100 27.02000 30.09600
O  -0.76200 26.47300 29.82100
O  -2.17600 27.44300 31.35300
C  -1.44300 26.87900 32.45300
H  -7.44800 22.51200 28.76200
H  -7.15800 23.09600 22.09600
H  -3.02500 27.80800 22.61600
H  -4.23500 25.46200 30.89400
H  -6.85900 24.18200 30.64100
H  -4.29900 23.34600 31.42800
H  -4.49000 22.46100 29.96700
H  -5.68600 22.22500 31.20500
H  -6.73800 26.73600 30.44400
H  -5.17500 27.56700 30.77100
H  -7.15800 26.41500 32.74500
H  -5.62700 27.30300 33.01100
H  -8.40500 20.81800 27.75800
H  -9.45100 20.32800 26.51400
H  -9.98300 21.80500 27.33500
H  -10.95200 21.69500 25.07400
H  -10.48600 20.05000 24.56000
H  -11.27700 21.02300 23.42600
H  -6.19900 24.88800 20.47800
H  -3.52800 25.70600 20.83100
H  -3.58200 23.83300 20.29000
H  -5.05500 23.11300 19.66100
H  -4.39300 22.87200 21.40800
H  -5.16700 27.96700 21.54800
H  -5.90800 26.98200 20.18700
H  -4.63000 28.38600 18.79800
H  -3.22200 27.56600 19.61400
H  -3.80200 29.15900 20.14300
H  -2.09300 30.24600 24.50500
H  -1.25300 28.73200 23.84700
H  -0.63600 29.53300 25.25800
H  -3.27400 28.45900 29.54000
H  -0.37200 27.08500 32.45100
H  -1.72100 25.82700 32.51200
H  -1.75700 27.13000 33.46600

