158

Mg 8.82900 3.77600 27.80400
C  10.34100 2.24900 30.61700
C  7.14100 5.63300 29.98800
C  7.42100 5.21100 25.10700
C  10.30900 1.38700 25.80100
N  8.88500 3.97200 30.07800
C  9.59300 3.31800 31.01800
C  9.30800 3.75500 32.44300
C  8.12100 4.77900 32.20400
C  8.02200 4.76100 30.63000
C  6.75300 4.30600 32.80100
C  10.57100 4.26500 33.21300
C  10.26800 5.38500 34.27400
H  11.04700 5.48500 35.63800
N  7.47400 5.22400 27.54700
C  6.87400 5.83800 28.61400
C  6.02900 6.88900 28.07800
C  6.05700 6.77000 26.64800
C  7.02200 5.72000 26.38900
C  5.13100 7.82400 28.92700
C  5.19900 7.49800 25.53700
O  5.40200 7.25200 24.32700
C  4.07000 8.39700 25.91300
N  9.02400 3.47600 25.70000
C  8.24000 4.10400 24.86700
C  8.38000 3.56500 23.38600
C  9.46100 2.38000 23.57100
C  9.56300 2.34100 25.08900
C  7.00000 3.12000 22.83200
C  10.75700 2.83600 22.86200
C  11.47700 1.68700 22.13700
N  9.95800 2.02200 28.08700
C  10.64300 1.23500 27.17500
C  11.40200 0.28500 27.84300
C  11.37000 0.63800 29.16800
C  10.47300 1.73400 29.27800
C  12.15600 -0.84600 27.09600
C  11.82900 0.30000 30.51800
O  12.52700 -0.59400 30.94600
C  11.23700 1.42900 31.47300
C  10.61100 0.72200 32.66200
O  9.58800 0.04900 32.61500
O  11.43400 0.82800 33.74100
C  10.73600 0.35700 34.99200
H  6.40900 6.08300 30.66300
H  6.99400 5.61200 24.18600
H  10.70100 0.59300 25.16200
H  8.92900 2.83800 32.89400
H  8.32100 5.80100 32.52600
H  6.74400 3.37700 33.37100
H  5.97400 4.24300 32.04200
H  6.41600 5.06200 33.51100
H  11.30800 4.71200 32.54500
H  11.11800 3.43600 33.66100
H  9.20900 5.29800 34.51700
H  10.53800 6.35500 33.85700
H  5.45000 8.81200 28.59500
H  5.27700 7.58600 29.98100
H  4.08900 7.67500 28.64400
H  3.69000 8.75900 24.95800
H  4.55200 9.25000 26.39200
H  3.33000 7.91900 26.55500
H  8.71700 4.35800 22.71900
H  9.13400 1.46400 23.07900
H  6.36900 3.13800 23.72100
H  7.05000 2.09000 22.48100
H  6.56100 3.89500 22.20400
H  11.47200 3.25300 23.57200
H  10.61600 3.53000 22.03300
H  11.71100 0.98300 22.93600
H  12.36400 1.98800 21.58000
H  10.68900 1.25000 21.52400
H  13.06300 -0.45500 26.63500
H  11.51100 -1.31100 26.35100
H  12.46800 -1.54600 27.87100
H  11.95200 2.14400 31.88100
H  10.59200 1.09700 35.78000
H  11.47900 -0.30900 35.42900
H  9.80900 -0.20900 34.89900
Mg 47.64500 34.94700 28.06300
C  45.95500 33.31500 30.64500
C  47.81500 37.75800 30.04700
C  48.69700 36.70500 25.42000
C  46.84800 32.24300 25.87500
N  46.95800 35.38700 30.06100
C  46.47400 34.48600 31.01600
C  46.43200 35.21700 32.42200
C  46.65300 36.68500 31.96100
C  47.17000 36.62600 30.56000
C  45.27100 37.48500 32.11000
C  47.53500 34.45800 33.38100
C  48.75400 35.18200 33.84700
H  48.52600 36.16400 35.05500
N  48.35600 36.85200 27.76000
C  48.31700 37.91200 28.68600
C  48.89900 39.14900 28.15300
C  49.16000 38.80200 26.73500
C  48.75800 37.42500 26.58100
C  48.89100 40.48900 28.84900
C  49.61100 39.77600 25.67700
O  49.54100 39.57200 24.47900
C  50.23300 41.11000 25.96000
N  47.91000 34.43200 26.00000
C  48.18100 35.40100 25.10900
C  48.14700 34.93900 23.62700
C  47.89900 33.40500 23.83600
C  47.44500 33.36900 25.30200
C  47.05200 35.64400 22.79600
C  49.14700 32.55800 23.54300
C  50.25600 32.38800 24.61400
N  46.57400 33.07200 28.17900
C  46.43300 32.10500 27.23000
C  45.61600 31.08000 27.87900
C  45.40500 31.49100 29.21000
C  45.97900 32.72200 29.36700
C  45.13600 29.83700 27.12400
C  44.84600 31.08700 30.48400
O  44.27400 30.10600 30.95000
C  44.99100 32.38800 31.33100
C  45.18900 32.11600 32.86900
O  46.15400 31.49400 33.32000
O  44.19100 32.65900 33.58200
C  44.28700 32.59700 35.05800
H  47.70800 38.60100 30.73300
H  49.11800 37.19900 24.54100
H  46.58100 31.45400 25.16900
H  45.50800 35.04200 32.97500
H  47.47200 37.11100 32.54100
H  44.76500 37.47300 33.07500
H  44.64400 37.21200 31.26100
H  45.52600 38.54000 32.00900
H  47.87600 33.62200 32.77000
H  47.01000 34.10700 34.27000
H  49.30200 35.76500 33.10800
H  49.52300 34.44900 34.08900
H  47.94900 40.98100 28.60300
H  49.77700 41.12200 28.80400
H  49.07100 40.28000 29.90300
H  49.44100 41.84100 26.12300
H  50.62500 41.43600 24.99600
H  51.03100 41.06400 26.70100
H  49.12300 35.29600 23.29700
H  47.07300 32.99200 23.25700
H  47.51300 35.96000 21.86000
H  46.72300 36.57400 23.26100
H  46.17500 35.00700 22.69100
H  49.55900 33.00000 22.63600
H  48.73000 31.60300 23.22300
H  49.99200 32.89800 25.54000
H  51.24300 32.71100 24.28300
H  50.46100 31.33300 24.80000
H  45.97300 29.14600 27.02300
H  44.85300 30.22300 26.14400
H  44.23300 29.37000 27.51700
H  44.00900 32.86200 31.32200
H  45.26800 32.89600 35.42500
H  44.02300 31.61200 35.44500
H  43.55200 33.25600 35.52000

