158

Mg 53.63000 25.99300 44.60600
C  50.95000 28.14800 44.41400
C  51.43800 23.41500 43.75600
C  56.27200 23.92000 44.21900
C  55.62500 28.69200 45.10000
N  51.40200 25.82300 44.15400
C  50.53100 26.81500 44.12300
C  49.12800 26.39200 43.55500
C  49.27400 24.84100 43.88000
C  50.81800 24.63300 43.85000
C  48.54300 24.26800 45.08300
C  48.86700 26.69400 42.04600
C  50.08500 26.97200 41.07500
H  50.36900 26.01700 39.92200
N  53.81400 23.89900 44.12800
C  52.82100 22.98800 43.89400
C  53.40200 21.68200 43.55100
C  54.86100 21.81800 43.75400
C  55.01800 23.25900 44.06200
C  52.58700 20.52000 43.21000
C  55.93200 20.62900 43.72800
O  55.57500 19.48100 43.43400
C  57.38800 20.87300 44.12000
N  55.70400 26.32500 44.50300
C  56.58000 25.27100 44.39500
C  58.00300 25.78600 44.34600
C  57.83300 27.28900 44.72000
C  56.28600 27.49500 44.79000
C  59.12400 25.06600 45.24100
C  58.58000 28.52200 43.95700
C  59.26100 29.60500 44.82300
N  53.36600 27.97200 44.91400
C  54.26700 28.95300 45.22200
C  53.61300 30.22900 45.40000
C  52.27200 29.92600 45.15000
C  52.22100 28.55900 44.84700
C  54.27700 31.52100 45.68100
C  50.99700 30.50000 45.04600
O  50.60400 31.61700 45.30500
C  50.04800 29.34600 44.55900
C  49.58500 29.93000 43.24000
O  50.16400 29.96200 42.18800
O  48.16700 30.17400 43.41400
C  47.39200 30.50500 42.13600
H  50.72400 22.61000 43.57400
H  57.24400 23.42700 44.14800
H  56.33300 29.52400 45.09400
H  48.31800 26.80800 44.15300
H  48.91300 24.23100 43.05300
H  48.17800 24.99000 45.81300
H  49.24100 23.62700 45.62100
H  47.78200 23.49700 44.96200
H  48.17000 27.52700 41.94800
H  48.33500 25.92200 41.49100
H  51.00100 27.13900 41.64100
H  49.91300 27.92300 40.57000
H  52.88700 19.65000 43.79500
H  52.61400 20.29000 42.14500
H  51.59700 20.80600 43.56300
H  57.82400 21.47300 43.32100
H  57.89500 19.91100 44.20000
H  57.23600 21.18100 45.15400
H  58.37700 25.66900 43.32900
H  58.20300 27.48300 45.72700
H  58.65600 24.33200 45.89700
H  59.69800 25.77000 45.84200
H  59.89700 24.54000 44.68000
H  57.83300 28.94300 43.28500
H  59.37200 27.96800 43.45400
H  59.54500 29.09600 45.74400
H  58.51000 30.39100 44.90300
H  60.25800 29.91400 44.50900
H  53.92500 32.45800 45.24900
H  55.34300 31.65400 45.49300
H  54.21300 31.59500 46.76600
H  49.17600 29.31500 45.21200
H  46.69200 31.25800 42.50000
H  46.85400 29.60400 41.84000
H  47.99600 30.87600 41.30800
Mg 27.68700 49.86100 26.48700
C  25.64000 50.86300 29.14200
C  30.07200 49.01800 28.86100
C  29.80700 49.40300 23.98900
C  25.08300 50.61100 24.25800
N  27.77200 49.98700 28.81300
C  26.80500 50.33700 29.62400
C  27.22200 50.24900 31.07200
C  28.73600 49.74900 30.98600
C  28.90700 49.59700 29.50100
C  29.75800 50.78100 31.60200
C  26.34900 49.18300 31.87500
C  25.58400 49.75000 33.14400
H  26.42600 49.67200 34.38700
N  29.54200 49.07700 26.42000
C  30.36600 48.81900 27.52700
C  31.64900 48.40200 26.97900
C  31.59600 48.51300 25.56500
C  30.27400 49.03600 25.28200
C  32.72500 47.79400 27.96700
C  32.68500 48.23400 24.52000
O  32.53000 48.50500 23.29300
C  33.97100 47.64400 24.99500
N  27.54900 50.18200 24.34300
C  28.53200 49.74300 23.54800
C  28.14000 49.93100 22.01700
C  26.55800 50.21600 22.16600
C  26.33600 50.33500 23.69100
C  28.79700 51.13100 21.32300
C  25.69000 49.04200 21.55700
C  25.48500 47.69600 22.36400
N  25.76400 50.67900 26.68300
C  24.81300 50.87400 25.65600
C  23.61800 51.42000 26.26200
C  23.86800 51.46700 27.64000
C  25.22300 51.03200 27.82800
C  22.41200 51.84600 25.50700
C  23.32400 51.71700 28.93700
O  22.33300 52.31100 29.26200
C  24.34500 51.34600 29.94000
C  24.65900 52.52800 30.83600
O  25.61800 53.30900 30.77800
O  23.64400 52.54900 31.81600
C  23.90700 53.39600 33.00300
H  30.80100 48.61400 29.56500
H  30.43200 49.14000 23.13400
H  24.18100 50.66100 23.64500
H  27.18800 51.20900 31.58800
H  28.86000 48.78400 31.47800
H  30.55200 51.07300 30.91500
H  30.18300 50.26000 32.46000
H  29.21500 51.68900 31.86600
H  26.95200 48.32500 32.17300
H  25.59300 48.75600 31.21700
H  24.59700 49.29400 33.20700
H  25.36500 50.81000 33.01200
H  32.64300 46.71400 27.84200
H  32.65500 48.01900 29.03100
H  33.72200 48.17100 27.73900
H  34.55900 47.35100 24.12600
H  33.62800 46.75900 25.53100
H  34.51300 48.44100 25.50300
H  28.37500 49.00200 21.49700
H  26.24600 51.16100 21.72300
H  29.43300 50.75600 20.52200
H  29.48200 51.65000 21.99400
H  28.08500 51.79300 20.83000
H  26.10200 48.77200 20.58500
H  24.66500 49.41000 21.51400
H  24.50400 47.67800 22.84000
H  26.25500 47.74100 23.13500
H  25.67200 46.74400 21.86800
H  21.65100 51.58800 26.24300
H  22.28700 51.24300 24.60800
H  22.53300 52.91000 25.30100
H  23.95300 50.60300 30.63400
H  24.93100 53.75800 33.09500
H  23.63900 52.74600 33.83600
H  23.32700 54.31900 33.03700

