158

Mg 2.60000 -0.95100 44.58500
C  5.82600 -0.60500 43.38300
C  1.50700 1.51300 42.42500
C  -0.52800 -1.88000 45.22100
C  3.76300 -3.82800 46.21600
N  3.62000 0.38000 43.07200
C  4.92300 0.30000 42.67100
C  5.21800 1.53700 41.80800
C  3.85000 2.31700 41.79800
C  2.91400 1.38600 42.46100
C  3.86100 3.75400 42.24100
C  5.87800 1.17900 40.39900
C  6.91300 2.16800 39.89900
H  6.48600 2.94100 38.62100
N  0.72900 -0.14800 44.05300
C  0.41500 0.87800 43.16000
C  -1.04100 1.06600 42.99600
C  -1.63200 0.15200 43.92400
C  -0.47000 -0.67400 44.50600
C  -1.54700 2.25400 42.13200
C  -3.02500 0.07200 44.22000
O  -3.81000 0.94600 43.87700
C  -3.64000 -1.05500 45.01500
N  1.72400 -2.64000 45.59800
C  0.36500 -2.76800 45.72600
C  0.05200 -4.20000 46.12300
C  1.41800 -4.80200 46.54400
C  2.40600 -3.72100 46.05600
C  -0.96700 -4.12000 47.27800
C  1.70200 -6.25400 46.06700
C  2.47800 -7.23100 46.94400
N  4.46200 -1.90600 44.93500
C  4.78800 -3.04000 45.66700
C  6.28500 -3.19900 45.71000
C  6.67200 -2.23900 44.81200
C  5.54100 -1.55800 44.34300
C  7.12100 -4.11200 46.47000
C  7.84300 -1.75500 44.13000
O  9.03200 -2.12300 44.14300
C  7.36200 -0.59600 43.19000
C  8.00400 0.65200 43.68900
O  7.50400 1.37900 44.52700
O  9.20600 0.88000 43.03200
C  9.76700 2.23500 43.31100
H  1.12900 2.34700 41.82900
H  -1.55200 -2.15900 45.47800
H  4.03800 -4.76000 46.71500
H  5.96600 2.20100 42.24000
H  3.64500 2.25300 40.72900
H  3.84500 4.45300 41.40400
H  4.82100 3.88600 42.74100
H  3.11800 3.98700 43.00300
H  5.12300 1.14700 39.61300
H  6.44300 0.25000 40.46300
H  7.80200 1.54100 39.83500
H  7.08600 2.98300 40.60200
H  -2.48700 1.98300 41.65300
H  -0.88600 2.41300 41.28000
H  -1.71700 3.13700 42.74800
H  -4.72400 -0.96200 44.95900
H  -3.37800 -1.06400 46.07300
H  -3.41000 -2.03400 44.59400
H  -0.33500 -4.72900 45.25200
H  1.45600 -4.81000 47.63400
H  -1.20300 -3.07000 47.45200
H  -0.64100 -4.55600 48.22200
H  -1.84700 -4.73400 47.08800
H  2.24000 -6.19600 45.12100
H  0.72700 -6.63300 45.75800
H  1.83900 -8.06500 47.23300
H  2.91400 -6.80600 47.84900
H  3.18000 -7.79000 46.32600
H  8.09200 -3.64500 46.63800
H  7.21400 -5.06000 45.94100
H  6.66600 -4.29000 47.44400
H  7.63300 -0.64300 42.13600
H  8.97400 2.98200 43.30800
H  10.54900 2.51700 42.60500
H  10.18900 2.24400 44.31600
Mg 26.34900 50.70500 26.94500
C  24.04200 51.92300 29.32100
C  28.32300 49.72400 29.61400
C  28.65500 49.88200 24.76400
C  24.29500 52.01200 24.43600
N  26.20000 50.83100 29.17100
C  25.12500 51.22200 29.90500
C  25.18100 50.71100 31.35100
C  26.72200 50.28500 31.46100
C  27.10200 50.20200 29.99500
C  27.64800 51.13100 32.35000
C  24.20800 49.61800 31.76000
C  23.98300 49.21100 33.22300
H  24.39700 50.20800 34.40400
N  28.19800 49.92900 27.17500
C  28.87000 49.58000 28.32900
C  30.19000 49.06000 27.90000
C  30.29200 49.06600 26.47200
C  29.00600 49.68900 26.06900
C  31.20800 48.75200 28.95500
C  31.49100 48.68100 25.61000
O  31.58400 48.95600 24.43000
C  32.56200 48.01500 26.26300
N  26.49000 50.97700 24.90200
C  27.51700 50.45400 24.17600
C  27.19000 50.34400 22.67600
C  25.82100 50.98800 22.58700
C  25.51300 51.42000 24.02800
C  28.27300 50.89500 21.73200
C  24.69900 50.06300 21.95600
C  23.66100 50.67700 20.98400
N  24.60900 51.91500 26.80000
C  23.91500 52.42600 25.71400
C  22.81000 53.16400 26.18800
C  22.76900 52.97500 27.57300
C  23.87600 52.20900 27.89600
C  21.86400 53.84300 25.34800
C  22.05100 53.27900 28.83000
O  21.05500 53.94200 28.98100
C  22.84500 52.54700 30.02100
C  23.30700 53.61600 30.94200
O  24.34800 54.26300 30.84500
O  22.43100 53.76400 32.10900
C  22.87000 54.77500 33.06300
H  28.86100 49.46100 30.52800
H  29.34600 49.47600 24.02200
H  23.59200 52.31500 23.65700
H  24.90700 51.54100 32.00100
H  26.85300 49.27700 31.85600
H  27.02600 51.41800 33.19800
H  28.14500 51.97100 31.86400
H  28.45900 50.49100 32.69600
H  24.29600 48.66400 31.24100
H  23.22900 50.04300 31.53700
H  24.61200 48.32400 33.29900
H  22.91300 49.15500 33.42600
H  31.00100 49.46600 29.75200
H  32.22700 49.00200 28.66000
H  31.15800 47.74500 29.37100
H  32.18100 47.20700 26.88700
H  33.22400 48.69700 26.79700
H  33.28600 47.59600 25.56400
H  27.12100 49.27200 22.49100
H  25.87400 51.92500 22.03200
H  28.91700 51.58300 22.28000
H  27.76300 51.38400 20.90200
H  28.85200 50.02900 21.41100
H  24.18900 49.40200 22.65700
H  25.23800 49.37300 21.30700
H  23.55700 49.85300 20.27800
H  24.22400 51.47800 20.50500
H  22.71300 50.98500 21.42500
H  21.98400 54.83600 25.78000
H  20.82500 53.53900 25.47300
H  22.14900 53.84600 24.29600
H  22.22400 51.82000 30.54400
H  23.63200 55.46900 32.70700
H  23.20400 54.19700 33.92500
H  21.99500 55.32000 33.41800

