158

Mg 47.25600 25.18500 28.77000
C  48.08800 27.31100 31.52900
C  46.24200 22.83100 31.09500
C  47.04200 23.07900 26.25100
C  48.85400 27.46300 26.71500
N  47.57300 24.93600 31.09200
C  47.56500 26.07900 31.97200
C  47.16300 25.62400 33.50400
C  46.86700 24.10500 33.30600
C  46.86900 23.91600 31.70900
C  47.93700 23.17600 34.06600
C  46.04000 26.45400 34.15500
C  46.32000 27.06800 35.52000
H  45.11100 27.22400 36.46200
N  46.59300 23.36100 28.60100
C  46.14000 22.52800 29.68900
C  45.59900 21.27600 29.14600
C  45.90000 21.20900 27.75000
C  46.51100 22.59200 27.46700
C  44.84600 20.23200 30.04700
C  45.83700 19.97500 26.81200
O  46.19000 20.08900 25.64400
C  45.22100 18.73000 27.26800
N  47.91500 25.23200 26.82200
C  47.65300 24.30600 25.89900
C  47.80400 24.77700 24.47400
C  48.17900 26.27200 24.68700
C  48.35300 26.37300 26.18500
C  48.82100 23.99200 23.59100
C  47.06500 27.32900 24.21200
C  47.56100 28.75600 23.82300
N  48.24300 27.03700 29.03600
C  48.85600 27.80200 28.07900
C  49.25000 29.02600 28.63300
C  48.98000 28.91400 30.00700
C  48.37900 27.64600 30.20400
C  49.90400 30.13200 27.90300
C  48.98700 29.60600 31.29500
O  49.21200 30.74600 31.61800
C  48.53300 28.48600 32.39500
C  49.55000 28.13600 33.35900
O  50.63700 27.58800 33.15100
O  49.18100 28.75700 34.57000
C  50.05000 28.31600 35.64900
H  45.87800 22.02800 31.73900
H  46.90100 22.38000 25.42400
H  49.34300 28.13600 26.00800
H  47.94100 25.75100 34.25700
H  45.86000 23.88000 33.65700
H  47.54700 22.84600 35.02900
H  48.88200 23.71900 34.08700
H  48.23000 22.29100 33.50000
H  45.20400 25.80100 34.40700
H  45.61200 27.20400 33.49000
H  46.76900 28.05800 35.43500
H  47.09400 26.48200 36.01800
H  43.99400 19.82300 29.50400
H  44.36700 20.75000 30.87700
H  45.41600 19.39200 30.44400
H  45.83800 18.40700 28.10700
H  45.28300 17.95700 26.50200
H  44.20300 19.02500 27.52100
H  46.82800 24.78700 23.98900
H  49.11900 26.49700 24.18400
H  49.31200 23.15100 24.08000
H  49.62800 24.67400 23.32000
H  48.34400 23.77500 22.63500
H  46.29000 27.35900 24.97800
H  46.59400 26.87300 23.34200
H  47.31000 29.57100 24.50100
H  47.18700 29.07200 22.84900
H  48.64700 28.68500 23.77500
H  49.20800 30.64400 27.23900
H  50.80600 29.76300 27.41500
H  50.33900 30.80900 28.63900
H  47.65700 28.86000 32.92600
H  49.50300 27.50100 36.12200
H  50.31800 29.00900 36.44600
H  51.01400 27.87600 35.39200
Mg 26.38800 51.10500 26.57200
C  24.21100 52.21000 29.20300
C  28.81800 50.49700 28.98500
C  28.49400 50.75300 24.02700
C  23.99000 52.38400 24.44600
N  26.51100 51.42500 28.76900
C  25.48700 51.76700 29.61500
C  25.96900 51.57300 31.09600
C  27.53100 51.32700 30.97000
C  27.65100 51.02000 29.49400
C  28.55300 52.50700 31.35400
C  25.14200 50.45600 31.92200
C  24.34700 50.86400 33.20300
H  24.60100 49.92800 34.38800
N  28.34600 50.55500 26.51800
C  29.15400 50.27800 27.60500
C  30.36500 49.71200 27.19400
C  30.28200 49.70900 25.71300
C  29.02700 50.37900 25.35900
C  31.37500 49.09700 28.17000
C  31.32400 49.18200 24.67500
O  31.11300 49.29000 23.45600
C  32.53100 48.56900 25.22800
N  26.33200 51.70400 24.56500
C  27.29500 51.35800 23.66600
C  26.89800 51.73800 22.21800
C  25.37400 51.91100 22.38400
C  25.23100 52.05900 23.88700
C  27.73300 52.99000 21.77100
C  24.52700 50.75700 21.87600
C  23.06500 51.09600 21.62600
N  24.50200 52.03200 26.74700
C  23.63100 52.43100 25.76100
C  22.32000 52.78900 26.29900
C  22.55400 52.81600 27.68000
C  23.86800 52.32700 27.84600
C  21.06000 53.11700 25.48900
C  21.94700 53.02800 28.97500
O  20.85200 53.46300 29.32800
C  23.00200 52.65900 29.98200
C  23.23700 53.90900 30.80200
O  23.94000 54.91600 30.51000
O  22.64900 53.79000 32.02100
C  22.97600 54.84200 33.04800
H  29.55700 50.27700 29.75800
H  29.16400 50.67200 23.16900
H  23.25800 52.76800 23.73200
H  25.88100 52.59100 31.47600
H  27.86900 50.45100 31.52400
H  29.01600 52.42600 32.33700
H  28.00300 53.44800 31.36200
H  29.33200 52.61700 30.59900
H  25.82300 49.66400 32.23400
H  24.46200 49.99400 31.20700
H  23.27400 50.87500 33.01000
H  24.42900 51.93300 33.40000
H  31.08300 48.04700 28.19600
H  31.34600 49.49400 29.18400
H  32.38500 49.22100 27.77900
H  33.13300 49.31800 25.74100
H  33.08000 48.17300 24.37300
H  32.34000 47.78800 25.96400
H  27.10900 50.91000 21.54000
H  25.04800 52.82200 21.88100
H  28.64100 53.03300 22.37100
H  27.15800 53.91600 21.80500
H  28.07700 52.78200 20.75800
H  24.65600 50.01500 22.66300
H  24.90600 50.38300 20.92500
H  22.54400 50.56200 22.42000
H  22.73300 50.63400 20.69600
H  22.92300 52.17500 21.67400
H  21.10700 54.20600 25.50000
H  20.12400 52.81400 25.95900
H  21.18400 52.67900 24.49800
H  22.71100 51.80100 30.58800
H  23.66100 55.63600 32.75000
H  23.33600 54.28400 33.91200
H  22.12000 55.46100 33.31600

