158

Mg 35.13600 48.50500 25.08700
C  35.45300 46.39900 28.03400
C  34.18300 51.04800 27.31400
C  34.30900 50.20800 22.53500
C  35.65200 45.59500 23.14200
N  34.80200 48.69600 27.45500
C  35.01800 47.66500 28.39300
C  34.97300 48.27200 29.75500
C  34.12700 49.59200 29.50300
C  34.34900 49.84000 27.99500
C  32.64600 49.35600 29.99300
C  36.47100 48.48700 30.30300
C  36.72700 48.39700 31.78600
H  36.60400 49.65700 32.60900
N  34.42000 50.39100 24.91900
C  34.26900 51.30600 25.93100
C  33.85900 52.58300 25.40900
C  33.79600 52.36500 23.98000
C  34.20100 50.98300 23.76200
C  33.72600 53.85700 26.24100
C  33.55000 53.40700 22.94600
O  33.78000 53.13600 21.77600
C  33.10600 54.90900 23.23500
N  34.93900 47.94500 23.09800
C  34.68600 48.92600 22.19400
C  34.80800 48.33800 20.75500
C  35.17200 46.87700 20.94500
C  35.29600 46.81600 22.51400
C  33.54500 48.61800 19.82300
C  36.58300 46.52600 20.30700
C  37.80600 47.04400 21.14000
N  35.53000 46.38600 25.43800
C  35.74800 45.35900 24.54800
C  36.00500 44.15500 25.27900
C  36.03800 44.51900 26.65000
C  35.68300 45.89900 26.70200
C  36.10100 42.70700 24.82000
C  36.12600 44.02300 28.04000
O  36.33000 42.92700 28.49500
C  35.92900 45.27500 28.95700
C  35.08100 44.76900 30.16700
O  33.91500 44.32500 30.05100
O  35.75800 44.95900 31.29900
C  35.06300 44.58300 32.49500
H  33.88100 51.81600 28.02800
H  33.91100 50.84800 21.74500
H  35.95800 44.73700 22.54000
H  34.49200 47.60800 30.47400
H  34.39800 50.45500 30.11000
H  31.91500 49.85000 29.35300
H  32.40300 49.80900 30.95400
H  32.44300 48.29100 30.10300
H  36.90200 49.42800 29.96300
H  37.14200 47.76900 29.83000
H  37.71900 47.98600 31.97700
H  35.95500 47.74700 32.19700
H  34.64200 53.98400 26.81800
H  32.87400 53.63200 26.88200
H  33.51500 54.83800 25.81400
H  33.20600 55.45500 22.29700
H  33.65700 55.41100 24.03100
H  32.09600 54.82900 23.63700
H  35.62100 48.98700 20.43100
H  34.39300 46.18800 20.61800
H  33.43000 47.99300 18.93800
H  33.56300 49.66700 19.52800
H  32.61300 48.52400 20.38100
H  36.58000 46.70100 19.23100
H  36.66500 45.44400 20.41500
H  38.40700 46.22800 21.54000
H  37.73900 47.71500 21.99600
H  38.42700 47.50600 20.37200
H  35.63000 42.73500 23.83800
H  35.40500 42.08700 25.38500
H  37.13200 42.36200 24.89600
H  36.96900 45.39700 29.25700
H  34.29400 45.32600 32.70500
H  35.88000 44.67300 33.21100
H  34.75300 43.54000 32.44100
Mg -9.95100 17.02200 40.74900
C  -6.59600 16.78400 40.88200
C  -9.51500 20.39900 39.68900
C  -13.34800 17.45000 40.16800
C  -10.28000 13.65000 41.13600
N  -8.28500 18.46200 40.43200
C  -6.97100 18.02600 40.55000
C  -6.00800 19.13500 39.93300
C  -6.93400 20.39300 40.00100
C  -8.31100 19.67700 39.98700
C  -6.82200 21.10100 41.43200
C  -5.54500 18.73500 38.49300
C  -4.07700 18.71300 38.13900
H  -3.58200 17.68600 37.17800
N  -11.29400 18.72800 40.00600
C  -10.89500 19.95800 39.59700
C  -12.03300 20.72600 39.12700
C  -13.14500 20.01800 39.52300
C  -12.65600 18.65800 39.93700
C  -12.05400 22.03500 38.48500
C  -14.57100 20.46100 39.47300
O  -14.88300 21.63300 39.20700
C  -15.66500 19.58000 39.59500
N  -11.50800 15.61300 40.31700
C  -12.84100 16.11000 40.32400
C  -13.80300 14.89400 40.46700
C  -12.76600 13.69900 40.79100
C  -11.41200 14.31000 40.74100
C  -14.86200 15.23100 41.56300
C  -12.81200 12.53900 39.81500
C  -13.83400 11.37600 40.14200
N  -8.68600 15.51200 40.96500
C  -8.94500 14.18500 41.13100
C  -7.72600 13.42600 41.44900
C  -6.66000 14.43200 41.30800
C  -7.36800 15.64100 41.09900
C  -7.64700 11.91600 41.63000
C  -5.24700 14.66400 41.31000
O  -4.33700 13.79500 41.42200
C  -5.11900 16.25800 41.03500
C  -4.43100 16.88200 42.21200
O  -3.58300 17.76300 42.21500
O  -4.92700 16.27800 43.36800
C  -4.29800 16.68700 44.57900
H  -9.32700 21.40000 39.29600
H  -14.43800 17.52300 40.16900
H  -10.37600 12.60000 41.42300
H  -5.15100 19.30300 40.58500
H  -6.83400 21.03500 39.12600
H  -7.80600 21.33400 41.83900
H  -6.39600 22.08200 41.22100
H  -6.18500 20.49500 42.07600
H  -5.96600 19.50600 37.84800
H  -5.96700 17.77700 38.18800
H  -3.48400 18.64600 39.05100
H  -3.75400 19.64400 37.67400
H  -11.14800 22.25800 37.92300
H  -12.22200 22.83900 39.20200
H  -12.90900 21.99400 37.81000
H  -15.57300 18.77200 38.86900
H  -16.61100 20.04400 39.31600
H  -15.86400 19.24200 40.61200
H  -14.37700 14.89200 39.54100
H  -12.93300 13.32400 41.80100
H  -14.63900 16.18200 42.04600
H  -14.77700 14.57500 42.43000
H  -15.80100 15.26400 41.01000
H  -11.87000 12.03100 39.60800
H  -13.04400 12.91800 38.81900
H  -14.73900 11.59800 39.57800
H  -13.93300 11.17400 41.20900
H  -13.47400 10.46900 39.65700
H  -6.69400 11.67000 42.09800
H  -7.51400 11.50900 40.62800
H  -8.53000 11.39600 42.00100
H  -4.54200 16.48100 40.13700
H  -4.68700 17.52700 45.15500
H  -3.22400 16.86500 44.62800
H  -4.55100 15.85300 45.23200

