158

Mg 30.33100 58.26800 39.56000
C  27.76300 55.86700 38.78100
C  32.48900 55.49800 39.23900
C  32.83500 60.46100 39.43800
C  28.02400 60.70500 39.69100
N  30.09300 55.92000 38.99200
C  29.02500 55.14700 38.87300
C  29.23100 53.66500 38.83300
C  30.81000 53.63200 38.97200
C  31.17200 55.11900 39.12800
C  31.37600 52.80700 40.14200
C  28.77900 53.01400 37.48500
C  29.17900 53.70800 36.15400
H  28.13400 54.17500 35.12400
N  32.41700 58.06900 39.55700
C  33.08400 56.86900 39.31900
C  34.48900 57.15900 39.29400
C  34.68300 58.58100 39.44600
C  33.27300 59.09900 39.54400
C  35.64200 56.11900 39.05900
C  36.00300 59.27300 39.54300
O  37.02700 58.61600 39.50200
C  36.16700 60.72800 39.80200
N  30.46400 60.31200 39.49900
C  31.55600 61.08300 39.45300
C  31.22900 62.58300 39.44300
C  29.75900 62.59900 39.78500
C  29.35300 61.11500 39.64600
C  32.09700 63.41500 40.43100
C  28.89800 63.63600 38.92700
C  28.51800 64.95300 39.58200
N  28.26900 58.39700 39.31500
C  27.43400 59.45700 39.51200
C  26.01900 58.94600 39.48700
C  26.18800 57.58700 39.20900
C  27.54900 57.26500 38.97600
C  24.73800 59.70300 39.71800
C  25.45700 56.37700 38.90400
O  24.23800 56.13900 39.07100
C  26.41600 55.25300 38.59300
C  26.18600 54.19600 39.56600
O  26.68500 54.25200 40.68300
O  25.47600 53.11800 39.09700
C  25.66200 51.82900 39.63000
H  33.21300 54.68100 39.26600
H  33.68600 61.14100 39.36200
H  27.29100 61.48200 39.91800
H  28.78900 53.18000 39.70400
H  31.25100 53.21000 38.06800
H  30.58600 52.25800 40.65400
H  31.80400 53.54500 40.82100
H  32.10400 52.09600 39.75100
H  27.69200 52.96400 37.54600
H  29.18500 52.00300 37.44800
H  29.88800 53.05100 35.65000
H  29.72100 54.56300 36.56000
H  36.45600 56.44900 38.41300
H  35.22900 55.23500 38.57300
H  35.99100 55.78900 40.03700
H  35.50100 61.06600 40.59600
H  35.97900 61.10700 38.79700
H  37.18100 60.93400 40.14500
H  31.40400 62.90900 38.41800
H  29.55300 62.75900 40.84400
H  31.50300 64.04800 41.09000
H  32.64400 64.16800 39.86400
H  32.72100 62.84400 41.11900
H  27.98800 63.15100 38.57400
H  29.33200 63.80700 37.94200
H  27.43100 65.00400 39.64600
H  28.90500 65.70100 38.89000
H  28.91900 65.06900 40.58900
H  23.93100 59.13900 39.25000
H  24.87500 60.69900 39.29600
H  24.53300 59.71000 40.78900
H  26.24100 54.83700 37.60100
H  25.82700 51.04400 38.89300
H  24.80800 51.54400 40.24500
H  26.55700 51.83900 40.25200
Mg -2.24000 34.58700 26.49700
C  -3.92700 32.65500 29.02000
C  -1.25100 36.72300 28.96700
C  -1.03400 36.63300 24.05400
C  -4.05800 32.84100 24.12500
N  -2.49200 34.57100 28.77800
C  -3.18300 33.67700 29.56400
C  -2.91700 33.99900 31.06300
C  -2.28400 35.47000 30.97500
C  -1.94300 35.62300 29.51400
C  -2.86700 36.73000 31.64000
C  -2.14900 32.88100 31.72600
C  -2.78100 32.19900 32.94300
H  -2.05500 32.11000 34.24500
N  -1.16100 36.37900 26.51500
C  -0.81600 37.05800 27.64000
C  0.06200 38.16400 27.24100
C  0.15900 38.07700 25.80900
C  -0.77000 37.04400 25.39100
C  0.88100 38.99100 28.23900
C  1.05600 38.80500 24.84300
O  0.99400 38.65200 23.60700
C  2.17500 39.58300 25.46100
N  -2.54400 34.72400 24.48300
C  -1.90400 35.60300 23.71800
C  -2.36800 35.50300 22.29000
C  -2.91100 34.06200 22.21800
C  -3.20200 33.82500 23.70700
C  -3.50700 36.50400 21.81800
C  -1.89000 33.08300 21.50500
C  -0.55900 32.61900 22.14600
N  -3.64300 33.11600 26.49700
C  -4.25500 32.44500 25.44600
C  -5.07800 31.31300 25.89300
C  -4.93200 31.40300 27.31400
C  -4.04200 32.45200 27.59100
C  -5.83400 30.39400 25.10800
C  -5.36300 30.76800 28.59300
O  -6.12600 29.79600 28.77600
C  -4.71400 31.54000 29.66700
C  -5.82000 32.14500 30.42700
O  -6.37800 33.19200 30.13800
O  -6.04100 31.49700 31.64400
C  -6.94300 32.17800 32.57600
H  -0.99400 37.36700 29.81200
H  -0.63900 37.17200 23.19100
H  -4.66200 32.40800 23.32500
H  -3.90100 34.11800 31.51800
H  -1.36000 35.38200 31.54600
H  -3.88300 36.47800 31.94400
H  -3.11200 37.50800 30.91600
H  -2.21300 37.17300 32.39100
H  -1.18200 33.31000 31.98900
H  -1.98600 32.18500 30.90300
H  -3.07400 31.19200 32.64400
H  -3.80000 32.55500 33.10000
H  0.53100 39.03500 29.27100
H  0.84000 40.01000 27.85400
H  1.93200 38.70500 28.20600
H  2.86400 39.60700 24.61700
H  2.71900 38.97500 26.18400
H  1.92100 40.60600 25.73700
H  -1.62800 35.72800 21.52100
H  -3.86700 33.92100 21.71400
H  -3.30400 36.89400 20.82000
H  -3.57500 37.38600 22.45400
H  -4.42600 35.91600 21.83500
H  -1.64200 33.47800 20.52000
H  -2.49600 32.18200 21.41200
H  0.20800 32.48200 21.38300
H  -0.55400 31.62000 22.58300
H  -0.10500 33.26900 22.89400
H  -5.74100 30.61000 24.04400
H  -6.88300 30.53600 25.37100
H  -5.61400 29.33300 25.23100
H  -4.19000 30.97700 30.44000
H  -7.76400 31.53700 32.89700
H  -7.43000 33.03800 32.11600
H  -6.44400 32.49400 33.49300

