158

Mg 2.25300 -1.64900 44.06500
C  5.71900 -1.16400 43.63700
C  1.70000 1.22100 42.35500
C  -1.05400 -2.46600 43.85700
C  2.89800 -4.82900 45.33400
N  3.57200 -0.19500 43.05000
C  4.95300 -0.14000 43.09500
C  5.40900 1.16800 42.44200
C  4.09900 1.95100 42.09500
C  3.02300 0.96500 42.53600
C  4.05500 3.40300 42.59600
C  6.31800 0.76600 41.15800
C  7.62000 1.57500 40.91400
H  7.65900 2.38900 39.60500
N  0.55100 -0.75800 43.20100
C  0.56500 0.44900 42.59000
C  -0.80100 0.96600 42.38500
C  -1.65300 -0.09600 42.83900
C  -0.72200 -1.15600 43.36000
C  -1.12400 2.33800 41.80100
C  -3.23700 -0.13700 42.72500
O  -3.94600 0.87200 42.51100
C  -4.05100 -1.44100 42.86300
N  1.12500 -3.39700 44.45700
C  -0.21600 -3.50100 44.26800
C  -0.80000 -4.90300 44.63400
C  0.48700 -5.60700 45.06600
C  1.59700 -4.54600 44.94800
C  -1.98100 -4.91200 45.68500
C  0.87300 -6.94900 44.30000
C  0.81800 -8.28900 45.08700
N  3.95400 -2.77800 44.59700
C  4.07400 -4.02100 45.16500
C  5.48500 -4.28600 45.36400
C  6.17700 -3.15400 44.85800
C  5.21000 -2.29900 44.31900
C  6.09500 -5.53500 46.00300
C  7.51800 -2.57400 44.67900
O  8.61700 -2.94700 44.97900
C  7.18900 -1.24500 43.77800
C  7.77600 0.01200 44.45400
O  7.56600 0.34300 45.57800
O  8.68800 0.60400 43.64600
C  9.34400 1.88800 44.01600
H  1.39200 2.18200 41.93600
H  -2.11200 -2.73000 43.79300
H  3.04700 -5.85700 45.66800
H  6.06500 1.58900 43.20400
H  4.08400 2.08700 41.01400
H  3.35800 3.59300 43.41200
H  3.63800 3.98800 41.77700
H  5.02800 3.79300 42.89700
H  5.83000 0.87500 40.18900
H  6.39600 -0.32200 41.15900
H  8.34000 0.75700 40.89200
H  7.87400 2.16400 41.79600
H  -0.57400 2.31400 40.86000
H  -0.64700 3.10200 42.41400
H  -2.16000 2.67100 41.73300
H  -3.99700 -1.78200 43.89700
H  -3.61300 -2.24100 42.26600
H  -5.08000 -1.18500 42.61100
H  -1.24200 -5.36800 43.75200
H  0.38800 -5.91100 46.10800
H  -2.08500 -3.87800 46.01500
H  -1.90500 -5.56100 46.55800
H  -2.91400 -5.10100 45.15500
H  1.89500 -6.97900 43.92100
H  0.27800 -6.91100 43.38800
H  0.11000 -8.94900 44.58400
H  0.34200 -8.13800 46.05600
H  1.74500 -8.85300 45.18900
H  5.95200 -6.32200 45.26200
H  5.48000 -5.85700 46.84300
H  7.12000 -5.42700 46.35800
H  7.64500 -1.46200 42.81300
H  10.24900 1.61400 44.55800
H  8.71200 2.52200 44.63800
H  9.71400 2.45000 43.15900
Mg 48.47000 46.30800 42.79900
C  45.03000 46.45000 42.20000
C  48.54100 43.12300 41.47300
C  51.82700 46.55900 42.52200
C  48.29900 49.59700 43.75200
N  46.94300 44.96500 41.84400
C  45.61700 45.23000 41.74600
C  44.97800 44.11300 41.01100
C  45.95600 42.91700 41.26100
C  47.25300 43.68400 41.52900
C  45.60500 41.87800 42.36100
C  44.62800 44.40300 39.52100
C  43.16900 44.07400 39.15300
H  42.96900 43.88400 37.69100
N  50.02200 44.99400 42.08100
C  49.83000 43.66600 41.71400
C  51.17400 43.07000 41.65000
C  52.15800 44.10200 41.81100
C  51.39400 45.26100 42.23000
C  51.37400 41.58900 41.26900
C  53.68200 43.90100 41.71600
O  54.01600 42.90400 41.21500
C  54.67500 44.93900 42.16800
N  49.83600 47.94100 42.71400
C  51.18800 47.77100 42.84700
C  51.87500 49.06600 43.25200
C  50.75200 50.05100 43.67600
C  49.54300 49.08500 43.36400
C  53.06400 48.87900 44.32300
C  50.73400 51.45500 42.94200
C  50.52200 52.71900 43.85100
N  46.96700 47.73000 43.19700
C  47.04300 48.97100 43.68400
C  45.68300 49.57900 43.84900
C  44.85800 48.61200 43.19000
C  45.69500 47.57500 42.79700
C  45.34000 50.90200 44.45800
C  43.48700 48.29500 42.82700
O  42.52100 48.92300 43.14600
C  43.50100 46.82100 42.11900
C  42.51300 45.90400 42.75000
O  41.95000 45.00500 42.12300
O  42.41700 46.06500 44.11900
C  41.38900 45.25400 44.79700
H  48.56600 42.06200 41.21700
H  52.90100 46.75000 42.49400
H  48.38400 50.65500 44.01100
H  44.08900 43.83200 41.57500
H  46.18800 42.37100 40.34600
H  44.58900 41.97000 42.74500
H  46.46100 41.91200 43.03500
H  45.61600 40.92300 41.83700
H  45.31000 43.81700 38.90500
H  44.87100 45.44500 39.31100
H  42.49100 44.84400 39.52100
H  42.88900 43.13400 39.62700
H  51.71000 41.46200 40.24000
H  50.46400 40.99000 41.32100
H  52.08200 41.04600 41.89400
H  54.58900 45.79400 41.49800
H  55.68900 44.54100 42.14400
H  54.38400 45.16400 43.19400
H  52.23700 49.34400 42.26200
H  50.75000 50.19900 44.75600
H  53.94800 49.45200 44.04500
H  53.33000 47.82700 44.41900
H  52.81200 49.29000 45.30000
H  49.91100 51.49800 42.22900
H  51.67400 51.58800 42.40800
H  51.41100 53.34700 43.91200
H  50.24500 52.33200 44.83100
H  49.75600 53.40800 43.49200
H  45.76900 51.65000 43.79100
H  45.80100 51.04000 45.43600
H  44.27000 50.97000 44.65500
H  43.32000 46.90000 41.04700
H  40.39200 45.66400 44.63400
H  41.73300 45.26100 45.83100
H  41.42100 44.21900 44.45600

