158

Mg 48.73600 45.42600 43.78400
C  45.57100 45.83600 42.59100
C  48.79600 42.26700 42.19700
C  51.97700 45.18100 44.70100
C  48.76000 48.84400 44.83500
N  47.40600 44.31400 42.33300
C  46.12800 44.64600 42.13300
C  45.51800 43.64200 41.09700
C  46.47100 42.37300 41.18700
C  47.63900 43.03500 41.99100
C  45.84300 41.15200 41.99800
C  45.47500 44.32600 39.68700
C  44.04500 44.39800 39.02800
H  43.70300 43.52700 37.83000
N  50.21500 43.93000 43.38400
C  50.02700 42.67700 42.80100
C  51.25100 41.95600 42.92400
C  52.14700 42.70500 43.78600
C  51.47900 43.97600 44.02700
C  51.33800 40.56300 42.37600
C  53.53000 42.23700 44.19100
O  53.89000 41.06500 43.89100
C  54.42600 42.94300 45.02200
N  50.22700 46.91400 44.55500
C  51.46700 46.51000 44.89000
C  52.30300 47.67600 45.48600
C  51.23400 48.77600 45.69300
C  49.95800 48.17800 45.03000
C  53.12800 47.30600 46.73600
C  51.60800 50.15200 45.19000
C  52.00500 51.23600 46.20100
N  47.42500 47.00000 43.95500
C  47.52600 48.32200 44.37400
C  46.33600 49.02400 44.03100
C  45.46300 48.02800 43.51600
C  46.24200 46.89300 43.32600
C  46.23600 50.56800 44.13700
C  44.14100 47.78600 42.86500
O  43.20300 48.45300 42.61000
C  44.13400 46.34700 42.32500
C  43.14900 45.56500 43.08200
O  43.33000 44.66700 43.83200
O  41.90600 46.06900 42.69900
C  40.79300 45.43400 43.40800
H  48.77800 41.28700 41.71700
H  52.99900 45.07600 45.07000
H  48.77700 49.84000 45.28300
H  44.58900 43.30800 41.55900
H  46.74900 42.15000 40.15700
H  45.96400 41.36700 43.05900
H  46.40600 40.22500 41.88700
H  44.77900 41.05100 41.78300
H  46.19900 43.80400 39.06200
H  45.82000 45.35200 39.81800
H  43.86600 45.46200 38.87100
H  43.25500 43.98200 39.65300
H  52.40100 40.38100 42.21400
H  50.83500 40.53400 41.41000
H  50.83900 39.88600 43.06900
H  53.98200 43.44400 45.88200
H  54.80000 43.68600 44.31800
H  55.33600 42.37200 45.20800
H  52.94100 47.88400 44.62700
H  51.09300 48.84700 46.77200
H  52.96300 46.26900 47.02900
H  52.92400 47.95100 47.59100
H  54.18000 47.39200 46.46300
H  50.78800 50.50300 44.56300
H  52.53500 49.95500 44.65100
H  51.39100 52.13200 46.11200
H  53.03200 51.57600 46.06800
H  52.03000 50.91800 47.24300
H  46.24500 51.01500 45.13100
H  45.29100 50.82900 43.66100
H  47.09100 50.86000 43.52600
H  43.92400 46.37100 41.25600
H  40.47400 44.54900 42.85700
H  39.98700 46.16600 43.37000
H  41.03000 45.16400 44.43700
Mg 48.33300 34.64900 27.17900
C  46.33200 33.33800 29.63700
C  48.90800 37.47600 29.06400
C  50.08400 35.91100 24.52600
C  47.32600 31.89200 25.04200
N  47.82700 35.22800 29.11900
C  47.05700 34.47900 30.07100
C  47.06900 35.13000 31.43700
C  47.38900 36.63000 31.00100
C  48.14300 36.51400 29.66700
C  46.25800 37.65400 30.97000
C  48.07600 34.53100 32.40600
C  47.67500 34.53600 33.91600
H  46.68200 35.62000 34.51700
N  49.50300 36.38700 26.90900
C  49.61500 37.38800 27.85800
C  50.60500 38.37900 27.34000
C  50.97000 37.94500 25.99800
C  50.18200 36.71300 25.72300
C  51.05100 39.50700 28.10900
C  51.87700 38.61500 24.95800
O  52.06200 38.13800 23.85200
C  52.70300 39.80600 25.34600
N  48.53800 34.08300 24.97700
C  49.35900 34.74400 24.12000
C  49.43000 34.03600 22.79300
C  48.62000 32.75700 23.02500
C  48.04200 32.93100 24.44400
C  49.09800 34.89200 21.60900
C  49.39300 31.41200 22.84800
C  49.39100 30.96100 21.41900
N  47.08900 32.98000 27.21800
C  46.85500 31.95700 26.38400
C  46.02400 31.02700 27.03600
C  45.63700 31.59700 28.23900
C  46.42300 32.71100 28.34800
C  45.37700 29.81900 26.39900
C  44.84800 31.41800 29.43300
O  43.91000 30.62100 29.60200
C  45.18700 32.62400 30.37200
C  45.52500 32.10700 31.66600
O  46.22100 31.09700 31.75200
O  44.70700 32.63300 32.63900
C  44.46400 31.85000 33.82700
H  48.94700 38.43100 29.59300
H  50.72100 36.24600 23.70500
H  47.07200 30.92300 24.60800
H  46.12100 35.27900 31.95300
H  48.20100 37.12400 31.53300
H  46.07900 38.06900 29.97800
H  46.60700 38.51900 31.53300
H  45.28100 37.32600 31.32400
H  49.06600 34.91000 32.14800
H  48.02700 33.47800 32.12800
H  48.55300 34.60000 34.55800
H  47.31400 33.57600 34.28500
H  50.35000 39.81700 28.88400
H  51.28500 40.40500 27.53600
H  51.95600 39.15500 28.60500
H  53.25000 39.58000 26.26100
H  52.14100 40.70200 25.61000
H  53.35800 39.96800 24.49000
H  50.49500 33.83000 22.68800
H  47.79700 32.83700 22.31600
H  48.52000 35.75200 21.95000
H  48.62500 34.28900 20.83400
H  50.05000 35.22200 21.19300
H  48.95900 30.63800 23.47900
H  50.41900 31.56500 23.18100
H  49.12800 31.78100 20.75100
H  48.73800 30.09500 21.30400
H  50.40800 30.59700 21.27300
H  46.06700 29.09400 25.96800
H  44.80800 30.06800 25.50400
H  44.64800 29.34300 27.05500
H  44.40000 33.37700 30.34100
H  43.85100 32.55400 34.38900
H  45.32000 31.52800 34.42000
H  43.81400 31.01400 33.56800

