158

Mg 34.80700 2.68700 30.56200
C  32.48600 3.60800 32.90200
C  37.37900 3.05300 32.71500
C  36.93400 1.68700 28.11600
C  32.10500 2.77900 28.21400
N  34.87400 3.16700 32.50700
C  33.82700 3.52100 33.34100
C  34.24600 3.64800 34.76100
C  35.81500 3.70700 34.65100
C  36.08600 3.32600 33.15100
C  36.35900 5.21400 35.02400
C  33.68100 2.43200 35.60900
C  33.76900 2.63500 37.09900
H  34.17400 4.00400 37.67600
N  36.86300 2.41900 30.39800
C  37.78900 2.63300 31.41000
C  39.11600 2.16600 31.03600
C  39.00300 1.89200 29.65900
C  37.58800 2.04000 29.34000
C  40.26100 2.02300 32.00900
C  40.12700 1.58900 28.68000
O  39.84800 1.41200 27.46800
C  41.63100 1.59600 29.14600
N  34.57900 2.35300 28.49700
C  35.63700 1.92600 27.74600
C  35.21300 1.94200 26.22200
C  33.70300 2.08000 26.36900
C  33.44700 2.49400 27.86000
C  35.84000 3.11100 25.45800
C  32.91400 0.82000 25.99500
C  32.60800 0.67600 24.51500
N  32.75300 3.19200 30.47300
C  31.80200 3.13700 29.48200
C  30.48400 3.47400 30.00200
C  30.72200 3.65300 31.36600
C  32.10900 3.55800 31.57600
C  29.20000 3.56300 29.32100
C  30.01800 4.03300 32.54300
O  28.81100 4.10700 32.71600
C  31.14200 3.92400 33.64000
C  31.11000 5.07100 34.52100
O  31.76700 6.09800 34.37100
O  30.22900 4.88200 35.60100
C  30.25500 5.89300 36.63600
H  38.20400 3.27700 33.39500
H  37.54700 1.20900 27.34900
H  31.33200 2.79300 27.44200
H  33.93600 4.59700 35.19900
H  36.26400 3.00600 35.35400
H  36.94200 5.03700 35.92800
H  35.64600 5.98200 35.32600
H  37.05200 5.64800 34.30300
H  34.35900 1.63900 35.29400
H  32.66800 2.08800 35.40300
H  34.45000 1.92600 37.56900
H  32.78300 2.35000 37.46600
H  41.09800 2.64000 31.68100
H  40.49000 0.95700 32.01800
H  39.99600 2.31900 33.02400
H  41.87000 0.86900 29.92200
H  41.73300 2.63300 29.46700
H  42.26700 1.40700 28.28200
H  35.47400 1.05800 25.64100
H  33.34000 2.95900 25.83600
H  36.48900 2.62000 24.73300
H  36.27500 3.83400 26.14800
H  35.19900 3.65200 24.76200
H  31.97400 0.81700 26.54700
H  33.46300 -0.08500 26.25700
H  33.39900 1.06600 23.87400
H  31.70600 1.18000 24.16800
H  32.53600 -0.40800 24.43400
H  29.34800 3.16900 28.31600
H  28.84100 4.59200 29.34300
H  28.52400 2.89200 29.85100
H  30.80700 3.13600 34.31400
H  29.61800 6.69600 36.26500
H  31.25600 6.28700 36.81200
H  29.85500 5.59100 37.60500
Mg 31.30100 58.75900 40.27700
C  28.79500 56.80500 38.92400
C  33.67500 56.62400 38.86000
C  33.78400 60.99500 41.16700
C  28.93500 61.31000 40.71600
N  31.21100 57.04500 39.04000
C  30.10300 56.42500 38.60400
C  30.36300 55.08600 37.74300
C  31.84600 54.89200 38.19700
C  32.31000 56.26400 38.68200
C  31.93700 53.91500 39.43100
C  30.12900 55.33100 36.19900
C  29.11700 54.39100 35.53400
H  28.06700 55.02200 34.56500
N  33.43500 58.79600 40.09400
C  34.20100 57.74700 39.50800
C  35.60200 58.14100 39.70300
C  35.65300 59.31400 40.45500
C  34.26500 59.75000 40.63900
C  36.76000 57.28600 39.15600
C  36.96100 60.03300 40.89800
O  38.03500 59.50700 40.58900
C  37.02800 61.26200 41.57200
N  31.32900 60.86300 40.86700
C  32.45800 61.52300 41.25600
C  32.18200 62.94900 41.79300
C  30.60500 63.14600 41.52200
C  30.23900 61.71000 40.92100
C  32.64100 63.22200 43.24400
C  30.25800 64.25100 40.48400
C  29.09700 65.21000 40.80600
N  29.21300 59.01000 40.15900
C  28.39500 60.11200 40.32400
C  27.00300 59.78200 40.00300
C  27.12900 58.43000 39.50800
C  28.48300 58.07400 39.53400
C  25.76100 60.70600 40.25100
C  26.34000 57.30600 38.97500
O  25.14900 57.18000 38.71100
C  27.44500 56.22600 38.48500
C  26.99300 54.98400 39.16000
O  27.44000 54.50500 40.15500
O  26.02500 54.38500 38.41000
C  25.40200 53.25600 39.06300
H  34.34500 55.81300 38.56600
H  34.61000 61.64600 41.46200
H  28.20400 62.11200 40.83500
H  29.65900 54.35200 38.13400
H  32.38800 54.43000 37.37200
H  30.96500 53.42800 39.50800
H  32.10200 54.52600 40.31800
H  32.70400 53.15500 39.27800
H  31.07200 55.22000 35.66300
H  29.80900 56.37200 36.15600
H  28.56800 53.84700 36.30200
H  29.65200 53.66700 34.91900
H  37.27600 57.84000 38.37200
H  36.42500 56.34700 38.71600
H  37.45900 57.16500 39.98300
H  38.07900 61.44900 41.79000
H  36.49300 61.33400 42.51900
H  36.65200 62.12000 41.01400
H  32.76500 63.68500 41.24000
H  30.08300 63.36400 42.45400
H  33.43800 63.96500 43.28300
H  33.14000 62.28700 43.50000
H  31.80500 63.51400 43.87900
H  30.07600 63.74300 39.53700
H  31.11500 64.91500 40.37400
H  29.39700 66.24900 40.67200
H  28.69200 65.09300 41.81200
H  28.24700 65.00200 40.15600
H  25.11900 60.33100 41.04900
H  25.12600 60.89700 39.38600
H  26.11500 61.64700 40.67100
H  27.39300 56.10000 37.40400
H  24.62000 53.64700 39.71500
H  26.10300 52.60600 39.58600
H  24.81400 52.62800 38.39400

