158

Mg 42.29900 41.62200 25.76800
C  41.26200 43.90800 28.18400
C  43.51200 39.68900 28.34500
C  43.55100 39.50000 23.44100
C  41.64900 44.05100 23.25800
N  42.20900 41.67600 28.02900
C  41.72500 42.70500 28.81800
C  41.91300 42.44600 30.35000
C  42.95200 41.27000 30.23700
C  42.89800 40.84500 28.82500
C  44.38700 41.70800 30.68900
C  40.58500 42.18700 31.05600
C  40.33400 43.00400 32.35900
H  41.27600 42.74300 33.51100
N  43.21000 39.82600 25.89000
C  43.65000 39.21000 27.01400
C  44.41700 38.03700 26.63900
C  44.34600 37.85600 25.23100
C  43.68800 39.10500 24.78900
C  45.17000 37.18600 27.65700
C  44.84500 36.71500 24.34700
O  44.88000 36.82000 23.09900
C  45.21800 35.33700 24.98700
N  42.50900 41.72900 23.62100
C  43.02000 40.68600 22.93400
C  42.93600 40.96600 21.43800
C  42.31400 42.38600 21.39800
C  42.13600 42.79300 22.84800
C  44.21400 40.79400 20.66100
C  40.93100 42.34200 20.79800
C  39.80800 41.55600 21.42000
N  41.51500 43.51300 25.66300
C  41.31400 44.43700 24.61000
C  40.86000 45.64000 25.13500
C  40.64800 45.49900 26.51800
C  41.21100 44.17800 26.82200
C  40.67600 46.96000 24.37800
C  40.31000 46.15800 27.73700
O  39.85200 47.31100 27.90900
C  40.72900 45.13800 28.88000
C  41.66900 45.75600 29.85500
O  42.86700 45.68900 29.86500
O  40.87100 46.34000 30.82000
C  41.75600 46.86800 31.93200
H  44.06200 39.11600 29.09400
H  44.04400 38.92400 22.65500
H  41.51700 44.84800 22.52400
H  42.34600 43.26500 30.92400
H  42.61600 40.48800 30.91900
H  45.03800 41.70500 29.81400
H  44.67900 40.93700 31.40300
H  44.43900 42.68100 31.17700
H  40.48700 41.12600 31.28900
H  39.78200 42.55500 30.41700
H  39.31600 42.74000 32.64300
H  40.28300 44.08100 32.20000
H  44.45300 36.43900 27.99800
H  45.57800 37.80500 28.45500
H  46.01300 36.66100 27.20800
H  44.56300 35.12900 25.83400
H  46.28500 35.37800 25.20700
H  44.98700 34.53900 24.28200
H  42.29800 40.19400 21.00800
H  42.89700 43.21700 21.00000
H  44.93400 41.58600 20.86400
H  44.00900 40.83300 19.59100
H  44.60500 39.80900 20.91800
H  41.06500 42.04500 19.75800
H  40.46800 43.32800 20.77000
H  39.46000 40.77200 20.74800
H  38.94200 42.20400 21.55900
H  40.11300 41.16500 22.39100
H  40.45700 47.76300 25.08200
H  39.78000 47.01300 23.76000
H  41.55300 47.09500 23.74500
H  39.80100 44.88000 29.38900
H  41.99000 45.89500 32.36400
H  41.08100 47.36900 32.62600
H  42.49100 47.54700 31.49900
Mg 17.07000 50.94100 25.96500
C  18.93700 49.48700 28.55300
C  14.57300 51.77100 28.10600
C  15.21700 51.94300 23.26500
C  19.58000 49.81500 23.67400
N  16.82700 50.67100 28.13800
C  17.74400 50.17900 28.98000
C  17.34600 50.51100 30.39600
C  15.78400 50.96300 30.22700
C  15.67700 51.18700 28.72200
C  14.77600 50.01900 30.85400
C  18.28900 51.58700 30.99700
C  18.44700 51.66700 32.47600
H  17.45000 50.99400 33.33500
N  15.16400 51.80800 25.73600
C  14.33100 52.15500 26.72900
C  13.34000 53.02800 26.26100
C  13.52500 53.13100 24.83500
C  14.65200 52.30200 24.53300
C  12.32400 53.71300 27.17800
C  12.69600 53.93000 23.81300
O  12.99800 53.82700 22.64400
C  11.59500 54.96300 24.23300
N  17.32000 50.91400 23.85100
C  16.46300 51.44400 23.01500
C  16.95000 51.28600 21.57200
C  18.41900 50.78700 21.73700
C  18.46900 50.45200 23.15800
C  15.96500 50.43600 20.70400
C  19.54200 51.81400 21.23800
C  20.60000 51.23600 20.31000
N  18.85000 49.81900 26.01200
C  19.78800 49.51100 25.05700
C  20.87900 48.83200 25.62200
C  20.57600 48.80200 27.03900
C  19.33600 49.44200 27.20200
C  22.03600 48.34000 24.88500
C  21.09700 48.46200 28.33100
O  22.09300 47.85400 28.68200
C  20.12400 49.02600 29.34300
C  19.70900 48.00900 30.28300
O  19.43500 46.86300 29.96500
O  19.71600 48.49600 31.59100
C  19.28900 47.62700 32.66500
H  13.77600 52.09200 28.78000
H  14.83900 52.31600 22.31100
H  20.35300 49.57800 22.94000
H  17.40600 49.58500 30.96700
H  15.73400 51.96100 30.66200
H  14.07100 50.44900 31.56500
H  15.25300 49.14900 31.30700
H  14.15300 49.68600 30.02400
H  17.97700 52.58700 30.69700
H  19.28400 51.37400 30.60500
H  18.52200 52.70800 32.78900
H  19.43000 51.30200 32.77300
H  12.35000 53.17200 28.12300
H  11.29600 53.55000 26.85300
H  12.54600 54.74900 27.43400
H  12.05200 55.71600 24.87500
H  10.76600 54.45800 24.72900
H  11.22700 55.27600 23.25600
H  17.01100 52.29000 21.15200
H  18.48000 49.83200 21.21400
H  16.26300 49.47000 20.29700
H  15.52500 51.08500 19.94700
H  15.12800 50.05900 21.29100
H  20.06700 52.40200 21.99200
H  19.05500 52.54200 20.58900
H  21.39800 50.67000 20.79100
H  21.00300 51.98800 19.63300
H  20.09400 50.51900 19.66300
H  22.09400 47.27000 24.68900
H  22.84300 48.65000 25.54900
H  22.14200 48.90000 23.95600
H  20.63500 49.80000 29.91600
H  18.36600 47.05100 32.59900
H  19.21100 48.15100 33.61700
H  20.05400 46.85100 32.68100

