158

Mg -1.30900 17.67800 27.20900
C  -2.04200 15.44800 29.91400
C  -2.08800 20.30700 29.23400
C  -1.20000 19.68200 24.52100
C  -1.12200 14.80200 25.18300
N  -1.99000 17.84300 29.35300
C  -2.09000 16.83400 30.28300
C  -2.30300 17.43400 31.63000
C  -2.54800 18.96100 31.44300
C  -2.17100 19.06700 29.86700
C  -3.94300 19.54100 31.78300
C  -1.17700 17.11400 32.67100
C  -1.55800 16.60500 34.07600
H  -0.39200 16.74200 35.09200
N  -1.53600 19.73000 26.91900
C  -1.74800 20.62100 27.89500
C  -1.79900 21.97900 27.33500
C  -1.44200 21.84800 25.98300
C  -1.41300 20.34300 25.73800
C  -2.17200 23.23900 28.05800
C  -1.32200 22.85500 24.82700
O  -1.01100 22.62000 23.64200
C  -1.46400 24.31100 25.19800
N  -1.09600 17.33700 25.17000
C  -1.06500 18.29400 24.26600
C  -0.81400 17.77900 22.83600
C  -0.47800 16.28200 23.15000
C  -0.87500 16.10800 24.59100
C  -2.02400 18.01200 21.90500
C  1.01900 15.85600 22.84200
C  1.98900 16.55800 23.75800
N  -1.52900 15.60500 27.45100
C  -1.50800 14.55700 26.52900
C  -1.77000 13.28100 27.16200
C  -2.01200 13.61100 28.47500
C  -1.89100 15.04600 28.59300
C  -1.78700 11.96200 26.42300
C  -2.33600 13.05600 29.71700
O  -2.46300 11.82000 29.98800
C  -2.52700 14.25400 30.68200
C  -1.61100 13.88500 31.86600
O  -0.35500 13.86700 31.88500
O  -2.36200 13.37600 32.83900
C  -1.61300 12.39300 33.71500
H  -2.17400 21.13300 29.94300
H  -1.19200 20.36100 23.66500
H  -1.06500 13.97600 24.47100
H  -3.21400 17.04400 32.08400
H  -1.86100 19.52500 32.07400
H  -4.70900 18.82300 32.07500
H  -4.27400 19.96100 30.83300
H  -3.79300 20.28200 32.56800
H  -0.48500 17.93600 32.85500
H  -0.55000 16.41700 32.11500
H  -1.82700 15.54900 34.04700
H  -2.37500 17.29400 34.28600
H  -1.18900 23.66100 28.26400
H  -2.80500 23.04500 28.92400
H  -2.73100 23.95700 27.45700
H  -2.51100 24.60800 25.26000
H  -1.08500 24.95300 24.40300
H  -0.85900 24.32100 26.10500
H  -0.04900 18.47400 22.48800
H  -1.11300 15.57100 22.62200
H  -1.65800 17.95900 20.87900
H  -2.44200 18.98400 22.16300
H  -2.70800 17.16300 21.90600
H  1.15100 16.16900 21.80700
H  1.15200 14.78000 22.95500
H  1.53800 17.06200 24.61300
H  2.49300 17.29300 23.13100
H  2.76000 15.90400 24.16400
H  -0.86500 11.41500 26.61800
H  -1.93400 12.25300 25.38300
H  -2.67400 11.37500 26.65900
H  -3.60400 14.31700 30.83600
H  -1.28600 11.49200 33.19600
H  -2.26500 11.94300 34.46400
H  -0.75400 12.84700 34.20800
Mg -10.42000 40.04800 39.14000
C  -9.17800 36.85700 38.67700
C  -7.29800 41.34300 38.54800
C  -11.80100 43.08600 39.16800
C  -13.74100 38.61300 39.18100
N  -8.48200 39.16100 38.69100
C  -8.16200 37.86400 38.60000
C  -6.62500 37.68600 38.51500
C  -6.12200 39.12600 38.85100
C  -7.36600 39.95000 38.70000
C  -5.40600 39.17800 40.19200
C  -6.10100 37.04700 37.18400
C  -6.74400 37.51600 35.87300
H  -7.19900 36.50400 34.87200
N  -9.67600 41.93100 38.87300
C  -8.34300 42.27800 38.74700
C  -8.29800 43.75900 38.63000
C  -9.62600 44.27100 38.78000
C  -10.41300 43.09900 38.91600
C  -7.02300 44.54200 38.43600
C  -9.98600 45.80400 38.73500
O  -9.06800 46.60600 38.56900
C  -11.38700 46.38500 38.95000
N  -12.48800 40.76200 39.04800
C  -12.72100 42.03700 39.30900
C  -14.19500 42.36200 39.63600
C  -14.84900 41.00300 39.25300
C  -13.66500 40.04400 39.15200
C  -14.37000 42.74900 41.12600
C  -15.64500 40.96300 37.91900
C  -17.12500 40.56400 38.03000
N  -11.30500 38.10700 39.14400
C  -12.62200 37.72500 39.19100
C  -12.75100 36.24500 39.27700
C  -11.40300 35.84900 39.04200
C  -10.62000 36.99400 38.90700
C  -14.01300 35.39900 39.54600
C  -10.48900 34.70700 38.95700
O  -10.80000 33.55900 38.98100
C  -9.04900 35.37400 38.69900
C  -8.33300 34.83500 39.88800
O  -8.76700 34.90400 41.05300
O  -7.23100 34.12500 39.48600
C  -6.31700 33.64900 40.50900
H  -6.30200 41.73800 38.33600
H  -12.23700 44.08400 39.23700
H  -14.68300 38.06700 39.26100
H  -6.52600 37.04800 39.39300
H  -5.54400 39.38100 37.96200
H  -5.92400 39.88800 40.83700
H  -4.39700 39.46400 39.89600
H  -5.32200 38.24700 40.75200
H  -6.07100 35.96000 37.26900
H  -5.07600 37.40600 37.27800
H  -5.94900 38.07500 35.38000
H  -7.60600 38.16700 36.02100
H  -6.93700 45.12200 37.51800
H  -6.07400 44.00700 38.48700
H  -6.92300 45.29800 39.21500
H  -12.13200 46.09200 38.21000
H  -11.44800 47.45700 39.13900
H  -11.58000 45.88000 39.89700
H  -14.60000 43.13800 38.98600
H  -15.46600 40.69400 40.09700
H  -15.11900 42.14200 41.63500
H  -14.70300 43.78600 41.16100
H  -13.46200 42.78800 41.72700
H  -15.16700 40.15000 37.37200
H  -15.59200 41.93300 37.42500
H  -17.68700 41.40800 38.43000
H  -17.25900 39.74000 38.73000
H  -17.49700 40.22400 37.06300
H  -13.77300 34.36200 39.31300
H  -14.89700 35.79100 39.04200
H  -14.31900 35.41600 40.59200
H  -8.65500 34.78400 37.87100
H  -5.72500 34.51600 40.80200
H  -5.79000 32.92800 39.88400
H  -6.77800 33.11000 41.33700

