158

Mg 8.76700 4.18000 27.42200
C  10.29400 2.62300 30.21600
C  6.81700 6.09300 29.74800
C  7.42600 5.85600 24.85600
C  10.26000 1.87200 25.41400
N  8.59100 4.34600 29.77500
C  9.31800 3.56800 30.65400
C  9.00900 4.01200 32.04600
C  7.69800 4.94800 31.89300
C  7.63800 5.13900 30.36100
C  6.39200 4.42500 32.49600
C  10.21500 4.84200 32.64800
C  9.95300 5.26600 34.08100
H  10.91600 4.68300 35.07700
N  7.46800 5.88500 27.31900
C  6.81300 6.53600 28.37900
C  6.03100 7.72000 27.77100
C  6.15500 7.59700 26.34200
C  7.07100 6.43800 26.08900
C  5.21300 8.56100 28.60100
C  5.63600 8.50800 25.22000
O  6.00200 8.29100 24.09200
C  4.44700 9.42300 25.53100
N  8.94800 3.99200 25.50600
C  8.25600 4.74600 24.57200
C  8.41400 4.20900 23.14500
C  9.45700 3.00600 23.41000
C  9.50800 2.87800 24.90300
C  7.01700 3.88300 22.35400
C  10.85500 3.13200 22.80300
C  11.96400 3.96000 23.51400
N  9.86200 2.45700 27.67100
C  10.51100 1.68800 26.73600
C  11.43800 0.78100 27.41600
C  11.36400 1.08300 28.80200
C  10.43500 2.12700 28.93000
C  12.38600 -0.18600 26.69500
C  11.89600 0.77900 30.10800
O  12.75600 -0.02000 30.47900
C  11.28100 1.86300 31.03000
C  10.66900 1.08100 32.16800
O  10.11700 0.03100 32.10100
O  10.84000 1.75100 33.41400
C  10.46800 1.09600 34.69300
H  6.16100 6.61700 30.44600
H  6.93700 6.12800 23.91900
H  10.56200 1.08400 24.72000
H  8.78300 3.15200 32.67700
H  7.87800 5.85700 32.46700
H  5.63200 5.14500 32.80200
H  6.68200 3.82700 33.36000
H  5.92200 3.76800 31.76500
H  10.26000 5.71100 31.99200
H  11.20100 4.41300 32.47000
H  8.92100 5.13900 34.40800
H  10.05800 6.33900 34.24100
H  4.16700 8.26700 28.51500
H  5.40200 9.55000 28.18300
H  5.44400 8.56900 29.66600
H  3.65800 8.84100 26.00600
H  4.08000 9.83600 24.59100
H  4.59000 10.20000 26.28200
H  8.98600 4.97200 22.61600
H  9.03500 2.03000 23.16600
H  6.10900 3.74400 22.94200
H  7.13400 2.91400 21.86800
H  6.92400 4.62400 21.56000
H  10.69500 3.60300 21.83200
H  11.23000 2.11900 22.65900
H  11.64400 4.56800 24.36000
H  12.40000 4.73400 22.88300
H  12.80200 3.30200 23.74600
H  11.82700 -1.07000 26.38900
H  13.04600 -0.56400 27.47600
H  12.87200 0.27700 25.83700
H  11.98700 2.61100 31.39300
H  11.11400 1.57400 35.43000
H  10.68500 0.03000 34.62700
H  9.41000 1.27500 34.88700
Mg 48.60700 16.19300 29.22800
C  46.37700 15.63400 31.94800
C  50.58100 17.93500 31.22800
C  50.35900 16.83800 26.50000
C  46.09900 14.57000 27.17300
N  48.44500 16.70900 31.37400
C  47.55300 16.32900 32.32400
C  47.95200 16.76900 33.73100
C  49.04900 17.77200 33.31500
C  49.39100 17.49400 31.89800
C  48.54100 19.25800 33.48800
C  48.50300 15.52600 34.58900
C  48.23700 15.72700 36.10200
H  48.28100 17.12800 36.72700
N  50.28700 17.10400 28.94500
C  50.98100 17.77100 29.88000
C  52.26500 18.19600 29.28600
C  52.27800 17.80700 27.91000
C  50.90400 17.26600 27.74000
C  53.44100 18.75900 30.05500
C  53.30600 17.93500 26.87800
O  53.18900 17.65400 25.68900
C  54.66000 18.47800 27.21400
N  48.38100 15.61500 27.12000
C  49.16200 16.16300 26.21600
C  48.72300 15.81400 24.75300
C  47.38600 14.98700 25.02600
C  47.23500 15.07000 26.54200
C  48.64700 17.03200 23.76700
C  47.29000 13.66200 24.31000
C  47.69900 12.39200 25.12300
N  46.58500 15.41100 29.40400
C  45.77200 14.76700 28.53300
C  44.55700 14.39800 29.20900
C  44.71200 14.72600 30.58500
C  46.04200 15.28400 30.67700
C  43.47000 13.53700 28.54100
C  44.16100 14.59300 31.91700
O  43.04500 14.22300 32.28100
C  45.23100 15.22100 32.87200
C  44.57900 16.50500 33.46200
O  44.04100 17.36300 32.82500
O  44.54500 16.42100 34.81600
C  43.68200 17.39200 35.40200
H  51.25200 18.37900 31.96600
H  50.85000 17.10000 25.56000
H  45.40500 14.01500 26.53800
H  47.03800 17.15500 34.18200
H  50.01500 17.67800 33.81300
H  47.54500 19.31500 33.92600
H  48.48000 19.79300 32.54000
H  49.17500 19.76200 34.21700
H  49.55400 15.28300 34.43600
H  47.85500 14.68000 34.36000
H  48.95100 15.17200 36.71000
H  47.29600 15.20400 36.27200
H  53.95200 19.59600 29.57900
H  54.02000 17.83700 30.09400
H  53.21300 19.22900 31.01200
H  54.48300 19.53000 27.44000
H  55.22200 18.50800 26.28100
H  55.15400 17.86400 27.96800
H  49.33500 15.03300 24.30300
H  46.53600 15.47100 24.54600
H  48.00500 16.96300 22.88900
H  49.65800 17.20800 23.40000
H  48.52400 17.95100 24.33900
H  47.93600 13.66200 23.43200
H  46.27200 13.60400 23.92600
H  48.17500 11.58800 24.56200
H  46.89000 11.90100 25.66400
H  48.42100 12.69600 25.88000
H  42.72700 14.20000 28.09700
H  42.85000 12.96000 29.22800
H  43.88500 12.90800 27.75400
H  45.46900 14.53600 33.68700
H  44.13700 18.37200 35.26200
H  43.50600 17.15700 36.45200
H  42.72400 17.40200 34.88300

