158

Mg 35.31300 2.96200 30.77400
C  32.65600 3.97300 32.79100
C  37.35100 3.07000 33.35200
C  37.88000 2.14500 28.61100
C  33.22400 3.23000 27.99000
N  34.98000 3.46400 32.88500
C  33.84100 3.79700 33.53500
C  34.04000 3.87200 35.04300
C  35.61600 3.89900 35.12900
C  36.03500 3.43300 33.71900
C  36.23700 5.25100 35.57300
C  33.24700 2.69300 35.75600
C  33.65900 2.26400 37.16400
H  34.28100 3.37400 38.12800
N  37.30400 2.58200 31.00700
C  37.99200 2.63400 32.13500
C  39.38800 2.28100 31.90700
C  39.56800 2.21600 30.52900
C  38.22200 2.31500 29.98700
C  40.29900 2.09300 33.14600
C  40.85000 1.93800 29.75400
O  40.91500 1.84600 28.51000
C  42.20100 1.65500 30.57600
N  35.56900 2.90200 28.55800
C  36.71100 2.50900 27.93700
C  36.41300 2.15100 26.43800
C  34.88200 2.30800 26.35600
C  34.48600 2.85800 27.69400
C  37.28300 3.06200 25.47600
C  34.10300 1.01300 25.94700
C  33.65800 0.87900 24.49500
N  33.41200 3.58500 30.42000
C  32.67700 3.64500 29.21800
C  31.30000 4.00800 29.49500
C  31.22100 4.09000 30.89000
C  32.57700 3.83500 31.40700
C  30.18200 4.11000 28.55100
C  30.35900 4.41500 32.04100
O  29.17900 4.65700 32.10200
C  31.28200 4.40400 33.34400
C  31.25900 5.70000 34.09400
O  31.67700 6.75800 33.65800
O  30.80800 5.47400 35.36700
C  30.59100 6.65100 36.19800
H  38.01200 3.22000 34.20800
H  38.64000 1.66900 27.98700
H  32.58300 3.10200 27.11600
H  33.63300 4.80500 35.43200
H  36.01900 3.37600 35.99600
H  35.61800 6.11100 35.31600
H  37.13400 5.41400 34.97500
H  36.41700 5.27700 36.64700
H  33.44500 1.83900 35.10800
H  32.18000 2.87500 35.88100
H  34.21300 1.32500 37.16600
H  32.73600 1.94800 37.65000
H  41.37300 2.24300 33.03200
H  40.20800 1.04300 33.42400
H  40.00600 2.76100 33.95500
H  42.95700 1.50400 29.80500
H  42.31400 0.79000 31.23000
H  42.48000 2.56300 31.10900
H  36.72300 1.11900 26.26900
H  34.73200 3.11200 25.63600
H  37.37500 4.09800 25.80400
H  36.72400 3.18900 24.54800
H  38.26100 2.60800 25.32000
H  33.25000 1.21400 26.59600
H  34.58800 0.12400 26.34900
H  33.89000 -0.16400 24.28100
H  34.17800 1.66200 23.94300
H  32.58300 1.06000 24.51100
H  29.26600 3.85400 29.08400
H  30.29500 3.51800 27.64300
H  30.14500 5.15400 28.24100
H  30.92500 3.58100 33.96200
H  30.22900 7.52900 35.66300
H  31.51100 7.03000 36.64100
H  29.80800 6.50100 36.94200
Mg 50.95500 46.55100 41.35600
C  47.86000 47.71300 40.31600
C  50.15800 43.45700 40.25800
C  54.13800 45.70800 41.71600
C  51.85700 49.95400 41.81300
N  49.21300 45.65300 40.35300
C  48.03800 46.32700 40.06100
C  47.06600 45.31800 39.38800
C  47.71300 43.93900 39.50700
C  49.11900 44.34600 40.00600
C  47.02400 42.97400 40.49700
C  46.80000 45.71100 37.94000
C  45.39800 45.46900 37.32300
H  45.49000 44.43000 36.27000
N  51.99400 44.85500 41.01800
C  51.49000 43.63300 40.65100
C  52.44800 42.57600 40.82200
C  53.62500 43.24900 41.28900
C  53.26300 44.66600 41.35500
C  52.33100 41.11300 40.40300
C  54.93300 42.51600 41.56000
O  55.01900 41.27600 41.39400
C  56.24600 43.20300 41.87400
N  52.73100 47.67900 41.58600
C  53.87600 47.07600 41.73900
C  55.03800 48.01300 42.00100
C  54.32000 49.38300 42.02200
C  52.87300 49.03200 41.86700
C  55.82500 47.77300 43.29700
C  54.71700 50.69900 41.25700
C  55.05700 51.97600 42.05200
N  50.05900 48.51200 41.25400
C  50.51000 49.78900 41.52300
C  49.49600 50.76600 41.36800
C  48.46300 50.01100 40.82000
C  48.85700 48.67200 40.81500
C  49.57200 52.26600 41.65100
C  47.15000 50.09000 40.27700
O  46.51800 51.08300 40.05300
C  46.73200 48.64800 39.83400
C  45.48000 48.26500 40.60300
O  45.42100 48.24800 41.82800
O  44.40100 48.04000 39.73400
C  43.12300 48.10500 40.47700
H  49.93900 42.40300 40.07600
H  55.17800 45.39400 41.83100
H  52.10900 51.00300 41.98400
H  46.12100 45.40300 39.92300
H  47.82900 43.49000 38.52100
H  47.00200 41.95400 40.11500
H  45.97200 43.18000 40.69800
H  47.52400 42.93000 41.46500
H  47.51300 45.18600 37.30400
H  47.06000 46.75200 37.74900
H  45.12400 46.41800 36.86100
H  44.56100 45.28900 37.99700
H  53.10200 40.81300 39.69400
H  51.38400 40.93900 39.89200
H  52.29100 40.52700 41.32100
H  56.15400 43.76700 42.80100
H  56.56400 43.95800 41.15500
H  57.10400 42.53300 41.92900
H  55.74500 48.00400 41.17200
H  54.19200 49.55500 43.09000
H  55.53600 46.79300 43.67800
H  55.54900 48.51700 44.04400
H  56.89300 47.62900 43.13100
H  54.06300 51.00200 40.43900
H  55.66200 50.39700 40.80600
H  54.63200 51.83600 43.04600
H  54.44700 52.78400 41.64900
H  56.12400 52.16400 41.93200
H  50.58400 52.47200 42.00100
H  48.81100 52.55400 42.37600
H  49.45900 52.75900 40.68600
H  46.56000 48.56500 38.76100
H  42.79900 47.09800 40.74100
H  42.48900 48.81000 39.93800
H  43.12700 48.50000 41.49300

