158

Mg 7.56500 53.70200 41.59600
C  7.02900 50.22500 41.51400
C  10.77400 53.18300 40.49900
C  7.79800 57.01900 41.04900
C  4.35000 53.98000 42.72700
N  8.65500 51.89700 40.99200
C  8.29400 50.58300 40.95700
C  9.48300 49.63900 40.73000
C  10.64500 50.64300 40.81100
C  10.00200 52.03600 40.80800
C  11.60400 50.43700 42.00100
C  9.46100 49.00300 39.32700
C  9.08900 49.88100 38.16100
H  7.84300 49.39700 37.36300
N  9.01400 54.93100 40.66900
C  10.33700 54.52000 40.40100
C  11.13400 55.64200 40.09600
C  10.36800 56.82300 40.42100
C  8.99300 56.31400 40.70000
C  12.51100 55.58200 39.63800
C  10.91700 58.26300 40.37700
O  12.06900 58.49200 40.06600
C  9.97900 59.36900 40.55500
N  6.19400 55.21600 41.63200
C  6.45800 56.56100 41.41500
C  5.35600 57.43600 41.93200
C  4.17900 56.44000 42.08400
C  4.97700 55.11800 42.23800
C  5.78100 58.06800 43.22600
C  3.24800 56.47700 40.84900
C  1.98900 57.19900 41.10000
N  6.04900 52.40800 42.23400
C  4.77400 52.66000 42.70900
C  4.08100 51.42200 43.01300
C  4.92600 50.43400 42.65400
C  6.07200 51.08700 42.03200
C  2.75300 51.35000 43.68200
C  5.15900 49.02100 42.59500
O  4.42500 48.07200 42.89900
C  6.41200 48.89900 41.64500
C  6.07300 48.24500 40.36100
O  5.51000 48.75700 39.43000
O  6.48600 46.97300 40.50100
C  6.28500 46.10300 39.39700
H  11.84500 53.16000 40.28700
H  7.72500 58.10800 41.06200
H  3.30800 54.04900 43.04800
H  9.39800 48.81000 41.43200
H  11.30300 50.66100 39.94200
H  11.75500 51.36500 42.55200
H  12.52600 50.20900 41.46400
H  11.23900 49.54300 42.50700
H  8.75700 48.17000 39.34500
H  10.44000 48.57700 39.10700
H  9.94900 49.74600 37.50500
H  8.88400 50.92900 38.38400
H  12.64100 55.85300 38.59100
H  12.92200 54.57200 39.64900
H  13.18000 56.10900 40.31800
H  9.08400 59.30500 39.93600
H  10.56000 60.25000 40.28500
H  9.65000 59.32400 41.59400
H  5.27500 58.22900 41.18900
H  3.58400 56.58700 42.98500
H  5.54700 59.13200 43.18400
H  6.83500 57.83600 43.37700
H  5.19800 57.67000 44.05700
H  3.08700 55.49800 40.39700
H  3.73600 57.01500 40.03700
H  1.99300 57.65900 42.08800
H  1.21200 56.45300 40.93500
H  1.95800 58.02500 40.38900
H  2.50900 52.10000 44.43500
H  2.66800 50.33700 44.07500
H  1.92600 51.47700 42.98300
H  7.09800 48.20800 42.13500
H  6.64500 46.52700 38.46000
H  5.26100 45.91500 39.07400
H  6.82500 45.18400 39.62600
Mg 9.59800 47.09300 26.82200
C  7.52800 47.05400 29.76500
C  12.20600 47.76400 28.96800
C  11.35000 47.76600 24.13000
C  6.58100 47.07100 24.87600
N  9.77900 47.43600 29.10300
C  8.86800 47.22800 30.11200
C  9.49800 47.54400 31.53600
C  10.98400 48.05000 31.25300
C  10.97800 47.76600 29.67400
C  11.25400 49.56200 31.63900
C  9.21200 46.34400 32.57900
C  10.16600 46.23500 33.76100
H  9.61900 45.77900 35.11100
N  11.51900 47.37800 26.61200
C  12.44000 47.69900 27.58000
C  13.72900 48.01500 26.94500
C  13.43300 48.15100 25.55500
C  12.05400 47.68800 25.38500
C  14.96800 48.33000 27.73900
C  14.34900 48.63600 24.37600
O  13.98500 48.74100 23.18400
C  15.80800 48.82900 24.68200
N  9.02100 47.50400 24.75300
C  9.99800 47.63900 23.81500
C  9.27100 47.81700 22.40900
C  7.76300 47.46800 22.64700
C  7.79400 47.28100 24.16100
C  9.63700 49.22800 21.82800
C  7.28100 46.23700 21.78400
C  8.01900 44.91000 22.12900
N  7.48800 47.08000 27.13300
C  6.42900 47.00900 26.27400
C  5.19500 47.09300 27.02500
C  5.63400 46.97700 28.34400
C  6.98000 47.01800 28.40500
C  3.84300 47.05000 26.49800
C  5.08600 46.76600 29.70100
O  3.93800 46.69400 30.15600
C  6.38400 46.85000 30.66700
C  6.38800 45.52000 31.36600
O  6.95500 44.46300 31.02600
O  5.66100 45.61800 32.46400
C  5.54700 44.39700 33.31400
H  13.02600 47.94100 29.66600
H  11.82400 48.08900 23.20100
H  5.65700 46.93300 24.31000
H  8.91200 48.41400 31.83200
H  11.70100 47.39300 31.74500
H  11.98500 49.69500 32.43700
H  10.39400 50.03500 32.11300
H  11.53300 50.06900 30.71600
H  9.30100 45.45400 31.95600
H  8.19900 46.42100 32.97400
H  10.72300 47.15600 33.93100
H  10.79400 45.41200 33.41900
H  15.38300 49.24000 27.30400
H  15.70500 47.53400 27.63200
H  14.82300 48.57300 28.79100
H  15.93000 49.82400 25.11100
H  16.40400 48.67100 23.78300
H  16.12000 48.05100 25.38000
H  9.77800 47.18100 21.68400
H  7.19300 48.37900 22.46100
H  10.12300 49.78000 22.63300
H  8.82700 49.76300 21.33200
H  10.39000 49.14800 21.04300
H  7.32300 46.52600 20.73400
H  6.24900 46.06800 22.09200
H  8.63000 44.46000 21.34700
H  7.34400 44.13000 22.48300
H  8.74800 45.03100 22.93000
H  3.71100 48.01100 26.00200
H  3.19100 46.93900 27.36500
H  3.77100 46.31300 25.69700
H  6.30300 47.59100 31.46200
H  5.50500 43.42200 32.82700
H  4.59700 44.39900 33.84800
H  6.42400 44.38300 33.96100

