158

Mg 47.43700 34.88000 27.18700
C  45.80100 33.28700 29.83600
C  47.50800 37.66200 29.23700
C  48.59800 36.50900 24.67400
C  46.53700 32.12000 25.08400
N  46.71100 35.36900 29.32200
C  46.32900 34.50500 30.25000
C  46.58000 35.01500 31.71800
C  46.60200 36.52200 31.40000
C  46.97000 36.56000 29.94100
C  45.35400 37.32600 31.75200
C  47.93300 34.39400 32.20400
C  48.12900 34.27400 33.72100
H  47.40100 35.23300 34.69300
N  47.95500 36.81200 26.97100
C  47.99000 37.80700 27.93400
C  48.75400 38.93800 27.43000
C  49.01900 38.65200 26.05300
C  48.47600 37.29300 25.81300
C  48.97200 40.21100 28.24600
C  49.81300 39.48100 25.07600
O  49.99200 39.07800 23.95600
C  50.42900 40.84600 25.42200
N  47.36300 34.47400 25.23700
C  48.07700 35.26400 24.38100
C  48.41600 34.53400 23.06900
C  47.55800 33.21900 23.15400
C  47.10500 33.23500 24.57700
C  48.10000 35.38700 21.77800
C  48.38400 31.90700 22.84900
C  49.33700 31.35600 23.93600
N  46.42400 33.01100 27.40400
C  46.14600 32.01200 26.43200
C  45.45600 30.96900 27.13200
C  45.27400 31.47200 28.38800
C  45.89300 32.67900 28.56400
C  45.09500 29.68700 26.64000
C  44.64800 31.10800 29.59200
O  44.03500 30.17900 29.92300
C  44.84800 32.35000 30.58800
C  45.28100 31.92000 31.94000
O  46.36100 31.51300 32.28300
O  44.24700 31.98900 32.82000
C  44.59200 31.81800 34.24900
H  47.57800 38.52700 29.89900
H  49.17700 36.97000 23.87100
H  46.23600 31.22000 24.54300
H  45.75800 34.63500 32.32400
H  47.38900 37.07500 31.91400
H  45.23500 38.23900 31.16900
H  45.61100 37.61600 32.77100
H  44.35600 36.89300 31.68400
H  48.79100 35.00800 31.93300
H  47.97600 33.37300 31.82400
H  49.19800 34.45500 33.83400
H  48.11300 33.23700 34.05500
H  49.06100 39.98000 29.30700
H  48.14200 40.90700 28.11800
H  49.85400 40.72700 27.86700
H  49.77700 41.53900 25.95400
H  50.54300 41.31100 24.44300
H  51.40600 40.74600 25.89500
H  49.47100 34.26300 23.04100
H  46.69900 33.27500 22.48600
H  49.01700 35.86500 21.43100
H  47.36900 36.16700 21.99100
H  47.64500 34.84500 20.94900
H  48.88500 32.03800 21.89000
H  47.67000 31.13600 22.56000
H  49.13300 30.29800 24.09900
H  49.33700 31.95100 24.84900
H  50.32400 31.30200 23.47700
H  44.07300 29.60700 26.26900
H  45.23900 29.04500 27.50900
H  45.75400 29.48800 25.79500
H  43.89900 32.84700 30.79100
H  45.28900 32.53700 34.68000
H  44.98800 30.81800 34.42500
H  43.65700 31.93800 34.79700
Mg 35.96600 49.40300 25.08400
C  36.56800 47.60800 28.02700
C  34.87600 52.11300 27.07000
C  35.46700 51.12800 22.24000
C  37.13200 46.69800 23.28200
N  35.99300 49.91700 27.24800
C  36.14700 48.95100 28.19000
C  36.00500 49.55700 29.62200
C  35.16900 50.82800 29.25100
C  35.42500 51.02000 27.75800
C  33.64600 50.82800 29.51400
C  37.41800 49.80400 30.36600
C  37.44700 50.34100 31.76300
H  36.14200 50.40900 32.59800
N  35.18000 51.35900 24.74100
C  34.78500 52.31600 25.69200
C  34.29600 53.51200 24.94900
C  34.39800 53.23900 23.57500
C  35.00500 51.83900 23.45200
C  33.87900 54.85000 25.67600
C  34.18300 54.12800 22.38900
O  34.32900 53.80400 21.23200
C  33.60800 55.51100 22.51800
N  35.98000 48.87900 22.99900
C  35.84900 49.80000 22.02900
C  36.37200 49.30800 20.67600
C  37.02400 47.95300 21.01600
C  36.72000 47.82400 22.52400
C  35.20800 49.23600 19.72200
C  38.54500 47.90400 20.68600
C  39.04100 46.55600 20.15700
N  36.64900 47.42300 25.45600
C  37.14200 46.47500 24.62800
C  37.44600 45.30700 25.44600
C  37.26400 45.72800 26.77000
C  36.72800 47.04900 26.71500
C  37.91600 44.04800 24.93100
C  37.31300 45.30200 28.17300
O  37.65600 44.27300 28.71200
C  36.93400 46.51500 29.03400
C  35.97300 46.01600 30.08900
O  35.04900 45.25400 29.94200
O  36.37000 46.50100 31.32200
C  35.66100 46.24000 32.58300
H  34.52700 52.92000 27.71800
H  35.35700 51.66600 21.29600
H  37.56400 45.94500 22.61900
H  35.40800 48.78900 30.11400
H  35.62700 51.62900 29.83100
H  32.97600 50.67700 28.66700
H  33.38700 51.70400 30.10800
H  33.45100 49.88600 30.02700
H  37.86000 50.56200 29.72000
H  38.03400 48.90800 30.28700
H  37.93200 51.31600 31.82000
H  38.02200 49.62100 32.34500
H  33.94400 55.75000 25.06400
H  34.49400 54.82400 26.57500
H  32.81600 54.77800 25.90400
H  33.55600 55.93300 21.51400
H  34.24400 56.23600 23.02600
H  32.57700 55.38500 22.84800
H  37.16800 50.00800 20.42000
H  36.46700 47.14100 20.54900
H  35.12400 48.25400 19.25600
H  35.40000 49.68900 18.75000
H  34.22100 49.50700 20.09700
H  39.13100 48.25100 21.53700
H  38.69900 48.66300 19.91900
H  39.06900 46.47400 19.07100
H  38.26700 45.82400 20.38700
H  40.04000 46.37800 20.55600
H  37.61100 43.89000 23.89600
H  37.43500 43.26400 25.51600
H  39.00600 44.04400 24.90500
H  37.94500 46.77700 29.34700
H  34.77100 46.85100 32.73000
H  36.27400 46.53700 33.43400
H  35.46900 45.17600 32.72400

