158

Mg 26.87700 50.45300 26.94900
C  24.83500 51.47300 29.66800
C  29.16100 49.17600 29.24200
C  28.88300 49.72000 24.44600
C  24.50100 51.61300 24.77800
N  26.95400 50.26300 29.18900
C  25.98600 50.77900 30.11800
C  26.40400 50.31700 31.53600
C  27.86500 49.84800 31.36400
C  28.04100 49.73500 29.86900
C  28.97900 50.75700 32.04500
C  25.47300 49.16200 32.02100
C  24.24800 49.55100 32.87500
H  24.36800 49.01500 34.27700
N  28.81400 49.58400 26.83900
C  29.50800 49.06100 27.87500
C  30.75100 48.38900 27.35100
C  30.82500 48.62900 25.94300
C  29.46900 49.32400 25.67500
C  31.76700 47.64800 28.28100
C  31.79200 48.35500 24.89800
O  31.66800 48.67100 23.71900
C  33.03800 47.59700 25.28800
N  26.82900 50.86300 24.87300
C  27.76500 50.41200 24.03100
C  27.42900 50.75300 22.56700
C  25.84900 50.94500 22.70100
C  25.68300 51.19600 24.20200
C  28.19500 52.01100 21.97300
C  24.98800 49.70400 22.14200
C  23.80000 50.10000 21.28000
N  25.08100 51.51700 27.10200
C  24.22300 51.91200 26.15900
C  22.99200 52.49900 26.83200
C  23.25000 52.34600 28.17700
C  24.50500 51.65200 28.30600
C  21.83800 53.17200 26.19000
C  22.69500 52.61300 29.48900
O  21.73900 53.29600 29.73300
C  23.66000 51.97300 30.52400
C  24.08700 53.01100 31.51000
O  25.15100 53.63100 31.50200
O  23.12100 53.18800 32.49400
C  23.53400 54.19800 33.46600
H  29.81700 48.63700 29.92900
H  29.39100 49.44400 23.52000
H  23.69700 51.87800 24.08900
H  26.32100 51.15200 32.23300
H  27.95500 48.82900 31.74100
H  29.17700 51.53600 31.30900
H  29.90600 50.18700 32.09800
H  28.69000 50.95000 33.07900
H  25.95500 48.43100 32.67000
H  25.15700 48.62500 31.12700
H  23.29400 49.25800 32.43700
H  24.13000 50.63100 32.95800
H  31.61400 48.00200 29.30000
H  32.80100 47.72900 27.94400
H  31.36900 46.63700 28.36900
H  33.52400 48.04400 26.15500
H  33.80400 47.62000 24.51300
H  32.74500 46.59400 25.60000
H  27.52800 49.89300 21.90400
H  25.67100 51.84400 22.11100
H  29.19100 51.97900 22.41300
H  27.58600 52.89500 22.16100
H  28.32300 51.93100 20.89300
H  24.55000 49.33200 23.06800
H  25.52700 48.89300 21.65200
H  23.83900 49.76700 20.24300
H  23.57000 51.16300 21.34900
H  22.93800 49.59900 21.72100
H  21.60400 54.14200 26.62900
H  20.95000 52.54900 26.08400
H  22.09300 53.34400 25.14400
H  23.18800 51.15900 31.07400
H  23.68200 55.15600 32.96700
H  24.40100 53.85000 34.02800
H  22.69900 54.33300 34.15300
Mg -11.77700 38.21300 41.93900
C  -9.58300 35.63500 40.89600
C  -9.50900 40.44100 40.53400
C  -14.13100 40.47100 41.92800
C  -13.94600 35.79200 43.13000
N  -9.68000 38.09200 41.03500
C  -9.01200 36.96600 40.72800
C  -7.79100 37.23400 39.91100
C  -7.59800 38.83400 40.12200
C  -9.00100 39.17200 40.63700
C  -6.51900 39.11700 41.19100
C  -7.95800 36.86200 38.38800
C  -6.91300 35.92500 37.75500
H  -5.99900 36.56000 36.70300
N  -11.82400 40.15700 41.40200
C  -10.78700 40.94600 40.83100
C  -11.19400 42.29700 40.67500
C  -12.58800 42.30700 40.97000
C  -12.88600 40.94400 41.49600
C  -10.34000 43.39200 40.06700
C  -13.44700 43.55800 40.80500
O  -12.99300 44.59400 40.27800
C  -14.93000 43.54400 41.10700
N  -13.79800 38.12000 42.29700
C  -14.45900 39.27500 42.53600
C  -15.87700 39.05000 43.17200
C  -15.97500 37.50400 43.26000
C  -14.48600 37.10100 42.98500
C  -16.08200 39.89600 44.54200
C  -16.86000 36.83400 42.16100
C  -17.33600 35.42200 42.47800
N  -11.90400 36.11000 41.95400
C  -12.74100 35.29100 42.60400
C  -12.28100 33.88900 42.46000
C  -11.06100 33.98400 41.72300
C  -10.84600 35.40000 41.54700
C  -13.08500 32.70300 42.76900
C  -10.04800 33.21000 40.99200
O  -9.94400 31.99000 40.77300
C  -9.19600 34.32400 40.31000
C  -7.69800 33.91900 40.37400
O  -6.89700 34.24700 41.25300
O  -7.36900 33.22400 39.23300
C  -6.06800 32.52500 39.33200
H  -8.81200 41.18900 40.14800
H  -14.97900 41.13900 41.76400
H  -14.62300 35.08100 43.60800
H  -6.97700 36.63900 40.32500
H  -7.34700 39.33600 39.18800
H  -5.74600 38.36100 41.32500
H  -7.00000 39.41200 42.12400
H  -5.99800 39.99000 40.79800
H  -7.92400 37.77500 37.79400
H  -8.95900 36.49400 38.16400
H  -7.31500 35.08800 37.18400
H  -6.28700 35.49600 38.53700
H  -10.80300 43.82500 39.18100
H  -9.38000 43.05000 39.68000
H  -10.14600 44.15500 40.82200
H  -15.47100 42.86400 40.44800
H  -15.28000 44.55400 40.89300
H  -15.09500 43.51100 42.18400
H  -16.71200 39.31000 42.52200
H  -16.32800 37.06100 44.19200
H  -16.68400 39.32400 45.24700
H  -16.65800 40.77700 44.25800
H  -15.11300 40.00700 45.03000
H  -16.24900 36.81500 41.25900
H  -17.73000 37.45300 41.94100
H  -17.73600 35.10800 43.44200
H  -16.66800 34.60300 42.21100
H  -18.18800 35.19200 41.83800
H  -14.14100 32.86400 42.55300
H  -13.04900 32.53400 43.84500
H  -12.88500 31.79200 42.20600
H  -9.51300 34.46100 39.27600
H  -5.52000 32.51200 40.27400
H  -5.37500 32.90300 38.58000
H  -6.28700 31.50500 39.01800

