158

Mg 17.54900 -2.10100 28.37000
C  16.67800 0.23400 31.02800
C  19.52400 -3.70700 30.66000
C  18.90200 -3.70800 25.82200
C  15.83500 0.05800 26.21400
N  18.15200 -1.60800 30.52400
C  17.57800 -0.78000 31.44400
C  18.01000 -1.08200 32.86300
C  19.07300 -2.20600 32.62200
C  18.96000 -2.53900 31.13500
C  20.50800 -1.79300 32.96200
C  16.77700 -1.43300 33.83700
C  16.84100 -0.75700 35.24600
H  18.21500 -1.07000 35.82200
N  18.82400 -3.64300 28.30500
C  19.59800 -4.17200 29.30900
C  20.33600 -5.35600 28.84600
C  20.17000 -5.34500 27.40100
C  19.27000 -4.19800 27.10700
C  21.16100 -6.24800 29.71600
C  20.80000 -6.24500 26.27400
O  20.65200 -6.04400 25.08900
C  21.78400 -7.44300 26.56400
N  17.37500 -1.86100 26.28500
C  18.08400 -2.61300 25.45500
C  17.72300 -2.29900 23.99900
C  16.59800 -1.18000 24.06400
C  16.50500 -1.04800 25.59900
C  19.03200 -1.97000 23.14500
C  15.32800 -1.34000 23.31400
C  13.95600 -1.64000 24.06700
N  16.46300 -0.22300 28.50400
C  15.81200 0.51700 27.55500
C  15.17900 1.69400 28.10600
C  15.44800 1.62600 29.47400
C  16.25800 0.44500 29.70700
C  14.37200 2.63300 27.30800
C  15.20700 2.32700 30.71200
O  14.55300 3.31700 31.07600
C  16.00700 1.40000 31.82100
C  16.89600 2.40000 32.53100
O  18.08200 2.41900 32.44300
O  16.17400 3.27300 33.31400
C  17.04700 4.11200 34.17900
H  20.03500 -4.30500 31.41700
H  19.16900 -4.21600 24.89300
H  15.34200 0.64200 25.43400
H  18.52800 -0.18200 33.19400
H  18.91700 -3.05700 33.28400
H  20.53100 -0.71800 33.14100
H  21.23200 -2.15400 32.23100
H  20.78100 -2.13000 33.96200
H  16.69200 -2.50700 34.00000
H  15.79800 -1.20600 33.41500
H  16.23300 -1.24200 36.01000
H  16.66500 0.31700 35.31600
H  21.37000 -7.18600 29.20100
H  20.55100 -6.47900 30.58900
H  22.12400 -5.78300 29.92600
H  22.62000 -6.99700 27.10200
H  21.97600 -8.04400 25.67500
H  21.23800 -8.13800 27.20100
H  17.36100 -3.19400 23.49300
H  17.10500 -0.27400 23.73100
H  18.95500 -0.99700 22.65900
H  19.03500 -2.68400 22.32100
H  19.93700 -2.04800 23.74700
H  15.61300 -2.10200 22.58800
H  15.25800 -0.41200 22.74700
H  13.26600 -1.98100 23.29400
H  13.58600 -0.75000 24.57700
H  14.10700 -2.49200 24.72900
H  14.23500 3.61000 27.77100
H  13.42700 2.22200 26.95000
H  14.94300 2.93300 26.43000
H  15.35600 0.81700 32.47300
H  17.45800 3.53000 35.00400
H  16.37000 4.89100 34.53100
H  17.80900 4.61300 33.58200
Mg 16.63600 52.07400 26.71000
C  18.61500 50.55400 28.99800
C  14.46300 53.10600 29.23700
C  14.63300 53.61400 24.39200
C  18.70900 51.04600 24.13900
N  16.57300 51.79100 28.89200
C  17.55600 51.15400 29.57800
C  17.24100 51.27900 31.04500
C  15.74300 51.85000 31.09400
C  15.57700 52.28400 29.63400
C  14.64000 50.83100 31.44100
C  18.40200 51.99900 31.73400
C  18.11000 52.53400 33.13600
H  17.35100 51.61200 34.10500
N  14.77700 53.17600 26.83800
C  14.08900 53.44700 27.93100
C  12.94900 54.34700 27.54900
C  12.94700 54.43600 26.16500
C  14.16400 53.73000 25.72500
C  12.09900 54.93300 28.70800
C  11.89700 55.22200 25.28800
O  11.97100 55.35600 24.04900
C  10.82600 56.05700 25.90100
N  16.62000 52.25600 24.59200
C  15.80700 53.09900 23.86200
C  16.07600 53.10700 22.34200
C  17.48100 52.42400 22.28200
C  17.61900 51.81000 23.70900
C  15.11300 52.46900 21.36100
C  18.65300 53.45300 22.10900
C  19.59800 53.21400 20.95800
N  18.35400 50.93700 26.53900
C  19.07100 50.62300 25.41500
C  20.24900 49.87200 25.86300
C  20.07100 49.75200 27.26200
C  18.95200 50.52300 27.65200
C  21.36900 49.30100 24.90900
C  20.58500 49.14800 28.51100
O  21.52500 48.40000 28.74200
C  19.69500 49.74600 29.68300
C  19.17600 48.70200 30.68200
O  18.29200 47.93800 30.49100
O  20.09500 48.74700 31.70600
C  19.71500 47.84600 32.76600
H  13.95900 53.36200 30.17100
H  14.00600 54.12300 23.65700
H  19.52900 50.80600 23.45800
H  17.22900 50.24900 31.40200
H  15.59000 52.83700 31.53000
H  15.02900 50.02300 32.06000
H  14.22500 50.38800 30.53600
H  13.81200 51.33600 31.93900
H  18.80000 52.83900 31.16300
H  19.19800 51.27000 31.88700
H  17.60500 53.49100 33.00100
H  19.04600 52.66800 33.67700
H  11.16400 54.38100 28.80100
H  11.85600 55.97100 28.47900
H  12.64900 54.90800 29.64900
H  10.09600 56.48400 25.21300
H  11.39500 56.83800 26.40500
H  10.38300 55.37300 26.62500
H  16.09000 54.15500 22.04300
H  17.37400 51.59800 21.57900
H  14.43000 51.81500 21.90200
H  15.61800 51.85800 20.61300
H  14.70200 53.34100 20.85200
H  19.25000 53.34800 23.01500
H  18.41600 54.51000 21.98700
H  19.46800 53.98300 20.19700
H  19.34400 52.31900 20.39000
H  20.61900 53.18200 21.33900
H  22.18900 49.87900 25.33300
H  21.34200 49.65400 23.87800
H  21.55300 48.22700 24.94800
H  20.35900 50.46100 30.16800
H  18.65300 47.95800 32.98600
H  20.25000 48.20200 33.64700
H  19.77800 46.79100 32.49800

