158

Mg 24.17300 -5.98800 45.20700
C  26.72300 -3.83000 43.91800
C  21.98900 -4.68200 42.97800
C  22.34400 -8.78700 45.58000
C  26.89500 -7.71200 46.89500
N  24.41000 -4.43700 43.65600
C  25.51400 -3.65200 43.29300
C  25.19900 -2.76500 42.06000
C  23.65200 -2.91500 42.01300
C  23.30200 -4.08000 42.98200
C  22.79300 -1.61800 42.21700
C  25.96600 -3.22400 40.81200
C  26.81200 -2.17900 40.13500
H  26.52100 -1.89500 38.68900
N  22.41200 -6.57500 44.54800
C  21.61200 -5.83700 43.67600
C  20.31500 -6.55600 43.44800
C  20.41100 -7.76000 44.30300
C  21.77700 -7.74600 44.88900
C  19.21000 -6.12500 42.57400
C  19.37800 -8.90700 44.42700
O  18.28900 -8.78300 43.84100
C  19.52100 -10.00600 45.44000
N  24.52400 -7.90400 46.16400
C  23.59000 -8.87400 46.18200
C  24.04200 -10.11200 47.03900
C  25.42400 -9.66300 47.59000
C  25.66300 -8.33200 46.89600
C  23.06900 -10.45700 48.21300
C  26.52200 -10.74700 47.29800
C  27.50800 -11.08400 48.44800
N  26.32000 -5.70200 45.62500
C  27.21100 -6.54800 46.23700
C  28.54800 -5.97200 46.19300
C  28.41700 -4.80100 45.40600
C  26.99600 -4.74700 44.97700
C  29.80500 -6.51800 46.70400
C  29.14500 -3.76700 44.69300
O  30.35600 -3.51000 44.63800
C  28.09000 -3.04100 43.76700
C  28.00600 -1.54400 44.00300
O  27.01600 -0.91900 44.32300
O  29.27800 -0.97200 43.82600
C  29.25800 0.49200 43.96600
H  21.29500 -4.18300 42.29800
H  21.87700 -9.71900 45.90500
H  27.70300 -8.24100 47.40500
H  25.52100 -1.76000 42.33300
H  23.45000 -3.46700 41.09500
H  22.16700 -1.56800 41.32600
H  23.39700 -0.71200 42.17100
H  22.05300 -1.68900 43.01400
H  25.19800 -3.45400 40.07300
H  26.52900 -4.14100 40.98600
H  27.85700 -2.49100 40.11700
H  26.85400 -1.23700 40.68200
H  19.61700 -6.31200 41.58100
H  19.21100 -5.03600 42.61800
H  18.27400 -6.59600 42.87500
H  18.57400 -10.50500 45.64500
H  19.80600 -9.48900 46.35600
H  20.28800 -10.61900 44.96600
H  24.16100 -10.84800 46.24400
H  25.46600 -9.37800 48.64200
H  23.46800 -10.20900 49.19600
H  22.97300 -11.54300 48.22200
H  22.07300 -10.03700 48.07400
H  27.07900 -10.46900 46.40400
H  26.16000 -11.71100 46.94200
H  27.45800 -12.17100 48.50600
H  27.02300 -10.81200 49.38500
H  28.50700 -10.65100 48.40100
H  30.66600 -5.95200 46.34700
H  29.90600 -7.51800 46.28100
H  29.75100 -6.49600 47.79200
H  28.52500 -3.18200 42.77800
H  30.29900 0.69500 43.71400
H  28.99500 0.88100 44.94900
H  28.68000 1.02400 43.21100
Mg 41.05800 9.47300 30.20300
C  43.10400 10.42900 32.86800
C  38.84900 8.16100 32.56100
C  39.41300 7.99800 27.71400
C  43.87200 9.97400 28.06300
N  41.02100 9.37800 32.46000
C  41.96500 9.81600 33.34800
C  41.44800 9.74000 34.79900
C  40.12800 8.80900 34.63500
C  39.96800 8.76100 33.08900
C  40.11200 7.43800 35.30500
C  41.29800 11.10800 35.52700
C  40.65200 11.05700 36.84500
H  41.11400 11.95900 37.96200
N  39.28100 8.48900 30.09800
C  38.55400 7.98900 31.16900
C  37.39300 7.25100 30.66500
C  37.46500 7.28600 29.25500
C  38.77500 7.91800 28.95600
C  36.38900 6.58100 31.58100
C  36.56700 6.77300 28.23300
O  36.84000 6.61700 27.02000
C  35.12700 6.37700 28.68600
N  41.66200 8.90900 28.20900
C  40.68200 8.46800 27.37600
C  41.15700 8.36000 25.89500
C  42.63900 8.89100 26.03200
C  42.76900 9.28100 27.52100
C  41.10400 6.87200 25.32900
C  42.96100 10.03700 25.07600
C  42.00700 11.32800 25.13500
N  43.05100 10.09300 30.41000
C  44.02500 10.33900 29.43600
C  45.12500 11.02100 29.98800
C  44.81900 11.07400 31.35600
C  43.54100 10.47700 31.57600
C  46.32800 11.45800 29.30800
C  45.28900 11.53400 32.64600
O  46.27600 12.18100 32.93500
C  44.19800 11.10100 33.69900
C  44.95400 10.17800 34.70800
O  45.85600 9.42600 34.34200
O  44.52600 10.39100 35.98600
C  45.17900 9.60900 37.01100
H  38.07100 7.88200 33.27500
H  38.99100 7.43600 26.87800
H  44.64400 10.25000 27.34200
H  42.24600 9.25200 35.36000
H  39.29000 9.38000 35.03600
H  40.79400 7.35200 36.15100
H  40.35100 6.74400 34.49900
H  39.10100 7.14200 35.58600
H  40.65500 11.79100 34.97400
H  42.30600 11.50100 35.65700
H  40.70100 10.04500 37.24900
H  39.60700 11.33300 36.70800
H  35.49700 7.20200 31.67000
H  36.82900 6.40600 32.56200
H  36.12000 5.62600 31.12800
H  34.70300 7.12100 29.36000
H  35.06000 5.39200 29.14700
H  34.45500 6.31000 27.83000
H  40.51500 9.00400 25.29400
H  43.35300 8.10900 25.77500
H  41.23000 6.15800 26.14300
H  41.74000 6.66300 24.46800
H  40.08000 6.73400 24.98100
H  43.07700 9.62100 24.07500
H  43.94400 10.36400 25.41500
H  42.57300 12.23300 25.35300
H  41.26100 11.33300 25.92900
H  41.42900 11.40500 24.21400
H  46.64800 12.47400 29.54100
H  46.08300 11.57200 28.25200
H  47.13700 10.74400 29.46100
H  43.83000 11.97000 34.24400
H  46.25800 9.73700 37.09400
H  45.01900 8.55300 36.79300
H  44.66700 9.80400 37.95300

