158

Mg 8.07000 2.45500 27.94900
C  9.70300 1.11400 30.83000
C  6.35500 4.70300 30.08300
C  6.56500 3.71200 25.27800
C  9.85700 0.13200 25.90000
N  8.04300 2.74700 30.29600
C  8.77900 2.08000 31.20500
C  8.59500 2.64700 32.61800
C  7.50400 3.72500 32.39600
C  7.31900 3.82600 30.83600
C  6.16200 3.73000 33.13100
C  9.92400 3.16900 33.22100
C  9.73800 3.92500 34.54000
H  10.29700 3.30900 35.82400
N  6.70300 4.01000 27.72400
C  6.20000 4.78500 28.69400
C  5.31000 5.79200 28.08600
C  5.33600 5.55500 26.67600
C  6.24400 4.40600 26.48100
C  4.59600 6.89200 28.95100
C  4.51700 6.28500 25.60000
O  4.57100 5.93400 24.43700
C  3.86900 7.57400 26.05400
N  8.04000 1.86800 25.88500
C  7.38900 2.63800 24.95300
C  7.52200 2.05200 23.53300
C  8.79300 1.09100 23.74900
C  8.90500 0.98500 25.26100
C  6.16800 1.39800 22.99500
C  10.08400 1.58700 23.07300
C  10.86500 0.60900 22.18600
N  9.23600 0.81200 28.16100
C  9.98800 -0.00600 27.26900
C  10.83700 -0.88500 27.98300
C  10.79700 -0.42700 29.31400
C  9.76900 0.57300 29.41000
C  11.80600 -1.88600 27.42800
C  11.39100 -0.70800 30.63600
O  12.16100 -1.57200 30.97200
C  10.68200 0.30000 31.64800
C  10.16100 -0.45100 32.74800
O  9.19400 -1.17200 32.73300
O  10.91000 -0.21900 33.90900
C  10.29100 -0.74900 35.10300
H  5.92300 5.46700 30.73200
H  6.01600 4.05400 24.39800
H  10.41400 -0.54400 25.24700
H  8.15500 1.93100 33.31100
H  7.89600 4.73600 32.50600
H  6.13400 2.87700 33.80900
H  5.34700 3.64700 32.41200
H  6.08300 4.62800 33.74400
H  10.33100 3.85000 32.47400
H  10.64800 2.38800 33.45600
H  8.69100 4.18200 34.70000
H  10.33000 4.82500 34.38000
H  4.85200 7.90300 28.63200
H  4.79300 6.99600 30.01800
H  3.52000 6.71800 28.96500
H  3.48700 8.05200 25.15200
H  4.70000 8.18000 26.41500
H  3.09800 7.29700 26.77300
H  7.81300 2.86700 22.87000
H  8.56400 0.07700 23.42200
H  5.41800 1.33100 23.78300
H  6.43100 0.44500 22.53600
H  5.69500 1.94600 22.18000
H  10.78300 1.97200 23.81600
H  9.77700 2.36400 22.37200
H  11.50600 1.07100 21.43600
H  10.06900 -0.01700 21.78100
H  11.51600 -0.06800 22.74000
H  12.69600 -1.47200 26.95500
H  11.20900 -2.42400 26.69100
H  12.07600 -2.50400 28.28400
H  11.38800 0.96400 32.14800
H  10.19600 -1.83300 35.15400
H  9.27900 -0.34500 35.07400
H  10.72500 -0.40400 36.04100
Mg 1.42600 42.53700 26.04500
C  2.62100 42.58500 29.17400
C  -1.36600 40.84500 27.26800
C  0.30600 42.16900 22.86800
C  4.32900 43.92900 24.72900
N  0.59800 41.98000 28.06400
C  1.29000 42.13400 29.17800
C  0.40600 41.86700 30.46300
C  -0.87300 41.28100 29.79000
C  -0.55200 41.33300 28.27000
C  -1.32100 39.85100 30.21900
C  0.21200 43.11600 31.39500
C  0.84700 43.17700 32.80400
H  0.72500 41.93800 33.74100
N  -0.30400 41.61400 25.22300
C  -1.26000 40.92700 25.87700
C  -2.26400 40.47500 25.01400
C  -1.85700 40.87100 23.71300
C  -0.57900 41.68000 23.88300
C  -3.57500 39.63500 25.40000
C  -2.49800 40.70600 22.34500
O  -2.09600 41.13700 21.25500
C  -3.81300 39.89000 22.18800
N  2.21500 42.95800 24.08000
C  1.50400 42.75400 22.98300
C  2.35400 42.95900 21.74200
C  3.39800 43.93200 22.31100
C  3.34400 43.66800 23.80400
C  2.84700 41.52400 21.11800
C  3.46700 45.41400 21.86100
C  2.21400 46.28700 21.88800
N  3.15600 43.00800 26.77300
C  4.22200 43.64200 26.10800
C  5.32000 43.86600 27.10200
C  4.73700 43.43500 28.34800
C  3.44600 42.91000 28.09900
C  6.64000 44.47500 26.97700
C  4.96300 43.30200 29.75100
O  6.00300 43.41400 30.39900
C  3.56900 42.75000 30.35100
C  3.84800 41.45700 31.13000
O  3.78500 40.28300 30.83600
O  4.33400 41.90100 32.36100
C  5.07700 40.86500 33.09500
H  -2.32000 40.46600 27.64100
H  0.09300 41.90600 21.83000
H  5.29000 44.26100 24.33100
H  0.94400 41.09900 31.02000
H  -1.73700 41.91800 29.97700
H  -0.60500 39.56100 30.98900
H  -1.32100 39.08800 29.44100
H  -2.29000 40.01600 30.68800
H  -0.87200 43.19800 31.48000
H  0.54400 43.99600 30.84400
H  0.40100 43.96000 33.41700
H  1.89700 43.45700 32.71200
H  -3.82400 38.95900 24.58300
H  -4.40900 40.31900 25.55400
H  -3.28000 39.17000 26.34000
H  -3.74300 38.81100 22.32500
H  -4.22100 40.13100 21.20700
H  -4.51900 40.40200 22.84200
H  1.83900 43.48100 20.93500
H  4.38500 43.60100 21.99000
H  2.10100 40.74900 21.29500
H  3.80200 41.29900 21.59300
H  2.86400 41.66000 20.03700
H  3.92000 45.38200 20.87000
H  4.16600 45.98800 22.46900
H  2.12800 46.97200 22.73100
H  1.28800 45.72200 21.77900
H  2.33800 46.88100 20.98200
H  6.47100 45.24700 26.22600
H  7.33000 43.70300 26.63600
H  6.98700 44.86500 27.93300
H  3.23400 43.41300 31.14900
H  5.74800 40.35600 32.40300
H  4.50800 40.02800 33.50000
H  5.60000 41.42700 33.86900

