158

Mg 26.48300 50.93100 26.31000
C  24.71700 52.06500 28.92000
C  28.73800 49.70500 28.39300
C  28.00600 49.81900 23.66400
C  24.21600 52.73100 24.08900
N  26.86400 51.18800 28.47000
C  25.82200 51.40800 29.37000
C  26.16200 50.87800 30.82300
C  27.59700 50.32500 30.68300
C  27.76600 50.41900 29.07700
C  28.69100 51.06500 31.52300
C  25.08200 49.99200 31.46100
C  24.48000 50.26600 32.83000
H  25.51300 50.91100 33.71700
N  28.14300 49.86200 26.04200
C  28.99300 49.48000 26.99100
C  30.07500 48.79600 26.38600
C  29.79000 48.67800 25.03500
C  28.59600 49.43300 24.84700
C  31.23300 48.19300 27.31400
C  30.49100 47.75100 24.06500
O  30.06700 47.62700 22.93500
C  31.69100 46.88800 24.50600
N  26.32800 51.49000 24.13000
C  27.01100 50.71400 23.21600
C  26.54200 50.86100 21.75900
C  25.28500 51.74300 21.98800
C  25.24600 52.04100 23.48700
C  27.61600 51.38200 20.77000
C  23.95200 51.05000 21.63400
C  22.74900 51.89300 21.15100
N  24.92100 52.24200 26.37900
C  24.07900 52.88900 25.46100
C  23.01100 53.60600 26.16200
C  23.25100 53.28600 27.48000
C  24.41000 52.48900 27.59200
C  21.90400 54.51400 25.61700
C  22.70300 53.41500 28.79400
O  21.78100 53.95200 29.35300
C  23.72600 52.67300 29.80500
C  24.23900 53.86000 30.55700
O  25.17800 54.54700 30.16000
O  23.49200 54.01200 31.71300
C  24.17900 54.81800 32.69200
H  29.37500 49.12000 29.05900
H  28.49500 49.31500 22.82700
H  23.53500 53.15700 23.34900
H  26.33500 51.77900 31.41100
H  27.56100 49.29800 31.04700
H  29.33500 50.43800 32.14000
H  28.28600 51.79100 32.22800
H  29.29200 51.70800 30.88000
H  25.43100 48.96400 31.35800
H  24.23100 50.11100 30.79000
H  24.17000 49.32400 33.28300
H  23.60800 50.92000 32.81400
H  31.21300 48.36000 28.39100
H  32.21000 48.60200 27.05800
H  31.13100 47.11300 27.21100
H  31.26800 46.07100 25.09000
H  32.54700 47.37300 24.97600
H  32.04200 46.50600 23.54700
H  26.21000 49.88700 21.39800
H  25.43600 52.71200 21.51300
H  28.56300 51.28600 21.30000
H  27.37500 52.41100 20.50200
H  27.58200 50.82800 19.83100
H  23.65100 50.36300 22.42500
H  24.26100 50.40600 20.81100
H  22.46400 51.58500 20.14500
H  22.94900 52.96400 21.18900
H  21.90900 51.67000 21.80800
H  21.34100 54.06400 24.79900
H  22.45500 55.35900 25.20400
H  21.35600 54.69200 26.54200
H  23.22900 52.01200 30.51500
H  23.57000 55.03600 33.57000
H  24.48700 55.76400 32.24700
H  25.11300 54.36200 33.01900
Mg -10.45400 39.20000 40.21700
C  -8.66200 36.31700 39.07800
C  -7.58100 41.15400 39.60800
C  -12.44300 41.93800 40.22800
C  -13.32400 37.16700 40.19900
N  -8.37900 38.77800 39.53000
C  -7.97400 37.60300 38.99000
C  -6.69400 37.75200 38.24700
C  -6.16200 39.09300 38.86600
C  -7.41800 39.74000 39.39100
C  -5.21500 38.89300 40.10500
C  -6.76300 37.84000 36.72100
C  -6.17200 36.70800 35.89100
H  -7.00300 36.16100 34.69800
N  -10.06000 41.26900 39.97600
C  -8.81500 41.90200 39.71800
C  -8.99200 43.32300 39.61100
C  -10.34900 43.58800 39.85400
C  -11.02700 42.24500 40.05400
C  -7.82200 44.26800 39.24100
C  -10.98900 44.93000 39.83000
O  -10.29500 45.88200 39.53900
C  -12.48600 45.13500 39.94900
N  -12.57000 39.52200 40.17500
C  -13.11800 40.73300 40.34100
C  -14.64200 40.71600 40.38200
C  -14.89300 39.11400 40.18000
C  -13.54700 38.56800 40.17300
C  -15.09900 41.16300 41.74600
C  -15.70100 38.89100 38.91500
C  -16.58600 37.57900 38.82800
N  -10.88500 37.12000 39.99600
C  -12.06800 36.47700 40.12500
C  -11.78300 35.08000 40.14500
C  -10.47400 34.95500 39.66100
C  -9.97200 36.24700 39.62300
C  -12.75300 34.08300 40.57300
C  -9.37600 34.02300 39.26300
O  -9.34000 32.79200 39.40400
C  -8.21500 34.92000 38.73400
C  -6.89000 34.53000 39.41500
O  -6.61200 34.67800 40.59100
O  -6.02700 33.96300 38.50700
C  -4.72700 33.51100 38.98700
H  -6.67600 41.73000 39.40400
H  -13.18500 42.72700 40.36400
H  -14.21200 36.53300 40.24900
H  -6.12500 36.87500 38.55400
H  -5.65800 39.66000 38.08400
H  -4.22500 39.19800 39.76500
H  -5.24800 37.85700 40.44300
H  -5.41400 39.53300 40.96500
H  -6.44700 38.81000 36.33500
H  -7.81200 37.83100 36.42300
H  -6.01700 35.88700 36.59100
H  -5.14500 36.89000 35.57400
H  -8.14800 45.09000 38.60400
H  -7.09000 43.65900 38.71000
H  -7.20300 44.66900 40.04300
H  -12.82100 46.17100 39.89600
H  -12.92400 44.69300 40.84400
H  -13.02500 44.69800 39.10900
H  -14.95400 41.34600 39.54900
H  -15.34200 38.67600 41.07100
H  -15.58000 42.14100 41.72100
H  -14.28400 41.29000 42.45800
H  -15.81300 40.41500 42.09100
H  -14.99300 38.95700 38.08900
H  -16.35800 39.75700 38.83700
H  -16.07400 36.72900 38.37600
H  -17.57500 37.82700 38.44200
H  -16.78800 37.32400 39.86800
H  -12.92000 34.23100 41.64000
H  -12.28600 33.10500 40.45400
H  -13.67400 34.21700 40.00600
H  -8.15300 34.80800 37.65100
H  -4.44300 32.75700 38.25300
H  -4.95800 33.10300 39.97100
H  -3.97100 34.28100 39.13900

