158

Mg 39.99600 9.82400 29.88300
C  41.87600 11.04700 32.73400
C  37.55200 8.71900 32.06600
C  38.41800 8.49100 27.26200
C  42.72400 10.68600 27.89300
N  39.88800 9.63400 32.20300
C  40.65500 10.40900 33.14400
C  40.02200 10.32100 34.55900
C  38.70800 9.50500 34.26100
C  38.65100 9.31400 32.74100
C  38.58400 8.16800 35.01400
C  39.77000 11.79200 35.15400
C  40.67500 12.19500 36.35800
H  40.12100 12.60300 37.69800
N  38.14800 8.77300 29.66500
C  37.33900 8.43800 30.69300
C  36.21700 7.76900 30.14200
C  36.47100 7.64600 28.78300
C  37.67000 8.36000 28.45600
C  35.11200 7.24000 30.99000
C  35.60800 6.97100 27.69000
O  35.92500 6.78300 26.53100
C  34.32300 6.42200 28.05500
N  40.45800 9.71100 27.81400
C  39.68200 9.03000 26.93300
C  40.23000 9.02800 25.47800
C  41.64600 9.65700 25.74100
C  41.67600 9.99600 27.26800
C  40.40000 7.52500 24.99600
C  41.97500 10.90800 24.87100
C  41.18000 12.18400 25.25400
N  41.95700 10.69400 30.14400
C  42.90200 11.06100 29.20800
C  43.98600 11.74000 29.91400
C  43.60100 11.79800 31.29800
C  42.34100 11.06600 31.38400
C  45.18000 12.38400 29.30700
C  44.01800 12.31000 32.60100
O  45.12100 12.79300 32.91500
C  42.90800 11.78100 33.59500
C  43.63000 10.84100 34.59300
O  43.80700 9.63600 34.50300
O  44.14400 11.61600 35.59600
C  44.56600 10.98200 36.84500
H  36.72400 8.59100 32.76700
H  37.93900 8.06800 26.37700
H  43.71400 10.88900 27.48100
H  40.81500 9.87200 35.15800
H  37.79700 10.09100 34.38000
H  38.51500 7.37400 34.27000
H  37.62300 8.25500 35.52100
H  39.38000 7.98500 35.73500
H  38.73700 11.89000 35.48900
H  39.82500 12.55200 34.37500
H  41.36800 12.97300 36.03800
H  41.24000 11.28400 36.55400
H  34.21200 7.78100 30.69700
H  35.31400 7.23800 32.06100
H  35.07400 6.17600 30.75900
H  34.45900 5.72900 28.88600
H  33.83300 5.97000 27.19200
H  33.65200 7.20100 28.41800
H  39.57100 9.50300 24.75100
H  42.37100 8.86900 25.53700
H  39.98100 6.74800 25.63700
H  41.44900 7.25300 24.88000
H  39.88400 7.27400 24.06900
H  41.88700 10.49800 23.86400
H  43.04900 11.09200 24.85300
H  41.86000 12.97000 25.58400
H  40.50000 11.98500 26.08200
H  40.56200 12.47900 24.40700
H  44.99500 12.74900 28.29800
H  45.94400 11.60800 29.25700
H  45.43600 13.17400 30.01300
H  42.48200 12.65700 34.08400
H  44.21000 11.55600 37.70100
H  45.64300 11.15000 36.86800
H  44.32400 9.92000 36.88200
Mg 30.96800 58.29100 40.12200
C  28.36500 56.20700 38.80300
C  33.24600 56.11600 38.67100
C  33.32800 60.66300 40.79400
C  28.54700 60.68500 40.93000
N  30.77100 56.35600 38.80800
C  29.67100 55.66200 38.51300
C  30.04200 54.31500 37.74300
C  31.61400 54.16500 38.08000
C  31.92300 55.61300 38.48800
C  32.03700 53.07200 39.08100
C  29.65400 54.27800 36.25000
C  29.43900 55.73000 35.50600
H  29.01700 55.61800 33.99800
N  32.94700 58.37300 39.93500
C  33.71000 57.34100 39.32100
C  35.07100 57.81300 39.31400
C  35.12100 58.97300 40.08900
C  33.77000 59.42400 40.32700
C  36.10800 56.90500 38.61000
C  36.46000 59.68100 40.40400
O  37.50300 59.26200 39.91600
C  36.65000 60.91700 41.33000
N  30.98000 60.41700 40.73200
C  32.10200 61.17700 41.06400
C  31.75600 62.56400 41.53100
C  30.21900 62.46300 41.81100
C  29.88700 61.08700 41.18600
C  32.52900 63.09200 42.69900
C  29.47300 63.65900 41.17700
C  28.52400 64.35300 42.10700
N  28.84500 58.42600 39.98800
C  28.04300 59.48100 40.30600
C  26.63600 59.19500 39.87000
C  26.70600 57.86400 39.40900
C  28.08300 57.48800 39.35300
C  25.43900 60.05300 39.83600
C  26.00500 56.72000 38.85000
O  24.80000 56.56200 38.71800
C  27.02700 55.64000 38.34300
C  26.69600 54.25200 38.75900
O  26.79700 53.75200 39.85600
O  26.20400 53.62600 37.60700
C  25.84400 52.26400 37.79100
H  34.03500 55.43600 38.34500
H  34.07300 61.44600 40.95000
H  27.78500 61.43200 41.16200
H  29.51100 53.49800 38.23300
H  32.22800 53.96900 37.20100
H  32.27000 53.59700 40.00800
H  32.96800 52.58500 38.79000
H  31.32800 52.27200 39.29300
H  28.75000 53.69400 36.07800
H  30.38400 53.68800 35.69500
H  30.45200 56.12900 35.44800
H  28.87600 56.50500 36.02600
H  37.05500 57.44400 38.56800
H  35.75600 56.84100 37.58000
H  36.13900 55.97800 39.18200
H  37.66600 60.99300 41.71800
H  35.89800 61.05000 42.10800
H  36.40900 61.71400 40.62800
H  32.00600 63.05500 40.59000
H  30.03100 62.35000 42.87900
H  33.31900 63.72900 42.30100
H  32.86700 62.32600 43.39700
H  32.10800 63.76000 43.45000
H  28.80700 63.46300 40.33700
H  30.19700 64.39300 40.82100
H  27.54400 63.87500 42.09800
H  28.46000 65.41000 41.85100
H  28.82500 64.13100 43.13100
H  25.40000 60.80200 40.62700
H  24.52500 59.49500 40.04200
H  25.47000 60.66800 38.93700
H  27.26200 55.63200 37.27800
H  24.86700 52.25400 38.27600
H  26.49500 51.68300 38.44400
H  25.74800 51.70500 36.86000

