158

Mg 25.35800 -6.30900 46.83200
C  27.08500 -3.53800 45.76200
C  22.74300 -5.54200 44.73200
C  24.09400 -9.41300 47.46400
C  28.37300 -7.27900 48.59000
N  25.02000 -4.84500 45.24200
C  25.85600 -3.74500 45.06000
C  25.12100 -2.64300 44.15800
C  23.76900 -3.42400 43.85500
C  23.81200 -4.64200 44.66000
C  22.50700 -2.48300 44.12400
C  25.99000 -2.46100 42.80200
C  26.61700 -1.09400 42.51300
H  26.56400 -0.60400 41.06400
N  23.58400 -7.21000 46.35100
C  22.71300 -6.79100 45.42200
C  21.60500 -7.73100 45.34100
C  21.83400 -8.75100 46.30200
C  23.20400 -8.49200 46.75800
C  20.44800 -7.64500 44.29800
C  20.85200 -9.87300 46.64600
O  19.72300 -9.95100 46.17300
C  21.16500 -10.73400 47.79000
N  26.15900 -8.16900 47.82000
C  25.42900 -9.25400 47.92000
C  26.28600 -10.41000 48.50700
C  27.42800 -9.58900 49.21700
C  27.35200 -8.22200 48.48900
C  25.46600 -11.21100 49.57400
C  28.83700 -10.27700 49.24200
C  29.48900 -10.34600 50.58700
N  27.38700 -5.66900 47.12600
C  28.40100 -6.12900 47.88200
C  29.49700 -5.10800 47.92000
C  28.96000 -3.98900 47.18900
C  27.72300 -4.47300 46.59100
C  30.84100 -5.19700 48.68100
C  29.17000 -2.64500 46.74600
O  30.05800 -1.85400 46.99200
C  28.01100 -2.30900 45.77500
C  27.34500 -1.03200 46.31100
O  27.13200 -0.04900 45.62700
O  26.95600 -1.18900 47.67200
C  26.28400 -0.01700 48.31200
H  21.95100 -5.24500 44.04100
H  23.76300 -10.45200 47.52800
H  29.24400 -7.54100 49.19400
H  24.88700 -1.74700 44.73300
H  23.67300 -3.81400 42.84200
H  22.67600 -1.47400 43.74800
H  22.22700 -2.50800 45.17700
H  21.76700 -2.89200 43.43600
H  25.35400 -2.50800 41.91900
H  26.81100 -3.16100 42.64800
H  27.65500 -1.23000 42.81600
H  26.19300 -0.35500 43.19300
H  20.74500 -8.02700 43.32200
H  20.02200 -6.64200 44.28600
H  19.60900 -8.33700 44.36900
H  20.30300 -11.27800 48.17500
H  21.50600 -10.17600 48.66200
H  21.89600 -11.40900 47.34500
H  26.49300 -11.12600 47.71300
H  27.02800 -9.59200 50.23100
H  25.98400 -11.47800 50.49500
H  25.22200 -12.21300 49.22100
H  24.50300 -10.73100 49.74500
H  29.53700 -9.64800 48.69200
H  28.86200 -11.24300 48.73800
H  29.90800 -11.35200 50.54400
H  28.80500 -10.28800 51.43300
H  30.28800 -9.60700 50.65500
H  31.62700 -4.67300 48.13700
H  31.08500 -6.25200 48.81100
H  30.84500 -4.65900 49.62800
H  28.51400 -2.13800 44.82400
H  25.29100 -0.26900 48.68500
H  26.24000 0.86800 47.67700
H  26.90500 0.18700 49.18400
Mg 16.47600 51.83400 26.60100
C  18.32600 50.24200 29.08100
C  14.00600 52.46000 28.83900
C  14.53600 52.83400 23.96700
C  18.91300 50.82500 24.22700
N  16.24100 51.36700 28.61500
C  17.09800 50.75300 29.50000
C  16.64900 50.96000 30.99200
C  15.14700 51.25300 30.80100
C  15.10900 51.74000 29.36000
C  14.15100 50.17400 31.12000
C  17.38500 52.11200 31.81500
C  18.00600 51.78500 33.24600
H  17.08800 51.04000 34.27100
N  14.56000 52.62800 26.47500
C  13.72400 52.90700 27.53700
C  12.65800 53.71500 27.02100
C  12.82400 53.88200 25.59100
C  14.02200 53.10700 25.26200
C  11.56400 54.39700 27.92700
C  12.11400 54.84500 24.59100
O  12.50500 54.93100 23.44000
C  10.96000 55.68600 25.10200
N  16.63700 51.58100 24.43500
C  15.74600 52.21500 23.63200
C  16.23300 52.31300 22.17700
C  17.72300 51.92900 22.30900
C  17.76500 51.33800 23.69300
C  15.34600 51.44200 21.21100
C  18.82400 52.91200 21.81800
C  20.01300 52.33700 21.11500
N  18.18400 50.76400 26.59600
C  19.07600 50.50700 25.58300
C  20.24900 49.87400 26.18100
C  20.02100 49.81700 27.56000
C  18.74800 50.32700 27.70200
C  21.46400 49.54900 25.36900
C  20.64500 49.46400 28.80900
O  21.80700 49.13200 29.18200
C  19.43200 49.56100 29.85500
C  19.12000 48.15000 30.28700
O  18.39800 47.33300 29.74700
O  19.79400 47.97000 31.44400
C  19.51000 46.69800 32.06900
H  13.37000 52.86400 29.62900
H  13.85500 53.08100 23.15000
H  19.75300 50.76600 23.53000
H  16.76600 50.02000 31.52900
H  14.94400 52.12300 31.42600
H  13.52900 49.97200 30.24800
H  13.44000 50.45900 31.89500
H  14.57800 49.19300 31.33200
H  16.73900 52.98800 31.86800
H  18.15000 52.38600 31.08800
H  18.33000 52.70000 33.74000
H  18.93300 51.21200 33.25700
H  11.86000 55.42000 28.16100
H  11.40400 53.91400 28.89100
H  10.62000 54.43300 27.38400
H  10.13500 55.04800 25.41800
H  10.59500 56.29500 24.27500
H  11.39600 56.33300 25.86300
H  16.16600 53.29400 21.70700
H  17.80200 51.01500 21.72100
H  15.94100 50.82500 20.53800
H  14.69800 52.13100 20.66900
H  14.77000 50.73600 21.80900
H  19.23700 53.38600 22.70800
H  18.32800 53.74400 21.31700
H  20.28300 52.81800 20.17500
H  19.91900 51.28700 20.83900
H  20.80900 52.47200 21.84800
H  22.21700 49.27100 26.10600
H  21.84400 50.50500 25.00800
H  21.31700 48.84000 24.55400
H  19.73200 50.13300 30.73300
H  18.48300 46.39900 31.86200
H  19.47000 46.86700 33.14500
H  20.23100 45.90400 31.87100

