158

Mg 48.57600 45.23800 43.35600
C  45.39400 45.60200 41.81000
C  49.13000 42.61800 41.11900
C  51.94600 45.32000 43.90200
C  48.16100 48.47300 44.61700
N  47.39700 44.33300 41.63500
C  46.14800 44.60000 41.20200
C  45.69500 43.65700 40.12300
C  46.74200 42.51800 40.14500
C  47.88700 43.18400 41.02600
C  46.31500 41.15600 40.65900
C  45.47500 44.28400 38.65200
C  44.10100 43.90700 37.98900
H  44.24300 43.18000 36.65900
N  50.23100 43.95200 42.83300
C  50.20700 42.98300 41.94300
C  51.50200 42.28200 41.95200
C  52.36300 43.04100 42.80300
C  51.51700 44.15400 43.27900
C  51.78100 41.06000 41.16100
C  53.84500 42.73000 43.06700
O  54.36600 41.77100 42.52700
C  54.71100 43.63100 43.99100
N  49.87000 46.63500 44.16700
C  51.22200 46.43700 44.40000
C  51.83100 47.58300 45.07100
C  50.59300 48.59100 45.37500
C  49.49400 47.87400 44.63100
C  52.75700 47.37400 46.26000
C  50.84100 50.09400 45.10900
C  51.98700 50.68900 45.85800
N  47.03200 46.67700 43.46600
C  47.00300 47.92600 44.01000
C  45.62800 48.41000 44.04000
C  44.94900 47.51600 43.16300
C  45.84300 46.47400 42.84500
C  45.18300 49.61700 44.82500
C  43.72300 47.23200 42.60100
O  42.68500 47.84200 42.65300
C  43.93100 46.01400 41.67200
C  42.90400 45.03100 42.06800
O  41.77900 44.86700 41.50600
O  43.23600 44.49700 43.34800
C  42.19800 43.85700 44.17500
H  49.18800 41.77500 40.42700
H  52.99800 45.30800 44.19200
H  47.99000 49.49800 44.95400
H  44.74500 43.31400 40.53300
H  47.09600 42.39900 39.12100
H  46.32400 40.38300 39.89100
H  45.25300 41.20200 40.90000
H  46.82200 40.75900 41.53900
H  46.30800 44.26200 37.94900
H  45.42200 45.36000 38.82000
H  43.56800 44.82200 37.73100
H  43.45200 43.28300 38.60400
H  50.94000 40.54400 40.69700
H  52.24200 40.34300 41.83900
H  52.55300 41.35600 40.45100
H  54.25000 43.74000 44.97300
H  54.86800 44.60300 43.52400
H  55.64600 43.08200 44.10400
H  52.42500 47.98400 44.25000
H  50.35300 48.48400 46.43200
H  53.49200 48.17800 46.28900
H  53.48500 46.56400 46.21200
H  52.27700 47.42200 47.23700
H  49.99700 50.75600 45.30400
H  51.02500 50.23100 44.04300
H  51.72200 51.71100 46.12900
H  52.89000 50.92400 45.29400
H  52.32100 50.03600 46.66400
H  45.93500 49.86600 45.57400
H  44.22200 49.37100 45.27500
H  45.09200 50.50900 44.20500
H  43.67900 46.33800 40.66200
H  42.51200 42.83700 44.39500
H  41.20200 43.82200 43.73500
H  42.11100 44.43400 45.09600
Mg 41.04100 41.77700 26.46900
C  40.36400 43.87500 29.26000
C  42.50500 39.65500 28.54100
C  42.06600 40.05500 23.71200
C  39.83300 44.34100 24.42400
N  41.39200 41.76700 28.68000
C  40.84800 42.63600 29.60700
C  40.97600 42.09900 31.01300
C  41.91600 40.84000 30.75700
C  41.93100 40.68400 29.23700
C  43.38600 40.92000 31.22700
C  39.65500 41.92100 31.82700
C  39.80900 41.26800 33.25000
H  39.00000 41.87800 34.34400
N  42.06700 40.08800 26.21500
C  42.58000 39.32000 27.16100
C  43.08000 38.09000 26.58800
C  42.87000 38.19800 25.20500
C  42.35800 39.50600 24.97800
C  43.68100 36.96900 27.38700
C  43.09300 37.14500 24.19300
O  42.84800 37.25200 23.00600
C  43.67200 35.82400 24.62400
N  40.90700 42.12700 24.40100
C  41.44000 41.29000 23.44700
C  41.25400 41.87100 22.01400
C  40.18700 43.02600 22.30000
C  40.27600 43.21600 23.78000
C  42.65200 42.38400 21.41100
C  38.70400 42.77300 21.84200
C  38.13900 41.46700 22.25400
N  40.26400 43.71300 26.68800
C  39.87800 44.65500 25.78900
C  39.62700 45.88700 26.43400
C  39.74200 45.62600 27.78700
C  40.15800 44.27700 27.92200
C  39.21400 47.14200 25.79100
C  39.63400 46.23100 29.09200
O  39.35600 47.31500 29.44200
C  40.02000 45.13300 30.13600
C  41.16600 45.57600 31.02000
O  42.31800 45.66000 30.64800
O  40.81200 45.87400 32.26000
C  41.92800 46.19800 33.20100
H  42.67500 38.81000 29.21100
H  42.29000 39.47800 22.81300
H  39.44000 45.17600 23.84000
H  41.62800 42.84800 31.46300
H  41.41700 39.96800 31.17700
H  44.16700 40.86900 30.46800
H  43.46700 40.10800 31.94900
H  43.47100 41.81600 31.84300
H  39.02500 41.34800 31.14700
H  39.18200 42.88000 32.04200
H  40.87900 41.27800 33.46000
H  39.48400 40.23000 33.17700
H  44.48000 36.59900 26.74400
H  42.88700 36.28700 27.69100
H  44.21200 37.42600 28.22200
H  43.21300 35.34000 25.48600
H  44.75700 35.91900 24.68100
H  43.56000 35.19300 23.74200
H  40.78400 41.11400 21.38600
H  40.57900 43.93500 21.84300
H  42.65900 43.47300 21.36300
H  42.82100 41.99200 20.40800
H  43.49600 42.13800 22.05600
H  38.60300 42.89700 20.76400
H  38.01100 43.53900 22.19100
H  37.12500 41.52800 22.64800
H  38.65700 40.97600 23.07800
H  38.18300 40.87200 21.34200
H  39.74200 47.22500 24.84100
H  39.44400 48.00800 26.41100
H  38.13900 47.28600 25.68800
H  39.17500 44.93900 30.79700
H  42.54600 46.96000 32.72700
H  42.40700 45.22700 33.32600
H  41.48000 46.63300 34.09400

