158

Mg 9.58800 3.13900 27.39500
C  10.83700 1.51900 30.31200
C  7.69800 5.10500 29.35600
C  8.12900 4.20900 24.61300
C  11.02200 0.41200 25.56200
N  9.23600 3.19600 29.57700
C  9.94300 2.52700 30.60600
C  9.49900 3.09300 32.05900
C  8.25800 3.95500 31.71500
C  8.44700 4.16300 30.12400
C  6.89700 3.35600 32.18400
C  10.76800 3.83300 32.70500
C  11.20500 3.22300 34.06200
H  10.23500 2.84300 35.18100
N  8.23100 4.55300 27.06900
C  7.65500 5.36400 27.99400
C  6.96000 6.45200 27.33400
C  6.85200 6.10100 25.93700
C  7.72900 4.88100 25.80100
C  6.37400 7.70800 28.01700
C  6.10700 6.75300 24.81700
O  6.02300 6.37300 23.64600
C  5.42600 8.06400 25.07600
N  9.68200 2.44900 25.39400
C  8.99400 3.11800 24.42800
C  9.13500 2.42300 23.06300
C  10.24700 1.44600 23.31400
C  10.40700 1.42700 24.81500
C  7.78100 1.71500 22.62500
C  11.57200 1.90900 22.58500
C  11.88800 1.17200 21.22000
N  10.74900 1.41800 27.78600
C  11.23600 0.43200 26.96700
C  11.97000 -0.62100 27.70900
C  11.89300 -0.21200 29.03600
C  11.09400 1.00900 29.05900
C  12.69900 -1.88200 27.11000
C  12.28900 -0.49900 30.43000
O  12.97200 -1.39800 30.89500
C  11.55100 0.60800 31.31100
C  10.76500 -0.07600 32.40600
O  9.61900 -0.47300 32.33700
O  11.58800 -0.27400 33.51400
C  11.04000 -0.93300 34.69500
H  7.18900 5.77900 30.04800
H  7.86000 4.52800 23.60400
H  11.41400 -0.51200 25.13100
H  9.13400 2.23900 32.63000
H  8.37100 4.94200 32.16400
H  6.91300 2.27700 32.33300
H  6.06000 3.57500 31.52100
H  6.62400 3.90200 33.08800
H  10.55000 4.88500 32.88800
H  11.55900 3.88700 31.95600
H  11.93400 3.98600 34.33700
H  11.80300 2.35400 33.78700
H  5.28700 7.76800 28.07500
H  6.59400 8.57200 27.39100
H  6.86300 7.75500 28.99000
H  6.03100 8.90600 25.41200
H  4.65600 7.81900 25.80700
H  4.82900 8.35200 24.21100
H  9.39700 3.23100 22.38000
H  9.90200 0.45000 23.03800
H  7.22400 2.51500 22.13900
H  7.12700 1.46400 23.46000
H  7.93600 0.90400 21.91400
H  12.34400 1.53500 23.25700
H  11.67800 2.98000 22.41000
H  12.07700 1.98500 20.51900
H  11.09500 0.58700 20.75400
H  12.80600 0.59600 21.33700
H  12.07300 -2.31100 26.32700
H  12.81000 -2.66100 27.86400
H  13.68300 -1.58400 26.74800
H  12.35200 1.16900 31.79200
H  10.24100 -0.35000 35.15300
H  11.89600 -1.18300 35.32300
H  10.56100 -1.84100 34.32900
Mg 47.03600 34.57700 27.90400
C  45.23800 32.59800 30.34600
C  47.15300 37.08500 30.33500
C  48.05900 36.75000 25.50300
C  46.18000 32.19600 25.49700
N  46.36800 34.75900 30.10200
C  45.74800 33.80300 30.89300
C  45.86200 34.34500 32.37200
C  45.95600 35.88900 32.20900
C  46.51300 35.93000 30.81000
C  44.54600 36.63100 32.41400
C  47.16000 33.75200 33.04700
C  47.08000 33.46500 34.58900
H  46.01800 34.28900 35.39600
N  47.54300 36.59700 27.93200
C  47.60200 37.40200 29.00500
C  48.21800 38.61100 28.63500
C  48.64200 38.48700 27.28900
C  48.10000 37.21100 26.83600
C  48.43400 39.76900 29.58900
C  49.37400 39.51600 26.29700
O  49.76200 39.30000 25.17200
C  49.71800 40.86100 26.77000
N  47.04100 34.49300 25.71400
C  47.48800 35.52500 25.00000
C  47.40800 35.09500 23.49400
C  47.19500 33.56100 23.55900
C  46.69500 33.39300 24.99400
C  46.33700 35.81700 22.62700
C  48.55000 32.78600 23.39900
C  48.48700 31.66200 22.33900
N  46.14300 32.71600 27.94200
C  45.84400 31.89600 26.85200
C  45.24100 30.60300 27.38100
C  44.97300 30.91200 28.72700
C  45.48600 32.23700 29.03400
C  44.83600 29.30800 26.60100
C  44.38000 30.39200 29.87100
O  43.98800 29.22400 30.11300
C  44.45500 31.41300 30.95900
C  44.74500 30.95100 32.34500
O  45.88800 30.63100 32.65300
O  43.62400 31.10900 33.12500
C  43.86900 30.79800 34.56200
H  47.29000 37.84100 31.11100
H  48.41100 37.44800 24.74100
H  46.10900 31.44200 24.71000
H  44.90100 34.07900 32.81200
H  46.72000 36.23200 32.90600
H  44.56700 37.32300 33.25500
H  43.77700 35.86500 32.51800
H  44.41400 37.21700 31.50500
H  47.96400 34.47500 32.90200
H  47.29700 32.80400 32.52700
H  48.05200 33.64600 35.04600
H  46.92700 32.40300 34.77700
H  48.37400 39.40800 30.61500
H  47.53300 40.36800 29.45400
H  49.28200 40.45200 29.53000
H  50.56100 40.77700 27.45600
H  48.90500 41.32400 27.32900
H  50.03000 41.62800 26.06100
H  48.39200 35.34300 23.09700
H  46.42700 33.20000 22.87500
H  45.69200 36.35700 23.32000
H  45.79800 35.09700 22.01200
H  46.84100 36.53300 21.97700
H  48.86300 32.29000 24.31800
H  49.36000 33.47500 23.15900
H  49.39100 31.54900 21.73900
H  47.56200 31.64400 21.76300
H  48.45200 30.81700 23.02600
H  45.61100 29.10400 25.86200
H  43.94600 29.34500 25.97300
H  44.75700 28.52700 27.35800
H  43.42100 31.75500 30.99300
H  43.01700 30.32600 35.05300
H  44.10700 31.76300 35.00800
H  44.69500 30.08900 34.62000

