158

Mg 45.22800 3.15800 47.73200
C  43.67600 6.03500 46.71000
C  42.42400 1.35500 47.08000
C  47.08500 0.33000 47.48200
C  48.24400 5.03900 48.00900
N  43.26000 3.69800 47.01200
C  42.80700 4.93400 46.63300
C  41.26100 4.94500 46.27300
C  40.85200 3.46500 46.66900
C  42.27300 2.81400 46.93700
C  39.84600 3.29300 47.87200
C  41.10000 5.37800 44.79900
C  39.80100 6.26800 44.59400
H  38.95000 5.96500 43.32000
N  44.77400 1.08700 47.56500
C  43.55700 0.51700 47.34100
C  43.68400 -0.91200 47.27700
C  45.06400 -1.22300 47.38800
C  45.72600 0.05700 47.47800
C  42.57100 -1.91900 46.75400
C  45.66400 -2.63600 47.31800
O  44.92800 -3.58300 47.02000
C  47.12400 -2.78600 47.66700
N  47.35000 2.78300 47.41300
C  47.82100 1.53700 47.54100
C  49.33500 1.53100 47.67700
C  49.71500 3.06200 47.74500
C  48.37500 3.69100 47.70700
C  50.11600 0.52700 48.61100
C  50.61200 3.55100 46.56400
C  51.65000 4.62000 46.89300
N  45.86300 5.15100 47.62300
C  47.05900 5.77800 47.79000
C  46.97800 7.17600 47.53300
C  45.65800 7.35700 46.96500
C  45.00400 6.06700 47.14200
C  48.09500 8.13200 47.62800
C  44.74100 8.26900 46.33900
O  44.96200 9.37800 45.85600
C  43.40300 7.55800 46.27600
C  42.45400 8.10400 47.33800
O  42.20500 7.60800 48.41400
O  41.79900 9.15800 46.74100
C  40.55800 9.53600 47.46800
H  41.46200 0.84400 47.01000
H  47.83600 -0.46300 47.50700
H  49.15100 5.59500 48.25900
H  40.80100 5.66900 46.94600
H  40.50600 2.95400 45.77000
H  39.41000 4.21800 48.25000
H  40.48000 2.94000 48.68500
H  39.00000 2.63100 47.68700
H  41.05100 4.53600 44.10900
H  41.98100 5.93400 44.47800
H  40.15100 7.29700 44.50800
H  39.23300 6.15200 45.51700
H  42.32400 -2.70000 47.47300
H  42.71100 -2.53000 45.86300
H  41.64800 -1.36300 46.59100
H  47.78200 -2.39200 46.89200
H  47.24300 -3.86900 47.63800
H  47.39100 -2.40100 48.65100
H  49.60700 1.28000 46.65200
H  50.12300 3.34500 48.71500
H  49.47000 -0.26400 48.99000
H  50.50800 1.15600 49.41000
H  50.96900 0.06000 48.11900
H  50.07000 3.88100 45.67700
H  51.22900 2.75900 46.14200
H  51.77800 5.37800 46.12100
H  52.58400 4.10900 47.12500
H  51.23200 5.21600 47.70400
H  48.56900 7.92300 48.58700
H  47.65600 9.12000 47.76500
H  48.83300 8.16000 46.82600
H  43.04600 7.64300 45.24900
H  40.88100 10.01000 48.39500
H  39.89100 8.67800 47.54900
H  40.00400 10.33200 46.96900
Mg 47.26400 25.01400 27.63100
C  48.12000 27.26200 30.13700
C  46.55600 22.72400 30.06500
C  46.24300 23.02500 25.21700
C  48.57000 27.28800 25.25200
N  47.46900 25.00900 29.84800
C  47.61500 26.09500 30.62400
C  47.41500 25.70700 32.10200
C  47.29600 24.17200 32.05700
C  47.12600 23.88800 30.52600
C  48.35300 23.30300 32.72400
C  46.22100 26.43900 32.73300
C  45.60900 25.93400 34.12100
H  45.38400 26.97800 35.20300
N  46.55400 23.01600 27.64800
C  46.30200 22.25200 28.74400
C  45.76000 21.00100 28.27400
C  45.56100 21.16900 26.85900
C  46.19800 22.43500 26.49400
C  45.35200 19.84300 29.20600
C  44.79900 20.22900 25.94200
O  44.58400 20.51700 24.76000
C  44.18900 18.97600 26.37700
N  47.49400 25.08000 25.55100
C  46.88700 24.16700 24.80300
C  46.91100 24.56800 23.33200
C  47.67900 25.94400 23.28600
C  47.97600 26.11300 24.77800
C  47.47700 23.44800 22.41600
C  46.81700 27.06900 22.76300
C  47.54400 28.12600 21.96200
N  48.23700 26.85200 27.63300
C  48.73100 27.64900 26.60300
C  49.36400 28.86800 27.22800
C  49.11200 28.71600 28.57000
C  48.50100 27.47500 28.82700
C  50.10300 29.96800 26.54500
C  49.18000 29.42700 29.87000
O  49.61900 30.53000 30.13900
C  48.41800 28.53900 30.93800
C  49.24300 28.37300 32.21400
O  50.31300 27.87000 32.40000
O  48.54000 29.05900 33.19500
C  49.10300 29.26400 34.49400
H  46.33500 21.95500 30.80700
H  45.84500 22.45600 24.37400
H  48.88800 27.87900 24.39000
H  48.31200 26.03100 32.63000
H  46.34900 23.91200 32.52900
H  49.07000 23.96500 33.21000
H  48.73100 22.59300 31.98800
H  47.83700 22.72500 33.49000
H  45.49000 26.47100 31.92400
H  46.37200 27.50400 32.90600
H  46.25600 25.20000 34.60200
H  44.60000 25.53400 34.01600
H  44.32100 19.52900 29.04300
H  45.32200 20.06200 30.27300
H  46.06200 19.05600 28.95300
H  43.97800 18.25800 25.58400
H  43.24700 19.00000 26.92400
H  44.93400 18.48300 27.00200
H  45.85000 24.64100 23.09300
H  48.57500 25.84000 22.67500
H  48.29000 22.97400 22.96600
H  47.95300 24.02800 21.62500
H  46.72300 22.72100 22.11300
H  46.35800 27.50900 23.64900
H  46.06800 26.64400 22.09500
H  48.54600 27.81100 21.66900
H  47.68200 28.97100 22.63700
H  47.10600 28.38600 20.99800
H  49.55100 30.29200 25.66200
H  51.10400 29.71500 26.19700
H  50.06100 30.83200 27.20900
H  47.53500 29.04900 31.32300
H  49.17000 30.32800 34.72000
H  50.13500 28.91600 34.47300
H  48.65000 28.79000 35.36500

