158

Mg 2.12400 -3.34000 45.62400
C  5.57700 -2.23200 45.28400
C  1.37600 -1.35800 43.00500
C  -0.80100 -4.66900 45.76100
C  3.47700 -6.09100 47.44000
N  3.39800 -2.11800 44.20800
C  4.73300 -1.77000 44.25900
C  5.08500 -0.82600 43.10600
C  3.69300 -0.24800 42.75600
C  2.77200 -1.34500 43.29500
C  3.31100 1.14400 43.34100
C  5.76200 -1.61900 41.95500
C  7.06300 -1.03700 41.36900
H  7.08600 -0.05300 40.19500
N  0.45900 -2.96100 44.66700
C  0.30600 -2.05800 43.60900
C  -1.07700 -1.99500 43.29000
C  -1.72100 -2.78400 44.20000
C  -0.71600 -3.51700 44.97900
C  -1.66900 -1.02400 42.27500
C  -3.25800 -2.85300 44.40200
O  -3.92000 -2.23300 43.60400
C  -3.94300 -3.47500 45.58900
N  1.39000 -5.20800 46.47000
C  0.10700 -5.45600 46.52300
C  -0.20600 -6.67500 47.34800
C  1.21400 -7.27400 47.71800
C  2.09000 -6.17600 47.10000
C  -1.27800 -6.39000 48.44200
C  1.65700 -8.66000 47.26700
C  1.19300 -9.07000 45.81600
N  4.06600 -3.99700 46.30500
C  4.38300 -5.10200 47.06700
C  5.77500 -5.04700 47.44500
C  6.31000 -3.97300 46.73500
C  5.22000 -3.29800 46.06700
C  6.43100 -6.05200 48.44400
C  7.45700 -3.21100 46.43600
O  8.55900 -3.25500 46.93400
C  7.06700 -2.06300 45.46400
C  7.39900 -0.67600 46.08900
O  7.08800 -0.28100 47.15800
O  7.99100 0.18500 45.11800
C  8.20700 1.63300 45.52100
H  1.18500 -0.64900 42.19600
H  -1.86000 -4.92900 45.82100
H  3.84500 -6.85500 48.12800
H  5.65800 0.04700 43.41800
H  3.45000 -0.27000 41.69400
H  4.18400 1.69600 43.69000
H  2.62300 0.97500 44.17000
H  2.81400 1.75500 42.58800
H  5.14000 -1.71500 41.06500
H  6.08800 -2.57800 42.35800
H  7.70100 -1.85000 41.02000
H  7.59800 -0.47600 42.13500
H  -1.95400 -0.04700 42.66600
H  -2.60300 -1.40800 41.86500
H  -0.91800 -0.89700 41.49600
H  -3.89400 -4.54500 45.39100
H  -4.96500 -3.11700 45.71500
H  -3.40400 -3.34900 46.52800
H  -0.65300 -7.36900 46.63600
H  1.33400 -7.28500 48.80100
H  -2.01300 -5.61400 48.23000
H  -0.69000 -6.14400 49.32700
H  -1.69300 -7.38300 48.61400
H  1.01400 -9.40700 47.73100
H  2.72500 -8.86300 47.34700
H  0.49400 -9.89300 45.96300
H  2.07200 -9.40700 45.26800
H  0.68600 -8.24700 45.31200
H  5.65100 -6.44900 49.09400
H  7.18500 -5.47100 48.97600
H  6.83200 -6.73900 47.70000
H  7.54000 -2.06700 44.48200
H  7.24600 2.13900 45.60700
H  8.74900 2.08200 44.68800
H  8.85600 1.75600 46.38900
Mg -11.62200 37.46800 42.38300
C  -9.70800 34.74000 40.93800
C  -9.13800 39.50200 41.15100
C  -13.69800 39.98100 42.88500
C  -14.14700 35.11600 43.19000
N  -9.67400 37.17200 41.16600
C  -9.09400 35.99600 40.70900
C  -7.79300 36.21200 39.98000
C  -7.51700 37.68000 40.49100
C  -8.86200 38.19100 40.97400
C  -6.40200 37.75700 41.59300
C  -8.02600 36.03100 38.40800
C  -7.03900 35.18000 37.63600
H  -5.90200 35.82500 36.81800
N  -11.46100 39.56200 42.11700
C  -10.32500 40.23100 41.62000
C  -10.58100 41.60500 41.60900
C  -11.88500 41.84900 42.17800
C  -12.44200 40.44000 42.36900
C  -9.60800 42.69400 41.22100
C  -12.53000 43.12900 42.49100
O  -11.98900 44.15700 42.12500
C  -13.80900 43.27700 43.26800
N  -13.68400 37.52100 42.75200
C  -14.26600 38.68700 43.07700
C  -15.71700 38.47000 43.41000
C  -15.85600 36.93100 43.51600
C  -14.54000 36.48400 43.08200
C  -16.12300 39.18500 44.74900
C  -17.13100 36.42700 42.82200
C  -17.07900 36.35900 41.31400
N  -11.83100 35.37000 42.24800
C  -12.91000 34.62700 42.65600
C  -12.65900 33.24100 42.34000
C  -11.40300 33.26100 41.66100
C  -10.93800 34.52900 41.66200
C  -13.58500 32.01200 42.44400
C  -10.41600 32.39800 41.05100
O  -10.42100 31.18900 40.86500
C  -9.31500 33.36500 40.42700
C  -8.04800 32.77300 40.86400
O  -7.10800 32.61300 40.09800
O  -8.10000 32.32600 42.18800
C  -6.78800 32.39600 42.91300
H  -8.35300 40.18200 40.81300
H  -14.27200 40.83700 43.24600
H  -14.89300 34.32900 43.31500
H  -7.17100 35.43600 40.42500
H  -7.14500 38.25100 39.64100
H  -5.88800 36.80200 41.69800
H  -6.70300 38.22900 42.52800
H  -5.57100 38.32100 41.16900
H  -7.96000 36.96700 37.85300
H  -8.99900 35.56000 38.26700
H  -7.64800 34.49900 37.04100
H  -6.59300 34.47900 38.34100
H  -9.24600 43.23200 42.09700
H  -10.09600 43.36700 40.51700
H  -8.72600 42.28100 40.73000
H  -14.03600 44.29600 43.58400
H  -13.71900 42.61900 44.13200
H  -14.63200 42.92800 42.64500
H  -16.21700 38.77500 42.49000
H  -15.91800 36.53200 44.52800
H  -16.27800 40.25200 44.58600
H  -15.38000 39.23400 45.54400
H  -16.92800 38.61100 45.20800
H  -18.02200 36.95800 43.15800
H  -17.25000 35.38000 43.10300
H  -17.43000 35.36000 41.05400
H  -16.09500 36.50700 40.86900
H  -17.71900 37.14700 40.91700
H  -13.17400 31.08600 42.04100
H  -14.45000 32.32700 41.86100
H  -13.77400 31.58900 43.43100
H  -9.31600 33.29900 39.33900
H  -6.24800 31.46300 43.07500
H  -7.03100 32.65900 43.94200
H  -6.13400 33.14200 42.46100

