158

Mg 48.90300 46.46200 44.11800
C  45.66400 46.63000 42.84500
C  49.36100 43.54100 42.58500
C  52.11500 46.56100 45.09700
C  48.73900 49.99400 44.69400
N  47.60400 45.30500 42.82100
C  46.34800 45.46900 42.40900
C  45.86600 44.24800 41.64900
C  47.02600 43.29500 41.62700
C  48.07600 44.10300 42.31400
C  46.66800 41.92100 42.32300
C  45.27700 44.57500 40.25300
C  43.72400 44.54200 40.02800
H  43.17000 43.80400 38.80300
N  50.45200 45.21800 43.91600
C  50.44700 44.02200 43.27000
C  51.76900 43.37500 43.34500
C  52.48100 44.09800 44.31000
C  51.72000 45.39200 44.49500
C  52.13400 42.14400 42.65300
C  53.90000 43.85900 44.74600
O  54.56800 42.90800 44.35400
C  54.59200 44.64900 45.81200
N  50.29400 48.12900 44.61800
C  51.52200 47.85500 45.10000
C  52.26700 49.12700 45.66300
C  51.19400 50.25400 45.30600
C  50.01900 49.40600 44.88400
C  52.45500 49.00800 47.22700
C  51.57000 51.19200 44.10400
C  50.78100 52.47000 43.72000
N  47.52300 47.92900 43.81000
C  47.57300 49.32500 44.09000
C  46.26400 49.88700 43.89500
C  45.45800 48.81300 43.45600
C  46.30800 47.71600 43.31900
C  45.80700 51.28400 44.18400
C  44.14200 48.40700 43.04200
O  43.05300 48.99800 42.94800
C  44.14000 46.92100 42.63500
C  43.16800 46.17200 43.47800
O  43.43700 45.63400 44.52900
O  41.90800 46.23600 42.88300
C  40.72900 45.63300 43.55300
H  49.35100 42.51600 42.20800
H  53.05100 46.61300 45.65600
H  48.59600 51.03800 44.98000
H  45.05800 43.78700 42.21700
H  47.38200 42.99200 40.64200
H  45.60700 41.81200 42.54500
H  47.21500 41.81600 43.26100
H  47.00100 41.24100 41.54000
H  45.83300 44.01700 39.49900
H  45.54300 45.60700 40.02500
H  43.47700 45.58900 39.85200
H  43.16200 44.32100 40.93400
H  52.87100 42.47400 41.92200
H  51.33100 41.54000 42.23000
H  52.61900 41.47500 43.36400
H  54.01900 44.87900 46.71000
H  54.90800 45.60200 45.38700
H  55.34900 43.95000 46.16700
H  53.22100 49.11800 45.13600
H  50.91900 50.93600 46.11200
H  52.97600 48.08300 47.47200
H  51.46400 49.08700 47.67300
H  52.98800 49.88000 47.60500
H  51.61500 50.49500 43.26700
H  52.61300 51.47000 44.25500
H  49.95200 52.67900 44.39600
H  50.21500 52.31600 42.80100
H  51.46300 53.30500 43.56000
H  46.06000 51.52200 45.21700
H  44.77000 51.56800 44.00300
H  46.33300 51.95200 43.50100
H  43.96600 46.84700 41.56200
H  40.02500 45.42600 42.74800
H  40.24700 46.25800 44.30500
H  41.12900 44.69100 43.92900
Mg -10.28100 38.98600 40.93300
C  -8.39600 36.19400 39.88400
C  -7.84800 41.02600 39.34200
C  -12.41700 41.48700 41.24600
C  -12.63900 36.71800 42.23100
N  -8.43400 38.60700 39.61400
C  -7.79700 37.39400 39.39700
C  -6.46300 37.55500 38.54100
C  -6.24600 39.12800 38.76800
C  -7.60700 39.62300 39.29200
C  -5.00500 39.50000 39.63400
C  -6.63800 37.22000 37.05400
C  -5.73800 36.29100 36.33900
H  -5.33500 36.56800 34.95400
N  -10.10900 41.02000 40.48700
C  -9.07600 41.67200 39.87200
C  -9.33200 43.08700 40.00200
C  -10.69300 43.28200 40.46700
C  -11.12700 41.87100 40.78400
C  -8.27500 44.22300 39.69200
C  -11.36800 44.62000 40.67200
O  -10.73300 45.65800 40.45600
C  -12.78000 44.83000 41.30800
N  -12.37900 39.03300 41.38400
C  -12.99500 40.24200 41.51500
C  -14.52400 39.97500 41.87800
C  -14.54800 38.42800 42.22900
C  -13.10000 38.02500 41.93500
C  -15.11200 40.81000 43.07600
C  -15.61800 37.64500 41.42100
C  -16.14800 36.35000 42.09100
N  -10.48700 36.88700 41.10300
C  -11.44700 36.17500 41.83100
C  -11.01700 34.79100 41.87400
C  -9.82500 34.73600 41.13300
C  -9.62000 36.01700 40.62600
C  -11.65600 33.64500 42.55100
C  -8.79900 33.86400 40.55900
O  -8.62000 32.65000 40.67700
C  -7.83500 34.78700 39.74500
C  -6.56500 34.61100 40.35600
O  -5.78100 33.67900 40.08000
O  -6.20500 35.59200 41.34600
C  -5.03900 35.34300 42.17200
H  -7.02800 41.65900 38.99700
H  -13.05600 42.37200 41.21800
H  -13.25700 35.99100 42.76300
H  -5.70700 36.88300 38.94500
H  -5.96500 39.62200 37.83800
H  -4.20800 39.81900 38.96200
H  -4.59800 38.56800 40.02600
H  -5.22800 40.15000 40.48000
H  -6.50500 38.13800 36.48200
H  -7.66000 36.85100 36.97600
H  -6.23600 35.32400 36.26800
H  -4.88900 36.11700 37.00000
H  -8.33400 44.89600 38.83600
H  -7.42000 43.59900 39.43200
H  -7.99100 44.77600 40.58700
H  -12.94900 45.87300 41.57400
H  -12.93600 44.36700 42.28300
H  -13.45900 44.59600 40.48700
H  -15.13100 40.21200 41.00500
H  -14.71000 38.17700 43.27700
H  -14.32000 41.47300 43.42400
H  -15.40500 40.24800 43.96400
H  -15.91300 41.46200 42.72700
H  -15.13200 37.23000 40.53700
H  -16.40900 38.35300 41.17500
H  -17.23500 36.41300 42.04400
H  -15.85600 36.10700 43.11300
H  -15.66200 35.60100 41.46600
H  -12.72300 33.84600 42.64300
H  -11.27800 33.75700 43.56700
H  -11.40400 32.65200 42.17600
H  -7.68400 34.46500 38.71500
H  -5.08000 36.05000 43.00100
H  -4.13200 35.54500 41.60200
H  -5.11300 34.32200 42.54500

