158

Mg 25.98000 50.08100 26.75900
C  23.97300 51.58700 29.18300
C  28.17800 49.03300 29.14100
C  27.91200 48.77600 24.31900
C  23.95100 51.58900 24.33700
N  26.05400 50.32400 28.97300
C  25.09200 50.91700 29.72600
C  25.38400 50.68200 31.25400
C  26.81000 50.04600 31.21400
C  27.08200 49.80200 29.69700
C  27.89600 50.84700 31.93700
C  24.33100 49.66400 31.80500
C  23.80700 50.07900 33.23900
H  24.75500 50.73100 34.28000
N  27.81800 49.01400 26.72400
C  28.53200 48.73100 27.81500
C  29.63200 47.89100 27.37300
C  29.53500 47.76100 25.98000
C  28.39200 48.50100 25.59300
C  30.74600 47.34900 28.29400
C  30.41300 46.98400 25.00500
O  30.28400 47.09800 23.78400
C  31.35900 46.01800 25.50100
N  25.89100 50.12800 24.67800
C  26.79600 49.55900 23.91500
C  26.53900 49.78200 22.39000
C  25.16300 50.47200 22.42100
C  25.03300 50.79000 23.90700
C  27.75300 50.50500 21.71700
C  24.00000 49.61200 21.76300
C  23.59900 49.97500 20.31900
N  24.26300 51.27300 26.69100
C  23.60500 51.94000 25.67000
C  22.47500 52.66200 26.11400
C  22.59700 52.49300 27.50500
C  23.65500 51.71700 27.77300
C  21.46400 53.39300 25.19700
C  22.05200 52.83600 28.80400
O  21.05000 53.48800 29.11600
C  22.93500 52.24900 29.91600
C  23.32300 53.34300 30.80600
O  24.10700 54.27400 30.54000
O  22.86800 53.04200 32.04900
C  23.19500 54.03500 33.09600
H  28.97400 48.79400 29.85000
H  28.50900 48.44400 23.46700
H  23.42500 52.09700 23.52600
H  25.45900 51.61200 31.81900
H  26.80000 49.07400 31.70800
H  28.04400 50.47400 32.95000
H  27.51700 51.86600 32.01400
H  28.84200 50.71000 31.41200
H  24.67700 48.65300 32.01900
H  23.47800 49.56400 31.13400
H  23.27000 49.25400 33.70700
H  23.00400 50.78500 33.03000
H  30.60000 46.26900 28.29400
H  30.62300 47.66800 29.32900
H  31.74500 47.59100 27.93000
H  32.25300 46.48000 25.92200
H  31.70800 45.42000 24.65900
H  30.98800 45.22500 26.15000
H  26.50000 48.76800 21.99200
H  25.29000 51.39100 21.84800
H  27.61700 51.56300 21.49400
H  27.89500 49.91100 20.81400
H  28.72300 50.50100 22.21400
H  23.16700 49.73400 22.45600
H  24.32200 48.57100 21.74200
H  23.82400 49.16300 19.62700
H  24.28400 50.74300 19.96000
H  22.56000 50.28800 20.21600
H  22.04700 53.93900 24.45600
H  21.03000 54.16500 25.83300
H  20.71000 52.73400 24.76700
H  22.29100 51.54200 30.44100
H  24.25800 54.25000 33.20600
H  22.73400 53.81000 34.05800
H  22.94100 55.06500 32.84500
Mg 8.96000 48.79200 25.88600
C  6.78100 48.84700 28.55100
C  11.47000 50.13400 27.79700
C  10.90900 48.39100 23.27200
C  6.18300 47.90400 23.80800
N  9.11500 49.39000 27.92600
C  8.12500 49.14800 28.89600
C  8.62100 49.69300 30.33200
C  9.98700 50.48000 29.95900
C  10.21400 50.04400 28.45900
C  10.00400 52.03000 30.11700
C  8.77700 48.62700 31.45000
C  8.23800 49.04600 32.82900
H  8.27500 48.04600 34.01600
N  10.97200 49.12700 25.60400
C  11.88800 49.64900 26.52000
C  13.18300 49.54200 25.93000
C  13.08700 48.98900 24.59200
C  11.58200 48.88300 24.37900
C  14.44000 49.73800 26.85900
C  14.16900 48.59200 23.62400
O  13.99900 48.16300 22.49000
C  15.51500 48.82100 23.99500
N  8.57100 48.49700 23.76300
C  9.61800 48.29500 22.91900
C  9.14200 47.80700 21.55300
C  7.61600 47.82900 21.70000
C  7.44800 48.02100 23.21400
C  9.70300 48.36500 20.20200
C  6.85200 46.56600 21.15600
C  5.45800 46.77000 20.40900
N  6.84500 48.53400 26.09400
C  5.87700 48.26000 25.14800
C  4.52700 48.19200 25.91200
C  4.81700 48.44600 27.27600
C  6.22200 48.60200 27.30600
C  3.13700 47.97100 25.26400
C  4.30900 48.47300 28.57700
O  3.20300 48.29700 29.08900
C  5.48400 48.91700 29.46900
C  5.37600 47.91900 30.55900
O  5.77400 46.74900 30.47500
O  4.72400 48.40100 31.67800
C  4.57300 47.48600 32.78800
H  12.26500 50.60500 28.37900
H  11.48500 47.99400 22.43400
H  5.34200 47.50700 23.23600
H  7.87500 50.36100 30.76400
H  10.86600 50.20000 30.53900
H  10.29500 52.30700 31.13000
H  9.03600 52.45800 29.85400
H  10.69800 52.52500 29.43700
H  9.83600 48.38700 31.54400
H  8.19600 47.79600 31.04900
H  7.15800 49.14500 32.72100
H  8.72600 49.98600 33.08700
H  14.26500 49.88900 27.92500
H  14.99700 50.57200 26.43400
H  14.98200 48.81300 26.66000
H  15.88500 48.11800 24.74100
H  15.58600 49.88600 24.21600
H  16.23700 48.71200 23.18600
H  9.55600 46.80000 21.51000
H  7.19100 48.75900 21.32200
H  10.09000 47.54600 19.59600
H  10.59900 48.95400 20.39700
H  8.96600 48.87600 19.58200
H  6.57100 45.85400 21.93200
H  7.54100 46.01100 20.51900
H  4.75700 46.04200 20.81900
H  5.69700 46.58700 19.36200
H  5.13600 47.79500 20.59200
H  2.75600 48.88200 24.80300
H  2.45500 47.40900 25.90100
H  3.55400 47.23000 24.58100
H  5.30800 49.95900 29.73900
H  4.02000 48.08200 33.51400
H  5.55300 47.19000 33.16100
H  3.95600 46.62100 32.54200

