158

Mg 49.54600 46.36000 43.08300
C  46.40600 47.02900 41.57500
C  49.49900 43.30200 41.26200
C  52.75700 46.06400 43.70200
C  49.51900 49.70500 44.26600
N  48.18000 45.37000 41.44700
C  46.91200 45.81200 41.07200
C  46.26900 44.86300 40.07400
C  47.14300 43.54300 40.27000
C  48.38500 44.09800 41.06000
C  46.48700 42.40100 40.99000
C  46.36600 45.47700 38.62800
C  45.22100 44.90300 37.70100
H  45.69300 44.34900 36.32400
N  50.99500 44.87300 42.64600
C  50.70600 43.65800 41.97600
C  51.96600 42.91500 41.97100
C  52.96900 43.64500 42.63300
C  52.27700 44.92500 43.01400
C  52.16200 41.62300 41.31500
C  54.48300 43.27300 42.86400
O  54.95800 42.18700 42.55100
C  55.37000 44.21400 43.55200
N  50.94100 47.76700 43.62300
C  52.15600 47.31500 43.92300
C  53.05700 48.50400 44.49300
C  52.02400 49.65000 44.78000
C  50.76100 49.01900 44.22300
C  53.95800 48.14400 45.73000
C  52.40300 51.08800 44.09300
C  52.11900 52.35400 44.99500
N  48.16900 47.97500 43.19400
C  48.31000 49.23300 43.72800
C  46.95600 49.82400 43.66000
C  46.20300 49.01800 42.87700
C  46.96500 47.90400 42.53100
C  46.48700 51.18200 44.08500
C  44.87200 48.92200 42.25600
O  43.91700 49.70300 42.27300
C  44.96000 47.58300 41.32700
C  43.96400 46.72300 41.92600
O  44.17600 45.93200 42.86400
O  42.77700 46.96200 41.38000
C  41.67900 46.04000 41.73200
H  49.57200 42.29600 40.84300
H  53.80500 46.06200 44.01200
H  49.48300 50.64200 44.82600
H  45.24000 44.67500 40.38100
H  47.41500 43.18900 39.27500
H  46.06400 41.60000 40.38400
H  45.79300 42.73100 41.76300
H  47.10800 41.94200 41.76000
H  47.29500 45.32500 38.07800
H  46.19000 46.55300 38.61700
H  44.42600 45.63200 37.54900
H  44.89800 43.93600 38.08700
H  52.71000 40.94400 41.96700
H  52.76900 41.93600 40.46500
H  51.38500 41.07400 40.78300
H  55.02200 44.28800 44.58200
H  55.44100 45.21300 43.12200
H  56.39700 43.85900 43.63800
H  53.69200 49.04200 43.78900
H  51.89900 49.73400 45.85900
H  53.93300 47.08600 45.99200
H  53.67000 48.72500 46.60600
H  54.96900 48.45100 45.46300
H  51.74300 51.24300 43.24000
H  53.41900 51.17900 43.70900
H  53.10400 52.61700 45.38100
H  51.57000 52.01700 45.87500
H  51.58800 53.14500 44.46700
H  45.64200 51.43700 43.44600
H  47.27300 51.93700 44.04600
H  46.05600 51.00500 45.07100
H  44.83900 47.86200 40.28000
H  40.74100 46.36000 41.27900
H  41.45800 46.18700 42.78900
H  41.87000 44.99800 41.47800
Mg 50.15300 35.38800 27.42500
C  47.93200 33.74200 29.59600
C  50.48300 37.88800 29.64300
C  52.01600 36.80000 25.15300
C  49.11400 32.97600 24.86900
N  49.24900 35.70800 29.49600
C  48.47800 34.92500 30.21500
C  48.42300 35.42500 31.68200
C  48.93000 36.90100 31.50000
C  49.63100 36.82600 30.09100
C  47.78800 38.01200 31.63200
C  49.24100 34.63200 32.67600
C  48.80800 34.56800 34.12300
H  47.63600 35.42000 34.52400
N  51.14500 37.11000 27.44400
C  51.21100 37.99800 28.45000
C  52.04800 39.11300 28.01300
C  52.42100 38.87200 26.69500
C  51.85000 37.52600 26.34500
C  52.30400 40.23900 28.99800
C  53.14500 39.75700 25.77300
O  53.37800 39.36000 24.65700
C  53.66700 41.14900 26.21700
N  50.31700 35.09400 25.14100
C  51.24200 35.76500 24.54100
C  51.66500 35.23300 23.22200
C  50.58800 34.08500 22.96100
C  49.97600 34.00900 24.40400
C  51.66900 36.34000 22.05600
C  51.11900 32.78400 22.48700
C  51.56300 31.81800 23.67300
N  48.74700 33.74200 27.21000
C  48.51000 32.89400 26.12600
C  47.54500 31.92500 26.63000
C  47.23200 32.28500 27.94600
C  48.10000 33.30200 28.30100
C  47.00400 30.78500 25.77500
C  46.49600 31.86200 29.08800
O  45.76400 30.89200 29.27400
C  46.81800 32.91600 30.17600
C  47.06500 32.11200 31.39800
O  48.12000 31.54400 31.66600
O  45.94300 32.00000 32.13600
C  46.17300 31.49300 33.49700
H  50.64700 38.56900 30.48100
H  52.68200 37.10700 24.34400
H  48.87300 32.21100 24.12700
H  47.38600 35.44600 32.01800
H  49.72600 37.10100 32.21700
H  46.83900 37.53200 31.87100
H  47.66200 38.43700 30.63600
H  48.03600 38.78300 32.36200
H  50.30100 34.87800 32.72700
H  49.29800 33.61400 32.29200
H  49.65600 34.63700 34.80500
H  48.58500 33.51700 34.30900
H  53.35300 40.27600 29.29300
H  51.76700 40.24900 29.94600
H  51.96800 41.17400 28.55100
H  52.83500 41.83400 26.38300
H  54.31700 41.56700 25.44900
H  54.22100 41.03400 27.14900
H  52.69600 34.87800 23.23500
H  49.74600 34.32200 22.31100
H  51.30900 37.29500 22.44000
H  50.97300 35.97000 21.30200
H  52.67200 36.45200 21.64600
H  52.03300 33.00500 21.93500
H  50.38400 32.28800 21.85300
H  51.76100 32.26300 24.64800
H  52.54300 31.45600 23.36200
H  50.89900 30.96400 23.80900
H  46.33200 31.28200 25.07500
H  46.44500 30.00800 26.29600
H  47.73400 30.28900 25.13600
H  45.99600 33.62600 30.26800
H  45.46900 31.95400 34.19000
H  47.13700 31.85200 33.85900
H  45.98900 30.42000 33.55400

