158

Mg 35.57400 2.24200 28.96300
C  33.55300 3.35000 31.47500
C  38.20500 2.12900 31.20700
C  37.68300 1.59700 26.43400
C  32.99700 2.86400 26.68300
N  35.81500 2.78900 31.06000
C  34.82200 3.09900 31.92600
C  35.29600 3.17300 33.37000
C  36.83900 3.19200 33.13200
C  37.03100 2.72200 31.71200
C  37.46900 4.54900 33.58300
C  34.79900 2.03300 34.23600
C  34.37400 2.34900 35.69400
H  34.78700 3.59100 36.36700
N  37.61400 1.69900 28.89600
C  38.51700 1.68500 29.94400
C  39.68900 1.03100 29.53800
C  39.61900 0.85400 28.07900
C  38.25800 1.36300 27.71800
C  40.81300 0.70900 30.45600
C  40.60000 0.20800 27.11700
O  40.33600 0.24800 25.92100
C  41.85800 -0.50100 27.59600
N  35.39200 2.34300 26.89800
C  36.43500 2.08300 26.06300
C  36.11000 2.25500 24.57900
C  34.59700 2.52400 24.68500
C  34.25900 2.52700 26.18700
C  37.00900 3.35400 23.89100
C  33.74600 1.53400 23.85100
C  32.56000 2.03500 22.98400
N  33.69200 2.97400 29.03900
C  32.73800 3.08500 28.03900
C  31.45900 3.43000 28.66200
C  31.71500 3.60300 30.01000
C  33.09300 3.29700 30.11800
C  30.17600 3.70300 27.93500
C  31.13800 3.70200 31.30700
O  29.92600 3.91800 31.47500
C  32.27100 3.64700 32.29600
C  32.22900 4.97000 33.01500
O  32.58200 6.01000 32.57700
O  31.63000 4.80000 34.24000
C  31.18000 5.99100 34.97300
H  39.00800 2.02200 31.93900
H  38.34400 1.33300 25.60500
H  32.27400 3.06000 25.88800
H  34.88600 4.05300 33.86500
H  37.37900 2.42600 33.68800
H  38.36300 4.34300 34.17100
H  36.76700 5.15000 34.16200
H  37.73000 5.09900 32.67900
H  35.43600 1.14800 34.25700
H  33.94000 1.59200 33.72900
H  34.75800 1.55400 36.33300
H  33.28600 2.28100 35.69400
H  40.97200 -0.36100 30.58500
H  40.61200 1.13700 31.43800
H  41.65400 1.24200 30.01200
H  42.56600 0.07300 28.19300
H  42.18800 -1.02900 26.70100
H  41.57200 -1.35000 28.21700
H  36.27200 1.26500 24.15200
H  34.36200 3.55400 24.41700
H  37.63100 2.94900 23.09200
H  37.81600 3.79000 24.48000
H  36.37200 4.20800 23.66300
H  33.34300 0.76200 24.50600
H  34.30400 1.00500 23.07700
H  31.60800 1.99700 23.51300
H  32.44700 1.23700 22.25000
H  32.78700 2.97600 22.48300
H  30.25600 3.15300 26.99700
H  29.99700 4.76900 27.79300
H  29.33100 3.36400 28.53500
H  31.97500 2.84800 32.97600
H  30.96100 6.81600 34.29600
H  31.99800 6.27900 35.63300
H  30.26000 5.71900 35.49100
Mg 42.53000 41.33600 26.94500
C  41.51000 43.52400 29.40200
C  43.09900 39.05700 29.26300
C  43.87400 39.45500 24.50400
C  42.17100 44.06300 24.62000
N  42.39400 41.32000 29.15600
C  41.84800 42.30300 29.90900
C  42.02300 41.93300 31.47000
C  42.53600 40.52500 31.39800
C  42.71900 40.28000 29.86600
C  43.91700 40.25800 32.10800
C  40.64500 42.22000 32.22000
C  40.22900 41.41000 33.43800
H  39.56200 42.19200 34.57100
N  43.42700 39.45400 26.96500
C  43.48900 38.59800 27.99200
C  44.09900 37.38400 27.52200
C  44.34800 37.47400 26.11700
C  43.88300 38.80400 25.81300
C  44.55000 36.27300 28.51500
C  44.86700 36.42700 25.18300
O  45.15400 36.75100 24.04200
C  45.07100 34.99400 25.64100
N  42.97700 41.68400 24.89800
C  43.52000 40.74900 24.10800
C  43.76800 41.34000 22.69600
C  43.01200 42.66300 22.69200
C  42.68000 42.85100 24.12000
C  45.35500 41.41000 22.42500
C  41.90500 42.68500 21.66700
C  40.51900 42.06300 22.05800
N  42.09500 43.41800 26.95200
C  41.90600 44.38700 25.94100
C  41.46100 45.61400 26.54400
C  41.40300 45.32300 27.92100
C  41.61500 43.93300 28.03100
C  41.23200 46.85900 25.72600
C  41.02700 45.91400 29.17700
O  40.56700 46.97900 29.47700
C  41.07900 44.77700 30.17600
C  42.00600 45.19800 31.20100
O  43.26100 45.13700 31.06900
O  41.37900 45.77900 32.27900
C  42.25600 46.66400 33.06900
H  43.00200 38.27400 30.01900
H  44.35900 38.95600 23.66300
H  41.78800 44.84600 23.96200
H  42.78100 42.62500 31.83600
H  41.77300 39.85200 31.78900
H  44.73900 39.98200 31.44700
H  43.82500 39.41700 32.79500
H  44.20500 41.08900 32.75100
H  39.97100 42.04700 31.38100
H  40.45200 43.27200 32.42900
H  41.06300 40.82600 33.82800
H  39.45000 40.72500 33.10400
H  45.58100 36.02400 28.26300
H  43.99100 35.34400 28.40600
H  44.55500 36.65200 29.53700
H  45.86600 34.87600 26.37700
H  45.29200 34.46500 24.71400
H  44.10700 34.66800 26.03200
H  43.34600 40.63400 21.98200
H  43.74200 43.43200 22.44000
H  46.05900 41.07100 23.18500
H  45.61900 42.42200 22.11900
H  45.50800 40.71000 21.60200
H  42.18600 42.05900 20.82100
H  41.68700 43.70700 21.35600
H  39.71700 42.79400 21.95900
H  40.52800 41.61700 23.05300
H  40.24100 41.24500 21.39400
H  42.14900 47.33500 25.38000
H  40.66700 47.57900 26.31800
H  40.75500 46.40000 24.86000
H  40.10400 44.61600 30.63700
H  43.07900 47.19400 32.58900
H  42.52300 46.12100 33.97500
H  41.49900 47.41500 33.29700

