158

Mg 7.74900 2.73400 27.44300
C  9.07600 0.90100 30.16400
C  5.86900 4.57700 29.47800
C  6.24100 3.96400 24.73700
C  9.11800 0.26800 25.31300
N  7.53600 2.75800 29.53300
C  8.28100 2.06500 30.48900
C  8.11100 2.73500 31.87700
C  6.94600 3.74400 31.66200
C  6.69100 3.67900 30.12700
C  5.81700 3.65700 32.62900
C  9.39500 3.40800 32.42400
C  9.18600 3.95100 33.82300
H  10.10600 3.51500 34.95700
N  6.21500 4.15400 27.10200
C  5.54500 4.81500 28.12900
C  4.67600 5.81900 27.56400
C  4.78400 5.67900 26.17700
C  5.80300 4.55600 25.95100
C  3.70200 6.62400 28.37600
C  4.00200 6.41500 25.07800
O  4.06200 6.11600 23.88800
C  2.96100 7.45400 25.45000
N  7.55100 2.01600 25.30400
C  6.92100 2.84800 24.44300
C  7.02200 2.29600 23.02500
C  8.01500 1.10100 23.22000
C  8.21700 1.07100 24.71900
C  5.69100 1.70800 22.47000
C  9.32200 1.37900 22.47100
C  9.98000 0.05400 22.13800
N  8.93500 1.07000 27.65600
C  9.41400 0.12300 26.68100
C  10.24800 -0.88600 27.30300
C  10.26600 -0.53200 28.66600
C  9.28100 0.54100 28.85000
C  11.00000 -1.99800 26.63200
C  10.80000 -0.85500 30.00200
O  11.59300 -1.68600 30.44000
C  10.03300 0.15200 31.03400
C  9.33200 -0.67400 32.08100
O  8.44600 -1.44500 31.86100
O  9.84400 -0.34400 33.28900
C  9.49900 -1.19500 34.50000
H  5.34800 5.28700 30.12400
H  5.91600 4.54000 23.86800
H  9.67700 -0.46900 24.73200
H  7.78400 2.01900 32.63100
H  7.41300 4.72100 31.77900
H  4.98200 3.15600 32.14100
H  5.46800 4.68100 32.76400
H  6.10300 3.12100 33.53300
H  9.73500 4.15600 31.70800
H  10.17500 2.64700 32.45600
H  8.15600 3.64000 33.99700
H  9.26100 5.03600 33.74700
H  3.90800 7.69400 28.34500
H  3.75600 6.41600 29.44500
H  2.64500 6.51100 28.13400
H  2.15300 6.93100 25.96200
H  2.58700 8.11600 24.66900
H  3.40000 8.16100 26.15300
H  7.38800 3.08600 22.37000
H  7.53200 0.20000 22.84000
H  4.93400 1.93700 23.22000
H  5.60800 0.64400 22.24900
H  5.39700 2.25800 21.57600
H  9.98000 1.95900 23.11800
H  9.13200 1.94400 21.55800
H  9.34000 -0.79500 22.37900
H  10.95200 0.03500 22.63100
H  10.03100 -0.04400 21.05400
H  11.44500 -1.75600 25.66700
H  10.54700 -2.97700 26.47400
H  11.84900 -2.06000 27.31300
H  10.75500 0.73400 31.60600
H  9.25500 -0.49800 35.30100
H  10.40200 -1.68800 34.85900
H  8.64800 -1.81700 34.22200
Mg 10.27300 47.93500 25.56500
C  8.27500 48.20400 28.47600
C  12.83300 49.39600 27.21300
C  12.03700 47.89600 22.61100
C  7.41900 47.02200 23.80900
N  10.51300 48.74000 27.59400
C  9.64300 48.63900 28.65900
C  10.26400 49.13300 29.90700
C  11.43600 49.99300 29.46200
C  11.64800 49.45500 27.98800
C  11.18600 51.49800 29.58500
C  10.77400 47.93800 30.79200
C  10.96600 48.13100 32.33400
H  10.47000 47.03700 33.29000
N  12.16400 48.45200 25.02400
C  13.08800 48.88900 25.93600
C  14.37000 48.94800 25.30200
C  14.20800 48.64100 23.90100
C  12.74900 48.29300 23.77300
C  15.66600 49.46100 26.00900
C  15.14300 48.72900 22.77600
O  14.85200 48.35800 21.60000
C  16.60300 49.02100 22.96500
N  9.79200 47.70000 23.46500
C  10.65700 47.75400 22.37700
C  9.87200 47.37500 21.03900
C  8.57000 46.69800 21.61100
C  8.58600 47.16900 23.05800
C  9.43700 48.57500 20.10100
C  8.61200 45.11500 21.50600
C  9.38300 44.42900 22.64200
N  8.22900 47.64000 26.05500
C  7.16600 47.27500 25.19300
C  5.93700 47.31600 25.94900
C  6.39000 47.58800 27.22300
C  7.75900 47.82400 27.25800
C  4.50900 47.04100 25.39300
C  5.89300 47.82100 28.50800
O  4.70300 47.60000 28.95400
C  7.09400 48.12000 29.42000
C  7.08700 46.88600 30.21800
O  7.56000 45.80800 29.83500
O  6.63400 47.13600 31.46300
C  6.67000 46.08400 32.39700
H  13.67700 49.82300 27.76000
H  12.50700 47.70500 21.64400
H  6.59700 46.69600 23.16900
H  9.49200 49.64100 30.48500
H  12.39000 49.88400 29.97700
H  12.07700 51.95900 30.01200
H  10.31100 51.66300 30.21300
H  10.97100 51.93200 28.60800
H  11.78600 47.64300 30.51500
H  10.20800 47.03500 30.56200
H  10.56900 49.14400 32.40800
H  11.99700 48.30100 32.64200
H  15.57900 49.88200 27.01000
H  16.20600 50.24400 25.47700
H  16.39300 48.65300 26.10100
H  17.10100 48.88800 22.00400
H  17.03300 48.36600 23.72200
H  16.70500 50.04800 23.31400
H  10.51300 46.67900 20.49800
H  7.74400 47.00400 20.96800
H  10.08200 49.39700 20.41200
H  8.37500 48.81900 20.06400
H  9.67000 48.27200 19.08000
H  9.05100 44.90500 20.53000
H  7.65400 44.60200 21.41900
H  10.11400 44.92200 23.28300
H  9.91700 43.76800 21.96000
H  8.61000 43.95500 23.24600
H  4.21300 47.29600 24.37600
H  3.89000 47.75900 25.93100
H  4.05600 46.07400 25.61400
H  6.94900 49.00900 30.03400
H  7.67900 45.70000 32.55100
H  5.97700 45.29900 32.09700
H  6.23600 46.49400 33.30900

