158

Mg 26.82000 51.38000 25.20500
C  24.86900 52.59900 27.85300
C  28.94400 49.97500 27.64500
C  28.75600 50.44700 22.86800
C  24.59200 52.89400 23.06000
N  26.82600 51.22900 27.36300
C  25.91300 51.83500 28.22900
C  26.24700 51.58800 29.65500
C  27.68200 50.95800 29.62400
C  27.84400 50.63500 28.14100
C  28.88300 51.90100 29.99800
C  25.21200 50.60200 30.27100
C  24.66700 51.07500 31.54000
H  25.57200 51.67600 32.64500
N  28.73200 50.31300 25.21000
C  29.46100 49.89500 26.32600
C  30.68400 49.27700 25.84800
C  30.62800 49.45000 24.41300
C  29.30700 50.03800 24.09900
C  31.71100 48.67100 26.76700
C  31.73900 49.07800 23.32400
O  31.64300 49.17200 22.10500
C  33.04500 48.60400 23.86300
N  26.71900 51.73500 23.19000
C  27.67600 51.23400 22.45500
C  27.33900 51.35500 20.93500
C  25.96700 52.11100 21.00600
C  25.70100 52.30800 22.49700
C  28.40300 52.02100 20.07100
C  24.74300 51.31000 20.38400
C  23.91600 52.09200 19.36600
N  25.11600 52.58300 25.37500
C  24.28400 53.08100 24.41800
C  23.16600 53.80700 25.01900
C  23.38400 53.61000 26.39600
C  24.54200 52.87600 26.53300
C  22.14700 54.73200 24.44000
C  22.89200 54.03900 27.70000
O  21.93800 54.76000 27.98900
C  23.81200 53.31300 28.76300
C  24.38800 54.39600 29.63700
O  25.32300 55.07700 29.39700
O  23.59900 54.59100 30.82200
C  23.86400 55.78900 31.68400
H  29.57800 49.52700 28.41300
H  29.05000 49.92700 21.95400
H  23.92500 53.31800 22.30500
H  26.35100 52.53200 30.18900
H  27.78500 50.08800 30.27300
H  28.52000 52.77500 30.54000
H  29.38300 52.23800 29.09000
H  29.58200 51.32700 30.60700
H  25.59300 49.58400 30.34500
H  24.32900 50.41900 29.65900
H  24.16600 50.29400 32.11200
H  23.76000 51.66000 31.38600
H  31.73700 47.59100 26.62100
H  31.45000 48.92400 27.79500
H  32.66000 49.16300 26.55400
H  33.41100 49.50400 24.35700
H  33.75500 48.30800 23.09000
H  33.02800 47.76500 24.55800
H  27.30800 50.34600 20.52500
H  26.17300 53.10400 20.60500
H  27.99400 52.84000 19.47800
H  28.87800 51.31800 19.38800
H  29.15100 52.31300 20.80800
H  24.01900 50.99700 21.13600
H  25.05700 50.43600 19.81300
H  23.98600 51.64500 18.37500
H  24.24800 53.13000 19.35300
H  22.90100 52.24000 19.73600
H  22.24000 54.52600 23.37400
H  22.41500 55.76200 24.67700
H  21.12700 54.50600 24.74900
H  23.23400 52.57800 29.32300
H  24.86600 55.56800 32.05000
H  23.17000 55.86800 32.52100
H  23.92000 56.72600 31.13000
Mg 1.88600 41.97100 25.44300
C  2.85400 42.23300 28.81400
C  -1.21600 40.95600 26.55400
C  1.17400 41.17000 22.32000
C  5.17700 42.86800 24.52700
N  0.97600 41.62400 27.52600
C  1.51800 41.99500 28.69700
C  0.36200 41.95700 29.77000
C  -0.82500 41.32800 29.07200
C  -0.36300 41.30200 27.61200
C  -1.09100 39.89700 29.58500
C  0.01900 43.26500 30.42300
C  -1.09300 43.22800 31.48300
H  -1.10400 42.11600 32.46700
N  0.12900 41.28500 24.55200
C  -0.99700 40.83300 25.18100
C  -1.94100 40.35700 24.19200
C  -1.26900 40.51100 22.89500
C  0.10500 40.98100 23.20700
C  -3.33300 39.77000 24.50900
C  -1.83700 40.18200 21.43100
O  -1.18200 40.32300 20.40200
C  -3.23900 39.72300 21.27900
N  3.07200 41.97300 23.67600
C  2.47400 41.66600 22.49900
C  3.39800 41.99600 21.29700
C  4.60400 42.77700 21.92500
C  4.30200 42.54400 23.46600
C  3.76100 40.72600 20.45900
C  4.60500 44.30000 21.53200
C  5.18200 44.82500 20.27000
N  3.73800 42.43400 26.40700
C  5.00700 42.70700 25.93100
C  5.86000 43.07600 27.08300
C  5.05700 42.87800 28.23500
C  3.78700 42.49900 27.76300
C  7.29600 43.43600 27.03300
C  5.08800 42.84800 29.61600
O  6.02400 43.08400 30.40500
C  3.64900 42.50100 30.12200
C  3.97700 41.25500 30.87900
O  4.20600 40.12100 30.44900
O  3.98300 41.66600 32.18600
C  4.14600 40.60800 33.11200
H  -2.20900 40.65300 26.89400
H  0.77600 41.03600 21.31200
H  6.18300 43.20100 24.26400
H  0.90000 41.34400 30.49400
H  -1.72700 41.94100 29.07200
H  -0.50500 39.78200 30.49700
H  -0.79800 39.18800 28.81000
H  -2.10500 39.73500 29.95100
H  -0.24500 43.99900 29.66100
H  0.95800 43.54100 30.90300
H  -2.05600 43.20700 30.97100
H  -0.95800 44.20000 31.95700
H  -3.55800 38.83800 23.99000
H  -4.21600 40.30900 24.16400
H  -3.39100 39.57200 25.57900
H  -3.43400 38.78100 21.79100
H  -3.57700 39.54200 20.25800
H  -3.76300 40.53600 21.78100
H  2.77600 42.60700 20.64400
H  5.54900 42.27200 21.72500
H  4.03600 39.93400 21.15600
H  4.68600 40.99400 19.94900
H  3.02700 40.41500 19.71700
H  4.88800 44.82200 22.44600
H  3.52700 44.45700 21.56900
H  4.35800 44.93000 19.56400
H  5.93200 44.17000 19.82600
H  5.64700 45.80100 20.41100
H  7.37600 44.52000 26.94700
H  7.85000 42.97500 26.21600
H  7.63300 43.06400 28.00000
H  3.13200 43.25900 30.71000
H  4.50600 41.02600 34.05200
H  4.80200 39.75800 32.92500
H  3.20000 40.12200 33.35000

