158

Mg 8.41200 3.15900 27.03600
C  9.86300 1.85300 29.83600
C  6.64300 5.35800 28.98400
C  6.92900 4.23800 24.19000
C  10.11700 0.70500 25.09800
N  8.14000 3.44800 29.20600
C  8.88000 2.85600 30.17700
C  8.66800 3.51600 31.49300
C  7.64700 4.60200 31.18400
C  7.44600 4.48500 29.71100
C  6.42300 4.50100 32.09500
C  10.06800 4.05800 32.10000
C  10.33800 3.78500 33.63300
H  10.26100 4.82400 34.70500
N  6.85800 4.49700 26.63200
C  6.23100 5.28000 27.58900
C  5.34900 6.18400 26.90500
C  5.41600 5.98800 25.49600
C  6.41200 4.81600 25.36700
C  4.54800 7.28200 27.67800
C  4.74400 6.59400 24.29200
O  5.05900 6.29000 23.18000
C  3.54500 7.45900 24.43800
N  8.59100 2.56300 25.01600
C  7.95800 3.23300 23.99200
C  8.29200 2.81400 22.51400
C  9.23100 1.58700 22.81100
C  9.37300 1.66600 24.40700
C  7.07300 2.42100 21.57200
C  10.52600 1.54500 21.98000
C  10.56300 0.71800 20.65000
N  9.74700 1.53200 27.36300
C  10.36300 0.66800 26.47400
C  11.12300 -0.26800 27.29400
C  11.01700 0.19300 28.60800
C  10.16200 1.32400 28.58800
C  11.99300 -1.37900 26.71600
C  11.43800 -0.03100 29.95800
O  12.19600 -0.91500 30.40000
C  10.66300 0.99500 30.82800
C  9.90100 0.20500 31.90100
O  8.83900 -0.32300 31.76200
O  10.56700 0.26300 33.07300
C  9.89300 -0.33300 34.24500
H  6.24200 6.05300 29.72400
H  6.72700 4.72800 23.23500
H  10.50600 -0.14100 24.52800
H  8.20000 2.79700 32.16500
H  8.08700 5.59800 31.22800
H  5.46800 4.60300 31.58000
H  6.49300 5.40000 32.70800
H  6.42600 3.60100 32.70900
H  10.06100 5.14000 31.97000
H  10.89300 3.84900 31.41900
H  11.32300 3.31900 33.59100
H  9.61500 3.03900 33.96300
H  4.85000 7.45000 28.71200
H  3.51300 6.94100 27.67100
H  4.67800 8.29100 27.28500
H  2.79600 6.93800 25.03400
H  3.20300 7.74800 23.44500
H  3.90600 8.36600 24.92400
H  8.84800 3.71400 22.25300
H  8.61400 0.71100 22.61200
H  6.14000 2.31400 22.12500
H  7.17900 1.50000 20.99800
H  6.94600 3.21800 20.83900
H  11.27400 1.08400 22.62600
H  10.87200 2.56600 21.81800
H  11.26700 1.10100 19.91100
H  9.59700 0.45800 20.21500
H  10.93300 -0.26700 20.93300
H  12.99100 -1.41200 27.15300
H  12.13200 -1.32500 25.63700
H  11.48500 -2.32500 26.90300
H  11.43200 1.57600 31.33700
H  8.98400 -0.89400 34.02600
H  9.72400 0.42400 35.01200
H  10.51800 -1.13200 34.64400
Mg 49.66600 47.78900 43.32300
C  46.35200 48.36200 42.27200
C  49.81100 44.80900 41.38400
C  53.09600 47.65300 43.79700
C  49.81900 51.01400 44.44400
N  48.24500 46.79100 41.88100
C  46.96500 47.22300 41.73800
C  46.38900 46.16200 40.78800
C  47.31000 44.83200 40.82400
C  48.55700 45.50600 41.40500
C  46.79600 43.67800 41.72200
C  46.20700 46.64100 39.33800
C  44.78900 46.46700 38.73300
H  44.56000 45.46300 37.60800
N  51.23400 46.46100 42.66100
C  51.06100 45.23200 41.98000
C  52.29600 44.54100 41.93200
C  53.23600 45.27600 42.73800
C  52.55300 46.51800 43.12700
C  52.29300 43.09700 41.34900
C  54.63800 44.80800 43.16800
O  54.99300 43.71900 42.79900
C  55.58200 45.67300 43.95800
N  51.38000 49.17600 43.89200
C  52.54900 48.80000 44.28900
C  53.31100 49.85100 45.07600
C  52.21700 50.91600 45.40600
C  51.03600 50.39200 44.52000
C  54.15100 49.33500 46.29300
C  52.66100 52.39100 45.03000
C  52.26800 53.54600 45.99600
N  48.40300 49.30600 43.54000
C  48.53600 50.58000 44.05500
C  47.29900 51.35300 44.04700
C  46.35200 50.45900 43.38800
C  47.10200 49.28100 43.05000
C  46.89500 52.67200 44.74600
C  44.95600 50.22700 43.04500
O  44.00600 50.97600 43.20500
C  44.99900 48.95500 42.17300
C  43.84700 48.04500 42.70700
O  43.50300 47.94700 43.87300
O  43.31700 47.30500 41.69100
C  42.26800 46.37300 41.99000
H  49.79400 43.79500 40.97800
H  54.16600 47.59800 44.00700
H  49.87600 51.99200 44.92600
H  45.38400 45.98500 41.17100
H  47.42800 44.38600 39.83600
H  47.14800 42.76600 41.24000
H  45.71100 43.59000 41.76700
H  47.24000 43.69700 42.71700
H  46.96000 46.13500 38.73400
H  46.51500 47.68600 39.32300
H  44.51900 47.45100 38.35200
H  44.01300 46.15400 39.43200
H  51.65100 42.53400 42.02600
H  53.31800 42.74500 41.22800
H  51.87700 43.21400 40.34800
H  55.82800 46.55700 43.36900
H  56.41300 45.00400 44.18300
H  55.01800 45.83800 44.87600
H  54.11300 50.19600 44.42200
H  51.98800 50.88700 46.47100
H  53.97000 48.26000 46.26100
H  53.60200 49.74100 47.14200
H  55.20000 49.59000 46.14200
H  52.54500 52.65400 43.97900
H  53.74400 52.29400 45.10400
H  53.13300 53.92700 46.53800
H  51.54400 53.13300 46.69800
H  51.77700 54.38000 45.49400
H  46.16800 52.60300 45.55500
H  46.37400 53.27100 43.99800
H  47.74500 53.23400 45.13200
H  44.75600 49.26300 41.15600
H  41.30400 46.82800 42.21800
H  42.60800 45.65400 42.73400
H  42.18300 45.82600 41.05100

