158

Mg 0.15100 8.53600 27.00800
C  0.68100 10.47900 29.88500
C  -0.09000 5.81900 29.03000
C  0.28300 6.55000 24.29000
C  0.59400 11.22400 25.06300
N  0.44000 8.14100 29.26700
C  0.46400 9.16100 30.24200
C  0.16200 8.48000 31.64700
C  0.11100 6.99300 31.25600
C  0.15500 6.96200 29.74000
C  1.22100 6.08900 31.90600
C  -1.08900 9.19700 32.32600
C  -0.92400 9.33300 33.85600
H  0.21900 8.62900 34.53300
N  0.13600 6.41800 26.65900
C  -0.10700 5.47500 27.64500
C  -0.28500 4.12900 27.08900
C  -0.18200 4.32000 25.68400
C  0.05700 5.82400 25.47400
C  -0.75300 3.00900 27.92300
C  -0.41000 3.37800 24.56300
O  -0.45300 3.76600 23.36800
C  -0.61100 1.91300 24.86300
N  0.57900 8.80100 24.87800
C  0.52000 7.90100 23.98600
C  0.63300 8.45500 22.57200
C  0.33100 9.95800 22.91700
C  0.55700 10.04800 24.38400
C  2.06600 8.14300 22.02500
C  -1.12700 10.47900 22.54500
C  -1.28700 11.08500 21.21400
N  0.55300 10.44500 27.35400
C  0.68000 11.46400 26.42600
C  1.10500 12.70800 27.18500
C  1.09300 12.31300 28.52000
C  0.78300 10.93700 28.57200
C  1.39900 14.12200 26.62100
C  1.34600 12.77000 29.81600
O  1.75600 13.86000 30.21000
C  0.91800 11.63200 30.77500
C  2.01300 11.47100 31.80200
O  3.14200 10.95000 31.64500
O  1.62300 12.03800 32.98200
C  2.64500 12.13900 34.00600
H  -0.24600 4.95000 29.67200
H  0.49000 5.97900 23.38200
H  0.65000 12.11300 24.43200
H  1.08500 8.60100 32.21400
H  -0.85300 6.51800 31.44200
H  2.00000 5.95500 31.15600
H  0.87100 5.07000 32.07400
H  1.55300 6.54900 32.83700
H  -1.97800 8.61400 32.08500
H  -1.27700 10.19800 31.93700
H  -1.88600 8.95900 34.20600
H  -1.02100 10.37000 34.17600
H  -1.71700 2.68100 27.53500
H  -0.92500 3.25600 28.97100
H  0.00100 2.22400 27.86200
H  -1.62000 1.63000 25.16300
H  0.09000 1.63500 25.65000
H  -0.35900 1.33900 23.97100
H  -0.18200 8.06000 21.96600
H  1.07100 10.55600 22.38600
H  2.60000 9.08600 22.14200
H  2.07300 7.91700 20.95900
H  2.62300 7.41200 22.61200
H  -1.55300 11.09400 23.33800
H  -1.79000 9.61500 22.48800
H  -1.80700 12.04200 21.26000
H  -1.89500 10.46900 20.55100
H  -0.35600 11.21600 20.66400
H  2.31100 14.26600 26.04200
H  1.52600 14.85000 27.42200
H  0.51100 14.39900 26.05400
H  0.04400 11.97600 31.33000
H  2.75000 13.10900 34.49100
H  3.65500 11.83600 33.73200
H  2.35400 11.50000 34.84000
Mg 8.48200 4.64500 27.55600
C  9.70800 2.92100 30.30700
C  6.56300 6.61600 29.72300
C  6.97400 6.04000 24.92900
C  10.06200 2.36800 25.43500
N  8.19300 4.78400 29.67500
C  8.83300 3.95200 30.62800
C  8.58800 4.55500 32.08300
C  7.68300 5.77800 31.78500
C  7.43800 5.75500 30.31000
C  6.31900 5.70100 32.65900
C  9.89200 4.89100 32.81800
C  9.65200 5.94300 33.95200
H  10.42300 5.67400 35.24000
N  7.09600 6.23400 27.28400
C  6.42300 6.91500 28.30800
C  5.61500 7.93500 27.76300
C  5.74000 7.78300 26.32300
C  6.70200 6.69600 26.10200
C  4.73200 8.93500 28.65600
C  4.97200 8.53800 25.30900
O  5.19000 8.39300 24.11200
C  3.93100 9.53100 25.68700
N  8.39200 4.14800 25.51600
C  7.79900 5.01200 24.59600
C  8.23500 4.68500 23.12300
C  9.35400 3.63700 23.36000
C  9.30100 3.32700 24.87400
C  7.09300 4.18900 22.22700
C  10.82500 4.11400 22.89600
C  11.57300 5.03300 23.85700
N  9.63600 2.96700 27.75100
C  10.28900 2.14700 26.81400
C  11.17600 1.27600 27.52100
C  10.97300 1.52400 28.86900
C  9.98500 2.50600 28.97000
C  12.16000 0.45900 26.88800
C  11.42700 1.16900 30.21200
O  12.21000 0.33000 30.63100
C  10.53300 2.02200 31.11500
C  9.68600 1.11200 31.87300
O  8.90700 0.31700 31.40600
O  9.96900 1.23100 33.20000
C  9.11200 0.46400 34.17000
H  6.10700 7.27600 30.46300
H  6.65000 6.54200 24.01400
H  10.74800 1.79900 24.80400
H  8.07200 3.83200 32.71500
H  8.17700 6.73100 31.97800
H  6.07100 6.67800 33.07300
H  6.58700 5.04800 33.49000
H  5.51000 5.19800 32.13000
H  10.53600 5.29300 32.03600
H  10.20400 3.98000 33.32800
H  8.59100 6.05200 34.17900
H  10.06100 6.89500 33.61500
H  5.04500 9.95600 28.44200
H  4.79800 8.77900 29.73200
H  3.68200 8.81300 28.38800
H  4.31300 10.38600 26.24500
H  3.17400 9.04600 26.30300
H  3.66200 9.97600 24.72900
H  8.61200 5.60700 22.67900
H  9.18100 2.64300 22.94700
H  6.25100 3.88000 22.84700
H  7.40300 3.29100 21.69300
H  6.92800 5.14100 21.72300
H  10.80400 4.65300 21.94900
H  11.38000 3.17800 22.83000
H  10.98000 5.06100 24.77100
H  11.72400 6.01500 23.40900
H  12.56600 4.64500 24.08500
H  12.47100 0.92300 25.95200
H  11.61200 -0.41400 26.53300
H  12.90800 0.22400 27.64600
H  11.26100 2.56000 31.72100
H  9.71900 -0.24400 34.73300
H  8.23600 -0.02300 33.74200
H  8.80700 1.25000 34.86100

