158

Mg 26.07700 1.06500 29.61200
C  28.19100 0.63600 32.30700
C  23.43700 1.18100 31.69800
C  24.22800 1.62100 26.95900
C  28.90800 0.45100 27.44700
N  25.83300 0.64000 31.86400
C  26.86200 0.66000 32.75200
C  26.22000 0.80700 34.22000
C  24.67000 0.84000 33.96600
C  24.60700 0.76200 32.42200
C  23.91200 -0.22700 34.84500
C  26.79000 1.93100 35.12300
C  25.92800 2.31900 36.41100
H  26.74800 2.03300 37.63900
N  24.09700 1.28800 29.34900
C  23.13800 1.28900 30.34600
C  21.82600 1.49400 29.77500
C  22.03700 1.63700 28.39000
C  23.46700 1.46000 28.17500
C  20.57900 1.62200 30.62000
C  20.93800 1.77300 27.28600
O  21.22900 1.79300 26.10800
C  19.43800 1.79500 27.66000
N  26.44800 0.81900 27.46100
C  25.53100 1.28900 26.61600
C  26.08000 1.39100 25.20300
C  27.63900 1.25100 25.41600
C  27.66700 0.81300 26.88000
C  25.35100 0.42200 24.21200
C  28.41900 2.67200 25.09500
C  28.00900 3.78700 26.07600
N  28.18600 0.62900 29.78900
C  29.19100 0.43000 28.83400
C  30.38600 0.04100 29.57200
C  30.08100 0.24700 30.89400
C  28.70600 0.58100 31.04000
C  31.62400 -0.47400 28.93900
C  30.59800 0.12700 32.20400
O  31.72600 -0.25400 32.48600
C  29.42200 0.48900 33.21700
C  29.39100 -0.64100 34.19000
O  28.75700 -1.65500 34.12200
O  30.18500 -0.33500 35.25900
C  29.95600 -1.17000 36.39700
H  22.65000 1.29900 32.44600
H  23.60500 1.97200 26.13400
H  29.74800 0.45400 26.74900
H  26.37300 -0.15100 34.71600
H  24.38000 1.84300 34.27800
H  24.56600 -1.05800 35.11100
H  23.16100 -0.78600 34.28600
H  23.42400 0.22400 35.70800
H  26.81100 2.82100 34.49400
H  27.79700 1.69500 35.46700
H  24.92300 1.90500 36.49800
H  25.79000 3.39800 36.47600
H  19.99200 2.53200 30.49500
H  20.84100 1.34100 31.64000
H  19.91500 0.84100 30.25000
H  19.20900 2.31100 28.59300
H  19.17800 0.74700 27.80300
H  18.73100 2.06000 26.87400
H  25.92900 2.39800 24.81400
H  28.12800 0.47400 24.82900
H  24.77400 -0.31900 24.76400
H  25.95100 -0.15300 23.50700
H  24.66900 1.05400 23.64300
H  28.19900 2.88300 24.04800
H  29.47300 2.50700 25.32100
H  27.56300 3.47300 27.01900
H  27.35500 4.40100 25.45600
H  28.89800 4.35300 26.35400
H  32.23200 -1.08500 29.60700
H  32.16800 0.43400 28.68000
H  31.41300 -1.07300 28.05300
H  29.72500 1.43600 33.66500
H  29.09800 -0.77700 36.94200
H  30.79700 -1.08500 37.08400
H  29.98100 -2.23200 36.15300
Mg -9.87000 17.40000 41.03000
C  -6.43900 17.31500 41.29600
C  -9.79000 20.72900 40.34200
C  -13.16600 17.24500 40.21800
C  -9.83700 13.94900 41.37600
N  -8.25400 18.83800 40.70100
C  -6.95900 18.61300 40.95100
C  -6.19800 19.91700 40.66700
C  -7.25600 21.05500 40.85500
C  -8.55500 20.19700 40.68300
C  -7.18500 21.80100 42.22600
C  -5.56200 19.92600 39.29300
C  -4.08100 19.78900 39.08300
H  -3.42900 18.68100 38.22700
N  -11.26600 18.79900 40.33600
C  -11.06000 20.14000 40.14500
C  -12.26500 20.80900 39.66000
C  -13.28500 19.79700 39.59700
C  -12.61700 18.54300 40.10900
C  -12.26300 22.25300 39.21600
C  -14.76200 20.01400 39.08700
O  -15.10100 21.10500 38.57200
C  -15.81200 18.89500 38.89400
N  -11.30200 15.72900 40.55000
C  -12.57100 15.95300 40.38900
C  -13.41700 14.64400 40.45600
C  -12.31100 13.60800 41.03300
C  -10.99700 14.45100 40.88800
C  -14.75400 14.66800 41.28600
C  -12.28400 12.20900 40.21100
C  -12.51300 10.99700 41.14900
N  -8.42500 15.84300 41.22100
C  -8.57200 14.51300 41.29400
C  -7.34600 13.87400 41.28800
C  -6.47100 14.94300 41.45700
C  -7.16500 16.12600 41.27100
C  -7.02900 12.34700 41.30400
C  -5.10600 15.29000 41.58000
O  -4.06300 14.60000 41.67000
C  -5.00400 16.86400 41.43700
C  -4.39200 17.53200 42.65800
O  -3.45000 18.29300 42.57500
O  -5.17500 17.23300 43.76600
C  -4.57300 17.96300 44.87300
H  -9.75800 21.78600 40.07000
H  -14.24700 17.32200 40.08400
H  -9.75100 12.87000 41.52100
H  -5.45300 20.03300 41.45400
H  -7.31700 21.77800 40.04100
H  -6.96800 21.16100 43.08200
H  -8.05400 22.40400 42.48600
H  -6.47500 22.59200 41.98800
H  -5.91700 20.85500 38.84800
H  -6.08400 19.10000 38.80800
H  -3.68900 19.75500 40.09900
H  -3.72300 20.67600 38.56000
H  -13.30300 22.57900 39.20500
H  -11.76500 22.29200 38.24700
H  -11.73100 22.80700 39.98900
H  -15.36300 18.18600 38.19900
H  -16.72300 19.33300 38.48500
H  -16.07900 18.39000 39.82200
H  -13.75300 14.29100 39.48100
H  -12.46300 13.43700 42.09900
H  -14.77900 13.94500 42.10100
H  -15.55300 14.36200 40.61100
H  -14.94500 15.59400 41.82800
H  -11.34900 12.19600 39.65100
H  -13.07700 12.24000 39.46300
H  -12.13600 10.19500 40.51400
H  -13.59000 10.87300 41.26100
H  -11.96400 11.10200 42.08400
H  -7.25800 11.98400 42.30700
H  -5.99100 12.06100 41.13500
H  -7.73900 11.75100 40.73100
H  -4.32400 17.09500 40.61800
H  -3.76800 17.40400 45.35200
H  -5.30900 17.94500 45.67700
H  -4.38500 19.02600 44.72300

