158

Mg 52.73100 24.35600 44.48100
C  49.83200 26.34000 44.07700
C  51.03800 21.52200 43.73300
C  55.67200 22.63100 44.54900
C  54.39500 27.29200 45.61700
N  50.72700 23.96200 43.76900
C  49.69800 24.92500 43.79100
C  48.36300 24.23000 43.58300
C  48.71500 22.73000 43.78400
C  50.27500 22.67600 43.76100
C  48.16000 22.08000 44.98400
C  47.72100 24.57000 42.18300
C  48.46200 24.00800 40.94500
H  48.35700 24.73000 39.53800
N  53.28600 22.32000 44.00500
C  52.42400 21.31200 43.81200
C  53.18900 20.12600 43.55800
C  54.56300 20.45700 43.62500
C  54.58200 21.81700 44.11200
C  52.47300 18.78700 43.24600
C  55.71400 19.46100 43.52000
O  55.56100 18.26600 43.31700
C  57.17400 19.85300 43.60000
N  54.77300 24.84600 44.83500
C  55.77700 23.98900 44.91500
C  57.05700 24.56200 45.49900
C  56.70200 26.11100 45.81400
C  55.19500 26.07400 45.42000
C  57.76700 23.83500 46.70900
C  57.48600 27.28300 45.06100
C  57.99600 28.37100 45.91800
N  52.24600 26.45700 44.74000
C  53.04000 27.53400 45.24000
C  52.21100 28.76500 45.26200
C  50.94100 28.33300 44.77800
C  51.03200 26.90600 44.52700
C  52.59200 30.14200 45.80500
C  49.61800 28.75300 44.54600
O  49.08200 29.86700 44.65000
C  48.84300 27.47800 43.99700
C  48.46700 27.82400 42.61900
O  49.23500 27.93400 41.70400
O  47.13100 28.18500 42.67200
C  46.51000 28.72500 41.47600
H  50.47300 20.58700 43.72300
H  56.67000 22.18700 44.55200
H  54.84100 28.20400 46.01900
H  47.59700 24.50200 44.30900
H  48.41400 22.21700 42.87100
H  48.96100 21.86600 45.69000
H  47.67600 21.12500 44.77900
H  47.38300 22.68500 45.45200
H  47.50200 25.63200 42.07300
H  46.82500 23.95100 42.22200
H  48.08800 22.99800 40.78000
H  49.50200 24.02200 41.27300
H  52.87000 18.15700 42.45000
H  51.41400 18.82500 42.99100
H  52.48300 18.14200 44.12500
H  57.90600 19.13200 43.23500
H  57.37300 19.95300 44.66700
H  57.25200 20.81800 43.10000
H  57.81100 24.62500 44.71500
H  56.80300 26.17400 46.89800
H  57.16600 23.03900 47.14900
H  58.11500 24.49900 47.50000
H  58.67200 23.41500 46.27000
H  56.85600 27.72400 44.28900
H  58.33200 26.82800 44.54600
H  57.23100 28.67300 46.63400
H  58.36100 29.26100 45.40500
H  58.83600 27.93800 46.46100
H  53.63800 30.17200 46.11000
H  52.06200 30.19000 46.75600
H  52.47100 30.92200 45.05300
H  47.93600 27.26800 44.56500
H  47.05900 29.64000 41.25200
H  45.44100 28.86900 41.62800
H  46.52300 27.99500 40.66600
Mg -1.90700 34.39900 26.66700
C  -3.30500 32.43900 29.32300
C  -0.23200 36.18600 28.98000
C  -1.46900 36.78000 24.29300
C  -3.89100 32.70300 24.43000
N  -1.98000 34.31300 28.92300
C  -2.49500 33.42600 29.79200
C  -2.03500 33.70100 31.21300
C  -1.08600 34.97100 30.99200
C  -1.08900 35.15900 29.52300
C  -1.44000 36.18200 31.82700
C  -1.34100 32.53800 31.96600
C  -1.97200 32.11500 33.36100
H  -0.94700 31.69500 34.37200
N  -0.79200 36.03800 26.61100
C  -0.13500 36.63100 27.67900
C  0.70400 37.75800 27.19700
C  0.24100 38.01300 25.83900
C  -0.75800 36.93200 25.54000
C  1.74800 38.51100 28.16300
C  0.67600 39.05000 24.81100
O  0.13900 39.25100 23.73400
C  1.82600 39.90100 25.17600
N  -2.74800 34.80900 24.69600
C  -2.46500 35.89200 23.93500
C  -2.99200 35.75900 22.46100
C  -3.74800 34.36400 22.50800
C  -3.51400 33.91000 23.97300
C  -3.84400 36.98300 21.93800
C  -3.11300 33.29100 21.49100
C  -1.78000 32.65700 21.93000
N  -3.35800 32.89000 26.77000
C  -3.98200 32.22600 25.77100
C  -4.73000 31.06800 26.32700
C  -4.51200 31.18300 27.72100
C  -3.59500 32.23200 27.96300
C  -5.61200 30.15800 25.57000
C  -4.84700 30.58300 28.99100
O  -5.53000 29.60400 29.15800
C  -4.07400 31.35600 30.09100
C  -5.08300 31.78100 31.13500
O  -5.73600 32.75000 31.03000
O  -4.99300 30.89900 32.15600
C  -5.83400 31.22200 33.35300
H  0.27400 36.73400 29.77700
H  -1.32900 37.52200 23.50500
H  -4.52100 32.19300 23.69800
H  -2.98600 33.94800 31.68500
H  -0.12400 34.54200 31.27500
H  -1.54200 37.08100 31.22000
H  -0.62500 36.37400 32.52500
H  -2.36500 36.08100 32.39500
H  -0.28600 32.78300 32.08900
H  -1.30800 31.58200 31.44300
H  -2.55200 31.19300 33.37000
H  -2.63100 32.91200 33.70600
H  2.76500 38.31900 27.82100
H  1.51700 38.18700 29.17800
H  1.65600 39.59400 28.08500
H  1.44200 40.61300 25.90600
H  2.23200 40.38400 24.28600
H  2.57100 39.20300 25.55800
H  -2.13500 35.81100 21.78900
H  -4.81400 34.38400 22.28100
H  -4.86200 36.71800 21.65400
H  -3.22100 37.41400 21.15400
H  -3.91100 37.71400 22.74400
H  -2.85200 33.68500 20.50900
H  -3.91800 32.57900 21.30600
H  -1.10700 32.96000 21.12700
H  -1.83000 31.57900 22.08400
H  -1.29000 33.07900 22.80700
H  -6.18000 29.63700 26.34100
H  -5.11800 29.42300 24.93400
H  -6.25300 30.60300 24.80800
H  -3.48600 30.55300 30.53400
H  -5.92600 30.35800 34.01100
H  -6.78000 31.65300 33.02500
H  -5.21900 31.94400 33.89000

