158

Mg 34.35500 2.84000 30.08700
C  31.99600 3.89800 32.51600
C  36.88700 3.09500 32.53300
C  36.73900 2.55100 27.55900
C  31.87800 2.92800 27.65700
N  34.34900 3.43400 32.22600
C  33.28300 3.71300 33.08800
C  33.72100 3.69900 34.57500
C  35.25700 3.85900 34.42200
C  35.51500 3.42800 32.97000
C  35.93000 5.24200 34.74700
C  33.06600 2.48000 35.38900
C  32.63800 2.56600 36.88600
H  33.22900 3.67000 37.78200
N  36.41900 2.72500 30.06500
C  37.21200 2.70200 31.20500
C  38.59200 2.38400 30.77400
C  38.61200 2.30200 29.34000
C  37.19700 2.56900 28.91200
C  39.79500 2.24800 31.66700
C  39.72800 1.95300 28.38800
O  39.54300 1.73200 27.17700
C  41.11300 1.60600 28.90900
N  34.28500 2.56700 27.99200
C  35.41200 2.56300 27.15600
C  34.99100 2.54600 25.65200
C  33.39900 2.45100 25.72500
C  33.14300 2.68100 27.23500
C  35.48900 3.78800 24.83000
C  32.78700 1.16800 25.11900
C  32.15700 0.09500 26.06500
N  32.35700 3.32800 30.00700
C  31.45500 3.30500 28.93000
C  30.12600 3.67600 29.45600
C  30.30700 3.88200 30.81100
C  31.64200 3.61500 31.14400
C  28.87200 3.70300 28.64800
C  29.61900 4.22900 32.10600
O  28.45500 4.46500 32.39200
C  30.76000 4.27600 33.26400
C  30.89100 5.62500 33.80700
O  31.23100 6.61200 33.17200
O  30.66100 5.61600 35.18400
C  30.86200 6.89800 35.93300
H  37.73000 3.16700 33.22200
H  37.45400 2.56400 26.73400
H  31.09600 2.80600 26.90500
H  33.29800 4.64300 34.91500
H  35.76500 3.16300 35.08900
H  36.62000 5.17900 35.58800
H  35.13300 5.96100 34.94000
H  36.51700 5.63900 33.91800
H  33.73300 1.64500 35.17200
H  32.16000 2.21700 34.84300
H  32.94900 1.62900 37.34800
H  31.55800 2.64900 37.00800
H  40.74300 2.66600 31.33000
H  39.96800 1.20100 31.91600
H  39.68500 2.83900 32.57700
H  41.68900 2.49400 29.17000
H  41.63400 1.17100 28.05700
H  41.01000 0.81100 29.64700
H  35.51400 1.78900 25.06800
H  32.85900 3.20400 25.15100
H  34.70700 4.47900 24.51600
H  36.11100 3.45400 23.99900
H  36.19500 4.32000 25.46800
H  33.63600 0.64600 24.67700
H  32.11100 1.47100 24.31900
H  32.34300 0.24700 27.12800
H  32.47100 -0.89100 25.72100
H  31.08900 0.25000 25.91700
H  29.04400 3.41400 27.61200
H  28.39700 4.67300 28.79000
H  28.20300 3.06000 29.22000
H  30.51500 3.55000 34.03900
H  30.27600 7.76000 35.61500
H  31.92100 7.15400 35.95800
H  30.52700 6.56000 36.91400
Mg 51.15000 47.15100 43.22400
C  47.88400 47.94900 42.49700
C  50.50800 44.15600 41.43000
C  54.29400 46.33200 43.68100
C  51.76400 50.43800 44.36700
N  49.46200 46.18600 42.02000
C  48.20300 46.70800 41.95400
C  47.36400 45.87400 40.94400
C  48.05900 44.47600 41.09900
C  49.44800 44.97100 41.46700
C  47.34300 43.51000 42.10900
C  47.41300 46.45400 39.50700
C  46.29300 46.17300 38.55100
H  46.30900 44.83600 37.67700
N  52.29200 45.50600 42.58700
C  51.83000 44.39600 41.93900
C  52.95600 43.47500 41.74800
C  54.09600 44.08200 42.28400
C  53.62200 45.32600 42.89500
C  52.90900 42.06900 41.17400
C  55.49200 43.51000 42.38100
O  55.82400 42.44700 41.83900
C  56.66100 44.36600 42.82100
N  52.87200 48.25200 43.93700
C  54.01200 47.61900 44.10000
C  55.03600 48.44800 44.84800
C  54.25100 49.85300 45.06600
C  52.85900 49.50800 44.47500
C  55.70200 47.86800 46.13800
C  54.91000 51.07100 44.45200
C  55.26200 52.33500 45.27900
N  50.09900 48.87600 43.45500
C  50.44400 50.10700 43.97100
C  49.20400 50.96400 43.95600
C  48.21300 50.16500 43.32600
C  48.80600 48.95400 43.03700
C  49.09900 52.42900 44.08900
C  46.75300 50.12600 43.03900
O  45.87700 51.00200 43.14300
C  46.59100 48.73000 42.24500
C  45.33800 47.99500 42.72200
O  45.27700 47.55600 43.84800
O  44.36700 47.86100 41.73100
C  43.29300 46.95100 42.15500
H  50.30400 43.23900 40.87300
H  55.35800 46.15800 43.85500
H  52.03800 51.45600 44.65000
H  46.33600 45.69700 41.26000
H  48.10200 43.96500 40.13700
H  46.49200 43.95500 42.62400
H  48.04700 43.33700 42.92300
H  46.92600 42.67100 41.55100
H  48.38300 46.31500 39.03000
H  47.40500 47.53200 39.67200
H  46.17700 46.97600 37.82300
H  45.32400 46.22100 39.04600
H  53.48100 41.99700 40.24900
H  51.88400 41.88600 40.85300
H  53.19400 41.34100 41.93400
H  57.57300 43.78800 42.66700
H  56.60900 44.64000 43.87500
H  56.78300 45.26500 42.21600
H  55.77900 48.60600 44.06600
H  54.14200 50.04700 46.13300
H  55.24600 46.88500 46.26000
H  55.48800 48.46400 47.02500
H  56.74400 47.56000 46.04400
H  54.18200 51.25500 43.66100
H  55.80800 50.84500 43.87700
H  56.34000 52.47900 45.20600
H  54.94400 52.15100 46.30500
H  54.72900 53.21900 44.92900
H  50.00800 52.72400 44.61300
H  48.25200 52.79500 44.66900
H  49.16400 52.80400 43.06700
H  46.46200 48.92900 41.18100
H  43.62700 46.15200 42.81600
H  43.03800 46.35900 41.27600
H  42.43800 47.51800 42.52200

