158

Mg 47.39700 25.27800 28.66400
C  48.67800 27.41600 31.12100
C  46.70300 23.00800 30.99200
C  47.04000 23.00400 26.18800
C  48.84400 27.44900 26.21300
N  47.62700 25.24100 30.74400
C  47.97300 26.30600 31.56200
C  47.58000 26.05800 33.00400
C  47.10600 24.59900 33.04900
C  47.11100 24.24000 31.54400
C  47.93600 23.61800 33.86100
C  46.42600 27.04900 33.41300
C  46.76300 27.93100 34.67800
H  45.77900 27.82100 35.90900
N  46.84700 23.29800 28.61100
C  46.61300 22.54200 29.66900
C  46.21800 21.16400 29.24800
C  46.20400 21.16700 27.85100
C  46.74700 22.53300 27.50100
C  45.93900 20.03300 30.27800
C  45.86300 20.09400 26.89400
O  46.04500 20.22300 25.69100
C  45.30700 18.76000 27.24000
N  47.82800 25.30300 26.51500
C  47.38800 24.28000 25.66500
C  47.69200 24.58000 24.18200
C  48.29300 25.98000 24.28400
C  48.22300 26.30900 25.75800
C  48.70700 23.56900 23.64400
C  47.54700 27.08200 23.49400
C  48.38600 28.19100 22.78800
N  48.47800 27.09000 28.63400
C  48.94400 27.82500 27.55700
C  49.64200 28.96000 28.09600
C  49.46900 28.92900 29.50800
C  48.83100 27.67700 29.76400
C  50.52700 29.90600 27.31900
C  49.82100 29.58500 30.75800
O  50.47200 30.57800 30.98400
C  49.19400 28.69000 31.88300
C  50.20800 28.28900 32.99400
O  50.73000 27.15900 33.05800
O  50.45700 29.29500 33.78900
C  51.41800 28.89400 34.90400
H  46.47300 22.23300 31.72700
H  46.89400 22.43400 25.26800
H  49.32700 28.07800 25.46300
H  48.40000 26.25200 33.69500
H  46.06600 24.42800 33.32800
H  48.93900 23.52800 33.44400
H  47.52400 22.61200 33.94100
H  47.96100 24.10100 34.83800
H  45.53200 26.44700 33.57700
H  46.24500 27.75400 32.60200
H  46.77700 28.88500 34.15200
H  47.73900 27.65100 35.07500
H  45.68500 19.04000 29.90700
H  45.09600 20.43100 30.84300
H  46.74900 19.95100 31.00300
H  46.07000 18.23700 27.81600
H  45.11500 18.19600 26.32700
H  44.42800 18.90600 27.86800
H  46.82600 24.63500 23.52200
H  49.36300 26.02000 24.08000
H  49.37700 23.90700 22.85400
H  48.11200 22.74400 23.25300
H  49.36300 23.33300 24.48200
H  46.96000 27.65500 24.21100
H  46.90700 26.59000 22.76200
H  48.35000 28.11600 21.70100
H  49.45400 28.03300 22.94100
H  48.22900 29.23800 23.04900
H  50.18400 30.23700 26.33900
H  51.46800 29.41200 27.07500
H  50.67100 30.75100 27.99200
H  48.33000 29.19000 32.32000
H  50.94100 28.06700 35.43100
H  51.54900 29.76600 35.54500
H  52.38400 28.53000 34.55400
Mg 30.05500 57.09500 39.25400
C  27.53900 54.76900 38.51600
C  32.43000 54.72100 38.17400
C  32.35200 59.51900 39.18000
C  27.56700 59.50600 39.62500
N  29.92100 54.89000 38.59600
C  28.79600 54.18800 38.25700
C  29.25000 52.77000 37.81100
C  30.82700 52.71300 37.94600
C  31.11600 54.22000 38.19600
C  31.33600 51.84300 39.14000
C  28.79400 52.37100 36.39200
C  29.15900 53.46000 35.31400
H  28.05800 53.83700 34.29700
N  32.11400 57.13400 38.76500
C  32.85800 56.08500 38.41400
C  34.23700 56.55700 38.14700
C  34.30700 57.92400 38.55800
C  32.90600 58.24400 38.93500
C  35.28600 55.68300 37.51900
C  35.56100 58.78400 38.84100
O  36.66400 58.25800 38.60600
C  35.59000 60.17500 39.46500
N  29.99000 59.14400 39.61200
C  31.07500 59.94600 39.44000
C  30.71900 61.44700 39.71400
C  29.15800 61.33500 39.60500
C  28.88100 59.88100 39.72000
C  31.31600 61.92200 41.10000
C  28.74700 62.08600 38.25300
C  27.79700 63.22200 38.50600
N  27.90800 57.07600 39.34600
C  27.05900 58.18600 39.44400
C  25.68200 57.74800 39.34800
C  25.82400 56.39500 38.98100
C  27.16300 56.04300 38.95300
C  24.33300 58.52600 39.43200
C  25.12900 55.24800 38.60300
O  23.90400 55.05900 38.53000
C  26.20900 54.22100 38.21600
C  25.88900 52.96100 39.01300
O  26.18100 52.86400 40.20100
O  25.21700 52.01500 38.22800
C  24.64400 50.92700 38.99900
H  33.18200 54.00300 37.84000
H  33.11200 60.28900 39.02900
H  26.79600 60.27900 39.63900
H  28.76000 52.09900 38.51700
H  31.34600 52.43400 37.02900
H  32.34000 51.42000 39.13300
H  30.65600 50.99500 39.22400
H  31.12600 52.40000 40.05300
H  27.72800 52.15300 36.45700
H  29.27400 51.46400 36.02500
H  30.02800 53.16200 34.72700
H  29.39200 54.33300 35.92400
H  34.84900 55.06900 36.73200
H  35.74800 55.19400 38.37700
H  35.95500 56.37300 37.00300
H  36.57100 60.42900 39.86600
H  34.77500 60.10400 40.18500
H  35.29800 60.79900 38.62000
H  31.13500 62.06300 38.91700
H  28.66800 61.80700 40.45700
H  31.43600 63.00600 41.11200
H  32.25800 61.41600 41.31100
H  30.60500 61.71100 41.89900
H  28.26400 61.33600 37.62700
H  29.55700 62.27600 37.54800
H  26.72500 63.03300 38.43900
H  27.90000 63.89800 37.65700
H  28.08500 63.75500 39.41200
H  24.44000 59.40900 38.80200
H  24.25000 58.95000 40.43300
H  23.49200 57.99900 38.98300
H  26.14500 53.97400 37.15600
H  25.27400 50.03700 38.99800
H  23.67800 50.64000 38.58200
H  24.46900 51.29400 40.01100

