158

Mg 0.61000 43.50200 26.56600
C  2.98500 43.29400 29.13500
C  -1.72100 42.62100 28.81400
C  -1.52200 42.93400 23.99800
C  3.25300 43.91200 24.26900
N  0.64900 43.08200 28.83800
C  1.66400 43.07600 29.68100
C  1.20700 42.88800 31.16300
C  -0.34600 42.59600 30.97900
C  -0.45300 42.68300 29.43000
C  -0.87200 41.28100 31.52100
C  1.66200 44.07900 32.05300
C  1.94100 43.71500 33.51800
H  1.41800 42.39300 34.07300
N  -1.36100 43.12900 26.43300
C  -2.16000 42.69000 27.47800
C  -3.54000 42.51300 27.02300
C  -3.42700 42.58100 25.60500
C  -2.05000 42.86300 25.30900
C  -4.69200 42.03100 27.96700
C  -4.51600 42.31400 24.61800
O  -4.31600 42.35500 23.40300
C  -5.83700 41.98500 25.04400
N  0.77000 43.62700 24.43800
C  -0.25000 43.25000 23.57700
C  0.19000 43.52100 22.13600
C  1.65700 44.07200 22.25100
C  1.93600 43.82100 23.71000
C  0.18800 42.28100 21.24400
C  1.82600 45.54000 21.79900
C  1.55100 45.69400 20.26600
N  2.60600 43.60200 26.63800
C  3.58900 43.76900 25.64000
C  4.88800 43.64600 26.22200
C  4.66700 43.39500 27.56000
C  3.30200 43.50900 27.76300
C  6.16500 43.65400 25.42000
C  5.36200 43.04000 28.79100
O  6.54900 42.68300 28.99500
C  4.32700 43.24000 29.94400
C  4.50900 42.15100 30.96200
O  4.14200 41.03100 30.82400
O  5.15000 42.69100 32.04600
C  5.47400 41.65900 33.08900
H  -2.52600 42.38100 29.51200
H  -2.05900 42.88600 23.04900
H  4.13600 44.14000 23.66900
H  1.61700 41.93600 31.50000
H  -0.99600 43.40800 31.30500
H  -1.88300 41.43500 31.90100
H  -0.20200 41.05900 32.35200
H  -0.88100 40.46600 30.79700
H  0.91700 44.87100 31.97700
H  2.65400 44.36600 31.70500
H  1.76600 44.54100 34.20700
H  3.02100 43.63000 33.64300
H  -4.35500 42.32000 28.96300
H  -4.80600 40.94700 27.93700
H  -5.71100 42.40400 27.85900
H  -5.81500 41.04500 25.59700
H  -6.45000 41.88900 24.14800
H  -6.11900 42.79900 25.71100
H  -0.26600 44.37900 21.64300
H  2.36400 43.41000 21.75000
H  0.17700 41.39100 21.87200
H  0.93500 42.25100 20.45100
H  -0.82300 42.32000 20.83800
H  2.78500 45.94700 22.11800
H  1.01700 46.01700 22.35400
H  0.54200 45.98200 19.97100
H  1.75100 44.77000 19.72300
H  2.22200 46.46600 19.88800
H  6.11800 43.07500 24.49800
H  6.87900 43.12900 26.05500
H  6.46900 44.68800 25.25900
H  4.46100 44.25600 30.31700
H  6.27900 41.99700 33.74100
H  5.73100 40.73400 32.57300
H  4.65800 41.43900 33.77800
Mg -5.93900 25.49300 26.23300
C  -4.04100 26.95500 28.82000
C  -7.23200 23.33300 28.51000
C  -7.15700 23.80500 23.59900
C  -4.21000 27.71500 24.06700
N  -5.58700 25.18100 28.41000
C  -5.06000 26.10500 29.27800
C  -5.52600 25.87500 30.72100
C  -6.29900 24.54700 30.55500
C  -6.42300 24.29600 29.07600
C  -5.89800 23.27900 31.31900
C  -6.26800 27.08200 31.35600
C  -6.82300 26.83800 32.72300
H  -6.14800 25.82200 33.62700
N  -7.13500 23.84900 26.05100
C  -7.56900 23.09600 27.12100
C  -8.36900 22.00800 26.60200
C  -8.40900 22.17300 25.18700
C  -7.53700 23.27600 24.84200
C  -9.06500 21.11500 27.53700
C  -9.25500 21.44600 24.15400
O  -9.36900 21.82700 22.97900
C  -10.18500 20.36600 24.61500
N  -5.67500 25.62300 24.13500
C  -6.22900 24.79900 23.23800
C  -5.98800 25.25300 21.77600
C  -5.21700 26.56600 21.91700
C  -5.00800 26.70900 23.50100
C  -5.39100 24.14800 20.86300
C  -5.77300 27.84400 21.24200
C  -5.05600 28.47800 20.06200
N  -4.42100 27.00600 26.36800
C  -3.80100 27.79100 25.38600
C  -2.81700 28.66500 25.94700
C  -2.84000 28.28400 27.32800
C  -3.79600 27.28500 27.49000
C  -1.98200 29.70300 25.23700
C  -2.30900 28.56100 28.63500
O  -1.45300 29.42200 28.92400
C  -3.06900 27.69700 29.65600
C  -2.15000 27.09800 30.72100
O  -1.47100 26.10800 30.55500
O  -2.27400 27.82800 31.88900
C  -1.87600 27.21600 33.11500
H  -7.68000 22.67200 29.25600
H  -7.31700 23.21100 22.69600
H  -3.75000 28.43500 23.38700
H  -4.68700 25.69400 31.39400
H  -7.31200 24.79800 30.87000
H  -5.04300 23.38700 31.98600
H  -5.57200 22.44600 30.69600
H  -6.73900 23.02600 31.96500
H  -7.10700 27.19200 30.67000
H  -5.60500 27.94800 31.37900
H  -7.86900 26.57700 32.56400
H  -6.76500 27.74400 33.32700
H  -10.07900 21.51400 27.56500
H  -8.64300 21.21700 28.53600
H  -9.09600 20.05800 27.27400
H  -10.74300 20.00800 23.75000
H  -10.98800 20.72400 25.25800
H  -9.54800 19.61600 25.08300
H  -6.95600 25.52700 21.35700
H  -4.17600 26.49500 21.60200
H  -5.53200 23.13300 21.23600
H  -4.31200 24.29800 20.84200
H  -5.86700 24.17400 19.88300
H  -5.84900 28.58200 22.04000
H  -6.77000 27.64600 20.84900
H  -4.44600 29.31700 20.39800
H  -5.82400 28.92600 19.43100
H  -4.48900 27.75700 19.47300
H  -2.03800 29.73400 24.14900
H  -0.94000 29.70300 25.55900
H  -2.33100 30.64000 25.67100
H  -3.69100 28.50300 30.04500
H  -1.27100 28.00200 33.56700
H  -1.35500 26.26300 33.03000
H  -2.74600 27.17900 33.77100

