158

Mg 45.51200 4.23600 47.66400
C  43.52000 6.97100 47.05800
C  42.90100 2.14400 47.01900
C  47.78500 1.69000 47.23800
C  48.25600 6.41900 47.74100
N  43.44700 4.55200 47.17200
C  42.83600 5.76900 46.92400
C  41.33200 5.62600 46.59900
C  41.05600 4.06400 46.88700
C  42.51900 3.51900 47.06200
C  40.09700 3.67800 48.00100
C  40.84400 6.38700 45.23400
C  40.71100 5.51300 43.97900
H  40.48100 6.24100 42.64800
N  45.35300 2.16700 47.26900
C  44.17000 1.50700 47.05500
C  44.47000 0.11100 46.93400
C  45.85400 -0.08300 46.97000
C  46.40400 1.27700 47.17800
C  43.37000 -0.96000 46.80700
C  46.57300 -1.35200 46.83000
O  45.84300 -2.37100 46.68400
C  48.04300 -1.53800 46.91200
N  47.69100 4.11800 47.80200
C  48.34000 2.98300 47.47100
C  49.89300 3.17500 47.65600
C  50.00800 4.64100 47.91500
C  48.58800 5.10300 47.88800
C  50.56300 2.20500 48.60700
C  51.02900 5.39900 46.94800
C  51.85800 6.56500 47.67700
N  45.87800 6.29800 47.64400
C  47.01700 7.07700 47.66400
C  46.70900 8.45800 47.54800
C  45.35200 8.50400 47.44200
C  44.88400 7.13700 47.47400
C  47.67900 9.55400 47.56900
C  44.16400 9.37800 47.32800
O  44.07100 10.60600 47.39000
C  42.96400 8.36100 47.10400
C  42.08800 8.55800 48.29500
O  42.28200 7.99400 49.41700
O  41.05700 9.50100 48.07700
C  40.20800 9.63600 49.26800
H  42.04900 1.46400 47.09400
H  48.40600 0.84000 46.95000
H  49.11600 7.08400 47.84800
H  40.80700 6.14800 47.39800
H  40.73500 3.67300 45.92100
H  40.13700 4.36100 48.84900
H  40.40500 2.73900 48.46200
H  39.09400 3.59200 47.58300
H  41.66000 7.03700 44.91900
H  39.83300 6.77000 45.37300
H  39.82600 4.88900 44.10000
H  41.50400 4.78300 43.81700
H  43.40100 -1.66300 47.64000
H  43.56900 -1.60900 45.95500
H  42.36100 -0.54900 46.76400
H  48.44300 -1.07400 47.81400
H  48.39500 -1.05900 45.99900
H  48.52100 -2.51800 46.92800
H  50.37900 3.06000 46.68700
H  50.33400 4.61000 48.95400
H  49.79600 1.70500 49.19900
H  51.28800 2.75400 49.20700
H  51.10000 1.40300 48.10100
H  50.49000 5.89100 46.13800
H  51.74300 4.81600 46.36500
H  52.52100 6.06900 48.38600
H  51.28200 7.26700 48.28000
H  52.33200 7.13100 46.87600
H  47.19500 10.50000 47.32700
H  48.57500 9.36400 46.97800
H  47.94600 9.67000 48.62000
H  42.50200 8.68800 46.17300
H  40.82300 9.69200 50.16600
H  39.40300 8.92100 49.43700
H  39.67700 10.58800 49.24200
Mg -11.03900 16.81600 40.93700
C  -7.44400 16.81200 40.93900
C  -10.74900 20.26300 40.35100
C  -14.37900 16.99600 40.69800
C  -11.12800 13.44500 41.15500
N  -9.23000 18.38200 40.45100
C  -7.89100 18.09600 40.58500
C  -7.01400 19.39000 40.30200
C  -8.12000 20.49200 40.61700
C  -9.43800 19.70300 40.46000
C  -8.04200 21.19000 41.99600
C  -6.39300 19.41500 38.84900
C  -4.82200 19.03500 38.77200
H  -4.38800 17.98100 37.66200
N  -12.36800 18.38200 40.53700
C  -12.06300 19.66300 40.29500
C  -13.30000 20.39400 40.07300
C  -14.37900 19.48700 40.09600
C  -13.73700 18.21800 40.47200
C  -13.28400 21.83300 39.52900
C  -15.84600 19.73900 39.64800
O  -16.12200 20.78400 39.20800
C  -16.91000 18.73700 39.90000
N  -12.48700 15.43400 40.82300
C  -13.80500 15.72100 40.90400
C  -14.63300 14.45200 40.92200
C  -13.62100 13.36600 41.19800
C  -12.31800 14.11600 41.09100
C  -15.90000 14.36300 41.94700
C  -13.73500 12.18500 40.19200
C  -13.48700 10.79000 40.77200
N  -9.63400 15.37500 40.97100
C  -9.80700 14.02500 41.10200
C  -8.53800 13.39100 41.25100
C  -7.58300 14.49000 41.12900
C  -8.31000 15.65000 41.01900
C  -8.26900 11.88300 41.45500
C  -6.14600 14.69000 41.21200
O  -5.17900 13.91600 41.33300
C  -5.96900 16.24900 41.10200
C  -5.26700 16.75000 42.29300
O  -4.03600 16.99000 42.26700
O  -6.13300 16.88300 43.38900
C  -5.41400 17.32600 44.62100
H  -10.62300 21.34800 40.34300
H  -15.45500 16.97000 40.88600
H  -11.09200 12.37700 41.38200
H  -6.23100 19.54700 41.04400
H  -8.05300 21.24100 39.82900
H  -8.84300 20.87600 42.66500
H  -8.13200 22.26600 41.85100
H  -7.04200 21.14300 42.42800
H  -6.60700 20.42800 38.51100
H  -6.85300 18.66100 38.20900
H  -4.60100 18.63700 39.76300
H  -4.37600 20.02300 38.66200
H  -13.13500 21.71300 38.45600
H  -12.47700 22.43000 39.95400
H  -14.22400 22.32800 39.77000
H  -17.91800 19.11200 39.72400
H  -16.72200 18.57600 40.96100
H  -16.63800 17.83600 39.35000
H  -14.91200 14.37200 39.87200
H  -13.57500 13.07300 42.24600
H  -16.78200 14.23500 41.31900
H  -15.97800 15.33700 42.43100
H  -15.84700 13.58000 42.70300
H  -13.02000 12.44100 39.41100
H  -14.73900 12.14300 39.77000
H  -14.44100 10.38600 41.10800
H  -12.75200 10.73800 41.57600
H  -13.11300 10.16200 39.96300
H  -7.38900 11.77400 42.09100
H  -8.24200 11.43200 40.46300
H  -9.09400 11.51400 42.06500
H  -5.27200 16.52500 40.31100
H  -4.57100 16.64700 44.74900
H  -5.98000 17.27200 45.55100
H  -5.08200 18.35800 44.50300

