158

Mg 34.89900 49.81300 25.48600
C  34.76600 47.89900 28.33500
C  33.27200 52.34300 27.27000
C  34.04700 51.30200 22.62900
C  35.67700 46.90900 23.66500
N  34.05300 50.07400 27.61200
C  34.19700 49.16500 28.57100
C  33.90800 49.84400 30.00800
C  33.13400 51.16800 29.57700
C  33.57300 51.20800 28.12700
C  31.61700 51.28300 29.77900
C  35.22000 50.12300 30.83800
C  35.14900 49.54800 32.29500
H  33.77600 49.45400 32.92400
N  34.03300 51.69900 25.00900
C  33.42500 52.55600 25.85100
C  32.96700 53.75200 25.10200
C  33.24100 53.42500 23.73700
C  33.79000 52.15800 23.71100
C  32.29500 54.91200 25.71700
C  32.94100 54.27600 22.41500
O  33.20600 53.85300 21.24900
C  32.38300 55.68800 22.64200
N  34.91200 49.20000 23.43300
C  34.48100 49.97200 22.48900
C  34.67500 49.29400 21.03600
C  35.45100 48.03800 21.45100
C  35.38800 48.08700 22.94300
C  33.39800 48.98200 20.18500
C  36.97200 48.00400 20.87900
C  38.11600 48.82800 21.61800
N  35.17900 47.76400 25.90100
C  35.45300 46.70200 25.08500
C  35.82100 45.60300 25.91700
C  35.57500 46.01900 27.21700
C  35.07000 47.32700 27.13500
C  36.34800 44.32500 25.40800
C  35.53200 45.57400 28.64300
O  35.82800 44.54000 29.21700
C  34.93100 46.80100 29.44100
C  33.77600 46.26600 30.18900
O  32.59600 46.12200 29.71900
O  34.12500 45.84900 31.44300
C  33.02000 45.44000 32.33300
H  32.79700 53.12800 27.86200
H  33.88300 51.67900 21.61700
H  35.97300 46.02000 23.10400
H  33.29000 49.12900 30.55000
H  33.61900 52.05200 29.99100
H  31.18400 51.49800 28.80200
H  31.55100 52.06200 30.53700
H  31.11900 50.38400 30.14200
H  35.37000 51.20300 30.84300
H  36.04700 49.77900 30.21700
H  35.63800 50.24200 32.97900
H  35.65100 48.58200 32.22900
H  31.21800 54.98500 25.57100
H  32.77100 55.81200 25.32800
H  32.40800 55.08600 26.78700
H  32.15700 56.20200 21.70800
H  33.15400 56.35300 23.03000
H  31.49900 55.65500 23.27800
H  35.30700 49.92200 20.40800
H  35.06300 47.10200 21.04800
H  33.54800 49.50900 19.24200
H  32.50500 49.43000 20.62200
H  33.18800 47.93900 19.94900
H  37.06200 48.27600 19.82700
H  37.27600 46.95800 20.85500
H  38.56800 48.31700 22.46800
H  37.62200 49.68600 22.07400
H  38.79500 49.32300 20.92300
H  37.31000 44.43700 24.90900
H  35.66700 43.79300 24.74400
H  36.68200 43.67000 26.21400
H  35.70700 47.11300 30.14000
H  32.19700 46.15200 32.38900
H  33.42400 45.23500 33.32400
H  32.54800 44.55500 31.90500
Mg 15.86300 52.52800 25.36600
C  17.86200 51.24300 28.10100
C  13.57900 53.50000 27.56500
C  14.15800 53.47800 22.75000
C  18.38100 51.07000 23.23300
N  15.79200 52.41800 27.66200
C  16.73300 51.90600 28.60800
C  16.31200 52.11900 30.01000
C  14.84300 52.70700 29.79600
C  14.70600 52.92100 28.23700
C  13.71000 51.82500 30.38400
C  17.30000 53.16600 30.60700
C  16.84300 53.77900 31.96100
H  15.92700 53.01400 32.91700
N  14.10500 53.36200 25.21000
C  13.26200 53.74400 26.22000
C  12.07400 54.40200 25.66400
C  12.23900 54.40600 24.19600
C  13.52700 53.73600 23.98800
C  11.06700 55.05400 26.59200
C  11.37900 54.92300 23.11900
O  11.66800 54.78700 21.95100
C  10.07500 55.59800 23.52800
N  16.26900 52.31400 23.23900
C  15.35000 52.80600 22.41600
C  15.77300 52.61100 20.89000
C  17.29400 52.15700 21.09400
C  17.35600 51.75800 22.56200
C  14.97500 51.72700 20.06800
C  18.27700 53.36100 20.95600
C  19.13500 53.25900 19.64200
N  17.70700 51.40200 25.57700
C  18.57200 50.93600 24.60400
C  19.66800 50.33900 25.23200
C  19.44100 50.48300 26.60200
C  18.25800 51.15400 26.73700
C  20.94800 49.66400 24.62000
C  19.97500 50.07300 27.88400
O  20.91900 49.30800 28.16000
C  19.03600 50.76100 28.92800
C  18.53300 49.72100 29.89100
O  17.85600 48.74500 29.69300
O  18.98600 49.92500 31.16400
C  18.20300 49.12000 32.15800
H  12.79700 53.79900 28.26600
H  13.67500 53.73200 21.80400
H  19.14900 50.71900 22.54000
H  16.20200 51.15000 30.49700
H  14.63900 53.69100 30.21900
H  14.01100 50.98100 31.00400
H  13.04900 51.37000 29.64600
H  12.99200 52.43100 30.93800
H  17.33500 54.00600 29.91300
H  18.28800 52.77800 30.85200
H  16.38600 54.75300 31.78700
H  17.70100 53.93000 32.61600
H  10.05800 54.71900 26.35300
H  11.04600 56.13800 26.48400
H  11.21700 54.95100 27.66700
H  9.35000 54.85700 23.86500
H  9.59500 56.14400 22.71600
H  10.24600 56.30700 24.33800
H  15.82300 53.59500 20.42300
H  17.59000 51.28300 20.51400
H  14.41200 51.03600 20.69600
H  15.63400 51.19600 19.38100
H  14.34400 52.28100 19.37200
H  19.01700 53.39000 21.75500
H  17.85300 54.36500 20.96200
H  18.60900 52.59000 18.96100
H  20.17000 52.93000 19.73500
H  19.10000 54.26900 19.23300
H  21.71600 49.56200 25.38700
H  21.34600 50.31100 23.83700
H  20.70500 48.66600 24.25600
H  19.53800 51.52700 29.51900
H  18.66800 49.32400 33.12300
H  18.25000 48.08800 31.81000
H  17.17600 49.47900 32.22000

