158

Mg -2.11400 17.68400 26.76100
C  -2.72100 15.56700 29.50000
C  -2.54400 20.40300 28.79800
C  -2.03200 19.60200 23.91100
C  -2.50300 14.88100 24.69200
N  -2.74100 17.88200 28.91500
C  -2.57000 16.92500 29.92400
C  -2.69400 17.49800 31.26800
C  -2.82300 18.97000 30.99900
C  -2.76900 19.14800 29.44400
C  -4.19900 19.53300 31.49200
C  -1.41800 17.14300 32.15100
C  -1.28900 17.94500 33.47400
H  -1.07800 17.17000 34.80600
N  -2.20700 19.70200 26.40400
C  -2.39600 20.65400 27.39500
C  -2.23700 21.95200 26.78500
C  -1.92500 21.73900 25.42700
C  -2.03600 20.28500 25.16100
C  -2.25700 23.26200 27.59800
C  -1.69900 22.83400 24.37900
O  -1.57700 22.54300 23.17000
C  -1.42800 24.24000 24.70300
N  -2.51800 17.33300 24.62800
C  -2.27800 18.25900 23.68200
C  -2.21700 17.69200 22.20800
C  -2.30700 16.14700 22.55000
C  -2.43700 16.13400 24.05000
C  -3.31500 18.18900 21.31500
C  -1.11300 15.27800 22.04200
C  0.14900 15.47400 22.76900
N  -2.48100 15.61300 26.96700
C  -2.56200 14.58100 26.04900
C  -2.76200 13.31600 26.78400
C  -2.76700 13.64900 28.13500
C  -2.67300 15.06000 28.19000
C  -3.00700 11.91900 26.18500
C  -3.00900 13.05800 29.44200
O  -3.27000 11.85900 29.72600
C  -3.00500 14.29400 30.37200
C  -1.98600 14.05100 31.33100
O  -0.77300 14.07600 31.10300
O  -2.60000 13.71900 32.55600
C  -1.71500 13.20900 33.60300
H  -2.40400 21.12200 29.60800
H  -1.82900 20.15400 22.99200
H  -2.43700 14.04300 23.99400
H  -3.60800 17.02100 31.62000
H  -2.00800 19.56100 31.41800
H  -4.68900 18.79000 32.12200
H  -4.83500 19.73100 30.63000
H  -4.03400 20.46300 32.03700
H  -0.46900 17.13600 31.61600
H  -1.57000 16.09500 32.40900
H  -2.14600 18.60500 33.61600
H  -0.37900 18.54300 33.49700
H  -2.98000 23.93700 27.14000
H  -1.27600 23.73400 27.53400
H  -2.49400 22.91300 28.60300
H  -2.39200 24.71900 24.87400
H  -0.88100 24.75200 23.91100
H  -0.87400 24.31100 25.63900
H  -1.18200 17.86600 21.91500
H  -3.19400 15.67000 22.13200
H  -3.88900 17.46400 20.73700
H  -2.91500 18.84700 20.54400
H  -4.00800 18.83200 21.85800
H  -0.93700 15.54000 20.99900
H  -1.37000 14.22100 21.98500
H  0.07900 15.93400 23.75500
H  0.86900 15.95300 22.10600
H  0.52900 14.47300 22.96900
H  -2.22200 11.80600 25.43700
H  -3.91000 12.02800 25.58500
H  -3.04000 11.23000 27.02900
H  -3.96100 14.33400 30.89400
H  -1.96100 13.71200 34.53800
H  -0.67400 13.49600 33.45700
H  -1.70600 12.12100 33.67000
Mg 47.51000 25.81800 28.17500
C  48.41500 28.10000 30.65500
C  46.40000 23.66800 30.51700
C  46.64000 23.73800 25.66900
C  48.79600 28.08600 25.79700
N  47.36200 25.93100 30.38200
C  47.66000 27.04400 31.16800
C  47.13300 26.82600 32.64800
C  46.69800 25.28800 32.60200
C  46.82800 24.88900 31.05600
C  47.43500 24.30800 33.57500
C  45.99500 27.89900 33.11700
C  45.27800 27.48000 34.36900
H  45.18400 28.50000 35.59900
N  46.64500 23.91100 28.12200
C  46.30400 23.12100 29.15100
C  45.79600 21.81300 28.72400
C  45.83600 21.83500 27.25400
C  46.37400 23.17600 26.92800
C  45.27000 20.76800 29.66500
C  45.39200 20.77100 26.18600
O  45.46100 20.88900 24.98900
C  44.79600 19.51500 26.68500
N  47.78700 25.86700 26.09000
C  47.12300 24.97900 25.27300
C  47.10600 25.40600 23.78600
C  47.81100 26.81100 23.82700
C  48.20200 26.91800 25.32100
C  47.78200 24.42400 22.78200
C  46.93600 27.95900 23.26900
C  47.05600 28.27900 21.77200
N  48.67300 27.58500 28.18700
C  49.07400 28.40900 27.17300
C  49.66300 29.60300 27.67400
C  49.50100 29.50600 29.03600
C  48.82000 28.27300 29.31700
C  50.25900 30.74200 26.84000
C  49.75600 30.21500 30.28400
O  50.24100 31.28200 30.49400
C  48.96100 29.37000 31.36800
C  49.78300 29.00800 32.54100
O  50.71100 28.26500 32.50500
O  49.36500 29.71600 33.64500
C  50.14800 29.55500 34.93400
H  46.05400 23.04700 31.34600
H  46.26900 23.02300 24.93100
H  49.11000 28.76000 24.99800
H  47.96700 26.95100 33.33800
H  45.66100 25.23900 32.93300
H  47.57100 23.34900 33.07500
H  46.84700 24.05000 34.45600
H  48.46300 24.59300 33.80200
H  45.25000 28.09500 32.34600
H  46.50300 28.83900 33.33400
H  45.63600 26.55600 34.82400
H  44.28000 27.10500 34.14500
H  44.18700 20.63900 29.65800
H  45.56800 20.87300 30.70800
H  45.68900 19.79800 29.40000
H  44.00900 19.87000 27.35100
H  45.60700 19.03800 27.23500
H  44.36400 18.90000 25.89500
H  46.07600 25.55600 23.46200
H  48.67100 26.76400 23.15900
H  48.27700 23.63100 23.34300
H  48.45300 24.89000 22.06000
H  46.97600 23.84800 22.32700
H  47.09000 28.85800 23.86600
H  45.87900 27.75100 23.43900
H  47.79400 27.63900 21.28600
H  47.40900 29.29700 21.61100
H  46.08800 28.29000 21.27200
H  50.41200 31.59100 27.50700
H  49.54300 31.00800 26.06200
H  51.20000 30.35800 26.44500
H  48.15800 30.00800 31.73700
H  49.40800 29.15100 35.62500
H  50.53000 30.48400 35.35700
H  51.02200 28.94400 34.70800

