158

Mg 44.61100 4.46700 47.25700
C  42.27600 7.21000 46.64800
C  41.77700 2.41800 47.06100
C  46.56100 1.82500 46.85700
C  47.19000 6.64500 46.47600
N  42.35700 4.86300 46.84100
C  41.64600 5.94500 46.68200
C  40.18300 5.64500 46.49700
C  40.01500 4.22900 46.94300
C  41.46600 3.76300 46.97700
C  39.32000 4.01200 48.27800
C  39.63700 5.91500 45.01800
C  38.69900 7.02000 44.66300
H  39.15600 8.09600 43.64800
N  44.15200 2.37600 47.11500
C  42.97000 1.73200 47.14700
C  43.15500 0.31400 47.05200
C  44.56900 0.10300 46.91500
C  45.19000 1.47800 46.96900
C  42.01900 -0.69700 46.97800
C  45.28200 -1.24300 46.79700
O  44.57500 -2.23100 46.94200
C  46.66000 -1.40700 46.43800
N  46.52000 4.29600 46.58400
C  47.11300 3.05100 46.71400
C  48.69400 3.15600 46.53100
C  48.78900 4.72000 46.17500
C  47.41500 5.25000 46.54600
C  49.50500 2.80200 47.85100
C  49.22200 4.98400 44.72800
C  50.73100 4.76600 44.38300
N  44.74900 6.59700 46.86700
C  45.92900 7.33700 46.62700
C  45.59900 8.67900 46.48300
C  44.15300 8.66200 46.58500
C  43.68700 7.36900 46.62700
C  46.61000 9.82500 46.27000
C  42.93000 9.53200 46.66500
O  42.85100 10.75200 46.67900
C  41.72700 8.61100 46.57400
C  40.75600 8.96500 47.68300
O  40.59400 8.25500 48.66300
O  39.94100 10.01600 47.29400
C  38.88900 10.38400 48.20700
H  40.84000 1.85800 47.01100
H  47.32000 1.04000 46.87000
H  48.05700 7.28000 46.28600
H  39.58500 6.26500 47.16400
H  39.48800 3.61200 46.21500
H  39.24900 4.95900 48.81100
H  39.73900 3.28600 48.97400
H  38.36000 3.58000 47.99400
H  39.03300 5.05500 44.72900
H  40.58600 6.03400 44.49500
H  38.48300 7.61600 45.55000
H  37.71100 6.72800 44.30700
H  42.12300 -1.09400 45.96800
H  40.95800 -0.45500 47.04500
H  42.16800 -1.48200 47.71900
H  46.73600 -0.73800 45.58000
H  46.71500 -2.42600 46.05600
H  47.29300 -1.15800 47.28900
H  49.01600 2.52500 45.70200
H  49.45000 5.27700 46.83900
H  49.94700 3.71000 48.26100
H  50.21800 2.00600 47.63600
H  48.82600 2.41000 48.60700
H  49.08100 6.04000 44.50100
H  48.60900 4.31100 44.12800
H  50.87800 4.15600 43.49200
H  51.19100 4.16800 45.17000
H  51.25500 5.71800 44.31000
H  46.28000 10.75500 46.73300
H  46.73200 9.97600 45.19700
H  47.58500 9.58100 46.68900
H  41.18500 8.74900 45.63900
H  39.28800 10.73700 49.15800
H  38.19600 9.59100 48.48700
H  38.31900 11.21700 47.79600
Mg -11.83600 16.85700 40.96500
C  -8.67000 15.53400 41.04100
C  -10.38900 19.93000 40.28300
C  -14.85500 18.02000 39.97500
C  -13.14600 13.52700 41.16700
N  -9.70500 17.65300 40.78500
C  -8.57300 16.94700 40.78700
C  -7.30500 17.78800 40.56800
C  -7.92200 19.25900 40.68000
C  -9.42700 18.96700 40.56500
C  -7.43700 19.97000 42.00200
C  -6.48200 17.36000 39.30900
C  -5.04900 16.75200 39.50900
H  -4.80000 15.45900 38.85200
N  -12.55000 18.71000 40.26800
C  -11.80100 19.84700 40.05400
C  -12.62200 20.87200 39.58600
C  -13.93200 20.39100 39.50100
C  -13.83800 18.96500 39.94500
C  -12.12900 22.25800 39.15600
C  -15.19400 21.20100 39.11100
O  -15.00000 22.41100 38.81100
C  -16.63300 20.74700 39.15600
N  -13.72800 15.97900 40.74500
C  -14.83700 16.68000 40.32600
C  -15.96400 15.71000 39.88400
C  -15.49700 14.44000 40.54500
C  -14.00300 14.59400 40.83200
C  -17.31700 16.27200 40.46100
C  -15.89000 13.11800 39.88300
C  -16.98000 12.30600 40.62500
N  -11.12600 14.94700 41.27500
C  -11.75500 13.71000 41.36400
C  -10.73900 12.64700 41.43500
C  -9.50500 13.35200 41.37300
C  -9.85500 14.70100 41.18500
C  -11.02000 11.22800 41.54800
C  -8.10000 13.11300 41.19400
O  -7.41500 12.09700 41.06300
C  -7.51000 14.52600 41.13400
C  -6.69300 14.82000 42.33800
O  -6.97300 15.50700 43.29700
O  -5.50000 14.07400 42.31100
C  -4.66100 14.20200 43.51000
H  -9.84700 20.82400 39.96700
H  -15.78200 18.37600 39.52200
H  -13.52000 12.51500 41.33900
H  -6.66000 17.62100 41.43100
H  -7.76900 19.76800 39.72900
H  -7.41900 21.05100 41.86600
H  -6.42700 19.71200 42.31900
H  -8.20600 19.74200 42.74000
H  -6.39900 18.24100 38.67200
H  -7.03700 16.56100 38.81700
H  -4.87700 16.71100 40.58500
H  -4.28300 17.42400 39.12200
H  -12.54700 22.51900 38.18400
H  -11.04800 22.15200 39.06600
H  -12.26200 23.05900 39.88300
H  -16.75800 19.96200 38.41000
H  -17.32900 21.55400 38.92500
H  -17.00400 20.31800 40.08600
H  -16.03100 15.78000 38.79800
H  -15.95700 14.44900 41.53200
H  -17.97100 16.73000 39.71900
H  -17.03800 17.05700 41.16400
H  -17.80200 15.41200 40.92400
H  -15.01800 12.48200 39.73400
H  -16.40500 13.32700 38.94500
H  -17.88300 12.64300 40.11600
H  -17.14800 12.39900 41.69800
H  -16.71500 11.25500 40.51300
H  -11.51700 10.93900 40.62300
H  -11.61400 10.94700 42.41800
H  -10.08300 10.68400 41.67200
H  -6.86700 14.62700 40.26000
H  -4.67500 15.19700 43.95300
H  -3.66200 13.94000 43.16200
H  -5.01400 13.46700 44.23400

