158

Mg 35.40300 2.69400 30.09800
C  33.05600 3.71300 32.60100
C  37.74600 2.42300 32.52100
C  37.51200 2.47800 27.69200
C  32.78500 3.21000 27.73600
N  35.39500 3.16800 32.27800
C  34.38800 3.50600 33.09800
C  34.79800 3.38900 34.60100
C  36.28000 3.16500 34.53700
C  36.51300 2.88400 32.99100
C  37.01800 4.39300 35.19900
C  34.02900 2.22300 35.36300
C  33.96400 2.29400 36.86400
H  34.66800 3.41200 37.67500
N  37.31500 2.51300 30.12600
C  38.10900 2.29800 31.20500
C  39.51900 2.02600 30.78500
C  39.47200 1.96900 29.38700
C  38.06300 2.33900 29.05300
C  40.66300 1.65900 31.79200
C  40.57600 1.72200 28.35700
O  40.58800 1.73800 27.11900
C  42.01500 1.48800 28.96400
N  35.18800 3.09700 27.94000
C  36.19000 2.66100 27.20100
C  35.78100 2.56500 25.73500
C  34.25700 2.80800 25.79200
C  34.03500 3.05700 27.23500
C  36.59000 3.67400 24.94900
C  33.39700 1.68300 25.26800
C  33.43600 0.36500 26.03900
N  33.34100 3.34400 30.10500
C  32.47400 3.47900 29.07200
C  31.18600 4.04600 29.58300
C  31.43600 4.14300 31.01000
C  32.71200 3.63600 31.26500
C  29.96900 4.33900 28.70600
C  30.80400 4.48000 32.26300
O  29.68000 4.94700 32.38500
C  31.80800 4.15100 33.34300
C  32.01400 5.39700 34.09600
O  32.48000 6.44700 33.75600
O  31.33000 5.19300 35.26800
C  31.22100 6.45900 36.06100
H  38.40300 2.01500 33.29200
H  38.24400 2.21700 26.92500
H  31.92400 3.33000 27.07600
H  34.56700 4.35700 35.04600
H  36.45800 2.26800 35.12900
H  37.40400 5.03800 34.40900
H  37.82200 4.02000 35.83200
H  36.39300 5.09500 35.75100
H  34.44500 1.27500 35.02000
H  33.04000 2.16200 34.90900
H  34.41300 1.35100 37.17400
H  32.93300 2.19800 37.20400
H  41.01700 2.62300 32.15600
H  41.44400 1.05500 31.33000
H  40.30900 1.09100 32.65200
H  42.77100 1.71300 28.21100
H  42.14500 0.49700 29.39700
H  42.16200 2.22200 29.75800
H  35.87800 1.57100 25.29700
H  33.96500 3.65700 25.17400
H  37.06300 3.32200 24.03200
H  37.41600 4.08600 25.52800
H  35.96900 4.54300 24.73100
H  33.60800 1.38000 24.24200
H  32.38600 2.08900 25.24900
H  32.42200 -0.00600 26.18400
H  33.84400 0.63900 27.01200
H  34.11100 -0.34600 25.56200
H  30.27300 5.21500 28.13400
H  29.21200 4.63100 29.43400
H  29.65000 3.54700 28.02900
H  31.26900 3.38100 33.89500
H  32.12700 6.99700 36.34200
H  30.64100 6.27000 36.96400
H  30.62000 7.13100 35.44900
Mg 30.36200 58.08600 40.33400
C  27.56600 56.16100 39.33700
C  32.46100 55.68800 39.48700
C  32.89600 60.43300 40.21400
C  28.05500 60.87700 40.57800
N  29.97600 56.15300 39.54400
C  28.81900 55.51500 39.22900
C  29.09300 54.04800 38.97800
C  30.61900 53.90300 39.22900
C  31.08400 55.39000 39.40600
C  31.05400 52.78600 40.25100
C  28.54600 53.50300 37.61500
C  29.32400 53.89900 36.33300
H  28.44500 54.35400 35.23300
N  32.35900 58.06200 39.90100
C  33.07000 56.96900 39.53600
C  34.43900 57.24800 39.26200
C  34.59400 58.62100 39.59500
C  33.25800 59.12600 39.93700
C  35.39400 56.18500 38.72700
C  35.96100 59.27800 39.59800
O  36.96900 58.57300 39.37700
C  36.14700 60.70500 39.91400
N  30.46700 60.42600 40.32400
C  31.66700 61.04400 40.43400
C  31.48800 62.50200 40.70800
C  29.94600 62.63300 41.03600
C  29.38700 61.24900 40.59400
C  32.42500 63.22100 41.76100
C  29.22100 63.76800 40.24800
C  27.95100 64.42900 40.76300
N  28.21600 58.40300 40.34100
C  27.45400 59.57700 40.40400
C  26.06400 59.19500 40.44400
C  26.04600 57.88000 40.06500
C  27.37600 57.45600 39.85200
C  25.02100 60.12800 40.71200
C  25.19500 56.76000 39.74900
O  23.94900 56.64500 39.72900
C  26.10800 55.59500 39.18800
C  25.79700 54.26200 39.80300
O  26.43900 53.64700 40.65200
O  24.92900 53.60700 38.97100
C  24.62300 52.18600 39.31000
H  33.09100 54.81300 39.30700
H  33.71000 61.16100 40.18300
H  27.32400 61.67600 40.72300
H  28.54000 53.47300 39.72100
H  31.00400 53.50500 38.29000
H  30.43900 51.90300 40.07800
H  30.85800 53.17800 41.24900
H  32.09900 52.48400 40.18300
H  27.56500 53.97000 37.53300
H  28.39000 52.44100 37.80400
H  29.95300 53.06400 36.02500
H  30.14100 54.58300 36.56400
H  36.04500 56.43900 37.89000
H  34.97900 55.23800 38.38200
H  35.85900 55.74500 39.60900
H  35.72300 60.96300 40.88500
H  35.62500 61.14100 39.06300
H  37.21600 60.91300 39.95300
H  31.69500 62.98600 39.75400
H  29.62700 62.68800 42.07700
H  31.89400 63.56200 42.65000
H  32.85500 64.10500 41.29000
H  33.17600 62.51700 42.11900
H  29.11600 63.36100 39.24200
H  29.96000 64.53000 39.99700
H  28.34700 65.37800 41.12500
H  27.49900 63.98700 41.65100
H  27.27200 64.58100 39.92400
H  25.05200 60.94700 39.99300
H  24.92000 60.57400 41.70200
H  24.18000 59.47500 40.47700
H  25.71700 55.50200 38.17500
H  25.22900 51.64600 38.58200
H  23.59600 52.02600 38.98200
H  24.87800 51.93400 40.33900

