158

Mg -1.87400 17.52700 25.72100
C  -2.44500 15.35000 28.59400
C  -2.78400 20.13800 27.84600
C  -1.94500 19.40500 23.07100
C  -1.78900 14.62200 23.76000
N  -2.33500 17.67200 28.01700
C  -2.46400 16.71100 29.00600
C  -2.86400 17.34200 30.32400
C  -3.09500 18.84200 30.02700
C  -2.73300 18.92600 28.54700
C  -4.58200 19.19600 30.34800
C  -1.70000 17.16500 31.35900
C  -1.97200 16.31100 32.58100
H  -2.34800 17.10500 33.80900
N  -2.28000 19.51500 25.44300
C  -2.41400 20.41700 26.49300
C  -2.35600 21.74500 25.85100
C  -2.08500 21.59800 24.44400
C  -2.08100 20.17900 24.30500
C  -2.51100 23.00100 26.61200
C  -1.72800 22.62700 23.45500
O  -1.53200 22.35800 22.28400
C  -1.65900 24.05500 23.80600
N  -2.09700 16.99500 23.71200
C  -1.85400 18.01300 22.83100
C  -1.57700 17.50100 21.40900
C  -1.42700 15.96400 21.66100
C  -1.71200 15.85600 23.17900
C  -2.64000 17.78200 20.35000
C  -0.09800 15.24700 21.28100
C  1.02100 15.52300 22.28000
N  -1.99000 15.36700 26.08900
C  -1.87900 14.35500 25.13800
C  -1.98300 13.04400 25.82800
C  -2.23300 13.38800 27.19000
C  -2.23600 14.80300 27.30000
C  -1.98200 11.71400 25.22700
C  -2.55000 12.88600 28.52700
O  -2.61800 11.75100 28.84200
C  -2.73600 14.07700 29.51300
C  -1.73900 13.84500 30.67600
O  -0.57100 14.20200 30.67100
O  -2.31400 13.11100 31.66000
C  -1.57700 12.89200 32.90900
H  -3.03000 21.01000 28.45700
H  -1.91900 20.03000 22.17500
H  -1.70300 13.71400 23.16000
H  -3.78900 16.81400 30.55700
H  -2.49100 19.60000 30.52600
H  -4.84100 18.83800 31.34400
H  -5.35400 18.66600 29.79000
H  -4.72700 20.27500 30.28800
H  -1.26000 18.14400 31.55100
H  -0.89500 16.64000 30.84500
H  -1.04100 15.77600 32.76600
H  -2.76000 15.56400 32.48600
H  -2.34300 22.92300 27.68600
H  -3.40700 23.60800 26.48400
H  -1.81200 23.76800 26.27600
H  -0.87600 24.50900 24.41300
H  -2.60100 24.35800 24.26300
H  -1.79600 24.63600 22.89300
H  -0.63700 17.93400 21.06600
H  -2.20900 15.41400 21.13700
H  -2.85300 18.84100 20.20500
H  -3.59900 17.37000 20.66200
H  -2.42900 17.28400 19.40300
H  0.22500 15.63200 20.31400
H  -0.35400 14.18800 21.24400
H  0.79500 16.32800 22.98000
H  1.94000 15.70800 21.72300
H  1.25000 14.65900 22.90400
H  -1.49800 11.87700 24.26500
H  -2.97300 11.26300 25.18700
H  -1.36900 10.94900 25.70400
H  -3.72700 14.00900 29.96200
H  -2.18500 12.93500 33.81300
H  -0.75700 13.60000 33.03500
H  -1.25900 11.85000 32.89800
Mg 15.42800 51.68900 25.77500
C  17.63500 50.48400 28.41100
C  13.38200 52.68800 28.04700
C  13.80500 52.71200 23.19700
C  17.96700 50.22100 23.50900
N  15.63700 51.60500 27.93500
C  16.55100 51.26300 28.83900
C  16.15000 51.52000 30.32500
C  14.72600 52.09600 30.05300
C  14.58500 52.08400 28.57000
C  13.59100 51.39900 30.82600
C  17.18300 52.47100 31.05500
C  16.55900 53.13500 32.31100
H  15.95200 52.24000 33.36800
N  13.78600 52.68900 25.63700
C  12.93700 52.94800 26.72100
C  11.66600 53.33500 26.18500
C  11.74700 53.22100 24.77100
C  13.11700 52.84100 24.44400
C  10.55100 53.76800 27.05600
C  10.69500 53.38200 23.73100
O  10.89600 53.41000 22.51700
C  9.24900 53.57100 24.09500
N  15.93900 51.60300 23.62000
C  14.99500 52.15200 22.78900
C  15.33900 51.79500 21.33000
C  16.78600 51.14900 21.42000
C  16.93100 50.97000 22.94100
C  14.35600 50.78100 20.67900
C  18.01900 51.90800 20.80200
C  18.71300 51.26600 19.62500
N  17.39200 50.58100 25.90500
C  18.23400 50.06700 24.90700
C  19.36300 49.41900 25.50200
C  19.08600 49.50800 26.87100
C  17.92900 50.26900 27.07500
C  20.44500 48.84900 24.79300
C  19.57500 49.05700 28.16900
O  20.58800 48.36300 28.37800
C  18.74100 49.83200 29.28000
C  18.19100 48.91000 30.27300
O  17.46700 47.90500 29.99600
O  18.64900 49.19900 31.55100
C  18.12600 48.45600 32.64400
H  12.61000 53.09000 28.70700
H  13.20700 52.90600 22.30400
H  18.65500 49.78300 22.78400
H  16.05500 50.71300 31.05200
H  14.70700 53.14300 30.35700
H  13.90800 50.62100 31.52100
H  12.90700 50.83700 30.19100
H  13.06300 52.18300 31.36900
H  17.44100 53.22300 30.30800
H  17.95900 51.86300 31.51900
H  15.83100 53.91500 32.08800
H  17.39400 53.65400 32.78100
H  9.95500 54.61900 26.72800
H  10.85000 53.90400 28.09600
H  9.81800 52.96600 26.97400
H  8.66100 53.41900 23.19000
H  9.23600 54.59900 24.45600
H  8.91000 52.88200 24.86900
H  15.48200 52.75400 20.83100
H  16.66300 50.13400 21.04200
H  13.82200 51.24800 19.85200
H  13.74300 50.36700 21.47900
H  14.84200 49.93400 20.19400
H  18.75500 51.98200 21.60300
H  17.71300 52.91200 20.50700
H  18.76700 51.90100 18.74100
H  17.97600 50.54400 19.27600
H  19.70600 50.98400 19.97500
H  20.14000 47.92800 24.29600
H  21.25600 48.74600 25.51500
H  20.73700 49.62600 24.08700
H  19.24800 50.67000 29.76000
H  18.90900 47.79800 33.02100
H  17.23700 47.88800 32.36900
H  17.75900 49.12800 33.41900

