158

Mg 40.35700 9.78000 29.35500
C  42.13300 10.52700 32.32900
C  38.06300 8.03300 31.26900
C  38.87100 8.72500 26.51700
C  43.01100 10.96200 27.46800
N  40.28700 9.22300 31.56900
C  41.09500 9.60600 32.57500
C  40.50200 9.25600 33.93800
C  39.39200 8.21100 33.53600
C  39.18300 8.53700 32.05000
C  39.62000 6.69200 33.85200
C  39.92100 10.48700 34.66500
C  40.30600 10.61200 36.17400
H  40.53800 11.98000 36.76200
N  38.67400 8.65100 28.90000
C  37.89900 8.01300 29.83200
C  36.82100 7.25800 29.15400
C  36.97700 7.54300 27.77600
C  38.17700 8.36100 27.65500
C  35.89000 6.36500 29.81500
C  36.15900 7.02900 26.60500
O  36.38500 7.37900 25.45100
C  35.07200 6.10800 26.93700
N  40.94700 9.77100 27.27200
C  40.17100 9.23100 26.34900
C  40.80000 9.39300 24.93900
C  42.04000 10.21400 25.22900
C  41.99300 10.34900 26.77200
C  40.99600 8.03200 24.21300
C  41.88700 11.63600 24.55200
C  40.60200 12.40200 24.78800
N  42.23700 10.56100 29.76600
C  43.17900 11.07900 28.89500
C  44.20400 11.69500 29.65400
C  43.82400 11.60600 30.97700
C  42.61100 10.88900 31.01700
C  45.38700 12.39700 29.23700
C  44.14100 11.86100 32.44700
O  45.13400 12.43500 32.90100
C  43.03100 11.18100 33.36700
C  43.77500 10.23900 34.26800
O  44.47100 9.33000 33.89700
O  43.50500 10.59500 35.53400
C  44.36000 9.93900 36.54500
H  37.34900 7.46300 31.86600
H  38.43200 8.44600 25.55700
H  43.90000 11.37900 26.98900
H  41.09300 8.69000 34.65700
H  38.45200 8.41200 34.05100
H  40.06500 6.21600 32.97800
H  38.69800 6.14300 34.04600
H  40.35800 6.46100 34.62000
H  38.83700 10.42800 34.56500
H  40.24700 11.39300 34.15400
H  41.18900 10.07800 36.52600
H  39.48700 10.16400 36.73700
H  34.84700 6.55900 29.56500
H  35.76000 6.68700 30.84800
H  36.19500 5.32300 29.71000
H  35.37000 5.10500 27.24200
H  34.50100 5.95800 26.02100
H  34.42700 6.76300 27.52300
H  40.03300 9.94800 24.39900
H  42.98200 9.75700 24.92700
H  42.07100 8.01700 24.03700
H  40.62400 7.97300 23.19000
H  40.66100 7.19100 24.81900
H  41.96600 11.53800 23.46900
H  42.80700 12.16300 24.80600
H  40.77700 13.37800 25.24000
H  39.85200 11.92000 25.41500
H  40.09700 12.77200 23.89600
H  45.39100 13.27700 29.88100
H  45.32600 12.75400 28.20900
H  46.31400 11.83400 29.34400
H  42.42600 11.88700 33.93600
H  45.42100 9.92100 36.29400
H  43.86300 8.98300 36.71100
H  44.18700 10.41900 37.50900
Mg 6.12800 55.01500 41.14900
C  3.71800 52.51100 41.14800
C  8.35400 52.59300 40.04800
C  8.32100 57.44000 40.46700
C  3.72000 57.35900 41.84900
N  5.93200 52.83400 40.43400
C  4.88500 52.06600 40.52900
C  5.27700 50.61100 40.10900
C  6.75000 50.53900 40.11400
C  7.05500 52.10500 40.18600
C  7.44700 49.63700 41.16900
C  4.61100 50.44900 38.67500
C  4.19200 49.07200 38.24300
H  4.95600 48.47600 37.04400
N  8.17700 55.04400 40.45900
C  8.90000 53.97500 40.11400
C  10.22900 54.30200 39.75900
C  10.30500 55.71200 39.90400
C  8.94400 56.19700 40.33500
C  11.20900 53.18300 39.31400
C  11.47300 56.49100 39.59700
O  12.49900 55.96500 39.20400
C  11.36700 57.97400 39.72200
N  5.99800 57.04600 40.96100
C  6.99600 57.88100 40.65000
C  6.58800 59.29200 40.62900
C  5.11200 59.26800 40.98400
C  4.88500 57.79100 41.24600
C  7.44500 60.09200 41.62900
C  4.16000 59.69000 39.80700
C  2.96500 60.61500 40.09700
N  4.12300 55.00000 41.44600
C  3.29500 56.01200 41.94700
C  2.06500 55.44100 42.37300
C  2.20500 54.08600 42.09800
C  3.42900 53.86800 41.50900
C  0.92200 56.24700 42.90200
C  1.52200 52.87700 42.12700
O  0.47100 52.58200 42.63800
C  2.50700 51.75800 41.46500
C  1.77200 51.05400 40.42400
O  1.17800 51.62300 39.51300
O  1.71500 49.65400 40.56400
C  0.86000 48.99700 39.60800
H  8.98700 51.73900 39.79900
H  8.89800 58.24300 40.00300
H  2.91600 58.05800 42.08700
H  4.80600 49.84500 40.72500
H  7.08500 50.26400 39.11300
H  6.93900 48.69400 41.37200
H  7.60300 50.29400 42.02500
H  8.43700 49.56600 40.72000
H  5.33800 50.78700 37.93600
H  3.70800 51.04000 38.52600
H  3.14500 49.10100 37.93900
H  4.31800 48.41800 39.10600
H  10.63500 52.53600 38.65100
H  11.51400 52.57200 40.16400
H  12.02000 53.49000 38.65300
H  12.34200 58.44700 39.83800
H  10.77500 58.14000 40.62300
H  10.90300 58.38900 38.82800
H  6.75700 59.81100 39.68500
H  4.89400 59.71700 41.95400
H  7.95100 59.44900 42.34900
H  6.90300 60.92900 42.06900
H  8.26600 60.55800 41.08300
H  3.61800 58.81300 39.45100
H  4.64300 59.99400 38.87900
H  2.10900 60.10800 39.65300
H  3.17400 61.47500 39.46100
H  2.79700 60.90400 41.13500
H  0.55100 56.97200 42.17700
H  1.24100 56.71700 43.83100
H  0.16900 55.47700 43.07700
H  2.69200 51.06900 42.28900
H  1.46200 48.15400 39.26900
H  0.54800 49.54800 38.72100
H  0.05500 48.55000 40.19100

