158

Mg 48.99000 46.03000 43.27300
C  45.67500 47.26000 42.21400
C  48.38900 43.32400 41.25200
C  52.24700 45.61100 43.36300
C  49.43800 49.36500 44.63700
N  47.25800 45.48200 41.80200
C  46.01100 46.08900 41.58500
C  45.15900 45.22000 40.69900
C  45.99100 43.88700 40.60300
C  47.31300 44.30800 41.20600
C  45.37300 42.55700 41.16100
C  44.92100 45.91200 39.32000
C  43.39400 45.84600 38.95700
H  42.95500 45.61400 37.53000
N  50.18000 44.60200 42.51200
C  49.80500 43.47700 41.78400
C  50.90700 42.60800 41.63300
C  52.05100 43.25400 42.19400
C  51.56100 44.53400 42.70100
C  50.77000 41.34400 41.05100
C  53.53800 42.70000 42.20900
O  53.67600 41.58800 41.66200
C  54.70100 43.48100 42.73100
N  50.61300 47.29000 43.99600
C  51.87300 46.85000 43.98200
C  52.89300 47.84800 44.44000
C  51.94800 48.97800 44.94300
C  50.57800 48.60200 44.46900
C  54.04800 47.38900 45.39900
C  52.49000 50.36500 44.56100
C  52.54700 51.35600 45.69900
N  47.80100 47.93700 43.51400
C  48.13200 49.05400 44.24500
C  46.98600 49.95200 44.24000
C  46.06200 49.26100 43.54000
C  46.51700 47.98900 43.10800
C  46.91000 51.27700 44.88900
C  44.62700 49.26300 43.16500
O  43.74900 50.11600 43.44200
C  44.32400 47.91900 42.31000
C  43.44300 47.00600 43.04400
O  43.56700 46.58900 44.19100
O  42.29700 46.83600 42.27800
C  41.36000 45.90200 42.89000
H  48.27600 42.43200 40.63200
H  53.33100 45.47500 43.35600
H  49.58600 50.36400 45.05100
H  44.21800 45.10900 41.23900
H  46.28600 43.66800 39.57700
H  44.31400 42.57400 41.41900
H  45.94200 42.45600 42.08500
H  45.52700 41.69300 40.51400
H  45.52600 45.47100 38.52900
H  45.36800 46.90700 39.30000
H  42.97600 46.78600 39.31800
H  42.83800 45.11400 39.54200
H  51.25500 41.40300 40.07700
H  49.72600 41.03000 41.06000
H  51.29600 40.59500 41.64300
H  55.60200 42.86900 42.67500
H  54.52400 43.81800 43.75200
H  54.95500 44.39600 42.19500
H  53.33400 48.14900 43.49000
H  51.80300 49.02900 46.02200
H  53.96400 47.90200 46.35700
H  54.99700 47.68600 44.95200
H  54.06500 46.32700 45.64500
H  51.87100 50.91200 43.85100
H  53.39700 50.30800 43.95800
H  52.26200 50.91900 46.65600
H  51.74400 52.05500 45.46500
H  53.45300 51.95600 45.60200
H  47.70400 51.33500 45.63300
H  45.91400 51.41500 45.31200
H  47.12200 52.06600 44.16700
H  43.92900 48.28900 41.36300
H  40.52100 45.71400 42.22000
H  40.95700 46.26900 43.83400
H  41.76700 44.92800 43.15900
Mg 1.38400 41.93300 24.93100
C  2.32900 42.18800 28.37400
C  -1.54000 40.55900 25.97000
C  0.55600 41.41000 21.73800
C  4.60500 42.77200 23.97900
N  0.45900 41.55600 26.95300
C  1.03800 41.66500 28.19800
C  0.04800 41.35400 29.30000
C  -1.17300 40.77400 28.55800
C  -0.77200 40.94500 27.07200
C  -1.49400 39.33200 28.88500
C  -0.25500 42.63100 30.09400
C  -0.47400 42.45000 31.62200
H  -1.53600 41.49500 32.21700
N  -0.26200 41.21100 24.00300
C  -1.32600 40.66300 24.62300
C  -2.32000 40.21300 23.66100
C  -1.81100 40.49600 22.34000
C  -0.45700 41.05800 22.63500
C  -3.79800 39.83600 24.01000
C  -2.46200 40.35400 20.93500
O  -1.95800 40.74900 19.90200
C  -3.73900 39.67200 20.82800
N  2.39100 42.12800 23.10900
C  1.85200 41.79500 21.90500
C  2.95900 41.89200 20.77900
C  4.13700 42.62100 21.53600
C  3.70000 42.50900 22.94900
C  3.30000 40.52500 20.13500
C  4.29400 44.12800 21.08800
C  3.21200 45.10900 21.58800
N  3.15500 42.35800 25.92000
C  4.36200 42.73700 25.39400
C  5.28900 42.90000 26.46600
C  4.52000 42.69000 27.61600
C  3.20600 42.45200 27.26500
C  6.75000 43.17100 26.36900
C  4.68900 42.62800 29.06300
O  5.70900 42.75500 29.78100
C  3.28400 42.27200 29.59200
C  3.43000 41.06200 30.46200
O  3.80200 39.96700 30.07000
O  3.00500 41.33400 31.73000
C  3.04400 40.14000 32.68600
H  -2.53800 40.22700 26.26300
H  0.40100 41.10600 20.70100
H  5.63700 42.98700 23.69300
H  0.52200 40.64400 29.97800
H  -2.07800 41.36500 28.69800
H  -2.48100 39.39600 29.34200
H  -0.80700 38.89100 29.60700
H  -1.62100 38.69600 28.00900
H  -1.16000 43.21500 29.92300
H  0.52000 43.37500 29.91300
H  -0.63500 43.39700 32.13600
H  0.45800 42.05500 32.02700
H  -3.91500 38.86700 24.49400
H  -4.53900 40.00100 23.22700
H  -4.08500 40.61300 24.71800
H  -3.77800 38.86700 21.56200
H  -3.85300 39.06800 19.92700
H  -4.52800 40.42300 20.85900
H  2.56100 42.44800 19.93000
H  5.09200 42.09900 21.47800
H  2.46400 40.23300 19.50000
H  3.41800 39.76700 20.91000
H  4.23000 40.71500 19.59900
H  4.32900 44.29300 20.01100
H  5.28000 44.39400 21.46900
H  3.64200 45.68000 22.41100
H  2.24500 44.69000 21.86400
H  3.10700 45.81300 20.76200
H  6.97200 44.13700 25.91600
H  7.27500 42.45600 25.73600
H  7.30700 43.01100 27.29200
H  2.90900 43.09100 30.20600
H  4.06600 40.22000 33.05800
H  2.82200 39.14500 32.30200
H  2.35000 40.31600 33.50800

