158

Mg 26.24900 -0.09300 29.40300
C  28.12900 -0.61500 32.30800
C  23.51500 0.18700 31.31800
C  24.55400 0.06400 26.58300
C  29.20100 -0.88400 27.53300
N  25.85300 -0.47400 31.59700
C  26.84000 -0.35100 32.60400
C  26.23400 -0.23400 33.91400
C  24.70100 -0.04800 33.59000
C  24.63700 -0.08300 32.08300
C  23.68800 -1.04800 34.33400
C  26.96200 0.66400 34.97300
C  26.26500 1.04700 36.26500
H  26.57600 0.23500 37.51400
N  24.24300 0.10700 29.01400
C  23.28300 0.18300 29.93600
C  22.05600 0.45800 29.25800
C  22.24900 0.29300 27.84500
C  23.71000 0.12300 27.68300
C  20.76200 0.75200 30.06300
C  21.27800 0.24900 26.67100
O  21.52900 0.03300 25.49200
C  19.96700 0.56300 27.04600
N  26.82600 -0.35200 27.34400
C  25.89300 -0.18400 26.34100
C  26.52900 -0.16100 24.91200
C  28.05500 -0.18900 25.31300
C  28.07000 -0.49100 26.83000
C  26.11900 -1.30700 23.96600
C  28.93100 0.96500 24.97200
C  30.41700 0.73000 24.80700
N  28.33000 -0.66800 29.79400
C  29.35700 -0.98500 28.92700
C  30.51200 -1.28000 29.66200
C  30.10700 -1.04900 30.97200
C  28.75100 -0.71700 31.04800
C  31.77700 -1.74900 29.14500
C  30.57700 -1.11500 32.35500
O  31.73400 -1.30800 32.77800
C  29.32000 -0.77300 33.25100
C  29.21300 -1.83000 34.26900
O  28.60900 -2.91300 34.04000
O  29.83400 -1.51800 35.48200
C  29.75000 -2.49200 36.53500
H  22.62900 0.35300 31.93400
H  24.02000 0.09400 25.63000
H  30.05600 -0.93500 26.85500
H  26.35200 -1.21500 34.37300
H  24.31000 0.93600 33.84800
H  22.92100 -1.37500 33.63200
H  23.25800 -0.52100 35.18600
H  24.17400 -1.86600 34.86600
H  27.41300 1.58300 34.59900
H  27.87100 0.14400 35.27700
H  25.18100 1.11300 36.16600
H  26.48700 2.10300 36.41900
H  20.25500 1.55800 29.53200
H  21.04300 1.14700 31.03900
H  20.03500 -0.05800 30.12200
H  19.36500 0.53700 26.13800
H  19.87000 1.62000 27.29400
H  19.50400 -0.08100 27.79300
H  26.27800 0.81300 24.49000
H  28.52600 -1.08100 24.90000
H  25.41400 -1.95700 24.48500
H  26.95900 -1.83400 23.51400
H  25.49900 -0.93900 23.14900
H  28.95400 1.77400 25.70200
H  28.65700 1.51200 24.06900
H  30.62800 1.13000 23.81600
H  30.67100 -0.33000 24.76500
H  31.04200 1.15300 25.59300
H  32.26200 -2.17200 30.02400
H  32.42800 -1.09800 28.56100
H  31.43500 -2.53400 28.47000
H  29.60200 0.17300 33.71500
H  29.79200 -3.52400 36.18400
H  28.74900 -2.38400 36.95400
H  30.44500 -2.45700 37.37400
Mg 15.46600 51.72500 25.08400
C  17.47200 50.79800 27.88500
C  12.85700 52.18700 27.27800
C  13.52500 52.42200 22.41000
C  17.85400 50.43000 23.00700
N  15.25400 51.61000 27.30300
C  16.24200 51.30400 28.27700
C  15.70200 51.68900 29.66300
C  14.14100 51.83200 29.40100
C  14.07100 51.87700 27.90400
C  13.26700 50.74100 29.96900
C  16.46000 52.89700 30.17100
C  16.47100 53.24900 31.69500
H  15.67600 52.34000 32.66100
N  13.49000 52.34500 24.86600
C  12.56100 52.35500 25.84600
C  11.26800 52.68100 25.38200
C  11.40700 52.64900 23.97200
C  12.85000 52.48600 23.69300
C  10.07600 52.87400 26.24700
C  10.36900 52.70200 22.85400
O  10.56400 52.78700 21.64900
C  8.88900 52.66500 23.28200
N  15.68900 51.56600 23.00100
C  14.79500 52.05100 22.11600
C  15.44300 52.19400 20.72100
C  16.80100 51.36500 20.89400
C  16.77200 51.02400 22.35700
C  14.70600 51.66400 19.45700
C  18.13000 51.96800 20.37100
C  18.77000 51.37000 19.18000
N  17.33300 50.86600 25.38200
C  18.16700 50.36500 24.43600
C  19.33500 49.78300 25.08200
C  19.11200 49.89700 26.44800
C  17.87900 50.56500 26.58000
C  20.46200 49.07000 24.34200
C  19.58400 49.56500 27.72000
O  20.61000 49.01800 28.06600
C  18.57100 50.19600 28.73400
C  18.10500 49.09900 29.48900
O  17.27700 48.28400 29.19600
O  18.74900 49.16800 30.71700
C  18.46800 48.23500 31.79900
H  12.06000 52.26600 28.02000
H  13.01700 52.72500 21.49200
H  18.63000 50.07000 22.32900
H  15.90100 50.92500 30.41500
H  13.83100 52.81300 29.76000
H  12.72900 51.21100 30.79200
H  13.93300 49.91800 30.22900
H  12.62900 50.42800 29.14300
H  16.07700 53.77800 29.65600
H  17.48300 52.68900 29.85600
H  16.20300 54.30300 31.77400
H  17.51800 53.06700 31.93700
H  10.43700 53.28100 27.19200
H  9.50000 51.95800 26.38200
H  9.41700 53.66900 25.89900
H  8.91900 51.75200 23.87600
H  8.35900 52.31700 22.39500
H  8.67000 53.56000 23.86300
H  15.66100 53.24300 20.52200
H  16.69900 50.36100 20.48100
H  15.31600 50.97900 18.86900
H  14.48000 52.50500 18.80100
H  13.82000 51.11100 19.76800
H  18.83100 52.20700 21.17100
H  17.89800 52.95900 19.98100
H  18.83200 52.06200 18.34100
H  18.19000 50.54100 18.77600
H  19.76700 50.96000 19.34700
H  20.97500 49.79800 23.71400
H  20.03200 48.29200 23.71200
H  21.08100 48.62000 25.11900
H  19.16300 50.89700 29.32300
H  19.04900 48.39900 32.70700
H  18.64800 47.22200 31.44000
H  17.43800 48.26200 32.15500

