158

Mg 24.14400 -4.15100 46.24900
C  25.96200 -1.49100 44.96800
C  21.39900 -3.11100 44.61600
C  22.75300 -7.13100 47.09600
C  27.26700 -5.45800 47.56200
N  23.84100 -2.50900 44.85600
C  24.64700 -1.49800 44.48400
C  23.92900 -0.61300 43.47200
C  22.37900 -0.94200 43.78900
C  22.55400 -2.25400 44.49000
C  21.65600 0.15900 44.61300
C  24.36500 -0.94900 41.99800
C  24.89000 0.22600 41.19700
H  24.93800 0.06100 39.66600
N  22.32700 -5.03600 45.84400
C  21.30000 -4.47200 45.13500
C  20.13000 -5.33000 45.08700
C  20.44200 -6.46200 45.91900
C  21.89100 -6.25900 46.30200
C  18.88500 -4.98900 44.31600
C  19.55500 -7.58500 46.35000
O  18.44400 -7.53200 45.95800
C  19.84500 -8.81700 47.17400
N  24.88100 -6.06200 47.31100
C  24.08100 -7.11300 47.53100
C  24.82000 -8.25500 48.27400
C  26.35200 -7.67600 48.30700
C  26.15200 -6.28500 47.75000
C  24.25200 -8.82800 49.65800
C  27.35300 -8.41400 47.36200
C  28.62700 -8.92300 48.02800
N  26.21100 -3.58800 46.44200
C  27.37700 -4.16700 46.95900
C  28.43700 -3.18300 46.88700
C  27.99200 -2.22000 46.01800
C  26.62500 -2.48500 45.75300
C  29.67100 -3.19100 47.54100
C  28.37000 -1.07200 45.29600
O  29.45500 -0.56900 45.17300
C  27.11600 -0.55000 44.45800
C  26.70400 0.79100 44.87900
O  26.47500 1.15400 46.01100
O  26.90900 1.62100 43.77000
C  26.75000 3.01400 43.96200
H  20.43700 -2.65700 44.37200
H  22.39700 -8.11900 47.39700
H  28.20300 -5.82300 47.98800
H  24.06700 0.44700 43.68800
H  21.80900 -1.03100 42.86500
H  22.22600 1.07600 44.46300
H  21.60900 -0.17200 45.65000
H  20.66900 0.48000 44.28000
H  23.62500 -1.34600 41.30300
H  25.16300 -1.68800 42.05300
H  25.89200 0.40500 41.58700
H  24.26100 1.08600 41.42600
H  18.36500 -5.77900 43.77400
H  19.11100 -4.19900 43.59900
H  18.17300 -4.60300 45.04500
H  19.18200 -9.65700 46.96800
H  20.02200 -8.47700 48.19400
H  20.82500 -9.16900 46.85100
H  25.06000 -9.10300 47.63300
H  26.74600 -7.53800 49.31400
H  24.91500 -8.53300 50.47100
H  24.22700 -9.91700 49.63300
H  23.23400 -8.50600 49.88000
H  27.68400 -7.74400 46.56800
H  26.81500 -9.19500 46.82600
H  29.41600 -8.30000 47.60600
H  28.81900 -9.96500 47.77100
H  28.51100 -8.74200 49.09600
H  29.61700 -3.42100 48.60500
H  30.14700 -2.21100 47.56700
H  30.38700 -3.87400 47.08400
H  27.12800 -0.47100 43.37100
H  26.89100 3.24800 45.01700
H  25.77700 3.30400 43.56500
H  27.62600 3.28200 43.37100
Mg 29.84700 57.67400 40.25400
C  27.11300 55.65300 39.15800
C  32.01600 55.34700 39.48100
C  32.32400 60.04900 40.59300
C  27.49500 60.04800 41.27800
N  29.59900 55.86400 39.28600
C  28.40900 55.13500 39.08800
C  28.70000 53.65700 38.65300
C  30.27000 53.64200 38.72400
C  30.67100 55.06800 39.22500
C  30.81300 52.49500 39.71100
C  28.01100 53.13100 37.42800
C  27.61100 54.07700 36.24100
H  28.38300 54.02100 34.97500
N  31.96400 57.66300 40.00300
C  32.66500 56.55500 39.77700
C  34.09300 56.78300 39.74100
C  34.25200 58.11000 40.18800
C  32.83000 58.72400 40.27400
C  35.08600 55.72100 39.44500
C  35.60400 58.79600 40.46900
O  36.64300 58.09700 40.41400
C  35.66000 60.15000 40.79600
N  29.80900 59.76700 40.80600
C  31.01400 60.50100 40.86200
C  30.69100 61.91600 41.30900
C  29.16100 61.86000 41.54900
C  28.75200 60.41900 41.28700
C  31.43200 62.38200 42.59500
C  28.44000 62.91200 40.71500
C  27.28800 63.73700 41.42500
N  27.66700 57.87700 40.18700
C  26.88700 58.92700 40.64800
C  25.56300 58.66300 40.39100
C  25.55300 57.34400 39.84100
C  26.87400 56.93000 39.74300
C  24.38200 59.51700 40.72700
C  24.71300 56.22600 39.34600
O  23.48900 56.20700 39.28000
C  25.66600 55.10800 38.87700
C  25.25400 53.78600 39.63500
O  25.70800 53.39500 40.70000
O  24.22400 53.18900 38.93500
C  23.82200 51.92500 39.52400
H  32.69500 54.50600 39.32900
H  33.11900 60.76700 40.80400
H  26.79500 60.74000 41.75200
H  28.33600 52.97800 39.42400
H  30.84500 53.34500 37.84700
H  30.94200 52.79400 40.75100
H  31.78100 52.22400 39.29000
H  30.15700 51.63100 39.81600
H  27.15100 52.54900 37.76000
H  28.73100 52.43200 37.00400
H  27.76100 55.09700 36.59300
H  26.54100 54.06500 36.03500
H  36.10400 56.09700 39.33700
H  34.97900 55.12500 38.53900
H  35.02300 54.97200 40.23400
H  36.74000 60.29200 40.76700
H  35.11500 60.30400 41.72800
H  35.21500 60.83400 40.07300
H  30.97600 62.56800 40.48300
H  28.91200 62.06200 42.59100
H  32.25900 61.69700 42.78300
H  30.76300 62.43700 43.45400
H  31.88700 63.36100 42.44300
H  27.85100 62.35700 39.98400
H  29.15900 63.58000 40.24100
H  27.42900 63.55900 42.49100
H  26.24900 63.48500 41.21400
H  27.46800 64.78600 41.19300
H  23.60400 58.80500 40.99900
H  24.04100 60.14000 39.90000
H  24.60000 59.98700 41.68600
H  25.58700 55.00900 37.79400
H  24.70700 51.28900 39.50600
H  23.08600 51.39000 38.92500
H  23.56200 52.09500 40.56900

