158

Mg 25.66700 0.20300 29.02900
C  27.75500 -0.34400 31.83400
C  23.11100 0.67900 31.16800
C  23.64100 0.33900 26.32000
C  28.43100 -0.62500 27.01000
N  25.49800 0.04000 31.26200
C  26.48500 0.01200 32.24100
C  25.97700 0.22800 33.71700
C  24.42300 0.29100 33.35900
C  24.30500 0.38300 31.78900
C  23.52900 -0.86100 33.88200
C  26.66600 1.36100 34.56800
C  27.15400 1.12000 36.01300
H  26.42600 1.95100 37.13300
N  23.66100 0.44500 28.85100
C  22.75400 0.68900 29.83100
C  21.48000 0.97800 29.29700
C  21.59100 0.75700 27.86800
C  23.01500 0.50400 27.63000
C  20.27000 1.32900 30.13800
C  20.54100 0.76600 26.79100
O  20.70300 0.33100 25.67900
C  19.16600 1.31900 27.06600
N  26.02300 0.11800 27.00600
C  25.06000 0.21700 26.05000
C  25.63100 0.02000 24.61600
C  27.10100 -0.27800 24.81500
C  27.19000 -0.30000 26.39000
C  24.86300 -1.00400 23.70400
C  28.13400 0.72900 24.16000
C  29.35800 0.03500 23.54400
N  27.65900 -0.42600 29.26600
C  28.66200 -0.74100 28.39100
C  29.82100 -1.07400 29.05600
C  29.53700 -0.91500 30.45600
C  28.17200 -0.49800 30.50400
C  31.19300 -1.38000 28.47600
C  30.13900 -1.03500 31.73400
O  31.28900 -1.37000 32.08000
C  28.98400 -0.54200 32.71300
C  28.85300 -1.49600 33.74700
O  28.17600 -2.49900 33.67200
O  29.50400 -1.06100 34.86000
C  29.40300 -1.93200 35.99700
H  22.28400 0.81500 31.86900
H  22.98100 0.47700 25.46100
H  29.21800 -1.00000 26.35300
H  26.14500 -0.71400 34.23700
H  24.07900 1.22400 33.80600
H  23.13900 -0.38200 34.78100
H  24.15600 -1.70800 34.15900
H  22.74800 -1.20500 33.20300
H  25.82500 2.04900 34.65200
H  27.43900 1.79000 33.93000
H  28.19900 1.43000 36.02300
H  27.04000 0.04700 36.16700
H  19.37800 0.81800 29.77800
H  20.18800 2.39900 29.94300
H  20.45200 1.10900 31.19000
H  18.65200 1.36500 26.10600
H  19.35300 2.28900 27.52700
H  18.63500 0.66300 27.75600
H  25.57900 0.97800 24.09800
H  27.25900 -1.31700 24.52700
H  25.39600 -1.87800 23.33000
H  24.30400 -0.47700 22.93000
H  24.18900 -1.50000 24.40300
H  28.41600 1.46500 24.91300
H  27.72600 1.28300 23.31400
H  29.54400 0.52100 22.58700
H  29.14400 -1.02100 23.38000
H  30.11800 0.14700 24.31700
H  32.05800 -1.08100 29.06800
H  31.26600 -0.77000 27.57600
H  31.22300 -2.40400 28.10100
H  29.32600 0.39700 33.14900
H  28.69700 -1.55800 36.73800
H  30.40200 -2.09000 36.40300
H  28.96900 -2.92300 35.86400
Mg 46.97000 45.67900 44.13800
C  43.71700 45.21000 43.26200
C  47.49100 42.25200 42.86500
C  50.39300 46.09600 43.68700
C  46.48700 49.05300 44.31000
N  45.74800 43.94400 43.08700
C  44.42000 43.99500 43.12500
C  43.87800 42.70000 42.46600
C  44.95800 41.68300 42.67500
C  46.13800 42.71300 42.91800
C  44.72500 40.62400 43.82600
C  43.49000 42.97600 40.94000
C  42.08800 42.37700 40.53000
H  41.91200 41.70000 39.19900
N  48.78500 44.31600 43.66000
C  48.70300 42.97200 43.14100
C  50.03300 42.41400 42.99000
C  50.90500 43.55000 43.33900
C  50.05200 44.73100 43.47400
C  50.31400 41.08300 42.46100
C  52.42400 43.41500 43.37700
O  52.94900 42.43200 42.95800
C  53.29700 44.50700 43.91900
N  48.21700 47.32200 44.17400
C  49.55800 47.23800 43.94200
C  50.17800 48.65700 44.20300
C  48.92200 49.65500 44.03500
C  47.80500 48.64000 44.18800
C  50.92500 48.91600 45.52400
C  48.68100 50.38000 42.67000
C  48.56700 51.89800 42.82000
N  45.36400 46.85400 44.07400
C  45.33200 48.21300 44.21800
C  43.91200 48.69900 43.99600
C  43.30200 47.59100 43.66200
C  44.16700 46.48200 43.72700
C  43.36800 50.08400 44.12400
C  41.98900 47.00800 43.27100
O  40.90600 47.65600 43.15600
C  42.22300 45.47300 43.02500
C  41.24100 44.73300 43.88700
O  40.29600 44.05800 43.43800
O  41.50700 45.04100 45.19400
C  40.54000 44.32900 46.08200
H  47.59700 41.21400 42.54300
H  51.45900 46.21900 43.48400
H  46.34700 50.11500 44.52500
H  42.97900 42.44900 43.03100
H  45.12400 41.17600 41.72500
H  43.65200 40.65400 44.01500
H  45.22500 40.99100 44.72200
H  45.08600 39.63200 43.55700
H  44.24000 42.52500 40.29000
H  43.54000 44.04800 40.75300
H  41.41000 43.23000 40.50500
H  41.73700 41.63900 41.25100
H  50.94600 41.22000 41.58300
H  49.46400 40.47300 42.15700
H  50.96700 40.57500 43.17000
H  53.44800 45.07600 43.00200
H  54.24400 44.12500 44.29900
H  52.92900 45.20500 44.67100
H  50.87300 48.81800 43.37900
H  48.77800 50.22600 44.95200
H  50.90600 48.04700 46.18200
H  50.47800 49.77500 46.02400
H  51.97500 49.16100 45.36400
H  47.86600 49.97100 42.07300
H  49.44400 50.16800 41.92100
H  48.57800 52.28300 43.83900
H  47.74300 52.26000 42.20500
H  49.49800 52.34800 42.47500
H  42.96100 50.44400 45.06900
H  42.61400 50.17500 43.34200
H  44.10200 50.84200 43.85100
H  42.04900 45.33100 41.95800
H  39.55800 44.67700 45.76200
H  40.79400 44.68100 47.08200
H  40.63500 43.25200 46.22000

