158

Mg 25.22300 0.38000 29.42700
C  27.10200 -0.33000 32.44500
C  22.41300 0.56100 31.32600
C  23.39200 0.38000 26.64000
C  28.12200 -0.40200 27.59100
N  24.87800 0.16500 31.66100
C  25.78100 0.00100 32.66700
C  25.11800 0.26800 34.04300
C  23.58000 0.39300 33.74300
C  23.60600 0.39100 32.15700
C  22.63600 -0.77000 34.35000
C  25.73800 1.46700 34.75800
C  26.54700 1.04200 36.01400
H  26.29700 1.89100 37.27100
N  23.15500 0.54200 29.08000
C  22.16100 0.61900 29.94900
C  20.88800 0.69200 29.27400
C  21.15100 0.62300 27.88200
C  22.67200 0.56200 27.82800
C  19.54300 0.66500 29.98500
C  20.21000 0.77000 26.77900
O  20.46600 0.64500 25.60500
C  18.79700 1.14400 27.12100
N  25.67000 -0.00400 27.45200
C  24.79000 0.16100 26.45200
C  25.45100 0.04200 25.04400
C  26.92600 0.05000 25.42800
C  26.87700 -0.10000 26.94800
C  24.89800 -1.24000 24.33700
C  27.76000 1.27700 24.87800
C  27.91900 2.47100 25.86000
N  27.26600 -0.12200 29.91400
C  28.30700 -0.44800 29.06400
C  29.47900 -0.90400 29.87300
C  29.08600 -0.77500 31.20200
C  27.72000 -0.31100 31.18200
C  30.91000 -1.20300 29.38300
C  29.47800 -1.02600 32.57400
O  30.57600 -1.43600 33.01300
C  28.30900 -0.61700 33.44000
C  28.08000 -1.77800 34.40700
O  27.14000 -2.58700 34.38900
O  28.96400 -1.60600 35.46500
C  28.80100 -2.51100 36.67500
H  21.57600 0.68100 32.01700
H  22.81800 0.58100 25.73300
H  28.96500 -0.61700 26.93100
H  25.15800 -0.60800 34.69100
H  23.37300 1.41400 34.06500
H  22.02000 -0.98400 33.47600
H  21.97200 -0.34700 35.10400
H  23.15700 -1.60600 34.81500
H  24.92200 2.09900 35.10900
H  26.38600 2.11300 34.16700
H  27.52500 1.43600 35.73800
H  26.59300 -0.03400 36.18200
H  18.96800 1.57000 29.79100
H  19.73100 0.54500 31.05200
H  19.01400 -0.21800 29.62600
H  18.16900 1.40000 26.26800
H  18.86400 2.02500 27.76000
H  18.35500 0.27600 27.60900
H  25.15900 0.98700 24.58500
H  27.34700 -0.89900 25.09700
H  24.24700 -1.74500 25.05100
H  25.68200 -1.95600 24.09000
H  24.32800 -0.84600 23.49600
H  27.34100 1.73800 23.98400
H  28.70800 0.91400 24.48100
H  27.38700 2.48400 26.81100
H  27.63700 3.40500 25.37300
H  29.00500 2.49900 25.94500
H  31.11300 -0.53600 28.54500
H  31.10100 -2.21600 29.02800
H  31.63000 -1.10700 30.19600
H  28.62500 0.20900 34.07700
H  28.15800 -2.00700 37.39500
H  29.72200 -2.75500 37.20500
H  28.26600 -3.41900 36.39500
Mg 53.87300 24.33900 44.36800
C  51.21700 26.41700 43.59700
C  52.19300 21.81200 42.88500
C  56.66900 22.58100 44.25300
C  55.56300 27.13200 45.73700
N  52.03000 24.22000 43.09700
C  51.08300 25.20900 42.93800
C  49.88000 24.65100 42.17300
C  50.00900 23.08900 42.50600
C  51.47600 22.96800 42.88600
C  49.10000 22.47000 43.62500
C  49.90600 25.04400 40.60800
C  48.57200 25.57700 39.89000
H  47.99600 24.58000 38.78000
N  54.34400 22.41800 43.74900
C  53.53200 21.53900 43.19800
C  54.22600 20.28400 42.97400
C  55.52900 20.45900 43.36200
C  55.56400 21.82700 43.87300
C  53.46500 19.01800 42.50100
C  56.54600 19.37400 43.41600
O  56.46700 18.25000 42.96500
C  57.83800 19.66400 44.09100
N  55.89700 24.95800 44.79600
C  56.78500 23.94600 44.76400
C  58.07600 24.41000 45.36900
C  57.76800 25.87000 45.95000
C  56.39300 26.02300 45.47000
C  58.66300 23.42400 46.39500
C  58.65200 27.03300 45.37000
C  58.84800 28.24900 46.28200
N  53.46100 26.30500 44.74100
C  54.18500 27.28000 45.36000
C  53.35300 28.48000 45.47800
C  52.13500 28.21800 44.90500
C  52.33500 26.90100 44.37600
C  53.64800 29.72200 46.22100
C  50.72300 28.60200 44.52900
O  50.15200 29.60500 44.73800
C  50.16600 27.43500 43.74100
C  49.55700 27.86900 42.38800
O  50.10700 28.20300 41.38800
O  48.19400 27.86200 42.54300
C  47.41100 28.59700 41.42800
H  51.63000 20.98100 42.45400
H  57.63500 22.07400 44.29900
H  56.07700 27.95900 46.23200
H  49.03800 25.09700 42.70200
H  49.87100 22.46900 41.62000
H  49.34700 22.89600 44.59700
H  49.05000 21.38600 43.52000
H  48.16200 22.93400 43.32000
H  50.25800 24.15900 40.07800
H  50.63300 25.85600 40.56000
H  48.77600 26.51400 39.37000
H  47.75600 25.83500 40.56500
H  53.98700 18.47200 41.71500
H  52.52600 19.29900 42.02400
H  53.27300 18.37500 43.36100
H  58.49400 20.31000 43.50800
H  58.31800 18.69800 44.24800
H  57.67000 20.22000 45.01300
H  58.80800 24.51300 44.56800
H  57.84300 25.74600 47.03000
H  59.54400 22.91200 46.00900
H  57.88900 22.72300 46.70800
H  59.09100 23.91900 47.26700
H  58.15000 27.37800 44.46600
H  59.61300 26.62500 45.05800
H  59.88300 28.57700 46.37700
H  58.35700 28.23100 47.25500
H  58.35500 29.05700 45.74200
H  53.41300 29.59300 47.27700
H  53.10000 30.54200 45.75600
H  54.71600 29.90400 46.10600
H  49.34500 27.00800 44.31900
H  47.50700 27.82400 40.66400
H  47.88300 29.54400 41.16800
H  46.36000 28.64000 41.71400

