158

Mg 23.90100 -6.24700 45.64400
C  26.51300 -4.01500 44.52900
C  21.82300 -4.53000 43.63700
C  21.74200 -8.81100 46.01000
C  26.40300 -8.09800 47.35900
N  24.20600 -4.52000 44.29400
C  25.24200 -3.69800 44.06900
C  24.78300 -2.40500 43.30300
C  23.21200 -2.50300 43.30900
C  23.09900 -3.93300 43.76400
C  22.52800 -1.55200 44.28300
C  25.38500 -2.31800 41.89000
C  25.45600 -1.02600 41.11800
H  24.76400 -0.91200 39.75400
N  22.09400 -6.52900 44.93300
C  21.31900 -5.68900 44.15600
C  20.03300 -6.25500 43.90500
C  19.94400 -7.49800 44.52800
C  21.34300 -7.68500 45.18300
C  18.85500 -5.52800 43.21800
C  18.71800 -8.35500 44.62400
O  17.65800 -7.89100 44.24700
C  18.74900 -9.74800 45.05700
N  24.11900 -8.28400 46.41400
C  23.00300 -9.05500 46.60100
C  23.29400 -10.32600 47.42700
C  24.73700 -10.03800 48.05000
C  25.15600 -8.71800 47.22800
C  22.23800 -10.73300 48.56900
C  25.54500 -11.31000 47.66800
C  26.58000 -11.70500 48.83700
N  25.99000 -5.99100 46.14600
C  26.85600 -6.83300 46.78500
C  28.20100 -6.27900 46.82300
C  28.05600 -5.15700 45.93700
C  26.73800 -5.05800 45.53400
C  29.47800 -6.79200 47.42400
C  28.76400 -4.01700 45.38800
O  29.85900 -3.61300 45.71400
C  27.76700 -3.20600 44.46800
C  27.60300 -1.87800 45.00700
O  27.53200 -1.52000 46.23000
O  27.75200 -1.00200 44.00500
C  27.56900 0.43600 44.40700
H  21.09400 -3.97200 43.04500
H  21.12200 -9.63700 46.36700
H  27.25700 -8.58900 47.83000
H  25.14300 -1.54600 43.86900
H  22.78600 -2.33000 42.32100
H  21.56900 -1.20200 43.90200
H  23.16500 -0.68500 44.45500
H  22.28600 -2.07900 45.20600
H  24.96400 -3.04900 41.19900
H  26.42600 -2.63200 41.97100
H  26.47500 -0.69000 40.92400
H  25.04100 -0.24300 41.75300
H  18.60000 -6.11500 42.33600
H  19.22300 -4.57400 42.84100
H  18.01400 -5.41400 43.90200
H  17.92500 -10.30000 44.60400
H  18.62800 -9.93500 46.12400
H  19.65100 -10.19200 44.63700
H  23.34900 -11.10100 46.66200
H  24.74000 -9.81600 49.11700
H  22.82600 -10.71000 49.48800
H  21.86200 -11.75600 48.56800
H  21.39000 -10.05200 48.50000
H  26.16900 -11.07800 46.80500
H  24.90900 -12.19100 47.58500
H  26.51600 -12.78000 49.00600
H  26.56600 -11.11400 49.75200
H  27.57000 -11.43700 48.46800
H  29.94000 -7.49000 46.72500
H  29.28200 -7.24700 48.39400
H  30.25400 -6.02900 47.49600
H  28.21900 -3.18400 43.47600
H  26.61700 0.50800 44.93300
H  27.40300 0.92500 43.44700
H  28.48400 0.73300 44.92000
Mg 53.33000 24.48600 45.56200
C  50.78600 26.51300 44.46300
C  51.64300 21.85600 44.03600
C  55.98200 22.57700 46.18100
C  55.07700 27.24900 46.71600
N  51.54200 24.29600 44.22500
C  50.62700 25.21900 43.88100
C  49.66900 24.73100 42.84100
C  49.63200 23.21600 43.23000
C  51.01300 23.06000 43.88200
C  48.49700 22.86000 44.33100
C  50.28700 25.02700 41.42300
C  49.42900 25.71400 40.25000
H  50.29400 26.40400 39.15300
N  53.76500 22.46800 45.17500
C  52.91900 21.57500 44.55700
C  53.55700 20.24300 44.64500
C  54.79500 20.36200 45.45000
C  54.91700 21.81900 45.54400
C  52.91100 19.02300 44.00100
C  55.60200 19.18000 45.98300
O  55.16200 18.04200 45.99200
C  56.93600 19.46000 46.69400
N  55.36500 24.90300 46.19800
C  56.16800 23.93200 46.55600
C  57.61600 24.35500 46.95500
C  57.30000 25.92300 47.11300
C  55.88400 26.09500 46.61200
C  58.17000 23.67500 48.21800
C  58.35600 26.86200 46.40800
C  59.32900 27.50200 47.23500
N  53.01200 26.46200 45.69300
C  53.71700 27.47100 46.28800
C  52.93700 28.70400 46.36600
C  51.81100 28.37900 45.63400
C  51.87100 26.99500 45.22200
C  53.29700 29.94000 47.01800
C  50.48100 28.88300 45.14600
O  49.92900 29.94600 45.33500
C  49.87800 27.70400 44.29100
C  49.51900 28.27000 42.96600
O  50.26900 28.34700 41.98100
O  48.22800 28.64200 43.04900
C  47.77700 29.28000 41.80500
H  51.02500 21.03500 43.66700
H  56.85600 21.94200 46.33500
H  55.80200 28.00900 47.01300
H  48.63200 25.05400 42.75400
H  49.46900 22.55100 42.38200
H  48.00700 21.94900 43.98600
H  47.96700 23.79300 44.52300
H  48.96700 22.67200 45.29600
H  50.51000 24.07500 40.94100
H  51.30800 25.39700 41.51900
H  48.82900 26.49400 40.71900
H  48.69900 24.98300 39.90300
H  52.36300 19.28600 43.09600
H  52.34900 18.52200 44.78900
H  53.72700 18.35000 43.74000
H  57.34800 18.45500 46.78800
H  56.80000 19.73500 47.74000
H  57.61400 20.02800 46.05800
H  58.30400 24.19800 46.12500
H  57.21700 26.21600 48.15900
H  58.97500 23.08600 47.77800
H  57.38400 23.02200 48.59600
H  58.33800 24.53200 48.87000
H  57.84600 27.68200 45.90300
H  58.85200 26.27800 45.63200
H  59.23700 27.31800 48.30500
H  59.29000 28.56300 46.98800
H  60.31600 27.09800 47.01000
H  54.14000 30.47100 46.57600
H  53.61100 29.66200 48.02400
H  52.41000 30.56900 47.09400
H  48.97300 27.47700 44.85400
H  48.24900 30.26100 41.86000
H  46.69500 29.38600 41.88900
H  47.99700 28.78500 40.86000

