158

Mg -1.55200 17.33200 25.56100
C  -2.14800 14.82900 28.10500
C  -1.94900 19.67000 27.90500
C  -1.01500 19.50000 23.10800
C  -1.19400 14.56300 23.18000
N  -2.19500 17.18200 27.74500
C  -2.39100 16.10700 28.58300
C  -2.66500 16.58500 30.03900
C  -2.69000 18.17400 29.88500
C  -2.26200 18.38300 28.42400
C  -4.02100 18.73900 30.44700
C  -1.75300 15.97200 31.05900
C  -1.33900 16.79900 32.30900
H  -0.86500 16.00500 33.50900
N  -1.35700 19.31200 25.54300
C  -1.61200 20.13500 26.60100
C  -1.60800 21.54900 26.11700
C  -1.33700 21.49000 24.70500
C  -1.19400 20.06100 24.38400
C  -1.96100 22.75900 26.99600
C  -1.23700 22.60300 23.67800
O  -0.73800 22.47700 22.55200
C  -1.59700 24.04500 24.21400
N  -1.39900 17.01500 23.38300
C  -1.10300 18.14000 22.64600
C  -0.75100 17.79700 21.24200
C  -0.62800 16.22500 21.23400
C  -1.09800 15.88900 22.65600
C  -1.66400 18.28900 20.11700
C  0.80500 15.79500 20.91300
C  1.92800 16.16900 21.92600
N  -1.78400 15.19800 25.50900
C  -1.57400 14.24500 24.48200
C  -1.85400 12.90200 25.06400
C  -2.06900 13.13600 26.44000
C  -1.94900 14.52900 26.71800
C  -1.83200 11.56900 24.33000
C  -2.25400 12.42000 27.61900
O  -2.35600 11.22900 27.87600
C  -2.38500 13.55200 28.78100
C  -1.28100 13.20400 29.69600
O  -0.11800 13.48800 29.59300
O  -1.87000 12.54200 30.78300
C  -0.96500 11.93900 31.80300
H  -1.95600 20.50000 28.61400
H  -0.71200 20.21100 22.33700
H  -1.14700 13.73500 22.47000
H  -3.59400 16.08300 30.31000
H  -1.90600 18.61700 30.49800
H  -4.05100 18.84600 31.53100
H  -4.90700 18.11900 30.31500
H  -4.30300 19.60100 29.84200
H  -0.81800 15.71200 30.56300
H  -2.13300 15.02700 31.44600
H  -2.14000 17.48800 32.57500
H  -0.49600 17.39700 31.96200
H  -2.91000 23.16400 26.64500
H  -1.23200 23.55700 26.85700
H  -1.96000 22.46600 28.04600
H  -1.22400 24.65800 23.39400
H  -1.09400 24.35500 25.13100
H  -2.67000 24.22900 24.26600
H  0.23900 18.24200 21.13700
H  -1.29100 15.85300 20.45200
H  -1.22100 19.22300 19.77000
H  -2.59400 18.56700 20.61400
H  -1.74300 17.67400 19.22000
H  1.10400 16.39800 20.05600
H  0.96700 14.75300 20.63700
H  2.43400 17.08600 21.62500
H  2.63100 15.37100 22.16300
H  1.37200 16.36200 22.84300
H  -1.04700 11.57800 23.57400
H  -2.74600 11.46000 23.74600
H  -1.65700 10.73700 25.01200
H  -3.30400 13.49600 29.36500
H  -1.24900 10.90300 31.98600
H  -1.00700 12.33500 32.81800
H  0.07300 11.94400 31.47100
Mg 48.15300 44.46500 42.39500
C  44.71500 43.97200 42.15700
C  48.50900 41.06000 41.86000
C  51.47200 44.91900 42.09700
C  47.66100 47.81900 41.76900
N  46.75000 42.72800 42.10000
C  45.41200 42.75900 42.22400
C  44.73900 41.36500 42.20600
C  46.05600 40.42500 42.12400
C  47.17900 41.46600 42.00500
C  46.40900 39.45800 43.36800
C  43.75000 41.15800 41.01800
C  43.92600 41.92700 39.70100
H  44.45500 41.06000 38.48100
N  49.72600 43.17500 42.16200
C  49.65800 41.78600 41.93200
C  50.98500 41.33000 41.84200
C  51.90800 42.41400 42.01900
C  51.04500 43.59000 42.15800
C  51.29100 39.91700 41.43000
C  53.41500 42.37300 42.01200
O  53.95500 41.34700 41.72100
C  54.35000 43.59300 42.25500
N  49.32100 46.17000 42.17800
C  50.71300 46.04400 42.20600
C  51.44100 47.42100 41.97000
C  50.18100 48.33700 41.87400
C  48.98500 47.39700 41.94800
C  52.48000 47.75400 42.96700
C  50.20200 49.20600 40.55800
C  49.44900 50.50400 40.68200
N  46.53000 45.74900 42.12000
C  46.47100 47.13700 41.84300
C  45.08500 47.54400 41.67200
C  44.32500 46.31200 41.87000
C  45.26100 45.24600 42.11300
C  44.52900 48.96900 41.51200
C  42.96800 45.70400 41.73400
O  41.86700 46.18500 41.46200
C  43.20700 44.19900 41.96600
C  42.46100 43.80300 43.12500
O  41.31500 43.43300 43.06300
O  43.11400 44.17700 44.25100
C  42.50000 43.51900 45.44100
H  48.57600 39.97800 41.72700
H  52.53700 45.12600 41.97100
H  47.38000 48.86500 41.62400
H  44.31000 41.30600 43.20700
H  46.07500 39.89200 41.17300
H  45.54000 39.44900 44.02500
H  47.20900 39.84100 44.00000
H  46.49200 38.39700 43.13000
H  42.78100 41.36300 41.47500
H  43.74200 40.11700 40.69400
H  44.71400 42.66400 39.85600
H  43.03300 42.45700 39.36900
H  51.36400 39.80400 40.34800
H  50.48700 39.32700 41.87000
H  52.24400 39.55200 41.81200
H  54.43000 44.29200 41.42300
H  55.31100 43.09400 42.38200
H  54.02800 44.11000 43.15900
H  51.85700 47.43200 40.96300
H  50.08100 49.03900 42.70100
H  52.20300 47.16300 43.84000
H  52.52000 48.82100 43.18800
H  53.49100 47.45700 42.68600
H  49.68700 48.69700 39.74300
H  51.20100 49.45200 40.19800
H  48.99600 50.58600 41.67000
H  48.64200 50.49400 39.95000
H  50.14300 51.32400 40.49200
H  43.61600 49.05200 40.92300
H  45.15600 49.73700 41.06000
H  44.24900 49.37500 42.48400
H  42.70400 43.69100 41.14300
H  41.97000 44.26100 46.03900
H  43.32900 43.20400 46.07500
H  41.85600 42.67600 45.19400

