158

Mg 35.06500 3.09500 30.20800
C  32.73400 3.94100 32.63800
C  37.40600 2.98200 32.61300
C  37.26100 2.48200 27.74600
C  32.53000 3.52800 27.73200
N  35.06800 3.40400 32.35500
C  33.97800 3.75400 33.14700
C  34.36000 3.75200 34.63100
C  36.00600 3.76200 34.51200
C  36.19500 3.46300 33.04800
C  36.76200 5.02100 35.04200
C  33.80700 2.55700 35.44000
C  33.45600 2.74700 36.92600
H  34.07500 3.90500 37.73000
N  37.13900 2.68200 30.23200
C  37.93000 2.59100 31.32000
C  39.20900 2.12400 30.98700
C  39.14700 1.91900 29.57200
C  37.80300 2.37200 29.10800
C  40.28800 1.72200 31.98100
C  40.23100 1.52400 28.60200
O  40.06500 1.30900 27.38500
C  41.60800 1.14700 29.14900
N  34.94600 3.17900 28.02800
C  35.97600 2.83000 27.26200
C  35.64800 2.76400 25.77700
C  34.12600 2.98900 25.77400
C  33.84700 3.22400 27.23400
C  36.44400 3.72300 24.89600
C  33.29500 1.81900 25.19000
C  32.88100 0.66000 26.18000
N  33.12500 3.76500 30.16000
C  32.20000 3.84900 29.07700
C  30.91300 4.11400 29.60800
C  31.11000 4.16200 30.97900
C  32.41700 3.91800 31.28800
C  29.66000 4.47900 28.77000
C  30.37600 4.48500 32.23200
O  29.24800 4.92000 32.44000
C  31.40500 4.15100 33.37600
C  31.33900 5.35400 34.26100
O  31.88500 6.40900 34.06900
O  30.69700 5.02600 35.50000
C  30.68700 6.22100 36.42000
H  38.19600 2.83400 33.35200
H  37.92600 2.08900 26.97400
H  31.72600 3.46000 26.99600
H  33.97200 4.70300 34.99600
H  36.52000 2.96500 35.04900
H  37.28900 4.77600 35.96400
H  35.97700 5.73800 35.28100
H  37.56600 5.41500 34.42000
H  34.65300 1.87000 35.45600
H  32.98300 2.06000 34.92800
H  33.71500 1.78600 37.37100
H  32.37600 2.81300 37.05500
H  41.21400 2.27300 31.82000
H  40.48200 0.65300 31.88600
H  39.93900 1.90800 32.99700
H  41.90700 2.02200 29.72600
H  42.31000 1.00700 28.32700
H  41.36900 0.22500 29.67900
H  35.86300 1.71100 25.59500
H  33.73800 3.90000 25.31800
H  35.91400 4.41100 24.23700
H  37.13300 3.20700 24.22700
H  37.11600 4.36600 25.46400
H  33.95000 1.52200 24.37000
H  32.34500 2.25100 24.87700
H  31.91900 0.26200 25.85400
H  32.88400 0.82500 27.25700
H  33.59100 -0.14500 25.98800
H  29.72200 5.52100 28.45400
H  28.91900 4.43000 29.56800
H  29.56600 3.69900 28.01400
H  31.11000 3.28100 33.96300
H  30.37800 7.22300 36.12100
H  31.62300 6.19600 36.97700
H  29.82100 6.07900 37.06700
Mg 40.69300 10.57900 30.04500
C  42.83400 12.01500 32.56100
C  38.97900 9.05900 32.64900
C  38.87100 9.01300 27.80900
C  43.18500 11.25800 27.76400
N  41.05600 10.53100 32.39500
C  41.77400 11.32700 33.17800
C  41.42900 11.19800 34.64000
C  40.23600 10.15900 34.66800
C  40.08500 9.86500 33.16700
C  40.54900 8.89500 35.48000
C  41.18400 12.60200 35.31300
C  41.54800 12.63300 36.82000
H  40.47300 13.20000 37.75000
N  39.07900 9.37500 30.19100
C  38.53500 8.82500 31.33500
C  37.39700 8.02200 31.02700
C  37.22000 8.07000 29.59200
C  38.39400 8.89800 29.13300
C  36.60600 7.15700 31.97600
C  36.22500 7.45600 28.66100
O  36.29600 7.58600 27.42100
C  35.13700 6.64500 29.21400
N  41.02000 10.10600 28.04000
C  40.06000 9.48500 27.29400
C  40.56000 9.35000 25.84000
C  41.99700 9.96000 25.91100
C  42.07700 10.48100 27.32400
C  40.50000 7.96400 25.22400
C  42.27300 11.11200 24.81300
C  41.74400 12.53300 25.14700
N  42.51300 11.56500 30.09000
C  43.36700 11.79000 29.04700
C  44.48100 12.56600 29.50600
C  44.30600 12.77300 30.88300
C  43.13400 12.03100 31.15100
C  45.64900 12.96300 28.63300
C  44.88200 13.27500 32.06300
O  45.99000 13.72900 32.27100
C  43.81700 12.96900 33.25900
C  44.51800 12.23200 34.40600
O  44.97900 11.06500 34.42700
O  44.73200 13.10700 35.48200
C  45.50700 12.66200 36.65700
H  38.35200 8.64700 33.44300
H  38.28300 8.48100 27.05900
H  44.06200 11.30000 27.11500
H  42.34500 10.78400 35.06200
H  39.37900 10.71900 35.04200
H  40.50600 8.06600 34.77400
H  39.80300 8.76500 36.26500
H  41.52800 8.97400 35.95200
H  40.14600 12.86600 35.11300
H  41.70800 13.47600 34.92700
H  42.46000 13.21000 36.97400
H  41.84500 11.64300 37.16600
H  36.77100 6.13500 31.63300
H  35.52400 7.26500 31.91300
H  36.92900 7.23800 33.01400
H  34.44400 6.31300 28.44200
H  34.52200 7.32600 29.80300
H  35.50200 5.79100 29.78400
H  39.91500 9.99700 25.24400
H  42.81900 9.26700 25.73300
H  39.83600 8.02400 24.36100
H  40.26200 7.16000 25.92000
H  41.46800 7.75400 24.77000
H  41.74800 10.83100 23.90000
H  43.35900 11.02100 24.81100
H  41.27200 12.95100 24.25800
H  42.47900 13.23000 25.54800
H  41.00800 12.49800 25.95000
H  46.45300 13.11300 29.35300
H  45.34000 13.83100 28.05000
H  45.99800 12.07800 28.10100
H  43.37500 13.90900 33.59000
H  44.97100 12.78100 37.59900
H  46.37800 13.31700 36.66900
H  45.86000 11.64200 36.50200

