158

Mg 17.05400 -2.28800 27.75000
C  16.54800 -0.35400 30.72600
C  18.85200 -4.52900 29.65700
C  18.01300 -3.67000 24.94900
C  15.39200 0.22200 26.03300
N  17.88600 -2.27700 29.96200
C  17.41200 -1.43700 30.93300
C  17.78200 -2.00100 32.33100
C  18.58500 -3.32700 31.99600
C  18.48400 -3.42400 30.43000
C  20.10200 -3.41100 32.45300
C  16.57800 -2.28600 33.26800
C  16.68400 -1.85000 34.68600
H  18.05300 -1.52300 35.39600
N  18.30500 -3.91800 27.31000
C  18.85900 -4.81900 28.21900
C  19.64100 -5.82500 27.47500
C  19.29300 -5.63200 26.08300
C  18.51600 -4.37100 26.05800
C  20.53100 -6.87100 28.07500
C  19.63900 -6.46300 24.82500
O  19.04500 -6.38400 23.72900
C  20.63000 -7.54600 24.97700
N  16.79100 -1.75400 25.84400
C  17.37300 -2.49900 24.84200
C  16.84500 -2.07000 23.44500
C  15.70300 -1.04100 23.86200
C  15.95300 -0.84300 25.34700
C  17.88000 -1.47900 22.40300
C  14.26500 -1.46100 23.60200
C  13.50200 -0.61900 22.55800
N  15.98100 -0.53800 28.25500
C  15.38600 0.39400 27.43800
C  14.87800 1.51400 28.24100
C  15.27300 1.20700 29.53100
C  15.93800 -0.03900 29.49700
C  14.17200 2.75100 27.79300
C  15.18900 1.69900 30.85900
O  14.57400 2.68200 31.36200
C  15.98100 0.75800 31.66400
C  17.01200 1.50300 32.46800
O  17.97500 2.03100 32.02700
O  16.72000 1.42300 33.76600
C  17.36800 2.29700 34.68400
H  19.44500 -5.28100 30.18200
H  18.21500 -4.04600 23.94300
H  14.94000 1.04300 25.47400
H  18.42200 -1.24900 32.79400
H  18.07000 -4.18900 32.41900
H  20.43900 -2.60400 33.10300
H  20.70600 -3.31100 31.55000
H  20.31100 -4.38200 32.90300
H  16.34900 -3.34900 33.35200
H  15.66000 -1.80400 32.93300
H  16.30900 -2.63700 35.34100
H  16.04900 -0.97200 34.80100
H  21.52400 -6.79800 27.63200
H  20.09600 -7.83300 27.80400
H  20.47400 -6.87000 29.16400
H  21.57900 -7.08500 25.25100
H  20.75500 -7.96300 23.97800
H  20.26200 -8.35300 25.61000
H  16.37000 -2.96000 23.03100
H  15.88800 -0.12500 23.30100
H  18.88000 -1.46500 22.83500
H  17.57100 -0.51800 21.99000
H  17.86400 -2.13300 21.53100
H  13.63500 -1.61600 24.47800
H  14.30700 -2.45900 23.16700
H  12.47900 -0.33500 22.80400
H  13.29800 -1.28100 21.71600
H  13.99200 0.30400 22.25100
H  13.75500 2.65600 26.79000
H  14.88900 3.56000 27.65400
H  13.49700 3.03000 28.60200
H  15.27200 0.27100 32.33300
H  16.91900 3.28000 34.53500
H  18.41700 2.43200 34.42000
H  17.17400 2.00000 35.71500
Mg 29.46400 59.14500 41.03800
C  26.57800 57.38900 40.28900
C  31.34900 56.53100 39.78200
C  32.15000 61.18900 41.08600
C  27.35400 61.82000 41.94900
N  28.99200 57.29200 39.87100
C  27.77200 56.74800 39.89300
C  27.77900 55.38900 39.12700
C  29.32900 54.99700 39.21800
C  29.96700 56.34400 39.73200
C  29.58100 53.72700 40.06600
C  27.37400 55.59400 37.68500
C  26.46000 54.52700 37.10300
H  26.57800 54.02100 35.61600
N  31.53300 58.78800 40.65000
C  32.11000 57.71400 40.08400
C  33.51500 57.95800 40.03300
C  33.80600 59.24700 40.57400
C  32.47900 59.81600 40.84000
C  34.47700 56.89100 39.66100
C  35.16200 59.85800 40.59300
O  36.13000 59.21400 40.22400
C  35.39700 61.26400 41.13200
N  29.71300 61.28200 41.56500
C  30.94400 61.84600 41.41400
C  30.85900 63.33400 41.52000
C  29.29200 63.52200 41.79300
C  28.69900 62.13600 41.84900
C  31.79900 63.96200 42.56600
C  28.51800 64.48000 40.78300
C  27.64200 65.63900 41.31400
N  27.43700 59.54700 41.14000
C  26.74400 60.62700 41.58900
C  25.41200 60.28000 41.81900
C  25.25400 58.98400 41.34800
C  26.48900 58.61100 40.88000
C  24.32700 61.25500 42.36300
C  24.37200 57.92800 41.16800
O  23.15900 57.91800 41.34600
C  25.14900 56.75500 40.39700
C  25.25800 55.58200 41.18700
O  25.99300 55.31600 42.14100
O  24.33400 54.68200 40.66500
C  24.17500 53.35900 41.24400
H  31.95200 55.65500 39.53500
H  32.91900 61.96200 41.15300
H  26.80500 62.68200 42.33400
H  27.08300 54.71900 39.63100
H  29.81700 54.88800 38.25000
H  28.66900 53.37400 40.54700
H  30.34000 53.93800 40.82000
H  30.00600 52.97200 39.40500
H  28.16800 55.74800 36.95400
H  26.92700 56.58800 37.67000
H  25.44000 54.85100 37.30900
H  26.66400 53.69100 37.77200
H  34.81300 56.52500 40.63100
H  35.29700 57.28300 39.05900
H  34.02200 56.08300 39.08800
H  35.10600 61.93900 40.32700
H  36.47900 61.37300 41.20200
H  34.84400 61.42100 42.05800
H  31.14300 63.61000 40.50500
H  29.10900 64.04800 42.73000
H  32.59600 64.44300 41.99800
H  32.19100 63.23400 43.27700
H  31.26900 64.75100 43.09900
H  27.85100 63.86700 40.17700
H  29.18800 65.01800 40.11200
H  26.69000 65.11600 41.40400
H  27.54400 66.41700 40.55800
H  27.77900 66.00900 42.33000
H  24.06200 61.95200 41.56900
H  24.63400 61.90700 43.18100
H  23.42900 60.71200 42.65900
H  24.61600 56.61800 39.45600
H  23.13300 53.07400 41.10200
H  24.52900 53.25500 42.27000
H  24.72400 52.65900 40.61400

