158

Mg 24.31400 -5.54800 46.54300
C  26.37500 -3.08600 45.17200
C  21.60100 -4.09000 44.89900
C  22.47700 -8.43000 47.20900
C  26.85800 -6.80700 48.36500
N  24.03000 -3.72100 45.24500
C  25.06700 -2.93200 44.74800
C  24.52600 -1.99800 43.67300
C  22.95100 -1.94100 44.02900
C  22.80700 -3.33500 44.81100
C  22.57300 -0.61700 44.82200
C  24.98700 -2.38100 42.17800
C  25.71500 -1.36400 41.27800
H  25.26300 -1.41000 39.80600
N  22.38300 -6.24400 46.01400
C  21.42100 -5.41000 45.44200
C  20.16300 -6.17700 45.47500
C  20.36900 -7.41800 46.10000
C  21.80900 -7.41400 46.50500
C  18.86700 -5.57000 44.91600
C  19.40000 -8.47700 46.29700
O  18.22400 -8.26700 45.90900
C  19.65400 -9.79600 46.90500
N  24.57800 -7.36800 47.62100
C  23.74700 -8.44100 47.67800
C  24.34200 -9.61800 48.59000
C  25.69600 -8.92500 49.05800
C  25.71000 -7.61600 48.33600
C  23.58100 -10.24600 49.76800
C  27.03100 -9.77000 48.89400
C  27.95500 -9.87800 50.12100
N  26.20200 -5.15500 46.70900
C  27.09800 -5.65400 47.61800
C  28.35100 -4.84600 47.58000
C  28.10400 -3.93700 46.47700
C  26.80500 -4.10000 46.10100
C  29.54000 -4.94800 48.39600
C  28.72900 -2.86000 45.71400
O  29.84900 -2.43100 45.87100
C  27.60400 -2.34600 44.71500
C  27.59800 -0.85600 44.91400
O  27.58500 -0.36100 45.97900
O  27.52200 -0.14800 43.75700
C  27.68100 1.26700 43.98400
H  20.80800 -3.46600 44.48200
H  21.98100 -9.33500 47.56400
H  27.64200 -7.16800 49.03300
H  24.96600 -1.00700 43.78700
H  22.39700 -1.89000 43.09200
H  22.09600 0.06200 44.11500
H  23.42000 -0.20800 45.37300
H  21.92900 -1.00500 45.61100
H  24.06600 -2.64400 41.65800
H  25.50500 -3.34000 42.15700
H  26.75600 -1.68400 41.23400
H  25.73400 -0.40200 41.79100
H  18.37400 -4.97400 45.68400
H  18.11400 -6.30600 44.63400
H  19.05800 -4.98700 44.01600
H  18.75300 -10.40400 46.82600
H  19.95800 -9.69700 47.94700
H  20.33100 -10.42300 46.32600
H  24.64500 -10.46000 47.96700
H  25.70500 -8.70100 50.12500
H  22.66300 -9.75200 50.08600
H  24.22700 -10.35400 50.63900
H  23.24200 -11.25300 49.52400
H  27.62200 -9.30800 48.10300
H  26.67600 -10.75500 48.59300
H  28.91700 -9.44600 49.84700
H  27.98200 -10.91500 50.45700
H  27.69600 -9.22800 50.95700
H  29.73300 -3.95500 48.80000
H  30.33800 -5.26200 47.72300
H  29.38900 -5.71700 49.15400
H  27.82500 -2.52300 43.66200
H  27.63800 1.67300 42.97300
H  28.65000 1.53500 44.40400
H  26.92500 1.77200 44.58600
Mg 42.22200 41.77800 26.56300
C  41.42300 44.34500 28.92900
C  43.13200 39.79600 29.20600
C  43.10400 39.42800 24.33000
C  41.67600 44.03900 24.06800
N  42.35300 42.06800 28.81800
C  41.92700 43.14400 29.58900
C  42.08100 42.84500 31.11000
C  42.78000 41.42700 31.09800
C  42.73200 41.05700 29.63600
C  44.17800 41.43000 31.80400
C  40.73900 42.83900 31.90200
C  40.80700 43.56700 33.28200
H  40.12100 42.84100 34.39300
N  43.05100 39.87700 26.72600
C  43.26800 39.20800 27.88600
C  43.77300 37.85100 27.59100
C  43.91600 37.78600 26.16000
C  43.40100 39.10900 25.70200
C  44.24900 36.91700 28.65000
C  44.46100 36.76300 25.25700
O  44.55200 36.78200 23.99900
C  44.74100 35.44800 25.82100
N  42.59700 41.76200 24.45100
C  42.71700 40.63600 23.80900
C  42.36300 40.82300 22.27700
C  41.73700 42.26600 22.22900
C  41.90700 42.70800 23.70000
C  43.62000 40.49100 21.40100
C  40.26200 42.39300 21.78700
C  39.16600 41.38000 22.25800
N  41.68800 43.76400 26.44600
C  41.59500 44.60000 25.32400
C  41.27800 45.87900 25.76600
C  41.23200 45.87800 27.13900
C  41.47000 44.52400 27.53700
C  41.15400 47.00400 24.74900
C  41.00800 46.66500 28.28500
O  40.74500 47.84800 28.45500
C  41.09700 45.75300 29.50200
C  42.09100 46.28500 30.51200
O  43.26200 46.37700 30.21200
O  41.54800 46.66000 31.71600
C  42.54000 46.77900 32.77900
H  43.29200 39.11500 30.04500
H  43.26200 38.63100 23.60000
H  41.31500 44.73800 23.31100
H  42.76500 43.52600 31.61500
H  42.12400 40.74200 31.63500
H  44.10900 40.81700 32.70300
H  44.39200 42.43900 32.15700
H  44.83300 41.11400 30.99200
H  40.36900 41.84400 32.14900
H  39.96000 43.36500 31.35000
H  40.41000 44.57900 33.21000
H  41.82500 43.70800 33.64800
H  43.79100 35.94900 28.44700
H  43.88500 37.28800 29.60800
H  45.33400 36.82500 28.70800
H  45.40400 35.55000 26.68000
H  45.09400 34.83300 24.99200
H  43.83500 35.04200 26.27100
H  41.52700 40.17700 22.00800
H  42.40200 42.91700 21.66200
H  43.92500 41.45200 20.98900
H  43.43700 39.74200 20.63100
H  44.49700 40.12900 21.93700
H  40.30300 42.22800 20.71000
H  40.03200 43.42500 22.05100
H  38.75800 41.85000 23.15300
H  39.59000 40.43600 22.59900
H  38.51900 41.32200 21.38200
H  40.22300 46.83400 24.21000
H  42.04800 47.10300 24.13300
H  41.07000 47.85400 25.42600
H  40.11300 45.61400 29.94900
H  43.04900 45.83700 32.98500
H  42.02500 47.18000 33.65200
H  43.31400 47.50300 32.52600

