158

Mg 44.17300 4.62300 46.09200
C  42.35200 7.49500 46.36200
C  41.24000 2.87500 45.54100
C  46.00000 1.85100 45.44800
C  47.06900 6.45400 46.42600
N  42.07900 5.09300 45.95200
C  41.56300 6.38000 46.14400
C  40.05900 6.34600 46.31500
C  39.73900 4.82200 46.02000
C  41.10800 4.19200 45.89900
C  38.74500 4.16100 47.07500
C  39.20900 7.31700 45.41300
C  39.76800 7.90500 44.12300
H  39.15700 7.35900 42.86500
N  43.67600 2.67600 45.54700
C  42.42900 2.14800 45.36600
C  42.54900 0.75500 45.05500
C  43.96000 0.42800 45.05400
C  44.61700 1.69400 45.36400
C  41.38800 -0.16100 44.63300
C  44.60200 -0.97200 44.81400
O  43.84400 -1.90500 44.55200
C  46.01700 -1.24900 44.78700
N  46.34100 4.23000 45.71400
C  46.83000 2.95600 45.70200
C  48.33600 2.98800 45.85500
C  48.59700 4.46200 46.26400
C  47.28100 5.12500 46.08300
C  49.05100 1.97300 46.74700
C  49.69900 5.32700 45.56800
C  50.68800 6.08300 46.54300
N  44.65500 6.55300 46.40000
C  45.85700 7.12300 46.59000
C  45.65100 8.48900 46.94300
C  44.24700 8.70900 46.89700
C  43.75100 7.49700 46.49100
C  46.67300 9.55100 47.14100
C  43.15400 9.64600 47.10000
O  43.18400 10.85300 47.47100
C  41.88300 8.89900 46.74900
C  41.04800 9.02100 47.94700
O  40.98600 8.15400 48.82400
O  40.19100 10.10500 47.81900
C  39.24100 10.36500 48.89300
H  40.23200 2.47400 45.42100
H  46.66500 1.01300 45.23100
H  47.93600 6.94300 46.87500
H  39.83600 6.50100 47.37100
H  39.21500 4.71200 45.07100
H  39.39600 3.43000 47.55600
H  37.93700 3.79500 46.44200
H  38.42100 4.90700 47.80100
H  38.80700 8.09000 46.06800
H  38.26000 6.85600 45.13800
H  40.79800 7.57900 43.97600
H  39.58000 8.97800 44.07400
H  41.54400 -0.22600 43.55600
H  40.43100 0.26900 44.92900
H  41.51300 -1.12500 45.12500
H  46.11900 -2.31300 44.57500
H  46.51100 -1.11900 45.75000
H  46.47600 -0.64800 44.00200
H  48.77700 2.77300 44.88200
H  48.88900 4.41300 47.31300
H  49.73200 1.32800 46.19200
H  48.32000 1.39800 47.31500
H  49.59400 2.38500 47.59700
H  49.30900 5.98300 44.79000
H  50.23300 4.53300 45.04600
H  50.44100 7.13300 46.38900
H  51.72200 5.83300 46.30300
H  50.58600 5.86400 47.60600
H  46.59100 10.28700 46.34100
H  47.61800 9.04000 46.96000
H  46.64400 10.03900 48.11500
H  41.58700 9.47900 45.87500
H  39.41100 9.80800 49.81400
H  38.24000 10.14700 48.52200
H  39.24700 11.43000 49.12600
Mg -4.31000 24.71100 26.00900
C  -2.96000 25.82400 28.94900
C  -6.60700 22.84700 27.86600
C  -5.66000 23.36700 23.19200
C  -1.94900 26.30000 24.16700
N  -4.56700 24.33500 28.14300
C  -4.10100 25.09800 29.22700
C  -4.67500 24.65300 30.58000
C  -5.56000 23.46400 30.15700
C  -5.61300 23.51700 28.61900
C  -5.10800 22.12600 30.74600
C  -5.52700 25.87900 31.25300
C  -5.69700 25.80000 32.82200
H  -4.95900 24.70600 33.73400
N  -5.97800 23.38300 25.60200
C  -6.79700 22.80800 26.49000
C  -7.81700 22.05500 25.81600
C  -7.59900 22.23000 24.40100
C  -6.36500 23.06200 24.33000
C  -8.98400 21.33200 26.51000
C  -8.43300 21.73600 23.18500
O  -8.03900 21.79600 22.01000
C  -9.71000 21.06500 23.48100
N  -3.88000 24.91300 23.94700
C  -4.52000 24.22100 22.99000
C  -3.71700 24.27600 21.68000
C  -2.52300 25.21300 22.02500
C  -2.74500 25.47900 23.42800
C  -3.26200 22.84200 21.28900
C  -2.43500 26.45900 21.14200
C  -1.19800 26.51800 20.26600
N  -2.75000 25.93500 26.43600
C  -1.82600 26.50400 25.54500
C  -0.89000 27.32900 26.31700
C  -1.31400 27.11100 27.67800
C  -2.36500 26.17400 27.65800
C  0.22400 28.20200 25.94600
C  -0.92300 27.37300 29.09600
O  -0.10100 28.16200 29.50500
C  -2.01200 26.67800 29.89500
C  -1.37800 26.00200 31.03100
O  -0.47400 25.16300 30.85700
O  -1.85500 26.44700 32.17200
C  -1.10300 25.91100 33.28200
H  -7.34100 22.17600 28.31700
H  -5.93000 22.88100 22.25200
H  -1.30900 26.97800 23.59800
H  -3.90900 24.39700 31.31200
H  -6.57400 23.56700 30.54300
H  -5.98000 21.75100 31.28200
H  -4.28900 22.19700 31.46100
H  -4.86100 21.36800 30.00300
H  -6.49200 26.04800 30.77700
H  -4.92700 26.78700 31.19400
H  -6.78200 25.69700 32.83200
H  -5.54800 26.70200 33.41500
H  -9.06100 21.63000 27.55600
H  -8.80200 20.26200 26.41000
H  -9.92600 21.59000 26.02600
H  -10.16900 20.78300 22.53400
H  -10.28500 21.80200 24.04100
H  -9.56800 20.22000 24.15600
H  -4.39600 24.75300 20.97300
H  -1.58100 24.68700 21.86900
H  -2.18000 22.71100 21.29100
H  -3.49000 22.63800 20.24300
H  -3.49600 22.10700 22.05900
H  -2.42700 27.38000 21.72600
H  -3.30500 26.50600 20.48800
H  -0.60400 25.60600 20.20700
H  -0.52700 27.22700 20.75000
H  -1.32700 26.99800 19.29500
H  0.39500 28.21100 24.87000
H  1.10900 27.78100 26.42400
H  0.09900 29.25200 26.20900
H  -2.54900 27.52500 30.32200
H  -0.04800 25.98000 33.02000
H  -1.32100 24.85700 33.45600
H  -1.36900 26.50700 34.15500

