158

Mg -12.00100 38.23700 42.43400
C  -9.99200 35.54000 41.25600
C  -9.76100 40.33200 40.83400
C  -14.23500 40.67100 43.01500
C  -14.24200 35.86900 43.65000
N  -10.01500 37.93700 41.21700
C  -9.50100 36.78000 40.85200
C  -8.22000 36.96400 40.09200
C  -7.96700 38.48500 40.10300
C  -9.27500 39.00400 40.77800
C  -6.72800 38.92400 40.82100
C  -8.22200 36.27700 38.67200
C  -6.99200 35.41100 38.37800
H  -5.95300 35.91300 37.33500
N  -11.96900 40.27300 42.00700
C  -10.96500 40.93000 41.35000
C  -11.29500 42.32900 41.30700
C  -12.63500 42.44200 41.79700
C  -13.02900 41.12100 42.25900
C  -10.42100 43.33600 40.68800
C  -13.34800 43.72700 41.85000
O  -12.91600 44.74000 41.35800
C  -14.67600 43.88200 42.43100
N  -13.95500 38.25800 43.28800
C  -14.68400 39.40600 43.40800
C  -16.08000 39.09900 44.04400
C  -15.95700 37.61400 44.47300
C  -14.60300 37.19800 43.76500
C  -16.54700 40.12300 45.10800
C  -17.05400 36.61100 44.17700
C  -17.57300 35.72300 45.28600
N  -12.12200 36.08700 42.48100
C  -13.11100 35.29800 43.06000
C  -12.68700 33.88200 42.95200
C  -11.45100 33.87900 42.20400
C  -11.18200 35.27700 41.99900
C  -13.45700 32.66300 43.47000
C  -10.39400 33.08600 41.53600
O  -10.21300 31.90600 41.50100
C  -9.37600 34.16700 40.95500
C  -8.02500 33.88700 41.52100
O  -7.16400 33.24900 40.94700
O  -7.79000 34.61500 42.69200
C  -6.45000 34.54300 43.28200
H  -9.01700 41.04600 40.47300
H  -15.03900 41.37300 43.24700
H  -14.95900 35.09900 43.94000
H  -7.45400 36.45100 40.67200
H  -7.87700 38.90900 39.10200
H  -6.95100 39.78800 41.44700
H  -6.01500 39.29400 40.08400
H  -6.39600 38.14000 41.50200
H  -8.20800 37.06700 37.92100
H  -9.09800 35.68500 38.40800
H  -7.37900 34.41200 38.17300
H  -6.40400 35.27300 39.28500
H  -10.67100 43.44300 39.63300
H  -9.34800 43.20000 40.82500
H  -10.56000 44.33200 41.10800
H  -14.76300 43.47700 43.43900
H  -15.33800 43.32500 41.76900
H  -15.02000 44.91000 42.54700
H  -16.79000 39.20900 43.22400
H  -15.72600 37.53100 45.53500
H  -16.96000 39.63600 45.99100
H  -17.33300 40.75300 44.69100
H  -15.72100 40.75600 45.43400
H  -16.83300 35.98200 43.31400
H  -17.86800 37.19200 43.74500
H  -17.48700 34.64600 45.13800
H  -18.58500 36.04700 45.53000
H  -17.03100 35.93300 46.20800
H  -14.32400 32.44100 42.84700
H  -14.03600 32.89900 44.36200
H  -12.80000 31.81800 43.67300
H  -9.33300 34.00600 39.87800
H  -5.57900 34.34100 42.65800
H  -6.45800 33.75000 44.02900
H  -6.29300 35.48400 43.81000
Mg -6.18700 25.09100 25.95900
C  -4.46200 25.99500 28.88000
C  -8.14200 22.95100 27.72800
C  -7.24300 23.95700 23.06600
C  -3.59600 26.75400 24.22900
N  -6.15900 24.48800 28.03700
C  -5.53600 25.20300 29.05900
C  -6.04900 24.68700 30.38300
C  -7.02400 23.51800 30.02800
C  -7.11500 23.59400 28.50400
C  -6.50800 22.17200 30.56400
C  -6.71200 25.86800 31.16600
C  -6.49500 26.05400 32.73100
H  -5.97500 24.91900 33.57200
N  -7.55900 23.64800 25.44300
C  -8.37200 22.92400 26.32400
C  -9.28200 22.08800 25.54100
C  -8.97300 22.42100 24.14700
C  -7.88200 23.40800 24.16200
C  -10.24400 21.14800 26.18500
C  -9.72800 21.95300 22.95700
O  -9.46800 22.35200 21.83700
C  -10.88300 21.02200 23.13200
N  -5.37300 25.24400 23.93700
C  -6.09600 24.69600 22.90500
C  -5.51100 24.98100 21.57500
C  -4.44100 26.04900 21.99200
C  -4.44400 26.00400 23.50200
C  -4.79200 23.71700 20.94400
C  -4.74000 27.51000 21.47200
C  -4.24500 27.74000 20.00800
N  -4.50200 26.31100 26.40400
C  -3.56900 26.94700 25.60400
C  -2.48300 27.60800 26.34900
C  -2.81500 27.30900 27.66900
C  -4.04100 26.53800 27.65400
C  -1.26500 28.39200 25.81000
C  -2.40300 27.36200 29.07200
O  -1.50100 27.87700 29.65700
C  -3.55200 26.67600 29.85900
C  -2.90800 25.84500 30.92400
O  -2.53500 24.71600 30.83000
O  -2.79100 26.44600 32.12700
C  -1.77800 26.01100 33.01300
H  -8.78400 22.25100 28.26700
H  -7.56100 23.73600 22.04500
H  -2.77600 27.24400 23.70000
H  -5.23400 24.32100 31.00700
H  -8.03400 23.71000 30.38800
H  -5.85400 22.24500 31.43300
H  -5.87300 21.90700 29.71800
H  -7.37800 21.52200 30.65400
H  -7.79700 25.90600 31.07400
H  -6.35400 26.72500 30.59700
H  -7.41600 26.50500 33.09900
H  -5.76900 26.84300 32.92700
H  -11.17500 21.69100 26.02300
H  -10.19200 20.97900 27.26000
H  -10.23700 20.16000 25.72300
H  -11.64700 21.40700 23.80600
H  -10.40200 20.14800 23.57100
H  -11.23900 20.72900 22.14400
H  -6.29100 25.45400 20.97800
H  -3.43300 25.75500 21.69800
H  -3.78600 24.05000 20.68900
H  -5.45100 23.39300 20.13900
H  -4.77100 22.98700 21.75300
H  -4.37400 28.30500 22.12100
H  -5.82100 27.65000 21.49200
H  -3.23600 28.15400 20.02900
H  -5.01300 28.34400 19.52600
H  -4.16500 26.76400 19.52800
H  -1.66600 29.32000 25.40200
H  -0.84100 27.76700 25.02400
H  -0.57000 28.57500 26.63100
H  -4.08700 27.46100 30.39300
H  -2.19000 25.15400 33.54500
H  -1.31600 26.76100 33.65600
H  -0.95600 25.79800 32.32900

