158

Mg -1.42200 17.17100 26.59800
C  -1.82400 15.11800 29.44600
C  -1.99600 19.87900 28.54700
C  -1.78900 18.83300 23.74600
C  -1.46300 14.17200 24.66100
N  -1.69300 17.38900 28.74100
C  -1.67900 16.46200 29.71700
C  -1.69500 17.14600 31.07700
C  -2.09500 18.61900 30.75200
C  -1.94800 18.64600 29.26100
C  -3.59900 18.99500 31.12900
C  -0.25500 16.98900 31.61600
C  0.06700 17.81500 32.91100
H  -0.05900 17.15600 34.30800
N  -1.65000 19.15600 26.20500
C  -1.85700 20.13400 27.17200
C  -2.01800 21.43500 26.42900
C  -2.21700 21.09500 25.05400
C  -1.87600 19.61600 24.94000
C  -2.19500 22.73300 27.21700
C  -2.58100 21.91400 23.95300
O  -2.62100 21.53600 22.77800
C  -3.00600 23.24200 24.23100
N  -1.37400 16.65600 24.51000
C  -1.50000 17.51100 23.54200
C  -1.48400 16.93100 22.07100
C  -1.33000 15.39700 22.42300
C  -1.40600 15.38200 23.94700
C  -2.68100 17.33500 21.12300
C  -0.08700 14.71800 21.87100
C  0.39200 15.09700 20.40100
N  -1.52600 15.08600 26.92800
C  -1.51800 14.02500 26.07900
C  -1.68800 12.73100 26.83700
C  -1.84100 13.18600 28.16300
C  -1.70900 14.63000 28.13600
C  -1.70000 11.41200 26.23700
C  -2.10700 12.69300 29.48300
O  -2.35900 11.55100 29.89800
C  -2.12200 13.93200 30.41900
C  -1.12500 13.67000 31.43000
O  0.05300 13.51400 31.19000
O  -1.72400 13.51100 32.65700
C  -0.86500 12.95000 33.68500
H  -2.15600 20.78500 29.13400
H  -1.86700 19.29200 22.75800
H  -1.42400 13.23800 24.09600
H  -2.42000 16.74000 31.78200
H  -1.33800 19.33900 31.06200
H  -3.97500 18.28000 31.86100
H  -4.24900 19.19900 30.27800
H  -3.45200 19.92400 31.67900
H  0.48200 17.09100 30.81900
H  -0.29500 15.92600 31.85100
H  -0.73200 18.55300 32.97800
H  1.01500 18.35100 32.86400
H  -3.26500 22.92500 27.30500
H  -1.90400 23.64100 26.69000
H  -1.90200 22.74400 28.26700
H  -3.29800 23.81500 23.35100
H  -2.16000 23.82500 24.59200
H  -3.83300 23.20200 24.94100
H  -0.56000 17.21200 21.56600
H  -2.18900 14.90700 21.96500
H  -3.28500 16.47400 20.83700
H  -2.32300 17.84800 20.23000
H  -3.27000 18.16800 21.50700
H  -0.31300 13.65500 21.78700
H  0.79000 14.82300 22.51000
H  1.26300 15.74700 20.48300
H  -0.42100 15.52600 19.81500
H  0.60700 14.13500 19.93700
H  -0.98100 10.94600 26.91000
H  -1.33600 11.41300 25.21000
H  -2.72300 11.04600 26.32300
H  -3.07900 14.01900 30.93300
H  -0.70400 13.75400 34.40400
H  0.08100 12.52000 33.35500
H  -1.20500 12.09200 34.26500
Mg 1.35500 7.63200 25.95200
C  1.92700 9.55500 28.84900
C  1.32600 4.78100 27.96000
C  1.28300 5.79400 23.16600
C  1.53600 10.49000 24.11900
N  1.89100 7.18400 28.14900
C  1.87800 8.21500 29.11200
C  1.60200 7.53300 30.47700
C  1.70300 6.03400 30.19500
C  1.65100 5.97300 28.69500
C  3.01500 5.24200 30.72500
C  0.33000 8.00300 31.15700
C  0.32800 8.16800 32.75300
H  1.58100 7.74700 33.52000
N  1.41300 5.52600 25.61800
C  1.33600 4.53300 26.57700
C  0.91500 3.30000 25.93500
C  0.87300 3.55300 24.59900
C  1.19100 4.99500 24.35500
C  0.58700 2.03000 26.72000
C  0.52500 2.61800 23.45200
O  0.43500 3.06100 22.34000
C  0.10600 1.13500 23.71800
N  1.56600 8.03400 23.91200
C  1.44500 7.16400 22.92000
C  1.30100 7.85700 21.51500
C  1.28400 9.30100 21.89100
C  1.43700 9.31100 23.45900
C  2.42900 7.43200 20.47000
C  0.04900 10.09700 21.38000
C  0.52700 10.76100 20.13100
N  1.66700 9.61800 26.39400
C  1.79500 10.66000 25.47400
C  2.13400 11.92700 26.17200
C  2.17400 11.51500 27.48000
C  1.88600 10.16700 27.60100
C  2.29800 13.28600 25.55800
C  2.43400 12.06800 28.85000
O  2.82600 13.18600 29.29300
C  2.13500 10.81000 29.74200
C  3.14900 10.71400 30.83700
O  4.27600 10.19200 30.72900
O  2.65800 11.29400 31.99200
C  3.57300 11.82000 32.96100
H  1.22400 3.90100 28.59900
H  1.07400 5.25100 22.24200
H  1.38700 11.40900 23.54900
H  2.50800 7.81200 31.01500
H  0.80700 5.54900 30.58200
H  3.59500 5.76900 31.48200
H  3.69000 4.97700 29.91100
H  2.72500 4.23400 31.02100
H  -0.51300 7.32600 31.02300
H  0.19700 8.99700 30.72900
H  -0.54200 7.71900 33.23000
H  0.20200 9.22900 32.97100
H  -0.21900 1.47300 26.24300
H  0.28000 2.28600 27.73400
H  1.51400 1.46600 26.82500
H  0.69700 0.71200 24.53100
H  0.35800 0.60700 22.79800
H  -0.92600 1.10200 24.06700
H  0.31400 7.59800 21.13100
H  2.20300 9.78000 21.55700
H  3.03900 8.31400 20.27500
H  2.02700 7.22900 19.47700
H  3.03400 6.59900 20.82700
H  -0.35700 10.84800 22.05800
H  -0.76500 9.43000 21.09700
H  0.79700 10.06400 19.33800
H  1.34800 11.44600 20.34600
H  -0.28100 11.32900 19.67200
H  2.46100 14.08700 26.27900
H  1.33800 13.46000 25.07200
H  3.11100 13.37600 24.83700
H  1.23400 11.04300 30.31000
H  4.29200 12.27900 32.28200
H  4.03700 11.04800 33.57500
H  3.12800 12.57500 33.60900

