158

Mg 16.40400 -1.16900 26.92100
C  15.26600 0.89900 29.56400
C  18.48300 -2.74400 29.18300
C  17.79600 -2.60900 24.27300
C  14.72300 1.09000 24.68100
N  16.96100 -0.85400 29.10800
C  16.31200 0.03100 29.96900
C  16.83600 -0.24900 31.43900
C  18.09900 -1.16400 31.18900
C  17.85000 -1.64100 29.72500
C  19.47000 -0.54400 31.43700
C  15.73300 -0.92100 32.35900
C  15.88100 -0.86300 33.92700
H  17.01000 -0.03700 34.55800
N  17.67400 -2.65500 26.77800
C  18.46200 -3.15400 27.77700
C  19.33000 -4.26200 27.28300
C  19.16200 -4.26100 25.87900
C  18.17600 -3.12800 25.57300
C  20.07000 -5.26000 28.06300
C  19.86200 -5.15600 24.91500
O  19.64400 -4.96100 23.75200
C  20.79300 -6.34200 25.25400
N  16.39200 -0.69600 24.74800
C  16.89500 -1.61500 23.93100
C  16.58100 -1.26400 22.41400
C  15.33200 -0.30800 22.60800
C  15.55100 0.14900 24.07700
C  17.90300 -0.60200 21.75000
C  13.97400 -0.99300 22.28700
C  12.89500 -0.03100 21.82700
N  15.19800 0.51600 27.03700
C  14.48100 1.26100 26.07600
C  13.49600 2.07600 26.70200
C  13.85200 2.07700 28.06100
C  14.88800 1.13900 28.22900
C  12.41500 2.77800 25.92900
C  13.43300 2.48200 29.43600
O  12.47300 3.14400 29.65500
C  14.32100 1.78900 30.46200
C  14.99300 2.90800 31.22500
O  15.50200 3.89600 30.73600
O  14.95900 2.64400 32.55700
C  15.69800 3.68000 33.30200
H  19.18200 -3.27000 29.83600
H  18.10400 -3.20300 23.41000
H  14.08000 1.61900 23.97500
H  17.17400 0.69300 31.87200
H  17.88400 -2.05700 31.77600
H  20.23500 -1.23700 31.78700
H  19.39300 0.15500 32.26900
H  19.80300 -0.03000 30.53500
H  15.69600 -1.98900 32.14100
H  14.76900 -0.52800 32.03800
H  15.98300 -1.87100 34.32700
H  14.87100 -0.57700 34.22100
H  19.86900 -5.01100 29.10500
H  21.13700 -5.20800 27.84900
H  19.58400 -6.22600 27.92200
H  21.74100 -5.94400 25.61500
H  20.97600 -7.03300 24.43100
H  20.24300 -6.84800 26.04800
H  16.25000 -2.22900 22.02900
H  15.45700 0.59800 22.01500
H  18.18900 0.25800 22.35500
H  17.45400 -0.15700 20.86200
H  18.73600 -1.28100 21.57000
H  13.58500 -1.41100 23.21600
H  14.09500 -1.80700 21.57200
H  12.42200 -0.35000 20.89900
H  13.27600 0.96000 21.58000
H  12.16300 0.04400 22.63200
H  11.79200 3.23300 26.69900
H  11.92300 1.98200 25.37100
H  12.77300 3.46800 25.16600
H  13.64400 1.26100 31.13300
H  14.94600 4.34500 33.72700
H  16.58700 4.08400 32.81800
H  16.06200 3.15200 34.18300
Mg 27.52500 49.69100 26.96600
C  25.58300 50.58400 29.75200
C  30.15800 49.15600 29.21800
C  29.51000 48.61200 24.39400
C  24.98000 50.45500 24.89100
N  27.77900 49.87400 29.24800
C  26.86400 50.20100 30.15900
C  27.26800 49.82400 31.59200
C  28.78300 49.56800 31.42900
C  28.93600 49.59100 29.86300
C  29.74100 50.65100 31.95400
C  26.44500 48.70400 32.29300
C  25.49500 49.11600 33.51100
H  25.80200 48.47000 34.87500
N  29.55600 48.99100 26.86300
C  30.45600 48.84400 27.86100
C  31.71700 48.19800 27.30400
C  31.60400 48.29500 25.88000
C  30.17200 48.63600 25.66000
C  32.84500 47.80300 28.19800
C  32.51600 48.01000 24.85200
O  32.28400 48.27000 23.63000
C  33.84200 47.48300 25.18300
N  27.33200 49.69000 24.99000
C  28.23200 49.10900 24.11800
C  27.68400 49.07300 22.66200
C  26.25500 49.62500 22.83000
C  26.19800 49.99400 24.36000
C  28.57700 49.82400 21.62700
C  25.04300 48.60900 22.48600
C  23.82000 49.20200 21.76500
N  25.67900 50.44800 27.18000
C  24.75800 50.74500 26.25500
C  23.60500 51.29400 26.85900
C  23.83100 51.20800 28.29500
C  25.11000 50.65900 28.40300
C  22.27300 51.70100 26.21600
C  23.30300 51.48400 29.66100
O  22.20300 51.80800 30.03600
C  24.49300 51.11800 30.66600
C  24.78300 52.33900 31.47100
O  25.62600 53.23900 31.29100
O  23.98200 52.20200 32.52700
C  24.08700 53.38300 33.41700
H  30.97800 49.05300 29.93200
H  30.07300 48.18800 23.56000
H  24.08300 50.73300 24.33400
H  27.10000 50.73800 32.16200
H  29.15200 48.56800 31.65700
H  29.24200 51.42600 32.53600
H  30.27400 51.08400 31.10800
H  30.45400 50.12000 32.58400
H  27.19400 48.07400 32.77200
H  25.92500 48.07400 31.57100
H  24.51700 48.76100 33.18600
H  25.25800 50.17600 33.60300
H  32.53800 47.55600 29.21400
H  33.51700 48.65900 28.26900
H  33.32600 46.88100 27.87000
H  34.20200 48.09100 26.01300
H  34.49100 47.58800 24.31300
H  33.78000 46.42900 25.45500
H  27.66800 48.03100 22.34500
H  26.19900 50.51600 22.20400
H  29.50800 50.15400 22.08700
H  28.13400 50.64200 21.05800
H  28.95800 49.07900 20.92800
H  24.68100 48.09000 23.37400
H  25.41700 47.89800 21.75000
H  24.04100 50.19600 21.37500
H  23.01200 49.43300 22.46000
H  23.42900 48.52300 21.00800
H  22.26500 51.38400 25.17300
H  22.15100 52.77400 26.37000
H  21.43700 51.28800 26.78000
H  24.06200 50.39100 31.35300
H  24.02700 54.39600 33.01800
H  24.95500 53.41400 34.07500
H  23.30400 53.41000 34.17400

