158

Mg 25.68800 1.74000 29.69300
C  27.69100 1.65700 32.36500
C  22.96900 2.16900 31.83500
C  23.60900 1.40800 27.00500
C  28.31800 0.56100 27.52800
N  25.35000 1.89800 31.86700
C  26.40500 2.09300 32.71200
C  25.96200 2.43000 34.08200
C  24.40700 2.45800 33.95200
C  24.22400 2.23600 32.43400
C  23.54100 1.48500 34.86300
C  26.49600 3.78800 34.65000
C  27.31800 3.66900 35.99300
H  27.14300 4.58700 37.23400
N  23.59700 1.64500 29.51400
C  22.67900 1.86400 30.48500
C  21.36800 1.75800 29.95300
C  21.53900 1.47000 28.57900
C  22.96000 1.52200 28.31300
C  20.08800 1.83600 30.68500
C  20.56900 1.05300 27.49400
O  20.95500 0.60600 26.45700
C  19.15800 1.20400 27.79800
N  25.83100 0.84900 27.56600
C  24.86500 1.03400 26.68700
C  25.37200 0.95900 25.19700
C  26.94500 0.81100 25.40800
C  27.04000 0.69300 26.91200
C  24.71400 -0.17000 24.40300
C  27.71800 1.99500 24.78300
C  28.09900 3.20100 25.56600
N  27.56900 1.31300 29.83800
C  28.48000 0.85700 28.93300
C  29.78100 0.69800 29.67400
C  29.47300 1.06400 30.91500
C  28.13900 1.32800 31.02400
C  31.01700 0.19900 29.16700
C  30.07000 1.21400 32.26000
O  31.19600 1.07100 32.66700
C  28.89200 1.60400 33.21300
C  28.74400 0.63700 34.32600
O  27.99000 -0.33900 34.36600
O  29.43800 1.09400 35.39300
C  29.11500 0.39400 36.61900
H  22.18600 2.48400 32.52700
H  23.00600 1.49800 26.09800
H  29.17200 0.22500 26.93600
H  26.22100 1.59200 34.73000
H  24.08100 3.49600 34.01800
H  22.69800 2.06200 35.24200
H  23.99400 0.97800 35.71500
H  23.05600 0.72300 34.25300
H  25.82800 4.61500 34.88800
H  27.05900 4.22300 33.82400
H  28.38400 3.75200 35.78200
H  27.14200 2.68400 36.42700
H  20.27800 1.92700 31.75400
H  19.60100 0.86600 30.57800
H  19.50400 2.64400 30.24500
H  18.93600 0.33100 28.41200
H  18.55000 1.13500 26.89600
H  18.89900 2.08400 28.38700
H  25.02200 1.90800 24.79100
H  27.32500 -0.12900 25.00700
H  25.39700 -0.88000 23.93700
H  24.29800 0.38200 23.56000
H  23.97400 -0.75300 24.95100
H  27.08100 2.34900 23.97200
H  28.55300 1.51400 24.27300
H  27.60600 3.43600 26.51000
H  27.95900 4.07400 24.92800
H  29.13800 3.00800 25.82900
H  31.81100 0.93400 29.29300
H  30.99100 -0.09700 28.11800
H  31.26200 -0.61300 29.85100
H  29.15400 2.60400 33.55700
H  28.06200 0.56100 36.84400
H  29.66300 0.80700 37.46600
H  29.30100 -0.67600 36.52800
Mg 50.11400 46.43600 42.44400
C  46.59700 46.69300 41.31700
C  50.17900 43.28500 41.00000
C  53.39400 46.48800 42.49000
C  49.81500 49.76600 43.37900
N  48.57300 45.11300 41.45600
C  47.27700 45.46500 41.07300
C  46.68300 44.27300 40.27300
C  47.67800 43.11900 40.45100
C  48.92200 43.89500 41.02500
C  47.13900 41.92500 41.30100
C  46.40300 44.79400 38.88000
C  44.93900 44.49800 38.32200
H  44.85600 43.65400 37.14400
N  51.59900 45.07100 41.79500
C  51.38100 43.86400 41.24700
C  52.63200 43.13900 41.21000
C  53.63100 44.06600 41.49500
C  52.89800 45.27400 41.95100
C  52.77400 41.62000 40.84800
C  55.08700 43.77200 41.50400
O  55.40700 42.58400 41.50600
C  56.13700 44.77200 41.64900
N  51.46200 47.98500 42.80500
C  52.78800 47.70300 42.85700
C  53.49400 48.96400 43.32100
C  52.33500 49.93100 43.84000
C  51.07800 49.20300 43.26100
C  54.49000 48.76200 44.48600
C  52.57300 51.41800 43.41400
C  52.01400 52.54200 44.30400
N  48.48500 47.94900 42.60400
C  48.53300 49.26800 43.05900
C  47.22200 49.92900 42.87400
C  46.47200 48.90700 42.20700
C  47.23900 47.73900 42.11300
C  46.80600 51.33900 43.16300
C  45.10900 48.60400 41.58500
O  44.16000 49.36500 41.34500
C  45.21500 47.16300 41.01100
C  44.24600 46.28100 41.80600
O  44.50000 45.66100 42.80600
O  42.99800 46.34000 41.26400
C  42.03600 45.35100 41.78500
H  50.06300 42.28100 40.58500
H  54.47200 46.55200 42.65400
H  49.88600 50.82500 43.63900
H  45.74100 43.89800 40.67500
H  47.81100 42.75400 39.43200
H  47.04500 41.00100 40.73000
H  46.10000 42.06600 41.59900
H  47.75200 41.86500 42.20000
H  47.11000 44.44300 38.12800
H  46.55400 45.87300 38.83600
H  44.45400 45.47300 38.26400
H  44.31700 44.09900 39.12400
H  53.39300 41.75400 39.96100
H  51.91700 41.05200 40.48600
H  53.34800 41.04300 41.57300
H  55.66000 45.67900 41.27900
H  56.88200 44.45100 40.92000
H  56.53900 44.79900 42.66200
H  54.03200 49.44500 42.50400
H  52.14800 49.89800 44.91400
H  54.59400 49.67700 45.06900
H  55.43000 48.31700 44.16100
H  54.00600 47.94100 45.01600
H  52.04500 51.55200 42.47000
H  53.63000 51.64000 43.26400
H  51.38400 53.20800 43.71400
H  52.76500 53.16600 44.78700
H  51.38400 52.15800 45.10700
H  46.03100 51.67300 42.47300
H  47.66700 52.00800 43.19100
H  46.38600 51.41600 44.16500
H  44.87100 47.26900 39.98200
H  41.75700 44.70400 40.95300
H  41.05700 45.71500 42.09800
H  42.51500 44.59800 42.41100

