158

Mg 47.37800 16.82500 28.71700
C  45.15600 16.64300 31.41300
C  49.73100 18.56000 30.64100
C  49.19800 17.43000 25.89300
C  44.87500 15.29500 26.75800
N  47.40700 17.55400 30.71000
C  46.39700 17.33300 31.69900
C  47.00000 17.67600 33.14100
C  48.25300 18.55500 32.79400
C  48.57200 18.12400 31.31100
C  48.19500 20.13200 32.95800
C  47.25300 16.38600 34.03700
C  47.02100 16.51000 35.53300
H  46.77000 17.84700 36.24400
N  49.23800 17.79400 28.38000
C  50.05000 18.45400 29.28400
C  51.17000 19.07000 28.66800
C  51.02300 18.76200 27.26500
C  49.76700 18.00900 27.10100
C  52.15900 19.74500 29.47400
C  51.89300 19.18900 26.13900
O  51.64600 18.87300 24.97500
C  53.08900 20.01200 26.37900
N  47.06300 16.47300 26.73900
C  48.00000 16.74600 25.77900
C  47.66800 16.18100 24.37800
C  46.36800 15.40400 24.67100
C  46.08900 15.65700 26.17600
C  47.69600 17.13100 23.15300
C  46.47800 13.83300 24.43300
C  45.74700 13.35300 23.13100
N  45.33300 16.17600 28.95000
C  44.49100 15.50400 28.12600
C  43.35200 15.11800 28.90000
C  43.62800 15.50700 30.20200
C  44.79100 16.16500 30.16600
C  42.08300 14.40200 28.44500
C  43.06300 15.42700 31.49200
O  42.02400 14.89500 31.95100
C  44.07800 16.22200 32.37900
C  43.43100 17.32300 33.08200
O  43.26400 18.42100 32.55500
O  42.87500 17.02600 34.27400
C  42.27300 18.00900 35.14700
H  50.48900 19.05000 31.25600
H  49.70000 17.59700 24.93800
H  44.06700 14.69700 26.33200
H  46.27200 18.24000 33.72400
H  49.01400 18.24200 33.50900
H  48.67600 20.45100 33.88200
H  47.13500 20.36300 33.05600
H  48.59400 20.62900 32.07300
H  48.30900 16.14700 33.91200
H  46.57100 15.61300 33.68100
H  47.85800 16.02000 36.03100
H  46.13200 15.94100 35.80500
H  52.91100 19.02400 29.79400
H  51.80500 20.38700 30.28100
H  52.72900 20.53800 28.98900
H  53.40000 20.11900 25.34000
H  53.80900 19.35600 26.86900
H  52.93800 20.95800 26.90000
H  48.49100 15.51700 24.11300
H  45.57400 15.87500 24.09100
H  48.37300 16.81600 22.35800
H  48.09400 18.07100 23.53600
H  46.73700 17.24700 22.64700
H  45.99400 13.39300 25.30400
H  47.53400 13.58600 24.32800
H  46.45700 13.52000 22.32100
H  44.87500 13.97800 22.94100
H  45.54600 12.28200 23.14200
H  41.34500 14.38000 29.24700
H  42.42300 13.42100 28.11500
H  41.66400 14.99200 27.63000
H  44.61400 15.62900 33.12000
H  41.39300 18.43900 34.66800
H  43.04700 18.75000 35.34800
H  42.04400 17.65100 36.15000
Mg 36.30000 49.55200 24.75900
C  36.38400 47.89200 27.68300
C  34.86300 52.22300 26.32100
C  35.50900 50.79100 21.72500
C  37.38000 46.53500 23.14200
N  35.60800 50.01500 26.71100
C  35.81500 49.17300 27.78700
C  35.40300 49.75800 29.18700
C  34.65300 51.02100 28.67400
C  35.07000 51.18800 27.13100
C  33.07800 51.15700 28.86800
C  36.64900 50.19000 30.08100
C  36.60000 49.95500 31.56000
H  35.29000 49.98400 32.30700
N  35.37800 51.36800 24.16600
C  34.98400 52.41700 24.94100
C  34.64000 53.54200 24.11900
C  34.66300 53.05300 22.75700
C  35.15500 51.65400 22.83300
C  34.25700 54.84200 24.68100
C  34.40500 53.81900 21.48400
O  34.57100 53.37500 20.32800
C  33.79300 55.19900 21.53100
N  36.55500 48.86800 22.79200
C  36.08800 49.50500 21.68100
C  36.42700 48.75800 20.37600
C  37.37600 47.57300 20.85100
C  37.12400 47.61700 22.38800
C  35.15400 48.31600 19.57900
C  38.89600 47.76300 20.62200
C  39.68600 46.54100 20.21000
N  36.79700 47.65400 25.27300
C  37.25800 46.52400 24.54500
C  37.59500 45.46800 25.45100
C  37.27400 45.98700 26.70300
C  36.84900 47.32100 26.54700
C  38.13200 44.14400 25.05400
C  37.23600 45.68300 28.08200
O  37.45400 44.67300 28.72700
C  36.86500 46.88100 28.76900
C  35.77300 46.53400 29.74600
O  34.56400 46.39300 29.49600
O  36.30800 46.29700 31.01300
C  35.38600 45.69000 32.01600
H  34.42000 53.02800 26.91100
H  35.18400 51.18200 20.75900
H  37.73100 45.59500 22.71300
H  34.66900 49.16100 29.72900
H  35.15600 51.91600 29.04000
H  32.82800 52.21800 28.89200
H  32.64300 50.50100 29.62200
H  32.64600 50.96600 27.88500
H  37.07800 51.17900 29.92300
H  37.45300 49.52300 29.76800
H  37.26500 50.65300 32.06800
H  37.06900 49.00200 31.80400
H  34.55000 54.92200 25.72800
H  33.17000 54.92200 24.69300
H  34.84700 55.54900 24.09800
H  32.81500 55.07300 21.99500
H  33.78600 55.63300 20.53100
H  34.51300 55.85200 22.02400
H  36.89200 49.48200 19.70800
H  37.08500 46.60700 20.43900
H  34.20200 48.72700 19.91600
H  35.05100 47.24500 19.40300
H  35.18100 48.81600 18.61100
H  39.46300 48.05800 21.50400
H  39.00000 48.59800 19.92900
H  39.14000 45.68600 20.61000
H  40.61400 46.44100 20.77400
H  39.77700 46.36200 19.13900
H  39.21600 44.18500 24.95300
H  37.67500 43.83300 24.11400
H  37.80900 43.45700 25.83600
H  37.69200 47.26700 29.36500
H  35.11200 44.68800 31.68500
H  34.50300 46.30900 32.17300
H  35.90200 45.67300 32.97600

