158

Mg 7.34700 1.62300 27.49600
C  8.75800 0.16300 30.59600
C  5.51200 3.54300 29.56100
C  5.72700 2.42100 24.91400
C  9.08300 -1.02500 25.90800
N  7.25600 1.77400 29.83500
C  7.92600 1.24800 30.86500
C  7.58600 1.86400 32.22900
C  6.47400 2.88000 31.79600
C  6.35700 2.72900 30.30800
C  5.11100 2.65500 32.45700
C  8.82100 2.60000 32.94300
C  8.48900 3.03400 34.42100
H  9.45300 2.54800 35.50200
N  5.89500 2.96800 27.20400
C  5.23200 3.67000 28.18100
C  4.24700 4.53700 27.51000
C  4.34800 4.26500 26.12700
C  5.29200 3.13900 26.02000
C  3.31200 5.58100 28.21500
C  3.57700 4.86600 24.99200
O  3.73200 4.45300 23.82400
C  2.57200 5.93100 25.28100
N  7.17600 0.62200 25.70700
C  6.57800 1.35700 24.72800
C  6.94100 0.65200 23.37400
C  8.09200 -0.31700 23.69200
C  8.20200 -0.21200 25.19500
C  5.74900 -0.10600 22.76600
C  9.48100 -0.05100 23.02900
C  10.43000 0.99500 23.71000
N  8.70700 -0.10100 28.01500
C  9.28800 -1.05800 27.25400
C  10.09300 -1.96900 28.10200
C  9.90700 -1.47700 29.43800
C  9.00600 -0.39500 29.27400
C  10.92900 -3.13600 27.53800
C  10.29000 -1.65100 30.80600
O  11.07800 -2.43100 31.32100
C  9.54700 -0.59100 31.58500
C  8.77100 -1.25700 32.69300
O  7.68700 -1.87200 32.63000
O  9.44500 -1.08900 33.91300
C  9.13800 -1.75900 35.15000
H  4.89800 4.23100 30.14600
H  5.21900 2.75900 24.00900
H  9.46600 -1.80100 25.24200
H  7.16500 1.07300 32.84900
H  6.81600 3.90900 31.90300
H  5.38200 2.20100 33.41000
H  4.51300 2.00600 31.81600
H  4.44600 3.51600 32.52700
H  9.02000 3.46600 32.31200
H  9.76700 2.06300 32.87400
H  7.47400 2.64400 34.48400
H  8.39800 4.12000 34.38000
H  3.66800 5.60500 29.24500
H  2.27100 5.25900 28.22900
H  3.63100 6.55900 27.85500
H  3.06700 6.78800 25.73800
H  1.82500 5.47800 25.93200
H  2.15600 6.19800 24.30900
H  7.32200 1.36000 22.63800
H  7.75100 -1.30000 23.36800
H  4.93800 -0.09300 23.49400
H  5.93100 -1.10900 22.38000
H  5.40800 0.40900 21.86700
H  9.34400 0.27300 21.99800
H  9.98000 -1.01600 22.93700
H  9.90500 1.50700 24.51600
H  10.70900 1.79800 23.02800
H  11.37000 0.50600 23.96900
H  11.27200 -2.93500 26.52400
H  10.49900 -4.13700 27.54200
H  11.81600 -3.16000 28.17000
H  10.29400 -0.01800 32.13300
H  8.43600 -2.56200 34.92400
H  8.70700 -1.03600 35.84300
H  10.00800 -2.14400 35.68200
Mg 48.73700 34.92500 27.06200
C  46.62600 33.87100 29.77400
C  49.15700 37.92500 28.85400
C  50.05600 36.27100 24.33600
C  47.79100 32.09600 25.22300
N  48.02400 35.72800 29.12600
C  47.36300 35.05400 30.06600
C  47.55700 35.72200 31.47200
C  47.90600 37.17500 31.02300
C  48.41800 36.98400 29.59000
C  46.78400 38.25900 31.25500
C  48.76700 35.03600 32.18800
C  48.63400 34.92100 33.73000
H  47.72100 35.93000 34.52200
N  49.37600 36.85600 26.62600
C  49.63700 37.90000 27.49700
C  50.19800 39.05700 26.79500
C  50.40500 38.61000 25.47300
C  49.95600 37.18400 25.47100
C  50.44200 40.41000 27.45500
C  51.00000 39.24800 24.23200
O  50.88600 38.79000 23.10000
C  51.70300 40.64900 24.34400
N  48.75900 34.27400 25.10300
C  49.46800 34.96700 24.16800
C  49.66300 34.22600 22.87900
C  49.22400 32.75500 23.22600
C  48.60300 33.03000 24.62100
C  48.93600 34.83800 21.59900
C  50.41500 31.69400 23.14700
C  51.53500 31.76000 22.06800
N  47.60800 33.32100 27.41200
C  47.24800 32.25900 26.56700
C  46.43700 31.29600 27.30400
C  46.17700 31.94400 28.48900
C  46.83000 33.16100 28.53300
C  45.89900 29.94500 26.86100
C  45.45400 31.79200 29.72800
O  44.87100 30.79900 30.14400
C  45.62200 33.08300 30.62900
C  45.98000 32.69100 31.96300
O  46.83000 31.86100 32.30900
O  45.07400 33.20600 32.87900
C  45.05900 32.82800 34.31300
H  49.38800 38.88000 29.33100
H  50.59800 36.50700 23.41800
H  47.63600 31.14700 24.70400
H  46.65600 35.64300 32.08100
H  48.65300 37.43600 31.77300
H  46.89200 38.97400 32.07100
H  45.78600 37.84100 31.38900
H  46.71700 38.89400 30.37200
H  49.76500 35.40900 31.96000
H  48.96900 34.01500 31.86500
H  49.62300 35.01200 34.18100
H  48.31500 33.91500 34.00000
H  51.38000 40.53000 27.99700
H  49.57000 40.64500 28.06400
H  50.35600 41.17800 26.68600
H  51.04000 41.51400 24.35500
H  52.40400 40.81100 23.52600
H  52.25100 40.66100 25.28600
H  50.72500 34.23000 22.63200
H  48.40500 32.38500 22.61000
H  49.02300 35.91300 21.75800
H  47.89700 34.51000 21.59200
H  49.45600 34.41500 20.73900
H  50.09400 30.66700 22.97100
H  50.93700 31.87100 24.08700
H  51.16200 32.39500 21.26500
H  51.68400 30.74000 21.71200
H  52.54000 32.03500 22.38800
H  45.73500 29.90000 25.78400
H  44.94700 29.83400 27.38000
H  46.55900 29.15900 27.22700
H  44.72300 33.69700 30.57600
H  44.43400 33.56100 34.82300
H  46.04000 32.70300 34.77300
H  44.59800 31.85100 34.45700

