158

Mg 7.94200 2.40900 27.38700
C  9.58000 1.16100 30.04700
C  6.14800 4.50200 29.46300
C  6.15700 3.46900 24.72000
C  9.38700 -0.11200 25.29100
N  7.75600 2.64500 29.53600
C  8.65300 2.15400 30.41300
C  8.36500 2.63600 31.80600
C  7.15800 3.60800 31.56600
C  7.02500 3.62100 30.04200
C  5.81400 3.13100 32.25000
C  9.60800 3.29000 32.53400
C  9.30500 4.22500 33.68100
H  10.29000 4.20600 34.93700
N  6.46200 3.90800 27.08600
C  5.87600 4.67000 28.06200
C  4.87900 5.63100 27.50900
C  4.84600 5.30600 26.07100
C  5.91400 4.23500 25.92500
C  4.17900 6.66700 28.37500
C  4.04400 5.95700 24.97200
O  4.33200 5.86200 23.80800
C  2.91900 6.79600 25.33700
N  7.92500 1.87900 25.28100
C  7.00800 2.42600 24.43400
C  7.16800 1.80000 23.05600
C  8.24600 0.70600 23.21000
C  8.54000 0.77100 24.71800
C  5.84900 1.41700 22.29500
C  9.59700 0.95000 22.44800
C  10.15500 -0.29000 21.67700
N  9.18000 0.75300 27.60200
C  9.77300 -0.13000 26.72400
C  10.76200 -0.90200 27.38500
C  10.71000 -0.39200 28.70300
C  9.77300 0.58700 28.76200
C  11.63900 -1.92500 26.78400
C  11.32200 -0.47000 30.00600
O  12.26300 -1.18500 30.28600
C  10.53200 0.47500 30.96500
C  9.74800 -0.35100 31.90500
O  8.90200 -1.13700 31.61400
O  10.21600 -0.24300 33.19200
C  9.62000 -0.94700 34.31100
H  5.71400 5.22400 30.15800
H  5.55000 3.80000 23.87500
H  9.77100 -0.89100 24.62900
H  7.96800 1.79500 32.37300
H  7.40000 4.63500 31.83800
H  5.22200 2.50600 31.58200
H  5.21400 3.98000 32.57900
H  5.95000 2.51300 33.13700
H  10.12300 3.88000 31.77700
H  10.23500 2.52000 32.98500
H  8.33100 3.96000 34.09200
H  9.20500 5.23800 33.29100
H  3.13400 6.36400 28.42700
H  4.10900 7.60700 27.82700
H  4.55500 6.79700 29.39000
H  2.19700 6.85600 24.52300
H  3.34900 7.76700 25.58100
H  2.42700 6.35000 26.20200
H  7.58400 2.61800 22.46900
H  7.84500 -0.27100 22.94200
H  5.91300 0.33800 22.15200
H  5.82000 1.87600 21.30700
H  4.91700 1.72200 22.77000
H  10.43100 1.31600 23.04700
H  9.38100 1.71700 21.70400
H  9.81000 -0.18200 20.64900
H  9.87400 -1.29300 21.99900
H  11.21900 -0.10500 21.82300
H  11.51800 -2.76500 27.46800
H  12.67600 -1.61000 26.89700
H  11.29300 -2.26100 25.80700
H  11.19100 1.18600 31.46300
H  8.65400 -1.42700 34.15500
H  9.36400 -0.38200 35.20700
H  10.31600 -1.69300 34.69800
Mg 40.34800 9.42200 30.78500
C  42.20200 10.68500 33.40500
C  38.02800 8.25800 32.89800
C  38.62400 8.11600 28.08300
C  42.99000 10.02600 28.60400
N  40.23500 9.37100 32.92000
C  40.97400 10.15400 33.83500
C  40.29700 10.27300 35.17500
C  39.10200 9.28500 35.06800
C  39.08700 8.89600 33.55900
C  39.28800 8.03500 35.99500
C  39.92200 11.73000 35.62500
C  39.37400 11.98800 36.99700
H  40.17500 12.92500 37.90200
N  38.55100 8.39500 30.48900
C  37.75200 7.91800 31.57600
C  36.71300 7.07600 31.03200
C  36.93000 6.94800 29.66000
C  38.10500 7.83500 29.34400
C  35.63600 6.48700 31.84300
C  36.12400 6.17500 28.65600
O  36.51500 6.05400 27.53400
C  34.94900 5.40500 29.02400
N  40.65600 9.27400 28.59600
C  39.73800 8.84300 27.66900
C  40.26300 8.86000 26.25400
C  41.64000 9.53700 26.40200
C  41.79400 9.56600 27.98900
C  40.19100 7.48900 25.50800
C  41.83400 10.97300 25.85400
C  40.61700 11.89000 26.00900
N  42.19200 10.16700 30.93900
C  43.25100 10.26800 30.00200
C  44.40500 10.72500 30.63300
C  44.03000 11.08900 31.94000
C  42.70800 10.63400 32.08100
C  45.73200 10.96100 29.94100
C  44.42100 11.76600 33.19100
O  45.46000 12.33100 33.55200
C  43.27400 11.51200 34.23500
C  43.77200 10.79100 35.45400
O  43.97200 9.60700 35.60400
O  43.68500 11.58100 36.56500
C  43.76900 10.83800 37.80200
H  37.36200 7.85700 33.66500
H  38.01300 7.73400 27.26300
H  43.88200 10.17200 27.99100
H  41.06300 9.92600 35.86800
H  38.17300 9.71100 35.44500
H  40.12500 7.43100 35.64500
H  38.31000 7.55600 36.01600
H  39.46400 8.52900 36.95000
H  39.25500 12.20800 34.90800
H  40.86100 12.27200 35.51700
H  39.23500 11.03600 37.51000
H  38.39800 12.46000 36.88100
H  34.65400 6.79200 31.48200
H  35.75100 6.58100 32.92300
H  35.59500 5.40900 31.68200
H  34.33100 6.13600 29.54400
H  35.34200 4.62700 29.67900
H  34.43400 4.91600 28.19700
H  39.48800 9.34900 25.66300
H  42.44500 8.96200 25.94400
H  39.54100 7.50700 24.63300
H  39.78800 6.64100 26.06100
H  41.18800 7.21900 25.15900
H  41.95600 10.78700 24.78700
H  42.79600 11.39200 26.15100
H  39.90300 11.59800 26.77900
H  40.08400 11.99500 25.06500
H  40.97100 12.87500 26.31100
H  46.13700 10.03800 29.52500
H  46.44600 11.57400 30.49100
H  45.41900 11.58900 29.10700
H  42.99100 12.53400 34.48800
H  43.82100 11.66100 38.51400
H  44.69800 10.27700 37.89900
H  42.84900 10.26300 37.91500

