158

Mg 47.29400 16.23700 28.68800
C  45.03600 16.21400 31.27600
C  49.29900 18.30300 30.51400
C  49.13700 16.56500 25.91600
C  44.69600 14.83100 26.65000
N  47.16100 17.07600 30.66000
C  46.27100 16.73800 31.63200
C  46.69200 17.19900 33.02700
C  47.84500 18.23800 32.70400
C  48.09300 17.87300 31.17700
C  47.46200 19.77600 32.98400
C  47.06600 15.93800 33.89500
C  46.44700 15.97100 35.28200
H  46.35100 17.32100 36.10700
N  49.07800 17.20100 28.30400
C  49.75300 17.99000 29.17600
C  51.04700 18.36300 28.57400
C  51.03400 17.91700 27.20700
C  49.69600 17.21200 27.06400
C  52.07300 19.07000 29.44000
C  52.07300 18.09400 26.11300
O  51.90500 17.58800 25.01400
C  53.41800 18.85700 26.31200
N  46.99000 15.75900 26.59900
C  47.92700 15.89100 25.67200
C  47.57600 15.37100 24.27200
C  46.19700 14.65400 24.66100
C  45.88800 15.15500 26.09200
C  47.54800 16.60200 23.27600
C  46.48700 13.13100 24.62100
C  46.62700 12.42500 23.24200
N  45.28800 15.62100 28.78500
C  44.39100 14.98100 27.94800
C  43.16700 14.62500 28.72000
C  43.37100 15.17700 29.98700
C  44.65100 15.76700 29.98100
C  42.05000 13.83800 28.08100
C  42.74500 15.33700 31.28000
O  41.68100 14.92200 31.64100
C  43.84900 15.87400 32.18900
C  43.28300 16.86600 33.08000
O  42.78300 17.88100 32.69600
O  43.32300 16.37500 34.36000
C  42.40300 17.08500 35.23900
H  50.01500 18.82400 31.15400
H  49.75900 16.63900 25.02200
H  43.94200 14.29700 26.06900
H  45.82500 17.69100 33.46800
H  48.76700 18.06600 33.25900
H  46.42700 19.83700 33.32200
H  47.64500 20.21900 32.00400
H  48.23500 20.21600 33.61300
H  48.13400 15.83000 34.08000
H  46.74600 15.03200 33.37900
H  47.12800 15.33100 35.84300
H  45.44300 15.55200 35.21400
H  51.67400 19.98900 29.86800
H  52.97800 19.46100 28.97500
H  52.39800 18.47500 30.29300
H  54.04000 18.41200 27.08900
H  53.17600 19.79000 26.82000
H  53.97900 19.15300 25.42500
H  48.35700 14.64700 24.03800
H  45.44200 14.95200 23.93400
H  47.83500 17.54300 23.74400
H  46.53500 16.79600 22.92400
H  48.25700 16.41400 22.46900
H  45.56000 12.72700 25.02900
H  47.32900 12.93700 25.28500
H  47.68400 12.17600 23.14900
H  46.25400 13.03300 22.41800
H  46.09200 11.48700 23.09700
H  42.40100 12.84300 27.80800
H  41.72400 14.25500 27.12800
H  41.21700 13.83100 28.78300
H  44.23000 14.98500 32.69200
H  41.34900 16.97400 34.98400
H  42.68600 18.13700 35.22800
H  42.45500 16.67400 36.24800
Mg 0.78400 43.95400 24.46100
C  2.65100 43.82600 27.32100
C  -2.19000 43.95500 26.22600
C  -0.84100 43.33900 21.49500
C  3.81200 43.96100 22.50700
N  0.23600 43.64400 26.51000
C  1.21200 43.80800 27.54600
C  0.54600 43.92900 28.93400
C  -1.01900 44.00100 28.54800
C  -1.01700 43.84300 27.01600
C  -1.97000 43.02700 29.20800
C  0.96300 45.11100 29.86700
C  1.38700 44.82200 31.28400
H  0.93900 43.49700 31.95200
N  -1.20800 43.89200 23.93600
C  -2.29300 43.92200 24.78600
C  -3.47900 43.97300 23.98800
C  -3.07900 43.87800 22.61500
C  -1.62300 43.69700 22.64800
C  -4.80700 44.11400 24.66900
C  -3.95700 43.98500 21.36600
O  -3.41000 43.93300 20.22500
C  -5.46500 44.35500 21.55900
N  1.35900 43.83000 22.32200
C  0.51900 43.53600 21.31000
C  1.26800 43.00200 20.07800
C  2.59900 43.77700 20.33200
C  2.63100 43.88700 21.80300
C  1.39900 41.48400 20.05700
C  2.66000 45.24700 19.77000
C  4.03500 45.73700 19.25700
N  2.84300 43.90400 24.75000
C  3.96900 43.92400 23.97000
C  5.09300 43.80200 24.80500
C  4.66300 43.84900 26.12700
C  3.28000 43.86200 26.04100
C  6.56000 43.84100 24.25800
C  5.11800 43.75700 27.45100
O  6.28400 43.55600 27.86800
C  3.84300 43.89100 28.33300
C  3.80100 42.87500 29.34200
O  3.35900 41.73400 29.17400
O  4.42800 43.27200 30.48700
C  4.71300 42.24000 31.62200
H  -3.05500 43.99400 26.89100
H  -1.36200 42.94700 20.61900
H  4.77500 43.78800 22.02200
H  0.70300 42.96100 29.41000
H  -1.34500 45.02300 28.74000
H  -1.47200 42.49800 30.02100
H  -2.26500 42.31600 28.43600
H  -2.89200 43.44700 29.61000
H  0.16500 45.84400 29.98800
H  1.81500 45.59200 29.38700
H  0.86600 45.49900 31.96100
H  2.42400 45.05600 31.52600
H  -5.31700 45.06400 24.50800
H  -4.74000 44.00500 25.75200
H  -5.46800 43.28400 24.42100
H  -6.01200 43.60600 22.13200
H  -5.88100 44.47800 20.56000
H  -5.53900 45.30000 22.09800
H  0.76700 43.47200 19.23200
H  3.46700 43.22300 19.97600
H  2.40200 41.06400 19.98200
H  0.82200 41.06800 19.23100
H  0.90800 41.02600 20.91600
H  2.39200 46.07100 20.43100
H  1.91300 45.28500 18.97700
H  4.01300 45.95300 18.18900
H  4.76600 44.95100 19.44800
H  4.35800 46.62800 19.79500
H  6.66500 43.08400 23.48100
H  7.26600 43.60800 25.05500
H  6.86600 44.83700 23.93900
H  3.93300 44.90200 28.73200
H  5.79900 42.20600 31.54300
H  4.33900 41.21900 31.54100
H  4.46200 42.56500 32.63100

