158

Mg 40.35700 9.78000 29.35500
C  42.13300 10.52700 32.32900
C  38.06300 8.03300 31.26900
C  38.87100 8.72500 26.51700
C  43.01100 10.96200 27.46800
N  40.28700 9.22300 31.56900
C  41.09500 9.60600 32.57500
C  40.50200 9.25600 33.93800
C  39.39200 8.21100 33.53600
C  39.18300 8.53700 32.05000
C  39.62000 6.69200 33.85200
C  39.92100 10.48700 34.66500
C  40.30600 10.61200 36.17400
H  40.53800 11.98000 36.76200
N  38.67400 8.65100 28.90000
C  37.89900 8.01300 29.83200
C  36.82100 7.25800 29.15400
C  36.97700 7.54300 27.77600
C  38.17700 8.36100 27.65500
C  35.89000 6.36500 29.81500
C  36.15900 7.02900 26.60500
O  36.38500 7.37900 25.45100
C  35.07200 6.10800 26.93700
N  40.94700 9.77100 27.27200
C  40.17100 9.23100 26.34900
C  40.80000 9.39300 24.93900
C  42.04000 10.21400 25.22900
C  41.99300 10.34900 26.77200
C  40.99600 8.03200 24.21300
C  41.88700 11.63600 24.55200
C  40.60200 12.40200 24.78800
N  42.23700 10.56100 29.76600
C  43.17900 11.07900 28.89500
C  44.20400 11.69500 29.65400
C  43.82400 11.60600 30.97700
C  42.61100 10.88900 31.01700
C  45.38700 12.39700 29.23700
C  44.14100 11.86100 32.44700
O  45.13400 12.43500 32.90100
C  43.03100 11.18100 33.36700
C  43.77500 10.23900 34.26800
O  44.47100 9.33000 33.89700
O  43.50500 10.59500 35.53400
C  44.36000 9.93900 36.54500
H  37.34900 7.46300 31.86600
H  38.43200 8.44600 25.55700
H  43.90000 11.37900 26.98900
H  41.09300 8.69000 34.65700
H  38.45200 8.41200 34.05100
H  40.06500 6.21600 32.97800
H  38.69800 6.14300 34.04600
H  40.35800 6.46100 34.62000
H  38.83700 10.42800 34.56500
H  40.24700 11.39300 34.15400
H  41.18900 10.07800 36.52600
H  39.48700 10.16400 36.73700
H  34.84700 6.55900 29.56500
H  35.76000 6.68700 30.84800
H  36.19500 5.32300 29.71000
H  35.37000 5.10500 27.24200
H  34.50100 5.95800 26.02100
H  34.42700 6.76300 27.52300
H  40.03300 9.94800 24.39900
H  42.98200 9.75700 24.92700
H  42.07100 8.01700 24.03700
H  40.62400 7.97300 23.19000
H  40.66100 7.19100 24.81900
H  41.96600 11.53800 23.46900
H  42.80700 12.16300 24.80600
H  40.77700 13.37800 25.24000
H  39.85200 11.92000 25.41500
H  40.09700 12.77200 23.89600
H  45.39100 13.27700 29.88100
H  45.32600 12.75400 28.20900
H  46.31400 11.83400 29.34400
H  42.42600 11.88700 33.93600
H  45.42100 9.92100 36.29400
H  43.86300 8.98300 36.71100
H  44.18700 10.41900 37.50900
Mg 1.36600 42.44800 25.35100
C  2.68600 42.57300 28.78600
C  -1.48800 41.18300 26.60300
C  0.61000 41.71100 22.26900
C  4.38700 43.82300 24.40400
N  0.70000 41.84900 27.52500
C  1.33800 42.13800 28.73900
C  0.38300 41.79700 29.86200
C  -0.89400 41.24900 29.09700
C  -0.58900 41.43500 27.66000
C  -1.21000 39.74600 29.27600
C  0.04600 42.96600 30.80800
C  0.13800 42.74900 32.30700
H  -0.34400 41.30400 32.71900
N  -0.31000 41.65500 24.55500
C  -1.42700 41.18700 25.20900
C  -2.40800 40.77400 24.24500
C  -1.81900 40.89800 22.95800
C  -0.44800 41.49500 23.20100
C  -3.87500 40.44400 24.68100
C  -2.38400 40.57100 21.62000
O  -1.82100 40.84100 20.55000
C  -3.74200 39.96100 21.62100
N  2.34200 42.76400 23.59200
C  1.80300 42.22900 22.42800
C  2.92000 42.25000 21.40200
C  3.99200 43.18200 21.99400
C  3.56100 43.34500 23.44200
C  3.39100 40.84600 20.93700
C  4.40200 44.57000 21.28900
C  3.35600 45.75500 21.41000
N  3.15800 43.12000 26.28800
C  4.28000 43.64200 25.81100
C  5.20200 44.04100 26.84500
C  4.60700 43.61700 28.01400
C  3.35200 43.10500 27.65500
C  6.64800 44.61500 26.68000
C  4.81500 43.41800 29.46900
O  5.79600 43.59800 30.15400
C  3.51000 42.77600 30.02300
C  3.85000 41.48600 30.69200
O  4.31000 40.48800 30.21100
O  3.32100 41.47700 31.90300
C  3.40500 40.25000 32.67900
H  -2.44100 40.78200 26.95300
H  0.24500 41.40400 21.28700
H  5.36500 44.14500 24.04100
H  0.89700 40.95800 30.33100
H  -1.84200 41.74700 29.29900
H  -0.51900 39.28600 29.98200
H  -1.16500 39.23500 28.31500
H  -2.20500 39.69500 29.71900
H  -0.84800 43.53800 30.55700
H  0.78800 43.73800 30.60900
H  -0.33500 43.54800 32.87700
H  1.21700 42.69900 32.45100
H  -4.02100 39.36600 24.76200
H  -4.64300 40.96100 24.10600
H  -4.08400 40.85700 25.66800
H  -4.38200 40.77800 21.95500
H  -3.65700 39.04000 22.19700
H  -3.95300 39.76000 20.57000
H  2.55400 42.76900 20.51600
H  4.88800 42.56600 22.07000
H  2.72600 40.11300 21.39300
H  4.43800 40.77100 21.23100
H  3.14600 40.85800 19.87500
H  4.71000 44.37200 20.26200
H  5.28300 44.82000 21.88000
H  2.45400 45.21400 21.69500
H  3.20100 46.34800 20.50900
H  3.67700 46.46500 22.17200
H  6.99200 44.97800 27.64900
H  6.79900 45.39200 25.93000
H  7.30600 43.76200 26.51300
H  3.06300 43.44200 30.76000
H  2.70700 39.52800 32.25600
H  3.08200 40.34800 33.71500
H  4.41800 39.85600 32.76700

