158

Mg -0.58900 7.50200 26.00500
C  0.43400 9.24100 28.79900
C  -1.02400 4.73700 27.95500
C  -1.24200 5.68600 23.28100
C  -0.29700 10.33400 24.13600
N  -0.22100 7.01100 28.12300
C  0.10300 7.91000 29.12500
C  -0.19100 7.37800 30.49200
C  -0.34700 5.83400 30.17700
C  -0.52500 5.81400 28.67100
C  0.76800 4.91100 30.62300
C  -1.50700 8.00300 31.19100
C  -1.28600 8.65800 32.56500
H  -0.12400 8.04200 33.30600
N  -1.03700 5.51600 25.62700
C  -1.21100 4.55200 26.58600
C  -1.61100 3.28700 26.00200
C  -1.51200 3.43800 24.58800
C  -1.23500 4.95200 24.42400
C  -1.87400 2.00800 26.83700
C  -1.69300 2.45600 23.39700
O  -1.52500 2.79000 22.24300
C  -2.18300 1.07500 23.62600
N  -0.79700 7.93600 23.93000
C  -1.12400 7.04800 23.00500
C  -1.31500 7.68500 21.60200
C  -1.10500 9.23000 22.00100
C  -0.71900 9.21200 23.41700
C  -0.32700 7.22900 20.57400
C  -2.36600 10.13900 21.89500
C  -2.34900 11.55000 21.42100
N  0.01600 9.40200 26.31400
C  0.04100 10.53400 25.50400
C  0.57700 11.71700 26.15300
C  0.70100 11.22400 27.44900
C  0.35500 9.81000 27.53100
C  0.90200 13.09100 25.60700
C  1.16300 11.61100 28.72900
O  1.61000 12.63600 29.13500
C  0.79500 10.34800 29.64500
C  2.08000 10.01900 30.33400
O  2.88200 9.13500 30.12400
O  2.28900 10.97400 31.32900
C  3.66400 11.06800 31.84900
H  -1.28100 3.94000 28.65600
H  -1.52000 5.08300 22.41400
H  -0.26000 11.29000 23.61000
H  0.67100 7.55000 31.13600
H  -1.24900 5.49700 30.68800
H  1.60500 5.43300 31.08900
H  1.14600 4.36700 29.75800
H  0.36800 4.12900 31.26800
H  -2.32400 7.28200 31.22900
H  -1.83300 8.83700 30.57000
H  -2.19900 8.42200 33.11200
H  -1.19500 9.74300 32.51500
H  -2.94300 1.88900 27.01100
H  -1.42300 2.05500 27.82800
H  -1.40000 1.14000 26.37900
H  -2.53500 0.59600 22.71300
H  -3.08800 1.20100 24.21900
H  -1.49600 0.37800 24.10600
H  -2.36500 7.56100 21.33700
H  -0.23200 9.58800 21.45600
H  -0.80200 6.48200 19.93900
H  0.51200 6.73500 21.06500
H  -0.01200 8.05000 19.93000
H  -2.85800 10.25600 22.86000
H  -3.21800 9.63400 21.44000
H  -3.26900 11.65000 20.84500
H  -1.50500 11.80000 20.77900
H  -2.29700 12.16600 22.31900
H  0.17100 13.48900 24.90400
H  1.86500 12.95000 25.11600
H  0.94200 13.79900 26.43500
H  0.04700 10.57800 30.40400
H  4.30500 11.01300 30.97000
H  3.82200 10.21900 32.51400
H  3.82400 12.08900 32.19700
Mg -1.96000 33.35900 26.69500
C  -3.63200 31.76700 29.20800
C  -0.75200 35.68100 28.96300
C  -0.75100 35.11900 24.17300
C  -3.62700 31.25400 24.39400
N  -2.21000 33.76600 28.86300
C  -2.84100 32.87400 29.65500
C  -2.76800 33.34500 31.16500
C  -1.84800 34.67400 31.09400
C  -1.69100 34.84100 29.52000
C  -2.46400 35.92400 31.76400
C  -2.31300 32.19400 32.06600
C  -1.61000 32.53400 33.39600
H  -1.93200 31.62000 34.54300
N  -0.66200 35.05200 26.53200
C  -0.30300 35.83900 27.58700
C  0.63000 36.83400 27.03700
C  0.59000 36.74900 25.66100
C  -0.31800 35.58800 25.39700
C  1.34200 37.71700 28.01600
C  1.26300 37.58700 24.58700
O  1.16700 37.39100 23.35900
C  2.10000 38.81200 25.02300
N  -2.47800 33.43400 24.65100
C  -1.60500 34.14000 23.82300
C  -1.71000 33.70500 22.37000
C  -2.23500 32.21000 22.58000
C  -2.80900 32.27600 23.97300
C  -2.35300 34.66600 21.36400
C  -1.24900 31.03900 22.27600
C  -0.59300 30.25200 23.40500
N  -3.40300 31.78600 26.73900
C  -3.97000 31.03800 25.72700
C  -4.82600 30.09700 26.26900
C  -4.74100 30.29800 27.66200
C  -3.88100 31.41500 27.85200
C  -5.68100 29.07400 25.48200
C  -5.22900 29.94300 28.98800
O  -5.85500 28.98200 29.31900
C  -4.38100 30.79700 30.02300
C  -5.34700 31.45900 30.92600
O  -5.97000 32.47500 30.74500
O  -5.69100 30.57900 31.93600
C  -6.69300 31.19300 32.85200
H  -0.38400 36.48800 29.59900
H  -0.31100 35.67100 23.34000
H  -3.80900 30.42600 23.70600
H  -3.75000 33.72700 31.44400
H  -0.83900 34.37800 31.38300
H  -1.63700 36.35500 32.32800
H  -3.23500 35.47700 32.39200
H  -2.93300 36.59100 31.04100
H  -1.82500 31.34600 31.58600
H  -3.30200 31.85700 32.37800
H  -1.70900 33.55800 33.75500
H  -0.55100 32.37100 33.19500
H  2.35500 37.81800 27.62700
H  1.20800 37.37600 29.04300
H  0.82600 38.67500 27.95900
H  1.39600 39.43000 25.58000
H  2.54400 39.27800 24.14400
H  2.98300 38.49600 25.57900
H  -0.72100 33.66900 21.91300
H  -3.06800 32.22100 21.87700
H  -2.58800 35.57500 21.91700
H  -3.23100 34.27000 20.85300
H  -1.62500 34.83500 20.57100
H  -0.49100 31.40700 21.58500
H  -1.87800 30.29900 21.78000
H  0.49200 30.20400 23.30700
H  -0.85100 29.19600 23.32800
H  -0.84800 30.62500 24.39600
H  -5.20000 28.70500 24.57600
H  -6.59200 29.63400 25.27000
H  -5.79500 28.24400 26.17900
H  -3.64500 30.21800 30.58100
H  -7.24600 30.45000 33.42500
H  -7.55800 31.62900 32.35300
H  -6.29400 31.91100 33.57000

