158

Mg 43.17000 2.95100 47.81500
C  41.52600 5.71200 47.22900
C  40.31700 1.01300 47.42200
C  45.10300 0.19100 47.47700
C  46.14200 4.73400 47.84000
N  41.15300 3.32800 47.49000
C  40.64100 4.55300 47.19500
C  39.05700 4.46600 46.92500
C  38.78500 3.02100 47.54000
C  40.15100 2.40800 47.52000
C  37.98200 2.97800 48.86600
C  38.80000 4.58600 45.39300
C  38.35700 5.99000 44.85500
H  38.96500 6.41100 43.56300
N  42.75300 0.95700 47.38100
C  41.51200 0.36700 47.31500
C  41.62200 -1.07400 46.99500
C  43.03700 -1.34700 47.00700
C  43.68100 -0.05700 47.43400
C  40.44600 -1.94200 46.68200
C  43.56600 -2.69900 46.59600
O  42.74300 -3.56300 46.34900
C  45.00200 -2.95800 46.64600
N  45.32700 2.47300 47.83700
C  45.89600 1.28600 47.71100
C  47.41000 1.29600 47.78300
C  47.71500 2.80300 47.70800
C  46.33100 3.38900 47.72100
C  47.94600 0.58000 48.98800
C  48.45300 3.29300 46.38100
C  49.94500 3.02700 46.37000
N  43.73200 4.82200 47.69700
C  44.95300 5.41300 47.75400
C  44.84800 6.82300 47.69500
C  43.45100 7.01300 47.46900
C  42.84600 5.79300 47.52000
C  45.87900 7.87000 47.85800
C  42.36900 7.99100 47.28300
O  42.37200 9.23000 47.25400
C  41.02400 7.13800 47.05500
C  40.11600 7.54400 48.19700
O  40.00000 6.87900 49.27400
O  39.36400 8.61100 47.99300
C  38.23500 8.89500 48.90800
H  39.39300 0.45600 47.25400
H  45.54900 -0.80300 47.40700
H  47.03000 5.36000 47.94700
H  38.67400 5.28200 47.53700
H  38.26800 2.46600 46.75800
H  37.65000 3.98500 49.11800
H  38.67700 2.58000 49.60500
H  37.11800 2.35400 48.63900
H  38.02800 3.87800 45.09200
H  39.64000 4.34000 44.74300
H  38.37100 6.76700 45.61900
H  37.28900 5.96900 44.63900
H  39.47100 -1.47200 46.81600
H  40.47300 -2.85400 47.27900
H  40.61200 -2.25400 45.65100
H  45.53000 -2.30900 45.94700
H  45.04500 -4.01300 46.37500
H  45.28900 -2.98600 47.69700
H  47.88800 0.82800 46.92200
H  48.31400 3.28400 48.48100
H  47.18700 0.12500 49.62300
H  48.67000 1.10700 49.60900
H  48.51900 -0.23700 48.54800
H  48.28400 4.36900 46.38600
H  48.07900 2.88600 45.44200
H  50.53000 3.59400 45.64500
H  49.91800 1.96600 46.12000
H  50.35300 3.08800 47.37900
H  46.87000 7.46000 47.66000
H  45.78100 8.09700 48.92000
H  45.62100 8.71100 47.21400
H  40.64700 7.44500 46.07900
H  37.61100 8.01700 49.07700
H  37.70700 9.77300 48.53800
H  38.59700 9.13900 49.90700
Mg 30.00500 59.56100 39.29100
C  27.11200 57.99600 38.11400
C  31.81500 56.74500 38.35800
C  32.78200 61.46600 39.13500
C  27.99900 62.56900 39.87200
N  29.57900 57.75900 38.23200
C  28.33400 57.32400 37.84000
C  28.41700 55.95700 37.05500
C  29.79400 55.47300 37.54100
C  30.47200 56.74000 38.02200
C  29.73600 54.46200 38.72900
C  28.45000 56.09200 35.50800
C  27.17700 55.42600 34.83400
H  26.18100 56.23200 34.02800
N  32.04200 59.08700 39.18200
C  32.54500 57.89600 38.75700
C  33.95500 57.97200 38.76200
C  34.30900 59.35000 39.08200
C  33.01800 60.04400 39.16900
C  34.91900 56.87000 38.45400
C  35.69000 59.82800 39.31600
O  36.65800 59.06300 39.16900
C  35.98600 61.20300 39.77400
N  30.29100 61.71200 39.66200
C  31.55700 62.17700 39.40500
C  31.59900 63.70500 39.54500
C  30.12800 64.06500 40.00800
C  29.41000 62.68500 39.83200
C  32.64600 64.24600 40.47800
C  29.55600 65.28300 39.18300
C  28.41500 66.06100 39.71500
N  27.93500 60.18500 39.23200
C  27.25300 61.35900 39.51200
C  25.83400 61.22600 39.18000
C  25.75100 59.86500 38.72400
C  27.02000 59.28100 38.75800
C  24.81300 62.33100 39.31000
C  24.83700 58.89100 38.23300
O  23.64400 58.92400 38.24400
C  25.65300 57.60800 37.89400
C  25.21900 56.53100 38.81300
O  25.30500 56.48800 40.00600
O  24.57100 55.65600 38.03400
C  23.89400 54.52800 38.77600
H  32.40100 55.90200 37.98500
H  33.62000 62.10900 38.85700
H  27.35600 63.42300 40.09800
H  27.66100 55.24000 37.37400
H  30.40800 54.94700 36.81000
H  30.59300 54.65300 39.37500
H  29.72000 53.41000 38.44500
H  28.85400 54.63100 39.34800
H  29.29400 55.59800 35.02600
H  28.59400 57.15800 35.33500
H  26.61300 54.89100 35.59800
H  27.40100 54.65800 34.09400
H  35.57300 57.14700 37.62700
H  34.55000 55.87400 38.21200
H  35.52700 56.85200 39.35800
H  36.69700 61.20700 40.60100
H  35.13000 61.77700 40.12800
H  36.50900 61.68900 38.95000
H  31.70400 64.09800 38.53300
H  30.09800 64.22700 41.08600
H  33.55900 64.41800 39.90800
H  32.95600 63.60300 41.30200
H  32.28600 65.17700 40.91700
H  29.29800 64.95700 38.17500
H  30.36600 66.01300 39.18100
H  28.80300 67.06100 39.90800
H  27.94400 65.62600 40.59700
H  27.76700 66.15200 38.84400
H  24.00400 61.93300 39.92200
H  24.41100 62.42400 38.30100
H  25.17700 63.30200 39.64700
H  25.34700 57.34700 36.88100
H  23.48400 53.80500 38.07100
H  23.02000 54.87900 39.32400
H  24.61200 54.09400 39.47300

