158

Mg 44.48600 5.49600 47.79300
C  42.59300 8.52400 47.60300
C  41.65100 3.89300 46.84800
C  46.27700 2.78500 47.50100
C  47.40500 7.46600 47.97900
N  42.32400 6.17900 47.34900
C  41.77600 7.40900 47.39600
C  40.28400 7.41100 47.07600
C  39.98200 5.89800 47.04800
C  41.38100 5.28200 47.06100
C  39.06100 5.38400 48.20900
C  39.76200 8.08300 45.77700
C  38.24800 7.90800 45.39000
H  37.96600 7.06700 44.17000
N  44.02700 3.55000 47.25100
C  42.83200 3.06900 46.92700
C  42.94300 1.61400 46.92500
C  44.30400 1.26500 47.02400
C  44.95900 2.53300 47.25900
C  41.70100 0.69100 46.77900
C  44.97900 -0.09900 46.94500
O  44.24400 -1.02800 46.65900
C  46.44500 -0.48200 47.22100
N  46.59500 5.22200 47.56900
C  46.99600 3.92600 47.62800
C  48.52000 3.85800 47.95700
C  48.92600 5.39900 48.08600
C  47.57200 6.12400 47.82500
C  48.82400 3.02800 49.27900
C  50.14000 5.85800 47.22200
C  51.19700 6.78100 47.96100
N  44.96600 7.54900 47.74800
C  46.17800 8.18900 47.88000
C  45.95600 9.54100 47.99500
C  44.60100 9.72400 47.86500
C  43.99700 8.45500 47.75500
C  47.01200 10.67300 48.31300
C  43.53900 10.69500 47.93800
O  43.69600 11.88900 48.07800
C  42.16700 9.95700 47.65000
C  41.11800 10.27100 48.64300
O  40.99000 9.63200 49.68000
O  40.26200 11.31300 48.35100
C  39.06700 11.44500 49.23800
H  40.74100 3.29500 46.76400
H  46.85200 1.86000 47.57900
H  48.31000 7.94800 48.35700
H  39.70000 7.77800 47.92000
H  39.45500 5.62600 46.13400
H  39.70200 4.88500 48.93500
H  38.39600 4.60300 47.84100
H  38.56100 6.18000 48.76100
H  40.43200 7.85200 44.94800
H  40.00800 9.14200 45.85200
H  37.77600 8.88100 45.25300
H  37.67100 7.52700 46.23300
H  40.80700 1.28100 46.57700
H  41.66200 0.07200 47.67500
H  41.82700 0.07500 45.88800
H  46.99500 -0.13000 46.34700
H  46.48000 -1.57100 47.18900
H  46.81500 -0.11500 48.17800
H  49.01100 3.28800 47.16800
H  49.21400 5.59800 49.11800
H  49.60100 2.26500 49.23900
H  47.90500 2.56500 49.64000
H  49.20000 3.70000 50.05000
H  49.70900 6.33000 46.33900
H  50.64800 4.96300 46.86200
H  51.39100 7.73200 47.46400
H  52.14200 6.25000 48.07500
H  50.81900 6.99100 48.96200
H  46.43300 11.57300 48.52000
H  47.68400 10.69200 47.45500
H  47.55200 10.44400 49.23100
H  41.77800 10.37400 46.72100
H  39.19200 11.97600 50.18200
H  38.78900 10.42500 49.50200
H  38.17300 11.82900 48.74500
Mg 41.58000 8.99500 29.88000
C  43.51400 10.04900 32.51300
C  39.36600 7.48800 31.98700
C  39.78500 7.69300 27.22000
C  44.11000 9.76700 27.66400
N  41.52400 8.71100 31.98900
C  42.32000 9.40900 32.93400
C  41.67800 9.21400 34.35800
C  40.44500 8.25700 34.08900
C  40.38400 8.27100 32.63100
C  40.54500 6.88000 34.73300
C  41.33400 10.51000 35.16300
C  41.43200 10.28400 36.75300
H  41.38600 11.50800 37.67600
N  39.73300 7.81300 29.61100
C  39.07000 7.25600 30.68200
C  38.02200 6.51200 30.17200
C  37.93600 6.69300 28.78700
C  39.17100 7.42900 28.46700
C  37.03000 5.74800 31.04200
C  36.86400 6.33100 27.75700
O  37.10300 6.44400 26.54500
C  35.46500 5.96500 28.19200
N  41.89400 8.72800 27.75700
C  41.05900 8.21500 26.92800
C  41.62900 8.06000 25.52500
C  43.00500 8.83900 25.61200
C  42.97400 9.15200 27.06600
C  41.66400 6.59200 25.03000
C  43.19700 9.95700 24.60000
C  42.65700 11.30200 25.08500
N  43.33300 9.87900 30.00300
C  44.33200 10.02500 29.05100
C  45.52600 10.65900 29.61900
C  45.17900 10.73900 30.99500
C  43.90400 10.15300 31.16800
C  46.84000 10.96100 28.89200
C  45.74700 10.98200 32.33900
O  46.88800 11.33900 32.64300
C  44.58600 10.70500 33.37600
C  45.10900 9.78300 34.41000
O  45.82600 8.77900 34.18200
O  44.78300 10.23900 35.68700
C  45.15800 9.27900 36.74900
H  38.47000 7.21900 32.55000
H  39.36600 7.29800 26.29200
H  44.91500 9.94600 26.94800
H  42.37300 8.61500 34.94600
H  39.52500 8.68300 34.49000
H  41.33000 6.78400 35.48200
H  40.80600 6.15000 33.96700
H  39.56100 6.59600 35.10600
H  40.34900 10.85100 34.84300
H  41.94400 11.37000 34.88600
H  42.41600 9.85000 36.93100
H  40.72900 9.52600 37.09900
H  37.41700 5.41400 32.00500
H  36.68600 4.82700 30.57200
H  36.17400 6.34400 31.35900
H  35.02800 6.67900 28.88900
H  35.51100 4.96500 28.62500
H  34.81900 6.03500 27.31700
H  40.97600 8.64600 24.87800
H  43.78100 8.10000 25.41300
H  42.67100 6.23000 24.82100
H  41.05500 6.48100 24.13300
H  41.29100 5.95200 25.83000
H  42.78300 9.74900 23.61300
H  44.28300 10.03900 24.57100
H  43.46200 11.94500 25.44300
H  41.86500 11.11000 25.80800
H  42.16600 11.68200 24.18900
H  47.36000 11.55100 29.64700
H  46.65600 11.54800 27.99200
H  47.43400 10.05400 28.77500
H  44.27700 11.67200 33.77300
H  46.22800 9.07200 36.76800
H  44.65600 8.32000 36.61800
H  44.71400 9.69300 37.65400

