158

Mg 9.09200 3.66300 28.13700
C  10.41200 2.16100 30.92300
C  7.35000 5.85200 30.32600
C  8.43300 5.75700 25.57500
C  10.67800 1.48700 25.98500
N  8.81100 3.86500 30.40300
C  9.54800 3.20700 31.35100
C  9.19700 3.68300 32.84300
C  8.13600 4.80400 32.61100
C  8.02100 4.83100 30.99500
C  6.67500 4.56100 33.23000
C  10.42700 4.20100 33.69900
C  10.88100 3.23100 34.82700
H  11.48600 3.90000 36.01400
N  7.92500 5.52500 27.94600
C  7.27100 6.17900 28.94700
C  6.65900 7.40900 28.43700
C  7.00900 7.44200 27.06000
C  7.82000 6.22500 26.78500
C  5.81800 8.34200 29.18500
C  6.83200 8.57000 25.94300
O  7.27300 8.44500 24.78400
C  6.23900 9.89500 26.34000
N  9.22000 3.43700 26.03700
C  9.01300 4.53200 25.20000
C  9.24600 4.14100 23.77300
C  10.05900 2.81800 23.89900
C  9.96100 2.55100 25.36700
C  7.89000 3.96800 22.99200
C  11.52100 3.04000 23.39600
C  12.22000 1.85100 22.82900
N  10.14400 2.08600 28.37800
C  10.75700 1.26900 27.38600
C  11.52300 0.29500 28.10500
C  11.37900 0.59300 29.46900
C  10.59400 1.69000 29.56900
C  12.44900 -0.75100 27.57900
C  11.81500 0.11900 30.82300
O  12.61300 -0.76900 31.20500
C  11.15700 1.22200 31.79600
C  10.32700 0.65000 32.85600
O  9.14100 0.30800 32.68600
O  11.04200 0.34800 33.97400
C  10.38500 -0.43800 34.96500
H  6.91300 6.49800 31.09000
H  8.38900 6.49000 24.76600
H  11.33000 0.83700 25.39900
H  8.66500 2.84200 33.28800
H  8.49700 5.76100 32.98700
H  6.06200 4.12900 32.43900
H  6.39800 5.56500 33.55100
H  6.75300 3.76800 33.97300
H  10.11300 5.13500 34.16600
H  11.25300 4.37400 33.00900
H  11.76400 2.78100 34.37400
H  10.12300 2.49900 35.10700
H  4.81800 8.45500 28.76900
H  6.28700 9.30700 28.99400
H  5.82500 8.17000 30.26200
H  6.90300 10.29400 27.10700
H  5.23900 9.71500 26.73300
H  6.18300 10.68000 25.58500
H  9.81000 5.00300 23.41700
H  9.60900 2.02500 23.30200
H  7.76600 4.82000 22.32400
H  7.03500 3.96300 23.66700
H  7.67500 3.06300 22.42500
H  12.07800 3.39500 24.26300
H  11.64700 3.83100 22.65600
H  12.15200 1.80400 21.74200
H  11.78600 0.86400 22.98900
H  13.26600 1.88200 23.13500
H  12.02500 -1.71500 27.85800
H  13.39200 -0.55700 28.09100
H  12.64800 -0.68000 26.50900
H  11.99000 1.67000 32.33700
H  10.04200 0.27000 35.71800
H  11.12500 -1.10900 35.40300
H  9.53500 -1.05200 34.66800
Mg 17.23900 -1.34100 28.40200
C  16.16600 0.64400 30.97900
C  19.46500 -2.96400 30.65300
C  18.89400 -2.79700 25.84300
C  15.68200 0.76600 26.16600
N  17.79900 -1.18500 30.53700
C  17.08000 -0.32900 31.43300
C  17.53800 -0.67100 32.92500
C  18.74300 -1.70100 32.75700
C  18.71500 -1.93700 31.18500
C  20.11200 -1.23000 33.26600
C  16.30000 -1.15700 33.81400
C  16.30200 -0.83600 35.33500
H  17.63800 -0.79400 36.06300
N  18.78600 -2.87700 28.32300
C  19.53400 -3.45600 29.31500
C  20.37000 -4.54000 28.81000
C  20.18100 -4.55200 27.35400
C  19.29500 -3.37400 27.12500
C  21.29700 -5.30800 29.75900
C  20.74000 -5.54400 26.30600
O  20.42400 -5.41800 25.12300
C  21.64500 -6.68500 26.69800
N  17.29500 -0.99100 26.32300
C  18.04500 -1.78400 25.49700
C  17.76700 -1.39200 23.95400
C  16.63500 -0.28800 24.02400
C  16.48900 -0.20800 25.57800
C  19.07700 -0.89900 23.21100
C  15.35600 -0.66000 23.25800
C  14.09500 -1.22200 23.98700
N  16.10700 0.41600 28.49600
C  15.49100 1.13500 27.53300
C  14.73500 2.20000 28.15400
C  15.02800 2.07100 29.52300
C  15.90500 0.93400 29.63800
C  13.82400 3.24700 27.48400
C  14.67100 2.67400 30.77100
O  13.91500 3.55500 31.14500
C  15.33700 1.69300 31.78000
C  16.26000 2.55900 32.66700
O  17.20100 3.16700 32.29800
O  15.92100 2.52400 33.98900
C  16.83500 3.24100 34.92300
H  20.02900 -3.43800 31.46000
H  19.35400 -3.29100 24.98400
H  15.05600 1.42800 25.56400
H  17.85600 0.26300 33.38700
H  18.47200 -2.62400 33.26900
H  20.43600 -1.83600 34.11300
H  19.98800 -0.20000 33.60000
H  20.83400 -1.18800 32.45000
H  16.44000 -2.23800 33.81600
H  15.41100 -0.84400 33.26600
H  15.67300 -1.65800 35.67700
H  15.70000 0.07200 35.38200
H  22.33700 -5.26800 29.43400
H  20.94000 -6.33100 29.87400
H  21.29600 -4.80000 30.72300
H  22.02500 -6.68000 27.72000
H  22.51000 -6.70200 26.03400
H  20.94000 -7.50800 26.58900
H  17.39700 -2.29300 23.46500
H  16.97900 0.70000 23.72000
H  18.94300 0.08300 22.75700
H  19.35000 -1.67200 22.49200
H  19.85800 -0.76200 23.95900
H  15.58000 -1.31900 22.42000
H  15.13300 0.28300 22.76100
H  13.26700 -0.51400 24.02100
H  14.38100 -1.52600 24.99400
H  13.79700 -2.04700 23.34000
H  12.92600 3.17700 28.09800
H  13.57700 3.06100 26.43900
H  14.39900 4.16800 27.57900
H  14.57400 1.20700 32.38700
H  16.22300 3.83500 35.60200
H  17.50900 3.90600 34.38300
H  17.45100 2.59400 35.54800

