158

Mg -2.62100 17.96100 25.84600
C  -3.11100 16.01800 28.64300
C  -3.04900 20.80800 27.80500
C  -2.85300 19.67700 23.00600
C  -2.26800 14.89300 23.84000
N  -3.14700 18.30500 27.90600
C  -3.09400 17.35800 28.86500
C  -3.28000 18.01400 30.24700
C  -3.25900 19.52400 29.96300
C  -3.06800 19.58900 28.43900
C  -4.54200 20.32200 30.47000
C  -2.39600 17.66100 31.43500
C  -2.81100 18.27800 32.78600
H  -2.83600 17.31700 33.97100
N  -2.87400 19.99100 25.47700
C  -3.05000 21.04200 26.37900
C  -3.15700 22.29200 25.71900
C  -3.14900 21.97300 24.34200
C  -2.99800 20.49900 24.18100
C  -3.27700 23.64700 26.36600
C  -3.24300 22.88000 23.20300
O  -3.25400 22.45000 22.06000
C  -3.47500 24.29400 23.47800
N  -2.51100 17.36400 23.70200
C  -2.55600 18.31200 22.77100
C  -2.38700 17.67100 21.34800
C  -2.03100 16.21300 21.68300
C  -2.24900 16.11000 23.17400
C  -3.64100 17.86100 20.42400
C  -0.57100 15.82900 21.20300
C  0.64500 16.05700 22.08100
N  -2.71000 15.90900 26.14100
C  -2.70700 14.79700 25.23400
C  -3.01700 13.65300 26.01400
C  -3.05900 14.05500 27.39400
C  -2.89900 15.44900 27.36400
C  -3.12900 12.21700 25.51200
C  -3.17400 13.58800 28.71800
O  -3.33500 12.43700 29.05800
C  -3.14200 14.84300 29.64300
C  -1.84000 14.64500 30.35000
O  -0.66700 14.80900 29.90700
O  -2.19000 14.11400 31.57500
C  -1.02700 13.64800 32.36200
H  -2.90100 21.63700 28.50000
H  -3.01600 20.27900 22.11000
H  -1.97200 13.97000 23.33600
H  -4.28900 17.71000 30.52500
H  -2.45400 20.06800 30.45500
H  -4.21900 21.19400 31.03900
H  -5.07200 19.78200 31.25500
H  -5.27900 20.52100 29.69200
H  -1.40400 17.84200 31.02200
H  -2.56700 16.58700 31.50400
H  -3.82000 18.68700 32.73100
H  -2.09800 19.08000 32.97600
H  -2.44500 24.24500 25.99300
H  -3.19500 23.55300 27.44900
H  -4.23200 24.13800 26.17600
H  -3.46800 24.84200 22.53600
H  -2.53400 24.52800 23.97500
H  -4.27200 24.61400 24.15000
H  -1.55500 18.17100 20.85300
H  -2.64600 15.39900 21.30000
H  -3.25600 18.33300 19.52000
H  -4.29300 18.60600 20.88000
H  -4.14400 16.90100 20.30800
H  -0.43400 16.43900 20.31000
H  -0.60400 14.77000 20.94400
H  0.37400 16.72500 22.89900
H  1.43200 16.46100 21.44400
H  1.02800 15.14200 22.53100
H  -3.37900 11.43900 26.23200
H  -2.27400 11.79600 24.98300
H  -3.99600 12.15300 24.85400
H  -4.00400 14.93900 30.30400
H  -0.56000 14.59900 32.61700
H  -0.25900 13.10800 31.80800
H  -1.39700 13.30500 33.32800
Mg 9.05100 47.72300 27.43000
C  6.85800 47.57100 30.10900
C  11.66200 48.44300 29.65800
C  11.02800 48.12400 24.79400
C  6.27600 47.86100 25.23800
N  9.21200 47.95800 29.67700
C  8.19200 47.77900 30.58900
C  8.77300 47.74800 32.02200
C  10.27500 48.11400 31.85600
C  10.41400 48.20100 30.32400
C  10.65800 49.53900 32.49700
C  8.47900 46.34700 32.63900
C  9.34800 45.85300 33.79100
H  8.66700 45.40200 35.07700
N  11.07500 48.13900 27.24300
C  11.99400 48.34200 28.24500
C  13.30300 48.48500 27.62800
C  13.14900 48.25500 26.21900
C  11.68600 48.04800 26.05800
C  14.52800 48.84900 28.42600
C  14.15400 48.14900 25.16700
O  13.83000 48.07900 23.96500
C  15.56900 48.20700 25.47900
N  8.68800 48.17300 25.25800
C  9.64800 48.18500 24.43500
C  9.13100 48.31600 22.95400
C  7.59400 48.27600 23.12200
C  7.49600 48.00100 24.58900
C  9.60100 49.55100 22.19800
C  6.79900 47.29100 22.19700
C  7.42500 46.55300 21.00200
N  7.01300 47.60300 27.58900
C  6.01300 47.64500 26.61800
C  4.71000 47.50900 27.21300
C  4.95200 47.48300 28.60400
C  6.35600 47.57300 28.75200
C  3.31800 47.56200 26.45600
C  4.40200 47.43500 29.97900
O  3.23900 47.31900 30.34400
C  5.59800 47.45600 31.01200
C  5.46900 46.18800 31.67900
O  5.95900 45.11700 31.26100
O  4.71700 46.25200 32.84600
C  4.69000 45.07000 33.68000
H  12.54000 48.64300 30.27600
H  11.60400 48.13300 23.86600
H  5.31500 47.71600 24.74000
H  8.17500 48.33200 32.72200
H  10.80500 47.22700 32.20200
H  11.69700 49.48300 32.82100
H  9.98000 49.78100 33.31500
H  10.60900 50.31800 31.73700
H  8.39900 45.57800 31.87100
H  7.50300 46.56900 33.07100
H  10.06900 46.63300 34.03200
H  9.86600 44.96500 33.42800
H  15.25400 48.06400 28.63500
H  14.30100 49.32000 29.38300
H  15.09200 49.56300 27.82600
H  16.09400 48.05800 24.53500
H  15.79000 47.55800 26.32600
H  15.73700 49.24500 25.76700
H  9.49700 47.46500 22.37900
H  7.16900 49.26800 22.96900
H  10.03500 50.23300 22.93000
H  8.73000 49.98400 21.70700
H  10.37200 49.20900 21.50700
H  6.01100 47.95400 21.84200
H  6.40400 46.47300 22.79900
H  6.78500 46.53100 20.11900
H  7.59200 45.51600 21.29200
H  8.39300 46.94500 20.69100
H  2.94200 46.56600 26.22400
H  3.35300 48.08500 25.50000
H  2.54800 48.07500 27.03200
H  5.46900 48.29200 31.69900
H  4.81900 45.44100 34.69600
H  5.48800 44.34500 33.51900
H  3.68400 44.68800 33.50100

