158

Mg 25.37400 1.07700 29.53700
C  27.33800 0.90500 32.46300
C  22.64700 1.63600 31.45500
C  23.75900 1.28400 26.60300
C  28.20900 0.11400 27.84700
N  25.09300 1.22400 31.74400
C  26.02600 1.29900 32.74800
C  25.40400 1.58200 34.19800
C  23.87400 1.46400 33.86200
C  23.78500 1.32700 32.26200
C  23.13900 0.32200 34.59200
C  25.92700 2.88600 34.77700
C  26.41600 2.72400 36.33200
H  25.85900 3.73700 37.31700
N  23.43300 1.22000 29.09100
C  22.49300 1.59700 30.00400
C  21.23600 1.86900 29.22800
C  21.50200 1.61600 27.89300
C  22.95100 1.33300 27.79600
C  19.96200 2.43100 29.88300
C  20.56200 1.68500 26.66600
O  20.83900 1.20400 25.52500
C  19.24000 2.14300 26.88200
N  25.91900 0.61900 27.45400
C  25.12900 1.03500 26.48400
C  25.81300 0.83700 25.12300
C  27.27000 0.59700 25.54400
C  27.16000 0.34400 27.04200
C  25.24200 -0.33900 24.29400
C  28.26300 1.72700 25.14700
C  29.23900 1.34900 23.94800
N  27.33600 0.37200 30.03600
C  28.34400 0.14600 29.22600
C  29.59600 -0.04700 29.99200
C  29.20300 0.18500 31.33800
C  27.83500 0.51300 31.27800
C  30.90400 -0.47900 29.45400
C  29.67900 0.25100 32.71900
O  30.77300 0.01500 33.17400
C  28.45500 0.76300 33.50500
C  28.25200 -0.20500 34.56900
O  27.67500 -1.27400 34.42700
O  28.90900 0.20400 35.71700
C  28.79300 -0.78000 36.87000
H  21.72600 1.68800 32.04000
H  23.19700 1.29200 25.66700
H  29.03000 -0.11900 27.16600
H  25.66200 0.85300 34.96700
H  23.39500 2.38200 34.20400
H  22.34800 0.64100 35.27000
H  23.81500 -0.30600 35.17300
H  22.67300 -0.33300 33.85500
H  25.38300 3.78200 34.47600
H  26.82000 2.93600 34.15400
H  27.48600 2.92000 36.26000
H  26.26900 1.71900 36.72600
H  19.78300 3.29200 29.23900
H  20.13600 2.87600 30.86300
H  19.13300 1.72600 29.93100
H  19.31400 3.20200 27.13200
H  18.62700 1.56800 27.57600
H  18.64500 2.07400 25.97200
H  25.77100 1.71200 24.47500
H  27.54800 -0.30000 24.99100
H  25.17800 -1.19200 24.96800
H  25.99600 -0.50100 23.52300
H  24.22800 -0.10200 23.97200
H  28.81900 2.05700 26.02500
H  27.69200 2.55600 24.72900
H  28.87300 0.53800 23.31800
H  30.20700 1.02100 24.32700
H  29.33000 2.29600 23.41600
H  31.38200 -1.08600 30.22300
H  31.60900 0.34800 29.37000
H  30.84700 -1.02800 28.51400
H  28.68000 1.74100 33.93200
H  28.95800 -1.82000 36.58900
H  27.85900 -0.64200 37.41500
H  29.65700 -0.46800 37.45600
Mg -1.85200 34.77900 25.39400
C  -3.64500 33.34400 28.06500
C  -0.46300 36.81600 27.72200
C  -0.53900 36.59400 22.82900
C  -3.67400 32.84900 23.11900
N  -2.19400 35.15500 27.70300
C  -2.79800 34.32200 28.57400
C  -2.48500 34.56400 30.06700
C  -1.54800 35.82700 29.88400
C  -1.40600 35.98700 28.38000
C  -1.95600 37.15600 30.51100
C  -1.85900 33.34700 30.77700
C  -2.60200 32.76200 32.06800
H  -1.66900 32.61200 33.26900
N  -0.62300 36.38300 25.26400
C  -0.14100 37.07200 26.33600
C  0.84400 38.02300 25.85300
C  0.97100 37.91000 24.47000
C  -0.10900 36.95000 24.17200
C  1.64100 38.97000 26.80800
C  1.85300 38.66900 23.44500
O  1.61400 38.58000 22.22900
C  2.91500 39.69400 23.97500
N  -2.12200 34.75100 23.26200
C  -1.45500 35.55900 22.44100
C  -1.62700 35.13800 20.98200
C  -2.34700 33.71000 21.16700
C  -2.75300 33.75200 22.59000
C  -2.25400 36.17200 20.02600
C  -1.45900 32.35700 20.91500
C  -0.19800 32.26500 21.65400
N  -3.36400 33.45200 25.50300
C  -3.97200 32.67200 24.50600
C  -4.91800 31.81500 25.04300
C  -4.77200 31.97700 26.47800
C  -3.89200 33.03900 26.67400
C  -5.70000 30.66500 24.39900
C  -5.21800 31.51800 27.78900
O  -6.01000 30.66100 28.15500
C  -4.47700 32.35100 28.85600
C  -5.41300 33.03600 29.79700
O  -5.85800 34.15800 29.76500
O  -5.58500 32.14200 30.83600
C  -6.33300 32.70900 32.03700
H  0.27500 37.25600 28.39500
H  -0.13100 37.19300 22.01200
H  -4.20200 32.10100 22.52400
H  -3.41000 34.86900 30.55600
H  -0.62400 35.55900 30.39600
H  -2.27800 37.90400 29.78700
H  -1.15300 37.56300 31.12500
H  -2.77000 36.87300 31.17800
H  -0.85300 33.50300 31.16500
H  -1.80000 32.59000 29.99500
H  -3.20700 31.87300 31.88900
H  -3.30100 33.49100 32.47900
H  1.34900 39.99900 26.59800
H  2.70300 38.88600 26.57700
H  1.62300 38.83100 27.88900
H  3.26200 40.39000 23.21100
H  3.74100 39.20400 24.49100
H  2.32900 40.34600 24.62400
H  -0.64000 34.89500 20.58800
H  -3.30000 33.74900 20.64000
H  -3.13000 35.74900 19.53500
H  -1.57100 36.48600 19.23700
H  -2.66900 37.03000 20.55500
H  -1.19800 32.42300 19.85900
H  -2.12800 31.50900 21.06300
H  0.58400 32.25300 20.89500
H  -0.33200 31.36800 22.25800
H  -0.05300 33.11600 22.32000
H  -6.62400 31.00300 23.93000
H  -5.95600 29.91400 25.14600
H  -5.05000 30.20400 23.65400
H  -3.86800 31.61700 29.38300
H  -7.22200 33.32500 31.90400
H  -5.58900 33.30400 32.56900
H  -6.54700 31.85700 32.68200

