158

Mg 3.03600 1.30100 44.22600
C  5.89600 3.30500 44.29900
C  1.63400 3.58100 42.08700
C  0.59400 -0.88200 43.52000
C  5.01500 -1.33400 45.51600
N  3.71200 3.14600 43.23900
C  4.91100 3.81500 43.47100
C  4.99600 5.21600 42.82100
C  3.48900 5.35700 42.40800
C  2.90800 3.93600 42.53800
C  2.69100 6.39900 43.26800
C  5.88300 5.46800 41.48100
C  6.04900 4.26200 40.55700
H  5.43700 4.42200 39.09000
N  1.21100 1.44000 43.22300
C  0.80300 2.43800 42.30800
C  -0.41900 2.12100 41.69900
C  -0.82900 0.83700 42.24000
C  0.34000 0.39600 43.09600
C  -1.24400 3.01800 40.77200
C  -2.18100 0.12000 41.95900
O  -3.05300 0.69000 41.26100
C  -2.55700 -1.32100 42.39600
N  2.80700 -0.81400 44.52400
C  1.71600 -1.45400 44.02900
C  1.90600 -2.93400 44.34500
C  3.22900 -3.12700 45.19900
C  3.74600 -1.65900 45.06500
C  0.59800 -3.55100 44.96000
C  4.16500 -4.22700 44.67800
C  4.29500 -5.40800 45.68400
N  5.01100 0.97800 44.89300
C  5.66500 -0.10200 45.44100
C  7.01900 0.30300 45.81400
C  7.14700 1.61700 45.37900
C  5.88600 1.99300 44.81500
C  8.02400 -0.60700 46.57800
C  8.01300 2.79500 45.46100
O  9.16600 2.89900 45.88000
C  7.20200 3.95400 44.78100
C  7.07000 5.11100 45.78000
O  7.94200 5.91100 46.02000
O  5.83700 5.23800 46.43300
C  5.70200 6.36600 47.36500
H  1.16000 4.40700 41.55200
H  -0.14100 -1.64800 43.26200
H  5.52400 -2.16600 46.00700
H  5.42300 5.94000 43.51600
H  3.41400 5.66400 41.36500
H  3.22700 6.71800 44.16200
H  1.78600 5.94100 43.66600
H  2.53400 7.22600 42.57500
H  6.88700 5.73800 41.80700
H  5.39300 6.30200 40.97900
H  5.58500 3.37200 40.98100
H  7.07800 3.90100 40.54100
H  -1.57300 2.48300 39.88100
H  -0.58900 3.82800 40.45000
H  -2.04900 3.38700 41.40800
H  -2.20800 -1.34600 43.42800
H  -2.03100 -2.09500 41.83700
H  -3.64600 -1.36900 42.39400
H  2.08600 -3.48800 43.42400
H  2.91700 -3.25000 46.23700
H  0.24100 -2.69600 45.53500
H  0.81000 -4.47200 45.50200
H  -0.25100 -3.76800 44.31200
H  5.17000 -3.86100 44.46800
H  3.70900 -4.73600 43.82900
H  4.37900 -4.99400 46.69000
H  5.02900 -6.20800 45.58800
H  3.32600 -5.89000 45.81400
H  8.44800 0.02900 47.35500
H  8.73600 -0.99000 45.84700
H  7.48000 -1.40000 47.09000
H  7.83100 4.35100 43.98500
H  4.62100 6.43300 47.49000
H  6.12100 7.31900 47.04100
H  6.27300 6.16700 48.27200
Mg 40.95000 7.82700 29.50800
C  42.68500 9.28200 32.20100
C  38.72000 6.56600 31.70000
C  39.66700 6.20900 26.98000
C  43.62000 8.84200 27.49400
N  40.70900 7.99800 31.71100
C  41.54900 8.60900 32.59600
C  41.05000 8.49800 33.99800
C  39.99300 7.36300 33.87300
C  39.74300 7.36900 32.28600
C  40.35900 5.91800 34.33300
C  40.45700 9.84900 34.54100
C  40.00200 9.92700 36.03700
H  40.80000 10.50600 37.15500
N  39.45900 6.56100 29.38200
C  38.54600 6.26900 30.36500
C  37.38300 5.57800 29.90500
C  37.58200 5.49700 28.47800
C  39.00200 6.09600 28.21600
C  36.25900 4.91000 30.72800
C  36.58200 5.00400 27.35200
O  36.88300 4.93500 26.21800
C  35.21000 4.62000 27.77400
N  41.63900 7.34700 27.58500
C  40.76500 6.86500 26.68700
C  41.30900 6.92900 25.30900
C  42.39000 8.07100 25.45300
C  42.58700 8.07800 26.90700
C  41.86700 5.55300 24.79500
C  41.89700 9.39000 24.69200
C  40.83800 10.25500 25.37200
N  42.73100 8.89400 29.69700
C  43.77100 9.22200 28.79700
C  44.83000 9.99200 29.42600
C  44.39400 10.12600 30.77200
C  43.20700 9.38300 30.89200
C  46.10000 10.51900 28.80000
C  44.76800 10.62600 32.03100
O  45.85200 11.19100 32.36900
C  43.66400 10.20500 33.04200
C  44.38100 9.41000 34.07600
O  45.18600 8.53600 33.93600
O  44.01300 9.87200 35.31900
C  44.55600 9.11800 36.44600
H  37.96500 6.19800 32.39800
H  39.12600 5.76900 26.14000
H  44.42100 9.07600 26.79000
H  41.91600 8.15500 34.56500
H  39.01100 7.59400 34.28600
H  40.26500 5.28000 33.45400
H  39.69600 5.57300 35.12700
H  41.39700 5.92900 34.66500
H  39.50600 10.04100 34.04500
H  41.03500 10.76100 34.38800
H  39.69000 8.94400 36.38900
H  39.12800 10.56200 36.18700
H  35.34400 5.45500 30.49500
H  36.44300 4.84100 31.80000
H  36.10700 3.88600 30.38600
H  35.14000 3.57100 28.05900
H  34.64400 4.63500 26.84200
H  34.68500 5.33300 28.40900
H  40.50200 7.33200 24.69700
H  43.30400 7.88600 24.89000
H  42.95500 5.56900 24.73400
H  41.28000 5.40800 23.88800
H  41.52200 4.83500 25.54000
H  41.39900 9.02700 23.79300
H  42.74900 10.03300 24.47000
H  40.19900 9.70400 26.06200
H  40.12800 10.49700 24.58200
H  41.27600 11.14500 25.82500
H  46.83300 9.72200 28.92600
H  46.55900 11.24300 29.47400
H  45.87800 10.79400 27.76900
H  43.23700 11.08400 33.52600
H  43.99100 8.19600 36.31100
H  44.47100 9.60000 37.42000
H  45.63000 8.93000 36.42900

