158

Mg 17.41600 -2.36300 27.57900
C  16.38100 -0.58800 30.28400
C  19.55700 -4.03900 29.79000
C  18.64700 -3.96800 24.93400
C  15.59100 -0.23500 25.48300
N  17.94800 -2.17200 29.79800
C  17.34700 -1.46700 30.67600
C  17.65500 -1.80600 32.16500
C  18.93100 -2.72600 31.92700
C  18.84600 -2.98500 30.39100
C  20.27300 -2.19800 32.56000
C  16.49700 -2.47900 32.98200
C  16.32000 -1.92800 34.46900
H  17.62700 -1.49900 35.19800
N  18.93500 -3.78400 27.36600
C  19.62700 -4.36600 28.43400
C  20.36000 -5.49000 27.88500
C  20.10600 -5.50900 26.45200
C  19.15300 -4.44300 26.19500
C  21.30200 -6.43100 28.73800
C  20.71700 -6.43200 25.42300
O  20.37400 -6.35000 24.24400
C  21.78400 -7.37000 25.73100
N  17.20200 -2.10300 25.49300
C  17.75100 -2.94000 24.61800
C  17.40900 -2.55000 23.18500
C  16.21700 -1.49100 23.38100
C  16.32500 -1.22800 24.88800
C  18.64700 -2.05700 22.47100
C  14.74100 -1.95500 23.07500
C  13.78300 -0.89800 22.45100
N  16.25100 -0.77500 27.76200
C  15.54100 -0.02700 26.86400
C  14.76500 0.92800 27.55600
C  15.10000 0.74700 28.87800
C  16.01700 -0.28300 28.98600
C  13.89900 2.00700 26.95700
C  14.73000 1.29400 30.23100
O  14.00800 2.19100 30.58700
C  15.58900 0.44200 31.17300
C  16.34800 1.40900 32.03100
O  17.39200 1.96200 31.76100
O  15.65700 1.65100 33.12700
C  16.01900 2.89400 33.88300
H  20.08700 -4.66400 30.51200
H  18.97000 -4.44500 24.00700
H  14.92000 0.41500 24.91800
H  17.90800 -0.88700 32.69400
H  18.68200 -3.72500 32.28700
H  20.18900 -1.19500 32.97800
H  21.03100 -2.07600 31.78600
H  20.62200 -2.92000 33.29800
H  16.50600 -3.56800 32.96500
H  15.61500 -2.09300 32.47100
H  15.69400 -2.72100 34.87900
H  15.70500 -1.03100 34.40200
H  21.63300 -6.09300 29.72000
H  22.25800 -6.61200 28.24700
H  20.84100 -7.41900 28.76500
H  21.91200 -8.01900 24.86400
H  21.46800 -7.99700 26.56400
H  22.73200 -6.92400 26.03100
H  17.06400 -3.34900 22.53000
H  16.51700 -0.55800 22.90400
H  18.59900 -2.37200 21.42900
H  19.62700 -2.25600 22.90400
H  18.61800 -0.97000 22.38400
H  14.22400 -2.21000 24.00000
H  14.57300 -2.79700 22.40300
H  14.27200 0.06800 22.32700
H  12.83500 -0.73000 22.96100
H  13.49500 -1.27600 21.47000
H  13.14300 1.50200 26.35600
H  14.58600 2.52500 26.28800
H  13.50800 2.63600 27.75700
H  14.91600 -0.13100 31.81100
H  16.85100 2.78600 34.57900
H  15.15300 3.30000 34.40600
H  16.24000 3.54200 33.03400
Mg 0.93000 43.19400 25.62000
C  2.95700 42.59200 28.37000
C  -1.77900 42.15700 27.38800
C  -0.90200 43.21200 22.73600
C  3.70000 44.17100 23.78300
N  0.66900 42.26100 27.69200
C  1.61600 42.35600 28.70200
C  0.92100 42.18900 30.00500
C  -0.60900 41.86100 29.71500
C  -0.57600 42.02700 28.19000
C  -1.11300 40.41300 30.10000
C  1.11600 43.36700 30.96900
C  0.68500 43.09200 32.42300
H  0.20200 41.67300 32.77500
N  -1.05300 42.71100 25.17700
C  -2.04500 42.36900 25.98800
C  -3.29400 42.11500 25.34100
C  -3.04300 42.43800 23.97600
C  -1.59300 42.84900 23.94700
C  -4.57800 41.80800 26.04900
C  -4.10800 42.43500 22.88500
O  -3.82800 42.75000 21.76200
C  -5.49200 41.88000 23.10700
N  1.29600 43.71900 23.52800
C  0.36500 43.72100 22.53200
C  0.97000 44.20000 21.24700
C  2.37200 44.74100 21.67200
C  2.50400 44.29800 23.10800
C  1.08800 43.16800 20.14900
C  2.56200 46.27000 21.56000
C  1.47900 47.10100 22.15700
N  2.81900 43.16800 25.94200
C  3.84800 43.50100 25.04400
C  5.10300 43.21000 25.66200
C  4.80300 42.89300 26.95900
C  3.41600 42.87600 27.10300
C  6.41800 43.40000 24.99300
C  5.35400 42.59300 28.26100
O  6.53000 42.43600 28.61100
C  4.16000 42.51900 29.23700
C  4.29800 41.35500 30.24400
O  4.36500 40.10400 30.04900
O  4.22300 41.89400 31.49100
C  4.19700 40.88000 32.58400
H  -2.68000 42.07700 28.00100
H  -1.45300 43.15000 21.79600
H  4.56900 44.62300 23.30100
H  1.43800 41.34000 30.45300
H  -1.29400 42.56000 30.19500
H  -1.95000 40.47400 30.79500
H  -0.33800 39.88100 30.65000
H  -1.49500 39.91700 29.20700
H  0.45100 44.16800 30.64300
H  2.09400 43.82700 30.82300
H  -0.22800 43.67300 32.55400
H  1.43000 43.41200 33.15100
H  -5.36000 42.48400 25.70500
H  -4.41000 41.95600 27.11600
H  -4.89800 40.78500 25.85500
H  -5.95800 42.64200 23.73300
H  -5.53700 40.89300 23.56700
H  -6.00200 41.93600 22.14500
H  0.40600 45.07400 20.92100
H  3.23100 44.43900 21.07300
H  2.11900 43.08100 19.80600
H  0.61800 43.51200 19.22800
H  0.73900 42.16500 20.39400
H  2.74700 46.54100 20.52100
H  3.41900 46.60900 22.14300
H  0.56300 46.57500 22.42500
H  1.12100 47.81500 21.41500
H  1.77300 47.74900 22.98300
H  6.40400 44.27300 24.34100
H  6.67400 42.59900 24.30000
H  7.05200 43.65800 25.84200
H  4.18900 43.48300 29.74400
H  3.89600 39.89700 32.22200
H  3.50700 41.15200 33.38300
H  5.15100 40.74500 33.09400

