158

Mg 43.10400 42.14200 26.97900
C  41.77900 44.37500 29.26100
C  44.41200 40.25900 29.39200
C  44.16100 40.03900 24.50000
C  42.11900 44.42300 24.32900
N  43.15300 42.36900 29.07900
C  42.34700 43.22500 29.82500
C  42.46800 42.90300 31.31800
C  43.59200 41.82700 31.33500
C  43.72000 41.39600 29.83500
C  44.89000 42.30000 32.01500
C  41.10500 42.47400 31.91400
C  40.70000 42.84500 33.37600
H  41.74000 43.33000 34.32900
N  44.11400 40.39100 26.95700
C  44.61700 39.74600 28.08000
C  45.22400 38.53900 27.65500
C  44.92500 38.33300 26.30100
C  44.45400 39.63600 25.82800
C  45.83400 37.56800 28.61800
C  45.17400 37.11800 25.37700
O  44.99400 37.15900 24.14300
C  45.57400 35.86900 26.00400
N  43.18000 42.24500 24.70400
C  43.59200 41.20000 24.00300
C  43.47600 41.38300 22.48400
C  42.80500 42.83000 22.42900
C  42.68600 43.20800 23.91600
C  44.78900 41.26300 21.66400
C  41.38400 42.74000 21.72400
C  40.33500 41.77100 22.21800
N  42.16400 43.94500 26.77000
C  41.89800 44.84500 25.69600
C  41.24600 46.05600 26.16300
C  41.19100 45.84500 27.56600
C  41.74400 44.57200 27.86500
C  40.75800 47.20600 25.30400
C  40.75600 46.49800 28.78900
O  40.27500 47.59600 28.91100
C  41.03100 45.54900 29.90200
C  41.80500 46.24000 30.92900
O  42.92700 46.71000 30.80300
O  40.95500 46.45200 31.93800
C  41.44800 47.24600 33.03800
H  44.80800 39.68300 30.23100
H  44.32400 39.32700 23.68900
H  41.78900 45.05400 23.50100
H  42.78100 43.78600 31.87500
H  43.27700 40.94200 31.88700
H  45.09000 41.72300 32.91900
H  44.81900 43.36700 32.22500
H  45.67400 42.13500 31.27700
H  41.01400 41.38900 31.87500
H  40.37300 42.80000 31.17500
H  40.31900 41.92900 33.82700
H  39.96300 43.64300 33.28800
H  45.73200 37.92000 29.64400
H  46.88300 37.44000 28.34800
H  45.36700 36.58700 28.53100
H  45.64900 35.04100 25.29900
H  44.82000 35.60200 26.74400
H  46.60600 35.87300 26.35600
H  42.77300 40.70800 21.99400
H  43.49400 43.49600 21.91000
H  44.82000 41.97900 20.84300
H  44.87900 40.23300 21.31600
H  45.73600 41.39000 22.18800
H  41.64200 42.56900 20.67900
H  40.89200 43.71000 21.65200
H  40.80500 41.28800 23.07500
H  40.10000 41.11300 21.38200
H  39.44800 42.32500 22.52500
H  40.22200 46.97400 24.38300
H  41.61700 47.84500 25.10100
H  40.12900 47.75200 26.00800
H  40.09600 45.11900 30.26100
H  41.94300 46.67000 33.81900
H  40.63900 47.85500 33.44200
H  42.12100 48.04700 32.73000
Mg 36.15400 49.40400 25.30800
C  36.58600 47.91500 28.52900
C  34.72600 52.18500 26.96600
C  35.56900 50.86200 22.23000
C  37.39300 46.62100 23.80300
N  35.68900 49.97600 27.47800
C  36.08900 49.24700 28.58300
C  35.74800 50.01500 29.84600
C  35.20100 51.32900 29.39800
C  35.08500 51.15200 27.80900
C  33.94700 51.81100 30.17000
C  36.87300 50.08100 30.96900
C  36.52000 49.79700 32.39500
H  35.09400 49.48500 32.87100
N  35.30200 51.31500 24.68900
C  34.80200 52.29600 25.55000
C  34.31700 53.43000 24.74400
C  34.58100 53.04500 23.38500
C  35.19900 51.69100 23.41700
C  33.74100 54.60100 25.38700
C  34.25400 53.81600 22.18900
O  34.41300 53.30100 21.08900
C  33.83100 55.22700 22.27800
N  36.30400 48.79000 23.35500
C  36.13900 49.55200 22.22000
C  36.41000 48.78200 20.91100
C  37.07100 47.48500 21.44800
C  36.91000 47.66400 22.99200
C  35.18500 48.55700 20.04100
C  38.57800 47.43500 21.04100
C  39.69900 48.17100 21.86300
N  36.81100 47.63800 25.95400
C  37.35200 46.58200 25.18500
C  37.71300 45.53700 26.09500
C  37.41400 45.94900 27.41100
C  36.88300 47.28400 27.24900
C  38.32200 44.20400 25.66400
C  37.47500 45.58900 28.77900
O  37.88300 44.57200 29.25100
C  36.85100 46.81400 29.55900
C  35.64800 46.23500 30.24200
O  34.52800 46.16300 29.78600
O  35.90200 45.64300 31.52400
C  34.80800 45.19200 32.41300
H  34.31900 53.00500 27.56000
H  35.35300 51.22700 21.22300
H  37.92700 45.82700 23.27700
H  34.92000 49.39700 30.19600
H  35.91700 52.13100 29.57100
H  33.37200 51.05600 30.70500
H  33.24500 52.30700 29.50000
H  34.14700 52.52100 30.97400
H  37.41700 51.01400 30.82000
H  37.50200 49.21800 30.75000
H  36.86500 50.71200 32.87500
H  37.18500 49.08300 32.88100
H  32.74400 54.71300 24.96100
H  34.25400 55.44700 24.92800
H  33.74900 54.68200 26.47400
H  34.66000 55.76600 22.73600
H  32.92600 55.33300 22.87500
H  33.77900 55.54400 21.23600
H  37.13800 49.40000 20.38600
H  36.62200 46.54400 21.13000
H  34.24100 48.88900 20.47300
H  35.04900 47.47900 19.96300
H  35.33600 49.02600 19.06800
H  38.54600 47.71100 19.98700
H  38.93900 46.40800 20.97800
H  40.18400 48.77800 21.09800
H  40.36100 47.45000 22.34200
H  39.33100 48.77300 22.69400
H  38.56600 44.13700 24.60400
H  37.63800 43.36800 25.81500
H  39.21900 44.04700 26.26400
H  37.60500 47.12700 30.28000
H  34.75700 44.10300 32.42200
H  33.82800 45.61400 32.18900
H  35.04400 45.44700 33.44600

