158

Mg 36.31900 48.71300 26.44400
C  36.09400 46.85700 29.30100
C  35.63700 51.57600 28.21400
C  36.16500 50.43700 23.51500
C  36.69600 45.67600 24.53600
N  35.89000 49.12300 28.48800
C  35.92300 48.22300 29.53600
C  35.94700 48.90400 30.87800
C  35.35700 50.38800 30.48300
C  35.59700 50.40500 28.94900
C  33.81600 50.62400 30.82700
C  37.36400 48.83800 31.59900
C  37.47200 48.88900 33.18900
H  36.13400 48.92000 33.96700
N  35.80400 50.76900 25.93900
C  35.73700 51.79000 26.81500
C  35.76900 53.02900 26.09200
C  35.92800 52.68700 24.73200
C  35.95600 51.28400 24.63800
C  35.60500 54.40600 26.76100
C  36.00100 53.58300 23.51600
O  36.06000 53.14200 22.34400
C  36.05300 55.13000 23.79900
N  36.23500 48.07200 24.33400
C  36.27100 49.06600 23.37900
C  36.58300 48.41100 21.92900
C  36.99900 46.98400 22.26500
C  36.63400 46.90900 23.80500
C  35.40000 48.60400 20.93300
C  38.51700 46.66400 21.97900
C  38.87800 46.10200 20.60700
N  36.56600 46.72200 26.79600
C  36.63300 45.56000 25.96200
C  36.68700 44.35400 26.80600
C  36.54500 44.83200 28.10900
C  36.39600 46.25400 28.04800
C  36.82300 42.95200 26.32400
C  36.39900 44.42500 29.51400
O  36.48000 43.32400 30.06900
C  36.09000 45.66800 30.37900
C  34.82000 45.42600 31.05800
O  33.74100 45.55000 30.45400
O  34.94800 45.06100 32.38700
C  33.68700 44.70600 33.10500
H  35.39200 52.44500 28.82800
H  36.39900 50.91400 22.56100
H  36.77900 44.74100 23.97800
H  35.22000 48.31500 31.43800
H  36.00000 51.07800 31.02900
H  33.26800 50.93200 29.93600
H  33.57800 51.47000 31.47200
H  33.38800 49.74100 31.30100
H  37.97300 49.68500 31.28200
H  37.86600 47.96900 31.17300
H  38.07500 49.72900 33.53700
H  37.98900 47.96700 33.45600
H  36.60800 54.83100 26.73600
H  35.29900 54.47100 27.80600
H  34.92300 54.89400 26.06400
H  35.08000 55.57300 24.01200
H  36.38100 55.57300 22.85800
H  36.84800 55.39900 24.49500
H  37.44400 48.95400 21.54000
H  36.33900 46.23400 21.83000
H  35.81200 48.82300 19.94800
H  34.79300 49.48400 21.14500
H  34.79500 47.69800 20.89600
H  38.79600 45.95100 22.75500
H  39.09500 47.58100 22.09100
H  39.51400 46.79500 20.05600
H  38.01700 45.66900 20.09700
H  39.59000 45.29400 20.77200
H  36.44200 42.80100 25.31300
H  36.34800 42.39100 27.12900
H  37.88800 42.73400 26.39400
H  36.84500 45.89700 31.13000
H  33.56700 43.64000 33.29500
H  32.85900 45.05600 32.49000
H  33.74100 45.27000 34.03600
Mg -0.00500 44.22900 25.54700
C  2.18800 44.45400 28.14700
C  -2.49600 43.71500 27.89500
C  -2.18200 43.34500 23.05900
C  2.52700 44.50400 23.23700
N  -0.06400 43.90800 27.84300
C  0.92000 44.18200 28.66600
C  0.42900 44.05400 30.10600
C  -1.06800 43.73400 29.96800
C  -1.23200 43.77800 28.50500
C  -1.64300 42.46200 30.69200
C  0.92300 45.15900 31.12900
C  0.31000 45.22800 32.48100
H  0.23000 43.94800 33.30000
N  -2.06600 43.73500 25.49100
C  -2.91500 43.63100 26.57000
C  -4.33200 43.53700 26.15100
C  -4.23200 43.32200 24.72400
C  -2.80200 43.50300 24.35700
C  -5.59700 43.53600 26.96300
C  -5.28900 42.96400 23.59200
O  -5.02600 42.75700 22.39600
C  -6.71700 42.74700 23.97400
N  0.13000 43.89100 23.45300
C  -0.84700 43.52900 22.66000
C  -0.38800 43.43500 21.17200
C  1.09200 44.06900 21.22400
C  1.29100 44.12000 22.75800
C  -0.49400 41.99600 20.59400
C  1.22200 45.51400 20.51100
C  1.41700 46.78700 21.37900
N  1.96500 44.43700 25.57300
C  2.90900 44.54200 24.58300
C  4.28700 44.58100 25.19400
C  4.03400 44.55500 26.52600
C  2.63300 44.53700 26.75900
C  5.49900 44.87300 24.48100
C  4.65600 44.54600 27.82300
O  5.81600 44.69900 28.20100
C  3.45500 44.45800 28.95400
C  3.71000 43.25500 29.85100
O  3.56500 42.05100 29.55700
O  4.07200 43.68800 31.11400
C  4.40400 42.64700 32.07900
H  -3.34900 43.64700 28.57400
H  -2.82200 43.15900 22.19500
H  3.36300 44.66000 22.55200
H  0.92800 43.13700 30.42000
H  -1.53700 44.69100 30.19700
H  -2.29800 42.73600 31.52000
H  -0.84800 41.86000 31.13200
H  -2.14600 41.81200 29.97500
H  0.85600 46.07000 30.53500
H  1.99000 45.07900 31.33800
H  -0.59500 45.83600 32.45600
H  1.06300 45.85500 32.95900
H  -5.43700 43.87700 27.98600
H  -5.95700 42.50800 26.91300
H  -6.27600 44.20900 26.44000
H  -7.28600 42.19900 23.22400
H  -7.01500 43.78800 24.09300
H  -6.80400 42.16500 24.89200
H  -1.04200 44.17300 20.70700
H  1.80700 43.38000 20.77400
H  -1.35900 41.99900 19.93000
H  -0.68100 41.24000 21.35500
H  0.38800 41.68300 20.03400
H  0.46500 45.65400 19.73900
H  2.10400 45.38800 19.88200
H  1.31700 46.83000 22.46400
H  0.78800 47.59700 21.00900
H  2.43300 47.13100 21.18900
H  5.46400 44.98400 23.39700
H  6.19800 44.03700 24.51700
H  5.84700 45.77000 24.99300
H  3.64000 45.36700 29.52600
H  4.88800 43.25400 32.84300
H  5.21300 42.02300 31.69600
H  3.53300 42.09600 32.43300

