158

Mg 26.21900 -0.08900 29.25200
C  28.15600 -0.32700 32.28400
C  23.47300 0.35100 31.28200
C  24.42900 0.05100 26.48700
C  29.00200 -1.12900 27.52600
N  25.87000 0.02300 31.62400
C  26.82900 -0.02300 32.63100
C  26.20500 0.39400 34.00900
C  24.65700 0.61600 33.65600
C  24.66800 0.25000 32.12200
C  23.63100 -0.16700 34.47900
C  26.82700 1.61700 34.73000
C  26.22100 2.08500 36.05200
H  27.04600 2.29900 37.25000
N  24.28500 0.18700 28.93800
C  23.28100 0.31200 29.88400
C  22.04900 0.57200 29.13200
C  22.27700 0.63200 27.74800
C  23.68100 0.26500 27.67900
C  20.73200 1.03300 29.79800
C  21.35700 0.88300 26.55000
O  21.72600 0.79500 25.40800
C  19.92000 1.35800 26.78300
N  26.59800 -0.50400 27.27400
C  25.73300 -0.24000 26.28300
C  26.38600 -0.20800 24.89500
C  27.83000 -0.76400 25.18800
C  27.84400 -0.82100 26.76100
C  25.55100 -0.96100 23.78100
C  28.96800 0.17500 24.66800
C  30.00300 -0.53600 23.79500
N  28.14900 -0.65500 29.75000
C  29.19100 -1.06800 28.87500
C  30.43800 -1.28900 29.66000
C  29.97300 -1.06400 30.95200
C  28.65700 -0.56700 30.94600
C  31.80800 -1.66700 29.17400
C  30.47700 -0.97000 32.27500
O  31.59900 -1.13100 32.73100
C  29.37700 -0.44100 33.21400
C  29.22900 -1.29400 34.37300
O  28.68600 -2.37200 34.35000
O  29.75400 -0.81900 35.51500
C  29.55000 -1.43200 36.86400
H  22.63500 0.69500 31.89200
H  23.98800 0.30200 25.52000
H  29.84100 -1.30700 26.85000
H  26.38500 -0.48500 34.62900
H  24.49600 1.68100 33.82200
H  24.12100 -0.67600 35.30900
H  23.00700 -0.94900 34.04600
H  22.89100 0.44700 34.99100
H  26.95500 2.45900 34.04900
H  27.83600 1.30400 35.00000
H  25.36700 1.44600 36.27300
H  25.87900 3.09600 35.83000
H  20.57500 2.07500 29.51600
H  20.74000 0.92100 30.88200
H  19.92500 0.39700 29.43400
H  19.97200 2.37300 27.17700
H  19.21400 0.71400 27.30600
H  19.32500 1.47800 25.87700
H  26.39100 0.84400 24.61100
H  27.94800 -1.78700 24.83000
H  26.22100 -1.58600 23.19000
H  25.12300 -0.15200 23.19000
H  24.86200 -1.60100 24.33400
H  29.43700 0.53000 25.58600
H  28.67700 1.14300 24.26000
H  30.40700 0.11600 23.02000
H  29.66600 -1.47400 23.35500
H  30.83200 -0.90500 24.39900
H  32.09800 -1.05900 28.31700
H  31.72900 -2.73100 28.95000
H  32.58200 -1.52600 29.92900
H  29.62800 0.56900 33.53800
H  30.40600 -1.06800 37.43200
H  29.52700 -2.52000 36.80400
H  28.61600 -0.95300 37.15900
Mg 35.15700 49.18600 25.10500
C  35.21400 47.51400 28.23300
C  33.78700 52.00400 26.73900
C  34.43400 50.49300 22.16700
C  36.04200 46.13500 23.63400
N  34.48500 49.64600 27.24500
C  34.73600 48.86800 28.36800
C  34.29300 49.60400 29.65700
C  33.77400 51.02200 29.12000
C  34.08500 50.94100 27.59400
C  32.28800 51.41700 29.43800
C  35.48500 49.67000 30.62300
C  35.19000 49.15100 32.07800
H  33.68800 48.96200 32.55300
N  34.29200 51.04700 24.49600
C  33.84200 52.06600 25.31600
C  33.30600 53.20400 24.45600
C  33.40800 52.70500 23.11700
C  34.07600 51.39200 23.16700
C  32.62300 54.47700 25.08000
C  33.01100 53.36400 21.84300
O  33.06300 52.81600 20.69300
C  32.33200 54.76200 21.80200
N  35.38200 48.45100 23.15600
C  35.05400 49.21300 22.14100
C  35.38700 48.48800 20.77900
C  35.90700 47.08500 21.28400
C  35.76600 47.20100 22.77100
C  34.20700 48.40700 19.78700
C  37.33000 46.84000 20.79500
C  38.33900 47.85600 21.39900
N  35.64700 47.22200 25.74200
C  36.09700 46.09700 25.02000
C  36.40700 45.00300 25.99600
C  36.11900 45.56400 27.23300
C  35.65800 46.88400 27.03000
C  36.78300 43.54600 25.76200
C  36.05500 45.19300 28.59300
O  36.31900 44.17000 29.24200
C  35.44800 46.52600 29.31600
C  34.22300 45.95600 30.05100
O  33.07400 45.96300 29.65400
O  34.53800 45.46500 31.28000
C  33.43500 44.81100 32.10700
H  33.49300 52.93300 27.23200
H  34.22300 50.94000 21.19300
H  36.38700 45.21600 23.15700
H  33.51700 48.91600 29.99100
H  34.44700 51.73700 29.59500
H  31.57000 50.63500 29.68500
H  31.92400 51.90300 28.53200
H  32.39500 52.14000 30.24600
H  36.03900 50.59700 30.76600
H  36.26200 49.01400 30.23100
H  35.79100 49.76700 32.74600
H  35.56800 48.13500 32.18900
H  32.52600 55.41500 24.53200
H  33.04200 54.71500 26.05800
H  31.62600 54.18100 25.40600
H  32.45000 55.03100 20.75200
H  32.91600 55.50400 22.34700
H  31.32300 54.56000 22.16000
H  36.16700 49.06300 20.27900
H  35.26200 46.25600 20.99300
H  34.62700 48.55400 18.79200
H  33.31600 49.02400 19.90600
H  33.75700 47.41500 19.78300
H  37.31500 47.09800 19.73600
H  37.73300 45.83000 20.87000
H  38.02600 48.52300 22.20200
H  38.62900 48.44100 20.52700
H  39.23900 47.34400 21.73900
H  37.20200 43.60100 24.75700
H  35.91800 42.88300 25.76000
H  37.60000 43.34500 26.45500
H  36.21500 46.93400 29.97400
H  33.24000 43.75100 31.94400
H  32.42500 45.19600 31.96400
H  33.66300 44.91100 33.16800

