158

Mg 44.85800 3.97400 48.58300
C  42.92600 6.87900 47.71200
C  42.22200 2.03700 47.90300
C  46.97200 1.53200 48.37600
C  47.71300 6.25500 48.52000
N  42.86900 4.39800 47.69800
C  42.27800 5.65700 47.62800
C  40.80600 5.50700 47.15600
C  40.50000 3.97700 47.39200
C  41.93300 3.42700 47.71600
C  39.47100 3.72100 48.57100
C  40.65700 6.03100 45.72900
C  39.68000 7.18400 45.58200
H  38.62900 6.72500 44.45000
N  44.59100 2.02000 48.27700
C  43.46600 1.34900 48.04900
C  43.71000 -0.05800 47.96100
C  45.11800 -0.21800 48.14800
C  45.65400 1.13400 48.24600
C  42.70500 -1.01000 47.66600
C  45.82700 -1.52700 48.22400
O  45.30400 -2.61100 47.93900
C  47.40700 -1.65200 48.60900
N  47.03600 3.95500 48.76400
C  47.59600 2.70600 48.61500
C  49.10700 2.79000 48.53500
C  49.36500 4.33000 48.63200
C  47.96600 4.88400 48.66500
C  49.78500 1.89200 49.55000
C  50.30400 4.97600 47.58100
C  51.70400 5.39600 48.02900
N  45.28500 6.12300 48.26600
C  46.44400 6.90100 48.28400
C  46.11900 8.31700 48.12800
C  44.71400 8.33400 47.88500
C  44.28500 7.02500 48.03100
C  47.14100 9.53200 47.99100
C  43.63800 9.22400 47.68300
O  43.59500 10.43300 47.49700
C  42.38900 8.30600 47.56900
C  41.36700 8.67500 48.68300
O  41.53000 8.28500 49.83200
O  40.25800 9.32400 48.23900
C  39.20900 9.75500 49.17100
H  41.34300 1.38900 47.88700
H  47.74200 0.76600 48.26000
H  48.50600 7.00400 48.47200
H  40.14100 6.05600 47.82200
H  40.15500 3.43800 46.50900
H  39.09500 4.60400 49.08700
H  39.97900 3.09600 49.30600
H  38.57500 3.14600 48.33900
H  40.29800 5.18900 45.13700
H  41.59500 6.39000 45.30400
H  40.04900 8.10400 45.13000
H  39.20100 7.45100 46.52400
H  43.06900 -1.81800 47.03100
H  41.77200 -0.65100 47.23000
H  42.47400 -1.53700 48.59100
H  47.60400 -0.96600 49.43300
H  47.97500 -1.42600 47.70600
H  47.80700 -2.62100 48.90800
H  49.41100 2.45300 47.54400
H  49.79400 4.40800 49.63100
H  50.42000 2.39000 50.28300
H  50.47900 1.17400 49.11200
H  49.10600 1.41400 50.25600
H  49.89100 5.77900 46.96900
H  50.54800 4.13000 46.93900
H  51.71800 6.46100 47.79700
H  52.37200 4.83700 47.37300
H  51.90300 5.24700 49.09000
H  48.09700 9.22800 48.41700
H  46.74100 10.42300 48.47500
H  47.22700 9.69400 46.91700
H  41.95400 8.62500 46.62200
H  38.34000 9.10500 49.06600
H  38.92000 10.78700 48.97100
H  39.52500 9.69000 50.21200
Mg 6.74100 55.20000 40.71300
C  5.64800 51.92600 41.18800
C  9.69400 54.02500 39.53600
C  7.14300 58.10500 39.16100
C  3.24000 56.08200 41.25500
N  7.52400 53.22100 40.24400
C  6.84500 52.03600 40.55100
C  7.77700 50.81500 40.06900
C  9.17200 51.49900 39.98400
C  8.77800 53.01500 39.90200
C  10.14500 51.20600 41.22000
C  7.26800 50.04900 38.76400
C  6.33400 50.70700 37.78000
H  6.98600 51.37900 36.52600
N  8.31800 56.06300 39.65800
C  9.49800 55.39600 39.46200
C  10.42800 56.42800 39.15000
C  9.68200 57.59200 38.79900
C  8.29100 57.32500 39.17900
C  11.92800 56.08600 38.85100
C  10.20200 58.84000 38.21400
O  11.39500 58.88100 37.98100
C  9.32200 60.01700 37.88200
N  5.38200 56.81500 40.15200
C  5.82800 57.89900 39.53800
C  4.84800 59.09500 39.58500
C  3.66100 58.43300 40.34700
C  4.14900 57.05700 40.67800
C  5.46300 60.34700 40.23200
C  2.29200 58.33200 39.55500
C  1.11800 58.97400 40.29800
N  4.83400 54.26200 41.42500
C  3.58300 54.76000 41.58400
C  2.64700 53.75700 42.01300
C  3.44300 52.63700 41.92000
C  4.76400 52.98200 41.59400
C  1.07300 53.91300 42.19600
C  3.44300 51.23600 42.12300
O  2.59900 50.49400 42.56100
C  4.94300 50.71100 41.72200
C  4.77500 49.61600 40.78000
O  4.21800 49.77100 39.72700
O  5.27500 48.36500 41.27000
C  4.89000 47.16700 40.42300
H  10.72900 53.80000 39.27300
H  7.32400 59.10200 38.75400
H  2.20800 56.34000 41.50200
H  7.66200 50.04200 40.82800
H  9.63800 51.36500 39.00800
H  9.60800 51.08500 42.16000
H  10.61600 52.17800 41.36400
H  10.94400 50.49400 41.01300
H  6.79300 49.12000 39.08100
H  8.17300 49.87800 38.18000
H  5.87400 51.58500 38.23400
H  5.44400 50.12800 37.53100
H  11.93700 55.80300 37.79900
H  12.37500 55.30600 39.46800
H  12.50400 56.99800 39.00900
H  9.89900 60.92700 37.71500
H  8.78800 60.40300 38.75000
H  8.43000 59.88000 37.27000
H  4.67400 59.40200 38.55300
H  3.36800 58.94000 41.26700
H  5.76900 61.01100 39.42300
H  6.25900 60.14900 40.95000
H  4.68600 60.93000 40.72700
H  2.09200 57.27000 39.41300
H  2.32600 58.86100 38.60300
H  0.47700 59.28100 39.47200
H  1.41200 59.87700 40.83400
H  0.53700 58.24100 40.85900
H  0.57600 52.94900 42.30600
H  0.58600 54.53900 41.44900
H  0.88500 54.44100 43.13100
H  5.51300 50.39300 42.59500
H  4.66300 47.41600 39.38600
H  3.96500 46.68600 40.73900
H  5.67600 46.41400 40.38000

