158

Mg 23.85700 -6.48600 44.96000
C  26.05900 -4.03900 43.66400
C  21.39000 -5.25800 42.83100
C  21.82500 -9.04000 45.85500
C  26.59100 -8.11900 46.36800
N  23.73900 -4.74400 43.56400
C  24.76300 -3.91300 43.10700
C  24.27900 -3.03900 41.93000
C  22.69300 -3.28600 41.93600
C  22.62100 -4.54300 42.77900
C  21.74600 -2.21300 42.61500
C  25.09000 -3.41000 40.60700
C  25.86800 -2.34400 39.90600
H  25.31400 -2.06500 38.47300
N  21.83900 -6.97100 44.53300
C  20.99100 -6.33900 43.60100
C  19.66300 -6.91500 43.67100
C  19.76700 -7.98400 44.61600
C  21.17800 -8.03600 45.02000
C  18.47900 -6.41300 42.95100
C  18.67800 -9.02000 44.88400
O  17.63900 -8.88400 44.27200
C  18.84900 -10.17500 45.80600
N  24.21300 -8.40000 45.92500
C  23.17500 -9.24500 46.17100
C  23.69400 -10.63300 46.71100
C  25.20400 -10.29100 47.04600
C  25.40100 -8.84900 46.35900
C  23.14400 -11.32900 48.03100
C  26.22300 -11.32400 46.54800
C  27.18400 -11.94200 47.53400
N  25.93300 -6.15700 45.03900
C  26.93400 -6.86700 45.72200
C  28.21900 -6.10900 45.65700
C  27.89400 -5.00700 44.81800
C  26.50400 -5.07600 44.52700
C  29.51400 -6.62300 46.26100
C  28.49500 -3.93100 44.13200
O  29.68600 -3.60800 44.05900
C  27.30100 -3.25600 43.35300
C  27.26200 -1.82800 43.69900
O  27.38200 -1.26700 44.82000
O  27.08700 -1.20500 42.58600
C  27.13200 0.26700 42.63100
H  20.53100 -4.87200 42.27800
H  21.29000 -9.97100 46.05200
H  27.47900 -8.54000 46.84300
H  24.43000 -1.96900 42.07400
H  22.42900 -3.59800 40.92500
H  21.71100 -2.44400 43.67900
H  20.74900 -2.11100 42.18600
H  22.19000 -1.22300 42.50800
H  24.36000 -3.79100 39.89300
H  25.77700 -4.25500 40.64800
H  26.90500 -2.67900 39.93900
H  25.75900 -1.41600 40.46700
H  18.43400 -7.02700 42.05100
H  18.69600 -5.35100 42.84000
H  17.60300 -6.58100 43.57800
H  17.89500 -10.67400 45.97300
H  19.15600 -9.71800 46.74700
H  19.54200 -10.91900 45.41300
H  23.71500 -11.34600 45.88800
H  25.46900 -10.02000 48.06800
H  22.69300 -12.29700 47.81300
H  22.44000 -10.66200 48.52800
H  23.97500 -11.40200 48.73300
H  26.88000 -10.97300 45.75200
H  25.64800 -12.16700 46.16400
H  27.10200 -11.50100 48.52700
H  28.19400 -11.80100 47.15000
H  26.96100 -12.99700 47.69700
H  30.12900 -7.09500 45.49500
H  29.30500 -7.39600 47.00200
H  30.03400 -5.75200 46.65800
H  27.54700 -3.31500 42.29200
H  27.60300 0.79600 43.46000
H  26.12100 0.63000 42.44700
H  27.65600 0.42400 41.68900
Mg 41.72000 40.36500 27.39900
C  41.10700 42.96900 29.80800
C  42.91800 38.38400 29.98500
C  42.86000 38.32800 25.07200
C  41.04500 42.82100 24.93200
N  42.04700 40.78200 29.61900
C  41.51300 41.76500 30.38900
C  41.51400 41.41000 31.92600
C  42.21700 40.00500 31.93100
C  42.46800 39.67200 30.40200
C  43.51300 39.93500 32.83100
C  40.13100 41.56600 32.76800
C  40.26400 42.19300 34.24300
H  39.25600 41.73800 35.24600
N  42.61000 38.50200 27.57400
C  42.94700 37.85300 28.67400
C  43.39500 36.53000 28.28300
C  43.46400 36.52100 26.83100
C  42.94100 37.78500 26.42700
C  43.74200 35.46700 29.34800
C  44.00000 35.41100 25.99100
O  44.12300 35.55200 24.79800
C  44.48600 34.18300 26.59600
N  41.76900 40.47400 25.23000
C  42.41000 39.53100 24.54800
C  42.51000 39.93100 23.08900
C  41.68200 41.27900 22.99100
C  41.50300 41.58900 24.44600
C  44.00000 39.94700 22.47000
C  40.42200 41.18900 22.09200
C  39.23100 40.25600 22.64800
N  41.20900 42.37800 27.30000
C  40.92200 43.26700 26.20300
C  40.40900 44.50100 26.70800
C  40.61400 44.43000 28.02700
C  41.01600 43.11100 28.39500
C  39.84500 45.71600 25.97000
C  40.42700 45.28000 29.17900
O  39.98100 46.38900 29.23600
C  40.68500 44.33700 30.42500
C  41.78500 44.83700 31.26200
O  42.93300 44.95900 30.87900
O  41.37800 45.05200 32.55500
C  42.43700 45.36800 33.55600
H  43.18500 37.76300 30.84300
H  43.21500 37.74800 24.21700
H  40.75200 43.52600 24.15200
H  42.18900 42.15200 32.35300
H  41.41800 39.33000 32.23900
H  44.41600 39.75700 32.24700
H  43.46300 39.28200 33.70300
H  43.72000 40.96900 33.10800
H  39.52100 40.66600 32.69200
H  39.70500 42.32200 32.10800
H  40.10800 43.26100 34.08600
H  41.27200 42.05600 34.63300
H  43.42300 34.46900 29.04700
H  43.22700 35.50400 30.30800
H  44.78400 35.51400 29.66400
H  43.59500 33.63600 26.90500
H  45.20900 34.43300 27.37300
H  45.00100 33.67400 25.78200
H  41.97800 39.16500 22.52500
H  42.27900 42.11600 22.62800
H  44.46900 40.91800 22.30800
H  44.02600 39.51100 21.47100
H  44.78100 39.37500 22.97000
H  40.73400 40.65300 21.19500
H  40.10300 42.15500 21.70100
H  39.12500 39.28500 22.16400
H  38.27500 40.77200 22.56300
H  39.43600 39.96600 23.67900
H  39.30100 45.50400 25.05000
H  40.71100 46.29400 25.64700
H  39.23200 46.27200 26.68000
H  39.77400 44.12300 30.98400
H  42.55800 44.56800 34.28600
H  42.24300 46.26500 34.14400
H  43.46700 45.47700 33.21800

