158

Mg 48.26900 15.78400 27.88400
C  46.31900 15.01300 30.78400
C  50.38700 17.38200 29.93700
C  49.82200 16.70100 25.18900
C  45.72900 14.17000 26.00500
N  48.25900 16.26300 30.00200
C  47.41200 15.84800 31.03500
C  47.92100 16.22300 32.42100
C  49.01000 17.28700 32.10900
C  49.28100 16.90200 30.62200
C  48.58100 18.81100 32.30100
C  48.26700 14.98300 33.23800
C  47.97600 15.05500 34.74100
H  47.36100 16.31400 35.30300
N  49.98300 16.81000 27.59100
C  50.74500 17.39700 28.53300
C  51.97600 17.91100 27.90900
C  51.75700 17.77000 26.46700
C  50.43600 17.15800 26.36000
C  53.05300 18.56800 28.83800
C  52.64900 18.23800 25.36200
O  52.24900 18.16900 24.18400
C  53.97000 18.88300 25.66200
N  47.85400 15.45000 25.87900
C  48.60100 16.04100 24.87700
C  48.12600 15.54500 23.46700
C  46.86700 14.72500 23.75300
C  46.74300 14.83100 25.28600
C  47.76600 16.80300 22.53100
C  46.88300 13.23900 23.26400
C  47.42100 12.17100 24.27900
N  46.43000 14.77400 28.21400
C  45.54800 14.17000 27.36200
C  44.49700 13.56600 28.10300
C  44.72500 13.80600 29.45500
C  45.94500 14.55200 29.48400
C  43.35200 12.67700 27.48000
C  44.29600 13.67800 30.77800
O  43.32100 13.14500 31.28700
C  45.23600 14.50600 31.69200
C  44.41800 15.57700 32.25500
O  44.35400 16.73100 31.84500
O  43.90000 15.17100 33.48400
C  43.09100 16.12700 34.25800
H  51.06000 17.82500 30.67300
H  50.28500 16.97300 24.23800
H  44.87600 13.72600 25.48800
H  47.00900 16.75000 32.70100
H  49.91200 17.05900 32.67600
H  47.55800 18.95700 32.64500
H  48.73000 19.38400 31.38600
H  49.24500 19.20200 33.07200
H  49.34400 14.82400 33.18000
H  47.88200 14.11600 32.70100
H  48.95900 14.88500 35.18100
H  47.28600 14.23500 34.93800
H  54.00000 18.76500 28.33600
H  53.22200 18.02800 29.77000
H  52.64500 19.48700 29.25900
H  53.77700 19.90900 25.97800
H  54.54700 19.01500 24.74700
H  54.53700 18.22100 26.31500
H  48.89900 14.91600 23.02700
H  45.94700 15.14300 23.34500
H  48.53200 16.98700 21.77800
H  47.82500 17.68700 23.16600
H  46.77200 16.79400 22.08300
H  47.49300 13.16900 22.36400
H  45.92600 12.82600 22.94600
H  47.72900 12.57800 25.24200
H  48.27100 11.64700 23.84300
H  46.56500 11.56300 24.57300
H  43.80300 11.71000 27.25700
H  42.97500 13.23700 26.62500
H  42.48800 12.61600 28.14300
H  45.60900 13.96500 32.56200
H  43.08200 17.09500 33.75600
H  43.64600 16.30600 35.17900
H  42.07400 15.79500 34.46900
Mg 25.90400 50.23400 27.10600
C  24.00400 51.78200 29.45100
C  28.34000 49.41300 29.48900
C  27.91200 49.27700 24.59300
C  23.65400 51.32700 24.60400
N  26.09000 50.45500 29.21600
C  25.09600 51.01800 30.03100
C  25.43800 50.83700 31.51100
C  26.93500 50.26000 31.51600
C  27.14000 49.98700 30.00200
C  27.95600 51.24300 32.06900
C  24.42600 50.00300 32.33500
C  24.05100 50.64100 33.69100
H  24.00700 49.62000 34.82900
N  27.86500 49.46700 27.04000
C  28.69000 49.15500 28.12700
C  29.86800 48.46500 27.61600
C  29.80000 48.55500 26.19300
C  28.49300 49.07500 25.87300
C  30.84800 47.86000 28.52400
C  30.81100 48.05700 25.19300
O  30.62400 48.10300 23.95000
C  32.13600 47.32100 25.66900
N  25.86000 50.42200 24.89600
C  26.67400 49.78100 24.14100
C  26.32000 49.82200 22.67100
C  24.89700 50.48200 22.70000
C  24.79100 50.76200 24.11900
C  27.24700 50.57300 21.66000
C  23.81900 49.54700 22.14000
C  23.29500 48.38600 23.02600
N  24.16500 51.38600 27.03000
C  23.31000 51.60100 25.91000
C  22.11900 52.25300 26.45800
C  22.37100 52.40600 27.86600
C  23.59500 51.85700 28.10800
C  21.05400 52.81900 25.62100
C  21.88300 52.95700 29.06300
O  20.88100 53.60600 29.28400
C  22.85200 52.40100 30.23400
C  23.16600 53.34800 31.33500
O  23.96100 54.24100 31.27100
O  22.26700 53.08900 32.29500
C  22.44600 53.85400 33.53400
H  29.02200 49.14900 30.30000
H  28.60000 48.97200 23.80200
H  22.90900 51.51700 23.82800
H  25.55000 51.80200 32.00600
H  26.99100 49.37900 32.15500
H  28.50100 51.71500 31.25200
H  28.71300 50.63600 32.56600
H  27.53300 51.95900 32.77400
H  24.81500 49.01400 32.57800
H  23.50900 49.96700 31.74700
H  23.07200 51.11000 33.58900
H  24.67700 51.51900 33.85100
H  30.95300 46.79700 28.30700
H  30.43000 47.83700 29.53000
H  31.86000 48.25800 28.59000
H  32.80800 48.01900 26.16800
H  32.53400 46.85300 24.76800
H  31.87800 46.60100 26.44600
H  26.26000 48.77800 22.36600
H  24.96100 51.41000 22.13200
H  26.63600 51.09000 20.92000
H  27.78900 49.79400 21.12400
H  27.93200 51.26500 22.15000
H  24.16600 49.06700 21.22500
H  23.01500 50.21400 21.83100
H  22.21200 48.37200 22.90200
H  23.57700 48.54100 24.06700
H  23.68000 47.48800 22.54100
H  21.44300 53.62600 25.00000
H  20.19500 53.16400 26.19600
H  20.82300 52.02000 24.91700
H  22.37000 51.47400 30.54600
H  23.48300 53.87600 33.87000
H  21.87000 53.22100 34.20900
H  22.06100 54.87200 33.47600

