158

Mg 9.38000 47.35100 25.05500
C  7.11400 47.83900 27.58500
C  11.85300 48.51100 27.13700
C  11.59800 47.20800 22.37900
C  6.80900 46.67700 22.80500
N  9.45900 48.06100 27.16900
C  8.41800 48.13100 28.07100
C  8.93700 48.45300 29.46300
C  10.34200 49.06100 29.20000
C  10.59100 48.43900 27.80100
C  10.51000 50.56300 29.28000
C  9.04400 47.21000 30.38700
C  8.59300 47.57600 31.80800
H  8.91200 46.59900 32.96500
N  11.46400 47.61800 24.84000
C  12.27100 48.02900 25.83800
C  13.66900 48.05400 25.34600
C  13.62600 47.69400 23.98100
C  12.14100 47.53900 23.67600
C  14.88500 48.30400 26.22500
C  14.81500 47.37800 23.01800
O  14.66300 46.82700 21.94200
C  16.23600 47.79100 23.44200
N  9.24100 46.95300 22.96700
C  10.25500 46.94000 22.10500
C  9.87500 46.64500 20.59100
C  8.37700 46.36000 20.80600
C  8.06800 46.56000 22.31100
C  10.32800 47.63000 19.49800
C  8.05100 44.90000 20.43700
C  8.56700 43.78800 21.34700
N  7.35000 47.29700 25.12900
C  6.40400 46.96400 24.12500
C  5.07200 47.02900 24.70100
C  5.30700 47.35400 26.04500
C  6.70400 47.49700 26.26100
C  3.84200 46.80700 24.00000
C  4.68400 47.58700 27.26700
O  3.48500 47.48400 27.54400
C  5.83800 47.96500 28.29600
C  5.70500 46.87700 29.31300
O  5.98200 45.69800 29.17700
O  5.14100 47.43600 30.43800
C  4.64000 46.45600 31.36000
H  12.65400 48.94600 27.73800
H  12.17900 47.08400 21.46300
H  6.10300 46.47600 21.99700
H  8.37100 49.32300 29.79500
H  11.18300 48.60900 29.72600
H  10.24900 50.92600 28.28600
H  11.56100 50.71300 29.52900
H  9.76000 50.94900 29.97100
H  10.02400 46.74900 30.50600
H  8.45600 46.35000 30.06800
H  7.51000 47.61700 31.69200
H  8.84600 48.62700 31.94200
H  14.51300 48.43400 27.24100
H  15.42200 49.21200 25.95200
H  15.60200 47.50400 26.03700
H  16.79100 47.08700 24.06100
H  16.22700 48.78800 23.88400
H  16.84700 47.88100 22.54400
H  10.39800 45.70200 20.42900
H  7.78400 47.02800 20.18200
H  10.95800 48.31300 20.06800
H  9.47300 48.16800 19.08900
H  10.77500 47.01900 18.71400
H  8.34800 44.72500 19.40300
H  6.97400 44.74000 20.38500
H  9.32700 44.06300 22.07800
H  8.91300 43.01100 20.66500
H  7.75000 43.29400 21.87300
H  4.03600 45.96600 23.33500
H  3.43100 47.72700 23.58500
H  3.02500 46.37200 24.57700
H  5.59300 48.95600 28.67700
H  4.56600 46.88900 32.35800
H  5.23900 45.54600 31.38700
H  3.61200 46.22900 31.07800
Mg 0.39800 43.45300 25.34300
C  2.44900 43.18700 28.18600
C  -2.33700 42.77700 27.44200
C  -1.52600 42.87000 22.63800
C  3.27100 43.40000 23.25100
N  0.10400 43.19600 27.56000
C  1.11500 43.19800 28.54500
C  0.54200 43.21000 29.97900
C  -0.96600 42.99500 29.62400
C  -1.10100 42.91500 28.13300
C  -1.68000 41.75600 30.29600
C  0.91000 44.45000 30.94500
C  1.64700 44.18600 32.23200
H  1.18700 42.94200 33.04100
N  -1.69200 42.95100 25.05000
C  -2.56400 42.70400 26.03400
C  -3.87700 42.43100 25.36600
C  -3.73700 42.67200 24.01000
C  -2.28000 42.83700 23.82600
C  -5.13600 42.11400 26.08400
C  -4.77900 42.60000 22.89100
O  -4.46700 42.56000 21.72000
C  -6.27700 42.48000 23.22000
N  0.87300 43.15000 23.30700
C  -0.11100 43.06400 22.37300
C  0.43100 43.09400 20.96200
C  1.84500 43.58000 21.20100
C  2.03100 43.32400 22.66000
C  0.39600 41.67700 20.21200
C  2.02300 45.12400 20.91700
C  3.16600 45.69700 20.06800
N  2.49600 43.32300 25.59000
C  3.58300 43.34900 24.68100
C  4.84400 43.19700 25.43300
C  4.42200 43.11800 26.80300
C  2.98600 43.20900 26.83000
C  6.18300 43.14300 24.93200
C  4.92000 43.01000 28.14200
O  6.07500 42.78200 28.53900
C  3.66800 43.14400 29.10200
C  3.82600 41.91300 30.03100
O  3.65400 40.69500 29.74400
O  4.37500 42.32200 31.20200
C  4.75600 41.19700 32.06200
H  -3.21100 42.58900 28.07000
H  -2.11400 42.90700 21.71800
H  4.07600 43.45500 22.51500
H  0.83600 42.22500 30.34200
H  -1.57800 43.86500 29.86100
H  -1.97800 41.01300 29.55700
H  -2.50500 42.07200 30.93500
H  -0.93600 41.26000 30.92000
H  0.00800 45.00500 31.20400
H  1.53400 45.15900 30.40100
H  1.66300 45.01100 32.94400
H  2.69600 44.09800 31.94900
H  -4.97400 41.73900 27.09500
H  -5.55000 41.22900 25.60200
H  -5.80700 42.97100 26.12700
H  -6.40100 41.49200 23.66400
H  -6.81900 42.38100 22.27900
H  -6.53400 43.32500 23.85800
H  -0.21300 43.77800 20.40900
H  2.56200 42.88900 20.75700
H  1.39600 41.38300 19.89300
H  -0.15100 41.86800 19.28900
H  -0.07400 40.86200 20.76200
H  2.21200 45.59700 21.88100
H  1.11400 45.59300 20.54100
H  3.85300 44.85200 20.03100
H  3.68300 46.52300 20.55700
H  2.76000 46.02300 19.11100
H  6.45000 42.26800 24.34000
H  6.94900 43.36400 25.67600
H  6.21400 44.07400 24.36600
H  3.60100 44.11300 29.59600
H  5.14200 41.83000 32.86200
H  5.58300 40.65800 31.60100
H  3.95600 40.48800 32.27200

