158

Mg 35.02000 49.51700 25.76600
C  35.02000 47.93600 28.87100
C  33.95700 52.36200 27.29400
C  34.90800 51.13000 22.71000
C  35.69600 46.51700 24.15900
N  34.33800 50.01800 27.85000
C  34.62500 49.23300 28.98000
C  34.47600 49.98900 30.27000
C  34.16800 51.48400 29.71600
C  34.14000 51.27700 28.16500
C  32.93400 52.14200 30.24500
C  35.69200 50.06100 31.16500
C  35.42300 49.68900 32.69400
H  33.95000 49.52200 33.20500
N  34.50000 51.45300 25.05900
C  34.05200 52.50500 25.86100
C  33.58600 53.58300 25.02400
C  33.91300 53.24400 23.65200
C  34.49500 51.93000 23.76600
C  32.86600 54.82600 25.64500
C  33.77500 54.06700 22.37300
O  34.04800 53.61400 21.26500
C  33.12900 55.44400 22.55600
N  35.15000 48.90700 23.77700
C  35.19700 49.77200 22.68800
C  35.92600 49.13300 21.47400
C  36.20600 47.70500 21.95500
C  35.64000 47.68900 23.39100
C  35.01800 49.06000 20.21700
C  37.79600 47.32100 21.89800
C  38.08500 46.46200 20.63200
N  35.41300 47.54400 26.31700
C  35.62500 46.35100 25.59300
C  35.90100 45.29500 26.48100
C  35.68200 45.87600 27.72800
C  35.35300 47.22600 27.58800
C  36.32300 43.88600 26.06600
C  35.56800 45.53900 29.16600
O  35.74400 44.52100 29.72100
C  35.17600 46.89600 30.00200
C  33.95000 46.52900 30.75500
O  32.80500 46.88100 30.52100
O  34.28500 45.77000 31.86600
C  33.24900 45.23000 32.78900
H  33.58400 53.27700 27.75900
H  35.12000 51.56300 21.73000
H  35.96800 45.58100 23.66700
H  33.59700 49.64500 30.81500
H  35.03700 52.11100 29.91500
H  32.14500 51.44500 30.52800
H  32.53100 52.91900 29.59500
H  33.31500 52.63100 31.14100
H  36.14900 51.05000 31.14900
H  36.46900 49.40500 30.77400
H  35.89100 50.48900 33.26900
H  35.94300 48.75700 32.91200
H  33.48900 55.11700 26.49000
H  31.92000 54.42700 26.01000
H  32.84100 55.70100 24.99500
H  33.03800 55.90900 21.57400
H  33.76000 56.14200 23.10600
H  32.08600 55.36900 22.86200
H  36.83400 49.72400 21.34500
H  35.65300 46.97900 21.35900
H  34.24100 49.82300 20.26500
H  34.62000 48.07500 19.97500
H  35.60200 49.53600 19.42900
H  38.19600 46.78700 22.76100
H  38.43800 48.18700 21.73600
H  37.31600 46.44100 19.86000
H  38.20400 45.43000 20.96200
H  38.91500 46.81800 20.02100
H  36.87500 43.47900 26.91400
H  37.01800 43.84200 25.22800
H  35.45900 43.26700 25.82500
H  36.02000 47.19500 30.62400
H  33.05600 44.25700 32.33700
H  32.27400 45.70700 32.70200
H  33.63700 45.14200 33.80400
Mg -11.00700 40.41800 42.52800
C  -9.15700 37.50500 41.45800
C  -8.70100 42.33800 40.75800
C  -12.98100 42.95600 42.98600
C  -13.58800 38.08400 43.47200
N  -9.12000 39.96500 41.25000
C  -8.55100 38.73600 41.00100
C  -7.21400 38.82000 40.19600
C  -7.00200 40.34900 40.20800
C  -8.34900 40.96300 40.81100
C  -5.73800 40.76800 40.82100
C  -7.33000 38.18600 38.78700
C  -6.77800 36.81400 38.53300
H  -5.79200 36.60800 37.40900
N  -10.84800 42.42400 42.03500
C  -9.81400 43.07500 41.29200
C  -10.10100 44.50500 41.19000
C  -11.30100 44.70400 41.96000
C  -11.80300 43.31800 42.31100
C  -9.19200 45.43500 40.51900
C  -11.95500 46.03600 42.24400
O  -11.53100 47.08600 41.81900
C  -13.18000 46.19800 42.99000
N  -12.93700 40.48600 43.17900
C  -13.55400 41.69700 43.32700
C  -15.05300 41.63700 43.78100
C  -15.23500 40.04400 43.78600
C  -13.88500 39.46400 43.45000
C  -15.33000 42.29000 45.15100
C  -16.27900 39.41200 42.78700
C  -17.59400 38.90900 43.38700
N  -11.31300 38.32100 42.55100
C  -12.38900 37.54100 42.98900
C  -11.94100 36.17500 43.09300
C  -10.72900 36.11300 42.42100
C  -10.41000 37.47100 42.08100
C  -12.76400 35.04100 43.64500
C  -9.69400 35.17900 42.03700
O  -9.61600 33.93900 42.05700
C  -8.62600 36.07200 41.48300
C  -7.37800 35.99800 42.30200
O  -7.02600 36.64200 43.29700
O  -6.51500 35.14000 41.67500
C  -5.34400 34.55400 42.44800
H  -7.91500 42.93500 40.28900
H  -13.71800 43.75800 42.90900
H  -14.41400 37.46700 43.83100
H  -6.42600 38.42300 40.83700
H  -6.83900 40.75800 39.21100
H  -5.46100 41.82200 40.79200
H  -4.90000 40.31400 40.29200
H  -5.71500 40.44100 41.86100
H  -6.84900 38.85300 38.07100
H  -8.37400 38.22800 38.47800
H  -7.63200 36.16500 38.33900
H  -6.39300 36.50600 39.50500
H  -9.01900 46.25400 41.21700
H  -9.60400 45.74100 39.55700
H  -8.22100 45.00700 40.27000
H  -13.08900 45.58400 43.88600
H  -13.99000 45.82500 42.36300
H  -13.33200 47.25500 43.20900
H  -15.80500 42.13300 43.16700
H  -15.34800 39.76000 44.83300
H  -14.46000 42.29900 45.80700
H  -16.12300 41.81100 45.72500
H  -15.61900 43.33500 45.04200
H  -15.78100 38.63300 42.20900
H  -16.54400 40.28900 42.19700
H  -17.91300 39.64200 44.12800
H  -17.25500 38.00700 43.89600
H  -18.35500 38.54200 42.69800
H  -12.06800 34.24000 43.89300
H  -13.44400 34.66600 42.88000
H  -13.36900 35.30900 44.51200
H  -8.39900 35.66800 40.49700
H  -4.55400 34.15600 41.81200
H  -5.78000 33.66400 42.90000
H  -4.93000 35.21500 43.21000

