158

Mg 24.84200 -7.32600 47.65700
C  27.50900 -5.10600 46.68700
C  23.03400 -5.94500 44.98200
C  22.74100 -9.77500 48.01100
C  27.20900 -9.00300 49.74200
N  25.25500 -5.69500 46.12500
C  26.35300 -4.94200 45.88000
C  26.04300 -3.92700 44.74800
C  24.49900 -3.89900 44.74700
C  24.22600 -5.34100 45.26400
C  23.94100 -2.84200 45.72600
C  26.68000 -4.42400 43.36300
C  27.41300 -3.31700 42.53400
H  26.86300 -3.12800 41.10000
N  23.13800 -7.74700 46.75900
C  22.57000 -7.11300 45.60500
C  21.34900 -7.82100 45.15100
C  21.15600 -8.84900 46.12900
C  22.35100 -8.83900 47.05400
C  20.49500 -7.47800 43.88900
C  19.94600 -9.81200 46.08900
O  18.98600 -9.73800 45.26000
C  19.86200 -11.01500 47.06300
N  24.93400 -9.14500 48.76600
C  23.82400 -9.93400 48.85100
C  24.10800 -11.11700 49.77600
C  25.42500 -10.70400 50.47700
C  26.01300 -9.67900 49.53000
C  22.99100 -11.70100 50.59600
C  26.41700 -11.78100 50.80500
C  27.03300 -11.74100 52.23100
N  26.90500 -7.09100 48.25800
C  27.73000 -7.83200 49.06100
C  29.00500 -7.12500 49.21000
C  28.94700 -6.03100 48.31500
C  27.66500 -6.08700 47.72500
C  30.22900 -7.52800 49.99800
C  29.65600 -4.90200 47.74500
O  30.71800 -4.37600 47.97300
C  28.76800 -4.27000 46.61600
C  28.54000 -2.82000 46.80800
O  28.15900 -2.33500 47.84500
O  28.77300 -2.27200 45.58300
C  28.38400 -0.89800 45.51800
H  22.34900 -5.50900 44.25200
H  21.97600 -10.54200 48.14300
H  27.87600 -9.28700 50.55900
H  26.39600 -2.92000 44.96900
H  24.05100 -3.73600 43.76700
H  23.32700 -2.18900 45.10600
H  24.62800 -2.18500 46.26000
H  23.21300 -3.36200 46.34800
H  25.97700 -4.96100 42.72600
H  27.39800 -5.18000 43.68300
H  28.48400 -3.48200 42.41300
H  27.18800 -2.36500 43.01300
H  19.85400 -8.25800 43.47800
H  21.26300 -7.10800 43.21000
H  19.95400 -6.55700 44.10600
H  19.96200 -10.67600 48.09400
H  20.66300 -11.69300 46.77100
H  18.85300 -11.42400 47.01200
H  24.45700 -11.91300 49.11600
H  25.14600 -10.17200 51.38600
H  22.56100 -12.46200 49.94600
H  22.23100 -10.92700 50.70800
H  23.37300 -12.06200 51.55100
H  27.13700 -11.81400 49.98700
H  25.94500 -12.76400 50.81100
H  27.87100 -11.04300 52.25000
H  27.26300 -12.73800 52.60600
H  26.32600 -11.31100 52.94000
H  30.03000 -7.34900 51.05500
H  31.12300 -7.01500 49.64100
H  30.30000 -8.60100 49.82100
H  29.29100 -4.51100 45.69000
H  27.66200 -0.74500 44.71700
H  29.24700 -0.28500 45.25800
H  27.93600 -0.50200 46.42900
Mg 43.03400 4.10700 47.41900
C  40.89800 6.80400 47.31700
C  40.31200 2.07900 47.07900
C  45.17200 1.55600 46.95600
C  45.71700 6.38600 47.16200
N  40.82800 4.46000 46.92800
C  40.20300 5.63400 47.25900
C  38.64100 5.42600 47.38000
C  38.57000 3.87200 47.36500
C  39.99800 3.48000 47.05700
C  37.97800 3.32800 48.62700
C  37.79500 6.20300 46.25300
C  38.09600 5.75700 44.77600
H  38.50900 6.80000 43.79400
N  42.73600 2.10200 47.01100
C  41.57600 1.44100 46.85600
C  41.78400 0.06600 46.65100
C  43.21700 -0.14800 46.58700
C  43.80400 1.18200 46.82400
C  40.74300 -1.02100 46.58800
C  43.91600 -1.43700 46.39600
O  43.31600 -2.47700 46.32100
C  45.39100 -1.58000 46.34700
N  45.17200 3.97300 47.21000
C  45.77600 2.78500 47.03000
C  47.31800 2.96400 47.05200
C  47.40300 4.52900 46.79700
C  46.02300 5.05800 47.11100
C  47.97500 2.37600 48.37900
C  48.11600 4.90000 45.46200
C  49.44200 5.70500 45.59600
N  43.26400 6.19600 47.35800
C  44.42200 6.97700 47.30400
C  43.99100 8.39100 47.22800
C  42.61900 8.34100 47.30500
C  42.24600 7.00600 47.31100
C  45.01700 9.52000 47.27700
C  41.48700 9.27800 47.34000
O  41.39800 10.50000 47.29400
C  40.25600 8.23400 47.36900
C  39.42500 8.54500 48.58900
O  39.48500 7.78100 49.53200
O  38.49700 9.55000 48.31800
C  37.41800 9.63600 49.22400
H  39.50300 1.36500 47.24900
H  45.93800 0.78100 46.87400
H  46.55000 7.09200 47.11500
H  38.24800 5.87200 48.29400
H  38.00900 3.56100 46.48400
H  38.69600 2.66700 49.11100
H  37.12900 2.72800 48.30000
H  37.60100 4.09100 49.30800
H  38.12800 7.24000 46.21200
H  36.71000 6.19300 46.35700
H  37.23300 5.31000 44.28200
H  38.94100 5.06900 44.79600
H  40.98800 -1.72400 45.79200
H  39.73600 -0.60500 46.60500
H  40.76400 -1.65100 47.47700
H  45.80100 -0.76300 45.75300
H  45.66300 -2.51800 45.86300
H  45.83500 -1.64600 47.34000
H  47.55700 2.27100 46.24500
H  47.99400 4.93100 47.62000
H  48.64500 1.56500 48.09400
H  47.22900 1.91900 49.02900
H  48.35800 3.23500 48.93000
H  47.36600 5.50400 44.95200
H  48.42700 4.02200 44.89600
H  50.14800 5.09400 46.15800
H  49.15000 6.55500 46.21200
H  49.70400 5.96100 44.56900
H  45.73300 9.38400 48.08700
H  44.51200 10.44300 47.56300
H  45.52700 9.61300 46.31800
H  39.69800 8.41000 46.44900
H  36.89300 10.58700 49.13700
H  37.60800 9.53800 50.29300
H  36.63000 8.95600 48.90000

