158

Mg 1.16600 8.47700 26.78500
C  1.17700 10.40900 29.66000
C  1.63200 5.73000 28.73000
C  1.11900 6.61900 23.89400
C  1.17900 11.37500 24.91400
N  1.35400 8.16800 28.97100
C  1.13400 9.03900 29.93500
C  0.95800 8.39500 31.25600
C  1.42100 6.93400 31.00100
C  1.47400 6.91300 29.41700
C  2.77900 6.59800 31.56900
C  -0.47800 8.63700 31.81200
C  -0.53600 8.92000 33.33000
H  0.54200 8.26100 34.20600
N  1.31000 6.42400 26.37600
C  1.48100 5.49200 27.31100
C  1.49000 4.16900 26.65000
C  1.33100 4.41900 25.24800
C  1.20800 5.86100 25.10800
C  1.60300 2.90600 27.37600
C  1.36100 3.42400 24.10800
O  1.43200 3.79700 22.97200
C  1.49600 1.93000 24.37700
N  0.91700 8.92200 24.75200
C  0.95700 8.00200 23.74700
C  1.01900 8.64300 22.35100
C  0.74500 10.22800 22.70300
C  1.04300 10.16800 24.20400
C  2.31600 8.41900 21.58300
C  -0.73300 10.73900 22.44200
C  -0.96200 11.89800 21.29300
N  1.24500 10.49300 27.15100
C  1.33400 11.56400 26.29500
C  1.55800 12.83000 26.98800
C  1.54100 12.35200 28.30900
C  1.22500 11.00100 28.35500
C  1.92400 14.22000 26.52300
C  1.79700 12.76300 29.66700
O  2.18500 13.85600 30.06800
C  1.33900 11.59200 30.55600
C  2.28600 11.42500 31.67800
O  3.49600 11.31100 31.55500
O  1.63600 11.59000 32.91100
C  2.52700 11.69800 34.13100
H  1.61100 4.89300 29.43000
H  1.54100 6.10300 23.02800
H  1.05700 12.29800 24.34300
H  1.70500 8.91200 31.85800
H  0.64800 6.23900 31.32700
H  3.52700 6.19500 30.88700
H  2.51200 5.86300 32.32800
H  3.26900 7.40200 32.11800
H  -1.17100 7.83300 31.56500
H  -0.85700 9.58600 31.43200
H  -1.48300 8.60400 33.76800
H  -0.60500 9.98900 33.53400
H  2.66500 2.69500 27.25100
H  1.02600 2.04700 27.03400
H  1.19800 3.00900 28.38300
H  0.61700 1.49000 24.84900
H  2.42600 1.75800 24.91800
H  1.66600 1.46000 23.40900
H  0.17700 8.33500 21.73200
H  1.47200 10.85600 22.18800
H  1.99500 8.07800 20.59900
H  2.90800 7.70700 22.15800
H  2.78300 9.40000 21.49700
H  -1.14900 11.04300 23.40200
H  -1.34400 9.89100 22.13400
H  -1.36700 12.81600 21.72000
H  -1.68900 11.42000 20.63700
H  -0.11500 12.28900 20.72900
H  2.12900 14.13200 25.45600
H  2.77500 14.68800 27.01900
H  1.05800 14.84700 26.73300
H  0.46000 11.78400 31.17200
H  3.28500 10.92000 34.22300
H  1.92400 11.52100 35.02100
H  2.90300 12.72100 34.16000
Mg 44.99900 5.30900 48.26000
C  43.00400 8.19100 47.36900
C  42.19200 3.41400 47.56900
C  47.02400 2.68000 47.98400
C  47.86500 7.42900 48.14000
N  42.78700 5.83900 47.50700
C  42.18200 7.04500 47.37000
C  40.63900 6.90300 46.98400
C  40.49200 5.31500 47.11000
C  41.88900 4.78900 47.48400
C  39.38200 4.98500 48.15500
C  40.36500 7.39400 45.56200
C  38.99000 8.00800 45.24600
H  38.21300 7.49400 44.01100
N  44.64800 3.31800 47.95100
C  43.43000 2.72500 47.60500
C  43.68800 1.32700 47.30100
C  45.09900 1.06700 47.35500
C  45.66300 2.41300 47.76300
C  42.53400 0.40400 46.92400
C  45.80200 -0.26900 47.04700
O  45.13300 -1.23400 46.71100
C  47.25300 -0.47600 47.15700
N  47.18300 5.10000 48.17000
C  47.71000 3.90100 48.25300
C  49.20600 3.91400 48.21200
C  49.48200 5.44100 48.20400
C  48.10100 6.08900 48.22600
C  49.84000 3.20000 49.38900
C  50.38900 6.05300 47.10600
C  51.50600 6.99300 47.58600
N  45.38700 7.41100 48.02200
C  46.62700 8.09800 48.06300
C  46.32700 9.50900 47.92300
C  44.95000 9.53300 47.62300
C  44.39700 8.23200 47.65500
C  47.26700 10.66000 48.05800
C  43.85600 10.50100 47.41000
O  43.78600 11.70600 47.32900
C  42.57900 9.58900 47.16900
C  41.51800 9.97200 48.17300
O  41.62900 10.00600 49.40400
O  40.30400 10.23200 47.51300
C  39.08200 10.38300 48.23900
H  41.29800 2.83500 47.33000
H  47.70700 1.83000 47.92000
H  48.67800 8.13200 47.94800
H  40.07600 7.43500 47.75100
H  40.08700 4.86900 46.20200
H  39.79000 4.21800 48.81300
H  38.50800 4.50700 47.71200
H  39.01900 5.81200 48.76500
H  40.49900 6.57000 44.86100
H  41.04800 8.16300 45.19900
H  39.02500 9.09700 45.23400
H  38.35500 7.70500 46.07800
H  42.74800 -0.40800 46.22800
H  41.66400 0.98400 46.61400
H  42.21900 0.07300 47.91300
H  47.69400 0.19300 46.41700
H  47.42700 -1.51300 46.87000
H  47.57600 -0.28100 48.17900
H  49.36000 3.47700 47.22500
H  49.87600 5.67200 49.19300
H  49.68100 2.12700 49.28000
H  49.43500 3.54300 50.34100
H  50.92200 3.32900 49.36300
H  49.84500 6.50100 46.27400
H  50.84700 5.26200 46.51200
H  51.47000 8.02000 47.22300
H  52.47300 6.52400 47.40600
H  51.52200 7.12100 48.66900
H  46.73300 11.49400 48.51300
H  47.58000 10.86800 47.03500
H  48.09800 10.31800 48.67500
H  42.15000 9.73800 46.17900
H  38.23500 10.29600 47.55900
H  39.05900 11.38200 48.67500
H  38.94000 9.72300 49.09500

