158

Mg -0.21000 7.65900 27.36000
C  0.47500 9.98800 29.83700
C  -0.64200 5.28500 29.59300
C  -0.74100 5.58600 24.66800
C  0.81800 10.14000 25.04500
N  0.11500 7.69500 29.54500
C  0.06600 8.74500 30.38000
C  -0.17400 8.33100 31.77100
C  -0.39400 6.77700 31.68900
C  -0.27500 6.54400 30.17400
C  0.64400 5.93700 32.35700
C  -1.29800 9.06200 32.47400
C  -1.35800 8.94100 34.01900
H  -0.16700 8.47900 34.82300
N  -0.53300 5.73200 27.14700
C  -0.81600 4.92600 28.21800
C  -1.10900 3.59400 27.71800
C  -1.09500 3.60900 26.31800
C  -0.80100 5.05600 26.01600
C  -1.36100 2.40500 28.69300
C  -1.34300 2.47700 25.22200
O  -1.39100 2.64700 23.99900
C  -1.63700 1.02600 25.85400
N  0.10600 7.83100 25.12500
C  -0.28800 6.84900 24.28800
C  -0.29600 7.39200 22.85000
C  -0.08600 8.88500 22.97100
C  0.36200 8.95500 24.43800
C  0.65800 6.46200 22.03100
C  -1.46300 9.63900 22.84000
C  -1.79300 10.29800 21.41900
N  0.55100 9.63100 27.40100
C  0.98200 10.50300 26.40000
C  1.37700 11.82100 26.95400
C  1.22300 11.68000 28.33400
C  0.86500 10.28800 28.52100
C  1.80300 13.01400 26.15900
C  1.33900 12.28100 29.58100
O  1.61400 13.43600 29.93000
C  0.92400 11.20900 30.61100
C  1.92800 11.18300 31.64600
O  3.02300 10.65500 31.48800
O  1.48300 11.82800 32.75100
C  2.38400 11.81000 33.86700
H  -0.80100 4.58100 30.41300
H  -0.90400 4.87400 23.85700
H  0.96900 10.90000 24.27600
H  0.73100 8.41500 32.37300
H  -1.36000 6.40200 32.02800
H  1.45400 5.73500 31.65700
H  0.27300 4.95000 32.63700
H  1.07600 6.38800 33.25000
H  -2.17500 8.50700 32.14000
H  -1.39300 10.13500 32.30600
H  -2.25700 8.36200 34.22800
H  -1.62200 9.91300 34.43600
H  -2.41600 2.32600 28.95600
H  -0.87600 2.69000 29.62600
H  -0.99900 1.42500 28.38100
H  -1.99800 0.45100 25.00100
H  -2.42800 1.11700 26.59800
H  -0.73000 0.59300 26.27800
H  -1.32000 7.30600 22.48900
H  0.72200 9.19600 22.30900
H  0.95700 5.52100 22.49300
H  1.46300 7.00700 21.53700
H  0.04300 6.03200 21.24000
H  -1.40600 10.49200 23.51700
H  -2.35400 9.09500 23.15300
H  -2.79600 10.00100 21.11300
H  -1.00200 10.16200 20.68200
H  -1.74000 11.36800 21.62300
H  0.86600 13.33000 25.70100
H  2.55800 12.75100 25.41800
H  2.32100 13.69300 26.83700
H  0.02900 11.63900 31.06000
H  2.53600 10.76200 34.12400
H  2.07100 12.36300 34.75200
H  3.41400 12.11800 33.68600
Mg 54.50700 23.35200 43.60300
C  51.87600 25.54800 42.92200
C  52.39500 20.72500 43.02600
C  57.20600 21.46900 43.42000
C  56.63200 26.22200 43.98400
N  52.45900 23.21700 43.06100
C  51.56400 24.16700 42.89700
C  50.22500 23.55500 42.38300
C  50.26800 22.11400 42.93000
C  51.80500 22.00900 43.04500
C  49.51300 21.88900 44.25800
C  50.03700 23.64900 40.85100
C  48.78900 24.22900 40.29300
H  48.74200 24.81500 38.80600
N  54.79000 21.40100 43.23000
C  53.78900 20.44700 43.08300
C  54.38800 19.14300 42.84800
C  55.78400 19.36400 42.98500
C  56.00900 20.77900 43.23500
C  53.59400 17.83600 42.68100
C  56.71800 18.23600 42.83400
O  56.38300 17.03800 42.64300
C  58.10100 18.50900 42.76600
N  56.60200 23.85500 43.41900
C  57.47300 22.81400 43.45200
C  58.92300 23.34700 43.67700
C  58.84900 24.92100 43.80700
C  57.28000 25.03000 43.76900
C  59.58800 22.63500 44.88900
C  59.60400 25.69800 42.70900
C  60.15900 27.06500 43.07000
N  54.32400 25.50700 43.66300
C  55.23800 26.49000 43.86000
C  54.57400 27.72100 43.87400
C  53.24200 27.43200 43.44200
C  53.15800 26.06100 43.36300
C  55.20100 29.10900 43.93600
C  51.85900 27.92200 43.20800
O  51.41200 29.05300 43.31500
C  50.96000 26.72400 42.65700
C  50.72600 27.08300 41.28300
O  51.49800 27.07800 40.28200
O  49.38500 27.48200 41.05500
C  49.15600 28.03500 39.74100
H  51.65600 19.93100 42.89800
H  58.07900 20.81900 43.51500
H  57.24200 27.12700 44.00800
H  49.43900 24.14300 42.85500
H  49.94600 21.41600 42.15800
H  49.50100 22.73300 44.94700
H  49.90600 21.03600 44.81100
H  48.44400 21.71900 44.12700
H  50.08000 22.66400 40.38700
H  50.91800 24.18500 40.49500
H  48.41500 24.96600 41.00300
H  48.00400 23.47400 40.34400
H  54.04000 17.07000 42.04700
H  52.58500 17.93900 42.28200
H  53.53600 17.40000 43.67900
H  58.20200 19.37800 42.11600
H  58.64900 17.72500 42.24400
H  58.60700 18.85300 43.66800
H  59.44500 23.23400 42.72600
H  59.03000 25.26700 44.82400
H  59.34900 23.24300 45.76200
H  60.64500 22.80400 44.68400
H  59.36300 21.58200 45.05700
H  58.94700 25.69300 41.83900
H  60.42300 25.04700 42.40400
H  61.11200 27.07000 42.54000
H  60.31400 27.14500 44.14600
H  59.47800 27.81500 42.66600
H  55.78200 29.31100 43.03600
H  55.91100 29.13400 44.76200
H  54.35200 29.77200 44.10300
H  50.00600 26.70800 43.18400
H  49.57700 27.35400 39.00000
H  49.75600 28.93700 39.62100
H  48.10900 28.31500 39.62600

