158

Mg 46.81200 24.49500 28.33700
C  47.74700 26.88500 30.83900
C  45.86000 22.38700 30.85900
C  46.22900 22.25800 26.07600
C  48.21600 26.69800 26.00400
N  46.79700 24.68300 30.54000
C  47.18900 25.70700 31.36400
C  46.91100 25.34100 32.88800
C  46.46400 23.85100 32.89900
C  46.40800 23.56800 31.33300
C  47.36800 22.79900 33.63900
C  45.82400 26.24700 33.67100
C  46.12700 26.67000 35.16400
H  44.97800 26.86700 36.13400
N  46.25200 22.55000 28.43300
C  45.79300 21.89600 29.52200
C  45.45700 20.52900 29.12400
C  45.38500 20.43700 27.75100
C  45.95500 21.73900 27.34900
C  45.09800 19.42300 30.13200
C  44.99600 19.33300 26.78700
O  45.07800 19.38900 25.59100
C  44.39600 18.12400 27.35700
N  47.29900 24.46500 26.36900
C  46.78700 23.46200 25.59200
C  47.03200 23.66300 24.09200
C  47.50500 25.17400 24.11200
C  47.59800 25.55100 25.59400
C  48.11400 22.75000 23.43300
C  46.58600 26.16800 23.34700
C  47.13700 26.94700 22.15500
N  47.70800 26.43700 28.39500
C  48.23400 27.20300 27.31900
C  48.58200 28.52700 27.82700
C  48.55000 28.39400 29.21900
C  47.93500 27.14100 29.50900
C  49.09900 29.72300 26.99200
C  48.74100 29.11500 30.45000
O  49.19500 30.22200 30.72000
C  48.20900 28.10400 31.53600
C  49.33000 27.84100 32.46700
O  50.33600 27.12500 32.34900
O  49.02100 28.53500 33.66000
C  49.97600 28.42800 34.76400
H  45.37300 21.83800 31.66700
H  46.15400 21.56400 25.23700
H  48.55800 27.26100 25.13300
H  47.83300 25.48000 33.45300
H  45.43000 23.66800 33.19100
H  47.31800 21.85700 33.09200
H  46.88700 22.61600 34.59900
H  48.41100 23.06900 33.80600
H  44.91400 25.64900 33.62400
H  45.62000 27.14600 33.08900
H  46.72200 27.58200 35.21000
H  46.77200 25.89900 35.58500
H  44.02600 19.27500 30.00800
H  45.24000 19.80600 31.14300
H  45.57300 18.45000 30.00300
H  45.08000 17.52700 27.95900
H  44.05700 17.46100 26.56000
H  43.50600 18.39300 27.92600
H  46.05100 23.57300 23.62400
H  48.51300 25.33700 23.72900
H  47.79800 22.60000 22.40100
H  48.10800 21.86700 24.07100
H  49.06300 23.28300 23.37500
H  46.22000 26.80800 24.14900
H  45.64700 25.70600 23.04000
H  46.69900 26.56200 21.23400
H  48.21100 26.77400 22.09900
H  47.02600 27.99000 22.45000
H  49.98500 30.08500 27.51300
H  48.36800 30.53100 27.02100
H  49.42500 29.43700 25.99200
H  47.35000 28.47100 32.09900
H  50.28100 29.42000 35.09600
H  50.92000 28.05800 34.36400
H  49.45100 27.82700 35.50600
Mg 16.39300 52.88300 26.51200
C  18.42400 51.34000 29.15300
C  14.12200 53.68300 28.98800
C  14.56400 54.02000 24.18000
C  18.69700 51.53900 24.23600
N  16.24300 52.45700 28.83200
C  17.25800 51.96700 29.61400
C  16.89500 52.31100 31.03100
C  15.36300 52.59200 30.90800
C  15.26200 52.98700 29.50200
C  14.44400 51.32400 31.25500
C  17.79900 53.44300 31.48400
C  17.87600 53.77300 33.01700
H  16.96100 53.01400 34.02800
N  14.63300 53.85300 26.59700
C  13.84700 54.11200 27.67800
C  12.66700 54.83500 27.26300
C  12.74900 54.92800 25.85600
C  13.99900 54.28600 25.43900
C  11.49200 55.19800 28.16800
C  11.68000 55.42000 24.81900
O  11.94000 55.46200 23.60900
C  10.25500 55.92000 25.30000
N  16.54700 52.68900 24.51000
C  15.63900 53.30300 23.76300
C  15.80100 53.01600 22.28900
C  17.28800 52.37700 22.29900
C  17.62300 52.25500 23.75000
C  14.72000 52.20700 21.69700
C  18.40200 53.16700 21.52900
C  19.29600 52.24200 20.73700
N  18.22000 51.71700 26.60400
C  19.04200 51.23100 25.59100
C  20.21300 50.62100 26.09700
C  20.00700 50.64400 27.48800
C  18.78400 51.30400 27.75300
C  21.36600 49.96300 25.36600
C  20.67500 50.26000 28.70900
O  21.78800 49.78000 28.85900
C  19.71800 50.80300 29.91000
C  19.35400 49.68100 30.84000
O  19.07700 48.53300 30.53400
O  19.49600 50.03000 32.16400
C  19.55300 48.92500 33.17600
H  13.32100 53.79300 29.72200
H  13.95200 54.42600 23.37100
H  19.51300 51.28300 23.55600
H  17.16900 51.51500 31.72400
H  15.02800 53.35700 31.60800
H  14.29900 51.22700 32.33100
H  15.03400 50.53500 30.78800
H  13.50800 51.42500 30.70500
H  17.53300 54.37200 30.97700
H  18.81800 53.35500 31.10900
H  17.49400 54.79400 33.01700
H  18.87900 53.84000 33.43800
H  10.76000 54.39200 28.22100
H  10.90600 56.05700 27.84100
H  11.98800 55.45100 29.10500
H  10.35300 56.88000 25.80700
H  9.95300 55.13000 25.98700
H  9.63800 56.12200 24.42400
H  15.85300 54.01100 21.84800
H  17.25200 51.34600 21.94700
H  15.23400 51.54300 21.00300
H  13.91500 52.74900 21.20000
H  14.21700 51.61600 22.46300
H  19.03700 53.80500 22.14500
H  17.91400 53.87700 20.86100
H  19.27000 51.20700 21.07700
H  20.34300 52.43700 20.96700
H  19.14500 52.37700 19.66600
H  22.30300 49.96300 25.92400
H  21.60200 50.49700 24.44600
H  21.18400 48.88800 25.33600
H  20.17600 51.59600 30.50000
H  19.54200 49.45300 34.13000
H  20.42600 48.28100 33.07500
H  18.62300 48.36800 33.06200

