158

Mg 48.98000 35.31400 26.99000
C  46.56500 34.43500 29.55500
C  49.56100 38.23700 28.72200
C  50.81000 36.48500 24.29800
C  47.66900 32.86000 25.05500
N  48.20500 36.15600 28.92900
C  47.37900 35.56800 29.91100
C  47.05300 36.53700 31.05500
C  47.85200 37.78600 30.64200
C  48.65700 37.38600 29.39700
C  47.07400 39.09200 30.30600
C  47.48200 36.00800 32.51700
C  46.52700 36.58400 33.56900
H  47.01300 37.67900 34.45300
N  50.20000 36.96400 26.68600
C  50.35900 38.01700 27.55000
C  51.37000 38.85900 27.00900
C  51.85900 38.25900 25.82100
C  50.96000 37.22200 25.50900
C  51.70900 40.27600 27.59900
C  53.05100 38.66400 24.95000
O  53.43300 38.02800 23.97700
C  53.95500 39.83500 25.33900
N  49.06400 34.87800 24.99900
C  49.84100 35.46700 23.99200
C  49.76200 34.63400 22.68900
C  49.08300 33.31600 23.13400
C  48.53700 33.70000 24.50200
C  49.02800 35.47600 21.62700
C  50.04700 32.08900 23.19300
C  50.35400 31.43500 21.89400
N  47.50800 33.91700 27.24300
C  47.08100 32.98600 26.35300
C  45.97100 32.17900 26.87700
C  45.69700 32.74500 28.14100
C  46.71900 33.69700 28.34400
C  45.44000 30.89000 26.29000
C  44.89300 32.72000 29.35200
O  43.86000 32.10700 29.64900
C  45.31400 33.97000 30.18000
C  45.46800 33.44000 31.56100
O  46.34300 32.66900 31.92900
O  44.36600 33.84900 32.23400
C  44.21500 33.34700 33.54500
H  49.73400 39.21800 29.17100
H  51.46600 36.83200 23.49700
H  47.19200 32.04900 24.50100
H  45.98100 36.73100 31.03200
H  48.52000 38.19500 31.40000
H  47.54400 39.91000 30.85200
H  46.08400 39.00100 30.75300
H  46.96700 39.37600 29.25900
H  48.44500 36.34800 32.89800
H  47.53100 34.91900 32.50800
H  46.17700 35.83900 34.28400
H  45.68100 37.07200 33.08600
H  50.74300 40.77800 27.66100
H  52.30200 40.90400 26.93400
H  52.23800 40.18300 28.54800
H  54.85700 39.61900 24.76700
H  54.14600 39.76400 26.41000
H  53.55300 40.83100 25.15000
H  50.75900 34.27400 22.43700
H  48.31800 33.06000 22.40100
H  48.92600 36.51800 21.92700
H  48.02100 35.06200 21.57500
H  49.66700 35.53100 20.74500
H  49.57800 31.41400 23.90900
H  51.00700 32.42700 23.58400
H  49.83400 31.94900 21.08600
H  49.99500 30.42200 22.07400
H  51.40400 31.53200 21.61500
H  46.29800 30.22300 26.20800
H  45.32000 31.04600 25.21800
H  44.52800 30.47100 26.71500
H  44.49000 34.68400 30.19000
H  44.78900 34.00900 34.19300
H  44.54600 32.32300 33.72300
H  43.21600 33.52500 33.94300
Mg -10.77500 37.27200 42.01800
C  -8.51500 34.73500 41.47300
C  -8.89500 39.45200 40.13800
C  -13.25800 39.46000 42.31400
C  -12.83800 34.86500 43.54600
N  -9.00900 37.01900 40.81600
C  -8.23800 35.87300 40.66400
C  -6.93700 36.16000 39.94500
C  -7.06600 37.70400 39.61800
C  -8.44700 38.10800 40.20300
C  -5.90700 38.58700 40.12100
C  -6.72700 35.14400 38.78900
C  -5.25000 34.84200 38.66600
H  -4.36200 35.33200 37.52800
N  -11.06300 39.25200 41.29400
C  -10.15400 39.92300 40.56600
C  -10.67900 41.25100 40.40600
C  -11.91700 41.34200 41.08900
C  -12.12800 39.99900 41.60000
C  -9.99000 42.40000 39.77400
C  -12.66400 42.57300 41.37900
O  -12.23000 43.61300 40.95000
C  -13.92900 42.59000 42.09100
N  -12.87200 37.12700 42.60100
C  -13.69100 38.20200 42.72700
C  -15.01700 37.92400 43.37300
C  -14.88900 36.38900 43.60900
C  -13.40400 36.09900 43.21600
C  -15.24800 38.74000 44.63900
C  -15.96900 35.47700 42.83100
C  -16.86000 34.50300 43.65000
N  -10.73000 35.21500 42.51000
C  -11.57600 34.39800 43.25100
C  -10.94100 33.09800 43.54800
C  -9.75300 33.21700 42.77300
C  -9.65000 34.50800 42.29800
C  -11.54500 31.93900 44.25600
C  -8.45700 32.56100 42.45800
O  -7.98200 31.52500 42.84300
C  -7.65400 33.49500 41.60500
C  -6.25300 33.60000 42.09400
O  -5.33600 32.78400 41.88700
O  -6.17900 34.78800 42.86600
C  -4.79400 35.04800 43.33600
H  -8.40000 40.12100 39.43000
H  -14.06100 40.19500 42.39700
H  -13.39500 34.07300 44.05200
H  -6.12000 36.01100 40.65000
H  -7.16000 37.83500 38.54000
H  -5.36300 39.04700 39.29600
H  -5.13200 38.01400 40.63000
H  -6.43800 39.23400 40.82000
H  -7.08400 35.58600 37.85900
H  -7.39400 34.28400 38.84800
H  -5.21700 33.75500 38.58700
H  -4.70600 35.24000 39.52300
H  -8.98600 42.20000 39.39800
H  -9.72100 43.04500 40.61000
H  -10.58700 43.01800 39.10400
H  -14.29700 43.61600 42.10700
H  -13.75300 42.30400 43.12800
H  -14.64100 41.93100 41.59400
H  -15.86200 38.12800 42.71500
H  -14.94500 36.06500 44.64800
H  -14.35600 39.19900 45.06500
H  -15.90400 38.13400 45.26400
H  -15.89000 39.59400 44.42500
H  -15.51100 34.79400 42.11600
H  -16.65900 36.15800 42.33300
H  -17.87900 34.87800 43.54900
H  -16.55200 34.49400 44.69500
H  -16.76700 33.48700 43.26500
H  -12.45100 32.24900 44.77800
H  -10.87300 31.50500 44.99500
H  -11.83600 31.17000 43.54000
H  -7.61400 32.83700 40.73600
H  -4.79800 35.91100 44.00100
H  -4.21400 35.15600 42.41900
H  -4.51200 34.30200 44.07900

