158

Mg 35.55800 0.51600 29.02200
C  33.41400 1.77800 31.57900
C  38.13100 0.80300 31.30900
C  37.58500 -0.15000 26.51600
C  32.83500 0.98800 26.80100
N  35.76400 1.24200 31.23600
C  34.76600 1.53600 32.09500
C  35.21000 1.65800 33.55400
C  36.79000 1.48200 33.45000
C  36.91300 1.18300 31.91300
C  37.50500 2.81900 33.71800
C  34.51400 0.57900 34.50000
C  34.56000 0.76600 36.06400
H  35.23200 2.07200 36.54200
N  37.59900 0.36700 28.90000
C  38.46800 0.50600 29.92100
C  39.85200 0.09800 29.43200
C  39.70500 -0.20900 27.98000
C  38.26200 0.04600 27.74900
C  40.98800 -0.00600 30.43200
C  40.63100 -0.68300 26.89200
O  40.28900 -1.08200 25.79900
C  42.01500 -0.90200 27.28900
N  35.17700 0.37900 26.93900
C  36.23500 0.11700 26.15000
C  35.82100 0.12800 24.63300
C  34.26600 0.48300 24.78500
C  34.04600 0.60900 26.29400
C  36.70700 1.18600 23.79700
C  33.33600 -0.57900 24.05700
C  33.05400 -1.89200 24.76500
N  33.51400 1.09200 29.14000
C  32.50600 1.22100 28.14000
C  31.20400 1.62200 28.69800
C  31.53200 1.88800 30.07400
C  32.93300 1.59300 30.24000
C  30.01700 1.81800 27.84300
C  31.01200 2.36900 31.32400
O  29.92000 2.71100 31.62900
C  32.16600 2.23600 32.36600
C  32.33500 3.45000 33.25500
O  33.03600 4.34200 32.90100
O  31.62100 3.27400 34.44800
C  31.73400 4.40300 35.40500
H  38.98600 0.80000 31.98800
H  38.13400 -0.45600 25.62300
H  32.10800 1.22500 26.02200
H  34.98200 2.66100 33.91500
H  37.01100 0.68500 34.15900
H  36.82900 3.67300 33.66300
H  38.31000 2.98400 33.00100
H  38.10000 2.94100 34.62400
H  35.14200 -0.24100 34.15400
H  33.46400 0.41400 34.25900
H  34.97600 -0.07500 36.62000
H  33.51300 0.86600 36.35200
H  41.94800 -0.29300 30.00400
H  40.70600 -0.77800 31.14700
H  41.06600 1.00600 30.82900
H  42.54800 -0.10100 27.80100
H  42.64500 -1.33800 26.51400
H  41.85000 -1.74400 27.96200
H  35.93700 -0.90300 24.29900
H  33.92900 1.45700 24.43000
H  37.07800 0.70500 22.89200
H  37.54900 1.52400 24.40200
H  36.05700 2.03800 23.60100
H  33.64300 -0.76200 23.02700
H  32.43700 0.03600 24.08800
H  32.03300 -1.92500 25.14600
H  33.67500 -2.02600 25.65000
H  33.31600 -2.65900 24.03600
H  30.14300 1.81500 26.76000
H  29.53200 2.74400 28.15200
H  29.23800 1.09100 28.07200
H  31.87000 1.48800 33.10200
H  31.23300 5.24000 34.91900
H  32.75300 4.78900 35.45000
H  31.16900 4.15900 36.30400
Mg -0.39500 44.07800 24.99500
C  1.72000 43.23200 27.76700
C  -3.00900 42.86800 26.91200
C  -2.35500 44.06400 22.19100
C  2.45600 44.67400 23.10600
N  -0.54900 43.03800 27.14700
C  0.36700 43.02600 28.13900
C  -0.15000 42.41800 29.45200
C  -1.69800 42.14200 29.05200
C  -1.79100 42.77600 27.55400
C  -2.17000 40.67800 29.08000
C  -0.06700 43.44000 30.65200
C  0.09400 42.98100 32.06400
H  -0.54400 41.65100 32.47700
N  -2.46800 43.85800 24.59900
C  -3.32600 43.37000 25.57300
C  -4.69000 43.45400 25.03700
C  -4.53400 43.69600 23.57700
C  -3.08100 43.82400 23.40700
C  -5.88300 43.12100 25.82400
C  -5.62200 43.81700 22.46200
O  -5.30400 44.01800 21.30900
C  -7.04500 43.84400 22.94800
N  -0.00200 44.49800 23.00600
C  -0.96600 44.39300 22.01300
C  -0.32500 44.47300 20.61400
C  1.08200 45.02600 20.93000
C  1.19900 44.73500 22.39800
C  -0.33800 43.18500 19.87200
C  1.33600 46.51400 20.68200
C  0.63800 47.52900 21.65400
N  1.66100 44.04500 25.34900
C  2.67300 44.36600 24.45700
C  3.87400 44.24700 25.14700
C  3.55800 43.85000 26.41600
C  2.20500 43.65300 26.54300
C  5.17800 44.51000 24.74200
C  4.12000 43.55200 27.72700
O  5.29100 43.46600 28.05300
C  2.94600 43.17900 28.63100
C  3.19400 41.88600 29.24100
O  3.29700 40.87600 28.57700
O  3.52100 41.90400 30.59700
C  3.94600 40.68900 31.22100
H  -3.85900 42.48800 27.48300
H  -2.87600 44.10900 21.23200
H  3.30900 44.88200 22.45700
H  0.33200 41.46400 29.66800
H  -2.27000 42.67300 29.81300
H  -1.29400 40.04400 29.21200
H  -2.74600 40.40900 28.19500
H  -2.75200 40.75100 29.99800
H  -0.92800 44.10900 30.66000
H  0.89200 43.94200 30.52100
H  -0.08100 43.81600 32.74300
H  1.16800 42.83300 32.17500
H  -5.64800 43.17800 26.88700
H  -6.47100 42.24100 25.56100
H  -6.60900 43.93400 25.80100
H  -7.71900 44.01200 22.10800
H  -7.17000 44.61700 23.70600
H  -7.29900 42.90500 23.43900
H  -0.88800 45.22900 20.06600
H  1.96300 44.58800 20.46100
H  0.63800 42.73800 19.68300
H  -0.63500 43.26900 18.82600
H  -0.99600 42.42100 20.28500
H  1.18200 46.88200 19.66800
H  2.37400 46.74800 20.91900
H  0.08500 48.22700 21.02600
H  1.35200 47.99400 22.33400
H  -0.05800 47.04200 22.33800
H  5.54800 45.41400 25.22500
H  5.21500 44.80700 23.69300
H  5.93600 43.73100 24.83000
H  3.05300 43.88700 29.45300
H  4.17300 39.83400 30.58400
H  3.22700 40.39700 31.98700
H  4.87600 40.88900 31.75200

