158

Mg 45.05200 4.48900 48.04200
C  43.02000 7.11700 47.05200
C  42.44900 2.16100 47.09200
C  47.18200 1.90500 48.15200
C  47.72200 6.75000 47.73000
N  42.91800 4.62700 47.30600
C  42.31200 5.82200 46.98700
C  40.93400 5.57200 46.35600
C  40.72900 4.00800 46.64600
C  42.17300 3.58000 47.03200
C  39.50600 3.64900 47.60800
C  40.87500 5.94400 44.77900
C  39.63900 6.79300 44.35500
H  39.94900 7.66800 43.12100
N  44.80600 2.33200 47.93600
C  43.64900 1.60500 47.56300
C  43.97300 0.17100 47.74200
C  45.32000 0.10300 48.14900
C  45.84700 1.47700 48.10600
C  42.94900 -0.93000 47.55700
C  46.09500 -1.16400 48.52600
O  45.56600 -2.25900 48.36200
C  47.48300 -1.07600 49.10900
N  47.12300 4.29200 47.87900
C  47.78900 3.16100 48.11900
C  49.31600 3.33100 48.22600
C  49.46300 4.89900 48.03500
C  48.03200 5.36500 47.86700
C  50.08600 2.73100 49.34900
C  50.33900 5.30100 46.82500
C  51.68800 5.94400 46.99700
N  45.36500 6.56100 47.71500
C  46.47700 7.33600 47.67800
C  46.07300 8.74700 47.73300
C  44.71100 8.75200 47.51200
C  44.32400 7.37700 47.43100
C  46.97200 9.90100 47.76800
C  43.53100 9.55800 47.33700
O  43.41300 10.76100 47.26900
C  42.42100 8.53900 46.97700
C  41.32500 8.72000 47.92500
O  41.37300 8.54400 49.13200
O  40.22600 9.17200 47.21100
C  38.95500 9.44200 47.95300
H  41.59600 1.50500 46.90900
H  47.99900 1.18200 48.09200
H  48.58400 7.42100 47.74900
H  40.24100 6.24600 46.86000
H  40.28100 3.62600 45.72900
H  39.96500 3.13900 48.45500
H  38.78800 2.96600 47.15300
H  38.90900 4.52200 47.87100
H  40.79000 5.02900 44.19200
H  41.76300 6.51800 44.51500
H  39.32100 7.46100 45.15500
H  38.68900 6.26400 44.28800
H  43.25200 -1.68800 46.83500
H  41.98100 -0.60900 47.17300
H  42.74700 -1.36100 48.53800
H  47.86600 -1.96300 49.61300
H  47.57300 -0.25000 49.81300
H  48.08200 -0.97800 48.20300
H  49.74200 2.83100 47.35600
H  49.87000 5.36600 48.93200
H  49.48400 2.37700 50.18600
H  50.67900 3.53500 49.78500
H  50.71200 1.90300 49.01900
H  49.66500 5.83500 46.15500
H  50.67600 4.40300 46.30700
H  52.57900 5.32700 46.88100
H  51.66700 6.29400 48.02900
H  51.77900 6.83000 46.36900
H  47.75200 9.80100 48.52300
H  46.35200 10.77100 47.98100
H  47.45500 10.00500 46.79600
H  42.20200 8.75200 45.93100
H  39.07500 9.87800 48.94500
H  38.40900 8.50600 48.06700
H  38.44900 10.21400 47.37400
Mg 47.96700 25.06400 28.59700
C  48.52300 27.66600 31.02700
C  47.64400 22.84100 31.15200
C  47.73700 22.60800 26.24000
C  49.05200 27.27300 26.16300
N  48.03200 25.28400 30.87600
C  48.20200 26.47300 31.67300
C  47.94400 26.13600 33.19400
C  47.70400 24.56600 33.13100
C  47.81600 24.17300 31.58800
C  48.72700 23.72600 33.98900
C  46.74300 26.98300 33.74700
C  46.22200 26.54500 35.12300
H  45.64600 27.51200 36.07500
N  47.67700 23.01200 28.64800
C  47.52000 22.28300 29.82700
C  47.32900 20.85100 29.45400
C  47.40200 20.79700 28.00300
C  47.60100 22.14100 27.57200
C  47.09800 19.71100 30.40500
C  47.17300 19.62900 27.05900
O  46.99500 19.80500 25.85500
C  47.02800 18.26400 27.61900
N  48.53200 24.94100 26.52900
C  48.14000 23.86200 25.76800
C  48.16200 24.15400 24.27100
C  48.47500 25.74000 24.28500
C  48.72200 26.01300 25.70000
C  49.06400 23.29300 23.38900
C  47.26500 26.65000 23.68300
C  47.66700 27.84300 22.77000
N  48.71900 27.00800 28.55500
C  49.13300 27.77700 27.47900
C  49.42900 29.12400 27.94300
C  49.27100 29.13200 29.36400
C  48.82800 27.82400 29.66300
C  49.87000 30.19300 26.95200
C  49.40900 29.97900 30.55900
O  49.94800 31.04900 30.74700
C  48.72800 29.06600 31.65400
C  49.72300 29.08000 32.72200
O  50.91800 28.69900 32.67600
O  49.20100 29.82100 33.76900
C  49.92600 29.71700 34.98500
H  47.58900 22.09300 31.94600
H  47.61900 21.98100 25.35400
H  49.35500 27.93000 25.34500
H  48.86400 26.32300 33.74700
H  46.67800 24.51800 33.49700
H  48.25900 22.92300 34.55800
H  49.25700 24.38400 34.67700
H  49.40200 23.30600 33.24300
H  45.96600 27.00200 32.98300
H  47.13700 27.99800 33.77800
H  46.91000 25.90100 35.67100
H  45.37500 25.89300 34.91000
H  46.05400 19.42600 30.54100
H  47.50700 20.18600 31.29600
H  47.75800 18.87200 30.18500
H  48.06500 17.95900 27.75700
H  46.55100 17.72100 26.80200
H  46.38500 18.03100 28.46700
H  47.20600 24.02500 23.76200
H  49.37200 26.01000 23.72700
H  49.03800 22.25200 23.71100
H  50.12700 23.53400 23.42200
H  48.72200 23.44000 22.36500
H  46.80300 27.12300 24.55000
H  46.44500 26.08600 23.23700
H  47.48300 28.85600 23.12600
H  46.84300 27.77200 22.05900
H  48.60300 27.79200 22.21400
H  49.35600 29.93800 26.02600
H  50.95000 30.11900 26.82800
H  49.63700 31.20900 27.26800
H  47.72400 29.32800 31.98900
H  50.18600 28.66000 35.04300
H  49.25100 29.90100 35.82200
H  50.85700 30.28400 34.99000

