158

Mg 42.87300 3.91500 47.18700
C  40.55700 6.35100 47.40200
C  40.48100 1.58900 47.41800
C  45.28200 1.44700 46.84000
C  45.34900 6.24300 46.15900
N  40.79100 3.98500 47.26400
C  40.01700 5.07400 47.47300
C  38.55500 4.65800 47.49100
C  38.65900 3.18500 47.83600
C  40.07800 2.88200 47.52300
C  38.40600 2.83200 49.37200
C  37.74800 5.02100 46.17300
C  38.23700 4.62800 44.85100
H  38.39800 5.76200 43.77400
N  42.85800 1.81100 46.98000
C  41.75700 1.06600 47.11500
C  42.10400 -0.35900 47.10800
C  43.47000 -0.47900 46.85000
C  43.96700 0.97800 46.83700
C  41.04400 -1.47300 47.17300
C  44.29400 -1.83200 46.71000
O  43.81900 -2.92400 46.82700
C  45.71900 -1.72700 46.40300
N  44.98400 3.83700 46.43400
C  45.80000 2.73100 46.68100
C  47.27300 3.07800 46.65800
C  47.25800 4.53900 46.02400
C  45.76200 4.93500 46.18800
C  48.03600 2.98900 48.11200
C  47.82000 4.62800 44.54800
C  49.14400 5.30500 44.32700
N  43.02500 5.89800 46.95500
C  44.07300 6.79900 46.53000
C  43.60900 8.18300 46.59900
C  42.29700 8.04800 47.04600
C  41.96400 6.66000 47.14400
C  44.48500 9.43000 46.35900
C  41.07700 8.83000 47.34500
O  40.84700 10.04500 47.33800
C  39.91800 7.73300 47.56300
C  39.20000 7.91800 48.79000
O  39.53600 7.37600 49.83200
O  38.14600 8.73000 48.63700
C  37.11800 8.94300 49.69000
H  39.68500 0.84800 47.51800
H  46.07200 0.69900 46.93400
H  46.20100 6.81500 45.78600
H  38.04000 5.21100 48.27600
H  37.99500 2.58600 47.21300
H  38.12100 3.77100 49.84700
H  39.34500 2.55400 49.85200
H  37.67600 2.02600 49.44000
H  37.73300 6.11100 46.20500
H  36.76000 4.59800 46.35800
H  37.43700 4.04200 44.40000
H  39.13400 4.01100 44.91200
H  40.30300 -1.64200 46.39200
H  40.49100 -1.31400 48.09900
H  41.48900 -2.45900 47.30900
H  46.28000 -1.55800 47.32200
H  45.85200 -1.03100 45.57500
H  46.11800 -2.63700 45.95700
H  47.72900 2.34300 45.99500
H  47.86600 5.19900 46.64200
H  47.41900 2.35600 48.75000
H  48.26900 3.92900 48.61200
H  49.03100 2.54600 48.05000
H  47.06300 5.05900 43.89400
H  47.97200 3.61300 44.18200
H  49.77300 4.68700 43.68600
H  49.66000 5.44900 45.27600
H  49.01500 6.22900 43.76300
H  45.53800 9.15700 46.42000
H  44.23500 10.28200 46.99100
H  44.33200 9.74000 45.32500
H  39.19200 7.92600 46.77300
H  37.53900 8.93000 50.69500
H  36.42400 8.10300 49.66900
H  36.56100 9.86700 49.53400
Mg 46.92500 25.69900 28.59100
C  47.65000 27.95200 31.23800
C  45.79700 23.53600 30.97500
C  47.11600 23.39600 26.40700
C  48.48800 27.97400 26.45700
N  46.81500 25.72200 30.82100
C  47.04400 26.76400 31.63500
C  46.66300 26.36400 33.09000
C  46.29400 24.91000 33.01000
C  46.30400 24.73500 31.48700
C  47.31100 23.86000 33.57200
C  45.47300 27.27200 33.56700
C  45.63900 28.03300 34.86000
H  44.49400 28.01600 35.83800
N  46.36000 23.76200 28.67000
C  45.90400 23.00800 29.68900
C  45.60900 21.63400 29.29200
C  46.09200 21.51700 27.96600
C  46.62500 22.92900 27.60300
C  44.99200 20.62700 30.18800
C  46.16300 20.32300 26.96900
O  46.65300 20.47400 25.84800
C  45.86200 18.84800 27.35400
N  47.54200 25.80400 26.67300
C  47.56500 24.62300 25.93300
C  48.35300 24.80000 24.56000
C  48.45000 26.36400 24.51000
C  48.06100 26.75500 25.91500
C  49.66700 23.92600 24.50700
C  47.58200 27.00000 23.37800
C  46.05000 26.72500 23.48600
N  47.77600 27.64800 28.68100
C  48.37600 28.46200 27.74300
C  48.98900 29.63000 28.33500
C  48.62300 29.46300 29.71800
C  47.98400 28.25400 29.92300
C  49.64500 30.67400 27.53400
C  48.83400 30.09700 31.00800
O  49.41000 31.07700 31.39800
C  48.34000 28.99500 32.07000
C  49.50200 28.49900 32.90400
O  50.29500 27.61600 32.64200
O  49.55800 29.26400 34.06100
C  50.27800 28.69000 35.15700
H  45.44000 22.99800 31.85600
H  47.15800 22.61500 25.64500
H  49.15400 28.55100 25.81200
H  47.46300 26.34600 33.83000
H  45.33200 24.64800 33.45000
H  48.16600 24.35600 34.03100
H  47.52100 23.12200 32.79800
H  46.62700 23.43300 34.30600
H  44.49700 26.80500 33.69400
H  45.39900 28.09500 32.85600
H  45.80900 29.09000 34.65300
H  46.60700 27.70300 35.23700
H  44.37000 19.87900 29.69800
H  44.46000 21.03500 31.04800
H  45.79800 19.97100 30.51700
H  46.52200 18.13500 26.85900
H  44.82100 18.65000 27.09800
H  45.89100 18.80100 28.44200
H  47.62600 24.39600 23.85600
H  49.50400 26.56100 24.31600
H  49.96600 23.46500 23.56600
H  49.58000 23.11000 25.22400
H  50.54000 24.53000 24.75300
H  47.77600 26.57000 22.39500
H  47.70800 28.08200 23.35700
H  45.79000 26.04600 22.67400
H  45.43700 27.60100 23.26900
H  45.74400 26.12700 24.34400
H  49.74700 31.48800 28.25200
H  49.14500 30.94600 26.60400
H  50.67900 30.36900 27.37300
H  47.60500 29.43200 32.74600
H  49.83200 27.81000 35.62000
H  50.29800 29.46800 35.91900
H  51.28700 28.41200 34.85000

