158

Mg -2.45900 17.45400 25.75400
C  -2.75500 15.24300 28.59900
C  -3.18900 19.99600 27.85200
C  -2.00600 19.45500 23.09400
C  -1.87400 14.65000 23.76900
N  -2.94700 17.56500 27.97300
C  -2.89500 16.60700 28.97500
C  -3.20800 17.16100 30.36600
C  -3.88000 18.55600 29.88400
C  -3.27200 18.76100 28.50400
C  -5.46000 18.50700 29.81900
C  -1.96700 17.38400 31.22200
C  -2.28400 18.07500 32.53200
H  -1.86000 17.26700 33.77100
N  -2.45500 19.43600 25.58100
C  -2.72300 20.35800 26.57900
C  -2.66600 21.71700 25.96900
C  -2.38400 21.52300 24.57000
C  -2.26300 20.07900 24.38300
C  -2.95700 23.00100 26.82100
C  -2.39300 22.60400 23.49900
O  -2.50300 22.38000 22.29000
C  -2.44700 24.07900 23.88600
N  -2.08800 17.01900 23.67400
C  -1.96200 18.07800 22.77100
C  -1.59000 17.52600 21.33700
C  -1.51100 15.98200 21.63300
C  -1.86100 15.80300 23.11800
C  -2.71900 17.89600 20.34000
C  0.00400 15.56000 21.28200
C  1.21200 16.07300 22.14900
N  -2.48700 15.34200 26.06700
C  -2.15700 14.32000 25.14300
C  -2.20800 13.11900 25.78000
C  -2.28900 13.41000 27.23200
C  -2.51700 14.76200 27.33600
C  -2.11200 11.78400 25.17100
C  -2.35300 12.84200 28.51100
O  -2.12200 11.70600 28.83300
C  -2.72800 13.99400 29.50700
C  -1.58900 13.99900 30.44100
O  -0.42400 14.38400 30.24900
O  -1.95400 13.31800 31.54100
C  -0.85200 12.63800 32.32800
H  -3.40500 20.83400 28.51800
H  -1.88400 20.11900 22.23500
H  -1.61500 13.74100 23.22200
H  -3.98500 16.57200 30.85400
H  -3.50300 19.46100 30.36100
H  -5.87400 19.25300 30.49700
H  -5.78600 17.48900 30.03600
H  -5.78500 18.66100 28.79000
H  -1.42000 18.04500 30.54900
H  -1.39700 16.46200 31.33000
H  -3.35400 18.27400 32.59700
H  -1.81700 19.05900 32.47000
H  -3.18700 22.84500 27.87500
H  -3.83100 23.52500 26.43300
H  -2.11100 23.66100 26.63000
H  -2.51000 24.60400 22.93200
H  -1.61300 24.40700 24.50600
H  -3.42800 24.25400 24.32700
H  -0.64400 18.03400 21.14900
H  -2.10800 15.27200 21.06100
H  -3.50900 18.36200 20.92900
H  -3.25800 17.08900 19.84300
H  -2.25700 18.47400 19.54100
H  0.16600 15.98800 20.29300
H  -0.01100 14.50300 21.01900
H  1.77000 16.82700 21.59500
H  1.79100 15.17900 22.38400
H  0.90200 16.64500 23.02300
H  -1.44200 11.65900 24.32100
H  -3.14100 11.43800 25.07000
H  -1.61300 11.13200 25.88800
H  -3.57900 13.58000 30.04900
H  -0.08700 13.33700 32.66700
H  -0.37200 11.94700 31.63500
H  -1.26700 12.02800 33.13000
Mg -0.92900 44.06100 26.09300
C  1.48000 43.39000 28.53000
C  -3.35800 43.36200 28.53100
C  -3.19200 43.55800 23.76700
C  1.56900 44.18200 23.61900
N  -0.89100 43.33800 28.28200
C  0.21000 43.46200 29.10200
C  -0.04700 43.21900 30.57900
C  -1.60900 42.95500 30.49800
C  -2.04000 43.34400 29.00700
C  -2.11300 41.55900 30.99000
C  0.42600 44.45500 31.42500
C  0.77000 44.07400 32.91600
H  0.18000 42.71600 33.37900
N  -3.08200 43.64800 26.13900
C  -3.90200 43.59400 27.22400
C  -5.24300 43.56600 26.77600
C  -5.19400 43.34400 25.40500
C  -3.71000 43.43300 25.06200
C  -6.41900 43.61900 27.74100
C  -6.31600 43.18600 24.50800
O  -6.15900 43.10000 23.35000
C  -7.75300 43.15900 25.04400
N  -0.87000 44.16400 24.01800
C  -1.92800 43.78700 23.32300
C  -1.70400 43.93700 21.76000
C  -0.18100 44.24600 21.74600
C  0.24900 44.20200 23.22600
C  -2.03000 42.64700 20.86900
C  0.16000 45.63200 21.09700
C  0.05200 46.91200 21.94800
N  1.13000 44.05400 26.06000
C  2.06800 44.07200 24.98300
C  3.39100 43.89100 25.51400
C  3.23300 43.68400 26.92900
C  1.81600 43.76700 27.19800
C  4.63500 44.02400 24.66500
C  3.89400 43.39300 28.12800
O  5.08000 43.22400 28.43100
C  2.78300 43.14500 29.16700
C  2.99500 41.84400 29.83800
O  2.78900 40.77900 29.32700
O  3.56200 42.04400 31.09600
C  3.90600 40.86900 31.91400
H  -4.15000 43.11300 29.24000
H  -3.87900 43.19200 23.00100
H  2.24400 44.22600 22.76200
H  0.41600 42.25700 30.79900
H  -2.13300 43.66700 31.13400
H  -2.59100 40.97400 30.20300
H  -2.83900 41.72300 31.78600
H  -1.24100 41.05300 31.40300
H  -0.41400 45.14000 31.53900
H  1.31000 44.92700 30.99500
H  0.38400 44.84900 33.57700
H  1.85700 44.15400 32.93400
H  -6.95000 42.66800 27.78300
H  -6.98300 44.42000 27.26200
H  -6.07900 44.06600 28.67500
H  -8.52500 42.92900 24.30900
H  -8.09200 44.12700 25.41200
H  -7.82800 42.33000 25.74800
H  -2.39400 44.68500 21.37000
H  0.37600 43.52200 21.15200
H  -2.08600 41.78800 21.53800
H  -1.32700 42.45100 20.06000
H  -3.01800 42.83700 20.45000
H  -0.35000 45.74500 20.14000
H  1.21500 45.55500 20.83500
H  -0.33100 47.77300 21.39900
H  1.05100 47.24600 22.23000
H  -0.52200 46.81700 22.86900
H  5.47900 44.35900 25.26800
H  4.37500 44.70300 23.85300
H  4.85700 43.00000 24.36800
H  2.92200 43.84500 29.99100
H  3.43800 40.66000 32.87600
H  4.92000 40.94300 32.30700
H  3.72400 39.98700 31.30000

