158

Mg 8.31700 3.35000 27.82800
C  9.75900 1.87900 30.44700
C  6.39900 5.32900 29.78500
C  6.87500 4.75900 24.97600
C  9.94300 1.10900 25.61000
N  7.96500 3.45600 29.89300
C  8.80100 2.93400 30.85100
C  8.57400 3.46900 32.28300
C  7.44600 4.50700 32.04700
C  7.19100 4.43000 30.47800
C  6.11800 4.34700 32.85900
C  9.88900 3.94400 32.94600
C  9.67900 4.90100 34.01900
H  10.65000 4.76100 35.23000
N  6.74700 4.71300 27.47100
C  6.07300 5.41100 28.40500
C  5.18000 6.29500 27.77600
C  5.33200 6.22900 26.34800
C  6.33100 5.19800 26.19900
C  4.33600 7.33800 28.54000
C  4.63300 6.92700 25.23700
O  4.91400 6.71800 24.04800
C  3.38700 7.70000 25.53100
N  8.46000 2.97500 25.58700
C  7.67500 3.65600 24.70000
C  7.89400 3.09900 23.25600
C  9.01600 2.00000 23.43900
C  9.16600 2.02000 24.91400
C  6.60100 2.53300 22.55300
C  10.43200 2.54800 22.93600
C  10.57800 2.08100 21.51200
N  9.49300 1.79500 27.94300
C  10.16200 0.97200 27.01700
C  10.95800 -0.04100 27.66300
C  10.85300 0.33500 29.03200
C  9.94800 1.43400 29.11400
C  11.58200 -1.25600 27.08500
C  11.31000 -0.00000 30.39000
O  12.07700 -0.85200 30.78600
C  10.68400 1.02300 31.29900
C  9.99300 0.37300 32.45400
O  8.95500 -0.22300 32.40900
O  10.69900 0.53700 33.60300
C  9.95300 0.08700 34.83200
H  6.00600 6.13400 30.41000
H  6.42000 5.09300 24.04100
H  10.53900 0.60200 24.84800
H  8.19300 2.66600 32.91400
H  7.82400 5.51000 32.24800
H  5.27500 4.09400 32.21500
H  5.85000 5.28000 33.35500
H  6.23600 3.63900 33.68000
H  10.53700 4.46000 32.23700
H  10.45700 3.12800 33.39400
H  8.64200 4.85000 34.34900
H  9.74700 5.95700 33.75600
H  4.43600 8.35000 28.14700
H  4.51600 7.42900 29.61100
H  3.35400 6.90900 28.34200
H  2.96200 7.95300 24.56000
H  3.72700 8.61100 26.02200
H  2.72700 7.08200 26.13900
H  8.23500 3.81400 22.50700
H  8.70900 0.99800 23.13800
H  6.72200 1.54400 22.11100
H  6.18200 3.14900 21.75800
H  5.81000 2.55600 23.30200
H  11.15800 1.97000 23.50900
H  10.71000 3.59900 23.01700
H  9.69200 1.48800 21.28600
H  11.41300 1.38100 21.51400
H  10.76200 2.95500 20.88700
H  11.36200 -2.07400 27.77100
H  12.62900 -0.99400 26.93000
H  11.14200 -1.36500 26.09400
H  11.42900 1.71400 31.69300
H  9.31800 -0.79700 34.76200
H  9.18900 0.84400 35.00800
H  10.65900 0.00700 35.65800
Mg -9.26200 40.76100 42.80100
C  -8.30000 37.57300 41.90000
C  -6.51200 42.05800 41.15000
C  -10.46200 43.96200 43.07100
C  -12.35800 39.62700 43.84100
N  -7.72300 39.85700 41.41500
C  -7.48800 38.52300 41.33500
C  -6.07600 38.24300 40.66700
C  -5.43400 39.72400 40.68600
C  -6.65300 40.64900 41.09200
C  -4.06600 39.83900 41.37800
C  -6.33200 37.65000 39.24300
C  -5.32800 36.58300 38.76700
H  -4.67200 36.65600 37.29900
N  -8.52700 42.74100 42.24400
C  -7.36500 43.06100 41.66500
C  -7.19900 44.44700 41.54600
C  -8.31300 45.11200 42.18000
C  -9.19800 43.95700 42.48500
C  -5.97500 45.06400 40.89900
C  -8.49200 46.56100 42.42100
O  -7.65800 47.33000 41.92100
C  -9.61500 47.02500 43.27200
N  -11.16500 41.69200 43.28800
C  -11.31700 43.02900 43.54800
C  -12.74100 43.39000 44.13900
C  -13.23900 41.95400 44.51900
C  -12.25500 41.06600 43.86300
C  -12.75300 44.42000 45.30600
C  -14.71500 41.67600 44.01000
C  -15.63800 41.02800 45.07000
N  -10.16700 38.96700 42.95700
C  -11.43000 38.60200 43.38800
C  -11.63200 37.20100 43.32400
C  -10.47000 36.73100 42.79200
C  -9.59100 37.86700 42.52300
C  -12.82700 36.38800 43.76000
C  -9.68200 35.51900 42.39100
O  -10.00700 34.36900 42.48400
C  -8.27900 36.06100 41.70800
C  -7.10100 35.42900 42.38700
O  -6.78600 35.62000 43.51700
O  -6.42600 34.57800 41.43500
C  -5.17900 33.94200 41.91200
H  -5.56100 42.45000 40.78300
H  -10.95100 44.87000 43.43100
H  -13.33100 39.16700 44.02800
H  -5.55100 37.63000 41.40000
H  -5.18400 39.99600 39.66100
H  -3.34000 39.54900 40.61900
H  -4.07600 39.02900 42.10700
H  -3.83200 40.81100 41.81300
H  -6.13300 38.38300 38.46200
H  -7.33500 37.25700 39.07700
H  -5.80900 35.60900 38.86000
H  -4.52800 36.61300 39.50700
H  -6.16400 46.02600 40.42300
H  -5.52800 44.41700 40.14400
H  -5.26900 45.20700 41.71700
H  -9.43000 48.01200 43.69700
H  -9.56200 46.29800 44.08200
H  -10.51700 47.07100 42.66300
H  -13.17900 43.77100 43.21600
H  -13.14100 41.69200 45.57200
H  -13.44700 45.23500 45.10400
H  -11.71000 44.71800 45.41300
H  -13.09500 43.98900 46.24800
H  -14.55000 41.07200 43.11700
H  -15.28500 42.52600 43.63500
H  -16.49800 41.68300 45.20600
H  -15.11100 40.75100 45.98400
H  -15.93900 40.09200 44.59900
H  -12.59700 35.32300 43.78400
H  -13.70300 36.48600 43.11900
H  -13.05500 36.64100 44.79500
H  -8.25300 35.76900 40.65800
H  -5.44600 33.33000 42.77300
H  -4.53400 34.77300 42.19700
H  -4.82800 33.27400 41.12500

