158

Mg 30.03600 57.37600 40.23000
C  27.37800 55.19400 39.21300
C  32.30600 55.07900 39.29300
C  32.36100 59.73800 40.36900
C  27.49700 59.83900 40.57900
N  29.80800 55.50100 39.02500
C  28.70000 54.76500 38.88300
C  28.96200 53.32900 38.42700
C  30.52800 53.29700 38.59200
C  30.93000 54.75200 39.07200
C  31.21000 52.10300 39.32700
C  28.31800 52.99100 37.01700
C  28.78000 53.84200 35.75300
H  27.66300 54.40900 34.92700
N  32.10900 57.41500 40.04400
C  32.86200 56.33300 39.64200
C  34.26300 56.69000 39.64100
C  34.38100 58.11400 40.03400
C  32.91400 58.52100 40.15800
C  35.28500 55.63600 39.27700
C  35.61400 58.91300 40.24600
O  36.71300 58.36200 40.06800
C  35.53900 60.28000 40.83300
N  29.94300 59.44800 40.51700
C  31.03800 60.16500 40.61000
C  30.74600 61.72700 40.79600
C  29.19800 61.65600 40.98000
C  28.84100 60.22800 40.75300
C  31.63300 62.39500 41.91500
C  28.53400 62.58400 39.81400
C  27.29800 63.39100 40.24100
N  27.78800 57.46600 40.14000
C  26.97200 58.53600 40.32700
C  25.58100 58.10600 40.20000
C  25.69300 56.76600 39.76400
C  27.03300 56.45500 39.69900
C  24.31900 58.97300 40.54400
C  24.90500 55.63400 39.38000
O  23.66800 55.55200 39.33100
C  26.00300 54.58400 38.93500
C  25.60400 53.33800 39.68700
O  26.24800 52.80700 40.60700
O  24.50000 52.78700 39.13000
C  23.92600 51.70100 39.99300
H  32.84700 54.16200 39.05000
H  33.08800 60.54900 40.45200
H  26.79700 60.67700 40.59800
H  28.47700 52.65200 39.13000
H  30.99600 53.43900 37.61800
H  31.67400 52.49800 40.23000
H  31.94000 51.60700 38.68700
H  30.49700 51.34700 39.65700
H  27.23400 52.94300 37.11800
H  28.64100 51.95600 36.90100
H  29.24300 53.11100 35.09100
H  29.41900 54.66700 36.06900
H  35.37800 54.84300 40.01800
H  36.18800 56.07600 38.85300
H  34.86300 55.11500 38.41700
H  35.13600 60.97700 40.09900
H  36.54600 60.48100 41.19800
H  34.83700 60.30400 41.66600
H  31.04200 62.16300 39.84200
H  28.91700 61.98200 41.98200
H  32.24200 61.63400 42.40500
H  30.87100 62.75700 42.60500
H  32.30900 63.09400 41.42300
H  28.37200 61.90900 38.97400
H  29.21900 63.35300 39.45600
H  26.47600 63.16200 39.56200
H  27.53400 64.44300 40.08400
H  27.05900 63.35400 41.30300
H  24.19300 59.73500 39.77400
H  24.51800 59.64200 41.38100
H  23.45800 58.31200 40.64400
H  25.73200 54.35200 37.90500
H  23.97900 52.00300 41.03900
H  24.33900 50.70100 39.85700
H  22.86200 51.65300 39.75800
Mg 5.32000 55.12700 41.36600
C  4.77200 51.57900 40.79600
C  8.40800 54.85500 40.00300
C  5.48000 58.40900 41.54100
C  1.82200 55.13500 42.54900
N  6.40200 53.36000 40.44600
C  5.95500 52.10100 40.25400
C  7.11800 51.21200 39.64800
C  8.38100 52.17900 39.78000
C  7.71700 53.56200 40.07000
C  9.42500 51.83900 40.88300
C  6.84800 50.77100 38.18400
C  6.13900 51.77900 37.26500
H  6.88500 52.09700 35.92200
N  6.68400 56.42100 40.69800
C  7.93300 56.12400 40.29800
C  8.66500 57.37200 40.10200
C  7.88700 58.49700 40.56800
C  6.59100 57.81100 40.99700
C  10.13900 57.35700 39.60200
C  8.32700 59.88600 40.55200
O  9.44700 60.16500 40.16100
C  7.46900 61.01200 41.10700
N  3.71900 56.55400 41.80200
C  4.16200 57.86400 41.88100
C  3.05300 58.74700 42.20300
C  1.95400 57.72700 42.77300
C  2.44800 56.42300 42.25700
C  3.38800 59.79500 43.27200
C  0.63100 58.12900 42.09700
C  -0.53200 58.01600 42.98000
N  3.65900 53.65800 41.78500
C  2.35900 53.84700 42.29500
C  1.71500 52.58300 42.34100
C  2.62700 51.64900 41.87400
C  3.75000 52.37900 41.46400
C  0.35300 52.30200 42.86500
C  2.88500 50.25700 41.70800
O  2.22000 49.25100 41.92700
C  4.29100 50.13900 40.99500
C  4.13800 49.25200 39.77800
O  3.83500 49.60900 38.65100
O  4.46100 47.96600 40.09300
C  4.49300 47.00400 38.97300
H  9.49600 54.83500 39.91500
H  5.71100 59.45300 41.76000
H  0.77300 55.13800 42.85100
H  7.29600 50.29300 40.20700
H  8.91800 52.25800 38.83500
H  9.28700 50.80400 41.19800
H  9.35700 52.46300 41.77400
H  10.41500 51.95800 40.44200
H  6.53600 49.74000 38.35100
H  7.84300 50.65700 37.75200
H  6.00000 52.68500 37.85500
H  5.12100 51.40200 37.16600
H  10.35500 58.05800 38.79500
H  10.37200 56.48500 38.99000
H  10.84800 57.52100 40.41300
H  6.55700 61.17800 40.53400
H  7.88500 61.98300 40.83600
H  7.36300 60.94200 42.19000
H  2.77200 59.28100 41.29500
H  2.02700 57.69200 43.86000
H  4.24600 59.57600 43.90800
H  2.56500 59.93000 43.97500
H  3.47100 60.76000 42.77400
H  0.57100 57.64100 41.12400
H  0.68400 59.15500 41.73400
H  -0.36500 57.41200 43.87100
H  -1.32900 57.61200 42.35500
H  -0.73700 58.99800 43.40600
H  0.18300 53.04200 43.64600
H  0.23800 51.28100 43.22900
H  -0.25800 52.54800 41.99700
H  4.85300 49.59700 41.75500
H  5.33500 46.31400 39.01600
H  4.76000 47.35900 37.97800
H  3.66800 46.29300 38.99900

