158

Mg 48.26900 35.03900 26.72200
C  46.40000 34.00700 29.48600
C  49.08100 37.95500 28.49300
C  49.68600 36.06600 23.83700
C  46.90900 32.32100 24.95300
N  47.94500 35.80600 28.85100
C  47.11400 35.21300 29.80500
C  47.27300 35.97700 31.16400
C  47.88200 37.37200 30.65900
C  48.36900 37.05300 29.27700
C  46.85100 38.53500 30.61000
C  48.38600 35.16400 32.00700
C  48.10500 34.71400 33.40300
H  47.15200 35.59600 34.16500
N  49.28600 36.73300 26.24800
C  49.50200 37.84700 27.12200
C  50.43000 38.64700 26.49200
C  50.86200 37.96000 25.29700
C  49.90600 36.85800 25.07200
C  50.97600 39.96400 27.18600
C  51.99800 38.30500 24.23800
O  52.16700 37.58500 23.25700
C  52.88400 39.46500 24.41700
N  48.27700 34.40000 24.70300
C  48.86000 34.96200 23.57800
C  48.87100 34.13900 22.34400
C  48.15000 32.87800 22.83000
C  47.76800 33.20900 24.26800
C  48.38500 34.72300 21.05900
C  48.97500 31.56800 22.71600
C  48.44100 30.36100 21.90800
N  47.04100 33.39900 27.12500
C  46.53000 32.39700 26.24700
C  45.54200 31.63000 26.95700
C  45.47100 32.23500 28.23500
C  46.46200 33.26000 28.31500
C  45.04100 30.33300 26.53900
C  44.79500 32.13200 29.47600
O  43.90200 31.34400 29.85100
C  45.31800 33.29000 30.35100
C  45.83000 32.78400 31.58700
O  46.84800 32.17000 31.68500
O  44.99600 33.13600 32.54700
C  45.02100 32.38400 33.79800
H  49.17700 38.91000 29.01300
H  50.36200 36.05100 22.98000
H  46.55500 31.42100 24.44600
H  46.31200 36.15100 31.64800
H  48.74900 37.66900 31.24900
H  45.85200 38.12000 30.74200
H  46.85400 38.99200 29.62000
H  46.95500 39.35800 31.31800
H  49.30500 35.74900 31.97900
H  48.56300 34.25500 31.43100
H  49.01900 34.73500 33.99600
H  47.76100 33.68100 33.44800
H  50.59500 40.20600 28.17800
H  50.54000 40.71200 26.52400
H  52.06600 39.98400 27.20400
H  52.33700 40.40500 24.34800
H  53.76500 39.44700 23.77600
H  53.32300 39.35700 25.40900
H  49.93400 33.95600 22.18500
H  47.18100 32.72100 22.35600
H  47.64700 33.99900 20.71300
H  49.16100 34.64400 20.29700
H  47.96500 35.72200 21.17600
H  49.18200 31.01100 23.63000
H  49.97200 31.84200 22.37100
H  49.29400 29.90200 21.40900
H  47.64700 30.62200 21.20800
H  48.12800 29.48900 22.48100
H  44.67300 30.36000 25.51400
H  44.11300 30.11200 27.06700
H  45.70100 29.46800 26.60800
H  44.63100 34.09300 30.61700
H  44.39000 31.49600 33.82200
H  44.54100 32.91300 34.62200
H  46.01700 32.05400 34.09000
Mg -0.67200 33.91000 27.22500
C  -2.56900 32.17600 29.68700
C  0.78400 35.69300 29.67700
C  0.78500 35.64100 24.76300
C  -2.69400 32.19800 24.77000
N  -1.03600 34.03900 29.36400
C  -1.68800 33.17200 30.18500
C  -1.44500 33.37700 31.64300
C  -0.39600 34.57800 31.64500
C  -0.21600 34.82600 30.10000
C  -0.81500 35.90600 32.34500
C  -0.92800 32.14300 32.39000
C  -1.97400 31.53000 33.42100
H  -1.28200 31.13900 34.73600
N  0.55500 35.46600 27.15900
C  1.07700 36.10600 28.28700
C  1.98400 37.20000 27.93500
C  1.86900 37.23800 26.50400
C  1.06300 36.02600 26.11100
C  2.72800 38.00800 29.02900
C  2.45900 38.23800 25.55100
O  2.35500 38.27900 24.29300
C  3.30400 39.27800 26.17300
N  -0.91300 33.87100 25.02500
C  -0.07300 34.64500 24.26900
C  -0.15300 34.23600 22.77900
C  -1.45700 33.27400 22.75200
C  -1.74700 33.06900 24.28500
C  -0.18900 35.45500 21.75800
C  -1.17300 31.90600 21.97900
C  -0.14600 30.92200 22.53500
N  -2.26900 32.48200 27.18100
C  -2.98900 31.85300 26.11700
C  -3.84600 30.90400 26.69000
C  -3.79600 31.06100 28.10000
C  -2.75900 31.96800 28.32900
C  -4.75800 30.03200 25.95400
C  -4.33700 30.54000 29.33300
O  -5.28200 29.77000 29.45600
C  -3.57600 31.26800 30.43400
C  -4.50000 31.99500 31.36600
O  -5.12500 33.02000 31.10600
O  -4.87900 31.09300 32.29200
C  -5.77900 31.60000 33.32100
H  1.35200 36.08400 30.52400
H  1.28800 36.26600 24.02200
H  -3.13500 31.65800 23.93000
H  -2.39700 33.68300 32.07600
H  0.53000 34.27600 32.13600
H  -1.77200 35.80800 32.85800
H  -0.89200 36.71500 31.61800
H  0.04600 36.13700 32.97200
H  0.02200 32.41100 32.85200
H  -0.75000 31.33900 31.67600
H  -2.46600 30.63400 33.04200
H  -2.78400 32.22700 33.63500
H  2.99200 37.37300 29.87400
H  2.11400 38.85900 29.32500
H  3.67700 38.39200 28.65500
H  2.83900 39.86900 26.96200
H  3.61000 39.93000 25.35400
H  4.19700 38.80600 26.58400
H  0.62000 33.58200 22.37600
H  -2.32400 33.80100 22.35200
H  0.78800 35.47400 21.27500
H  -0.52800 36.37400 22.23500
H  -0.97000 35.21700 21.03500
H  -0.68900 32.22300 21.05500
H  -2.09700 31.34900 21.82300
H  0.11800 31.23200 23.54600
H  0.78400 31.01200 21.97300
H  -0.68400 29.97400 22.50200
H  -4.67600 29.01600 26.33900
H  -4.61500 30.07300 24.87400
H  -5.77100 30.38600 26.14500
H  -3.06500 30.44600 30.93600
H  -6.67100 31.81200 32.73100
H  -5.24700 32.45600 33.73600
H  -5.96900 30.88800 34.12400

