158

Mg 48.42100 35.31500 27.42800
C  46.49700 33.81800 30.06600
C  48.59300 38.16000 29.22200
C  49.70400 36.77100 24.65000
C  47.53400 32.44100 25.49000
N  47.70700 35.87000 29.35800
C  47.07800 35.07400 30.28500
C  47.23800 35.69300 31.69600
C  47.33400 37.23200 31.34000
C  47.90300 37.11100 29.90300
C  46.04700 38.09800 31.55400
C  48.52900 35.07700 32.36900
C  48.53200 35.07700 33.85700
H  47.69600 36.07200 34.57000
N  49.22900 37.14500 27.05800
C  49.29800 38.15400 27.98600
C  50.04400 39.29700 27.39900
C  50.26300 38.94600 26.05600
C  49.69700 37.61500 25.85100
C  50.35700 40.59400 28.13300
C  50.87800 39.81000 24.94800
O  51.07800 39.31000 23.87700
C  51.40700 41.16600 25.16400
N  48.42000 34.74100 25.32400
C  49.07300 35.50700 24.42000
C  49.10900 34.83700 22.98600
C  48.70400 33.36100 23.36700
C  48.14300 33.50800 24.79500
C  48.02400 35.42900 21.98800
C  49.95400 32.41100 23.35400
C  49.74000 31.00000 22.71100
N  47.27900 33.44800 27.65500
C  47.08000 32.36500 26.82500
C  46.26000 31.36000 27.54500
C  46.06500 31.86100 28.82900
C  46.66200 33.15500 28.84500
C  45.81000 30.05200 27.05300
C  45.37800 31.65400 30.06200
O  44.74100 30.68300 30.48400
C  45.52800 33.00100 30.88100
C  45.85300 32.67200 32.31200
O  46.90800 32.16300 32.71600
O  44.79800 33.07300 33.12800
C  45.15100 32.94900 34.55900
H  48.69400 39.05600 29.83900
H  50.12100 37.28100 23.78000
H  47.38100 31.58200 24.83300
H  46.35200 35.43200 32.27500
H  48.07100 37.66000 32.02000
H  45.19700 37.58900 32.00900
H  45.70600 38.62800 30.66400
H  46.15800 38.96500 32.20500
H  49.29600 35.69500 31.90100
H  48.49800 34.06900 31.95700
H  49.58000 35.32300 34.02700
H  48.46500 34.04100 34.19000
H  50.20200 41.43000 27.45100
H  51.43300 40.67200 28.29200
H  49.69900 40.67500 28.99900
H  52.07800 41.40200 24.33900
H  51.92200 41.19400 26.12400
H  50.70600 42.00000 25.19100
H  50.12600 34.76800 22.60000
H  47.89100 32.84600 22.85400
H  47.47600 36.23900 22.47100
H  47.24800 34.69400 21.77700
H  48.45000 35.79200 21.05300
H  50.32300 32.34000 24.37700
H  50.78300 32.74800 22.73000
H  50.43500 30.94800 21.87200
H  48.80100 30.69700 22.24700
H  50.06500 30.27200 23.45400
H  46.08000 29.29000 27.78400
H  46.28400 29.73600 26.12300
H  44.74300 30.14500 26.85100
H  44.58000 33.53600 30.94800
H  45.35800 31.91000 34.81400
H  44.31100 33.23800 35.19000
H  45.98000 33.64800 34.67500
Mg 26.85400 50.18200 26.32200
C  24.83800 51.37400 28.94400
C  29.38300 49.95500 28.71500
C  28.99100 49.41400 23.97100
C  24.38000 51.09100 24.08100
N  27.05100 50.53300 28.55800
C  26.07600 50.97900 29.41700
C  26.51200 50.87200 30.86500
C  28.07900 50.89000 30.66400
C  28.22700 50.50000 29.18200
C  28.63000 52.27800 30.95100
C  25.78400 49.66000 31.61700
C  24.92500 50.12600 32.81200
H  24.99300 49.18500 34.01900
N  28.87700 49.67600 26.37800
C  29.68800 49.55700 27.45400
C  30.97500 49.08200 26.93600
C  31.01500 49.00600 25.60500
C  29.60300 49.34200 25.23700
C  32.12100 48.86400 27.83900
C  32.18500 48.77300 24.70000
O  32.06900 48.73500 23.45900
C  33.58200 48.47500 25.15900
N  26.68400 50.30500 24.28000
C  27.69000 49.82300 23.53300
C  27.32200 49.80100 22.05400
C  25.85100 50.20300 22.11000
C  25.58900 50.53600 23.55800
C  28.25900 50.66100 21.10600
C  24.87600 49.09000 21.58800
C  23.56400 49.55000 20.91100
N  25.01200 51.15500 26.39800
C  24.12300 51.44800 25.42200
C  22.89300 51.94800 26.02800
C  23.14300 52.05200 27.41700
C  24.48200 51.49600 27.58100
C  21.62800 52.32200 25.31900
C  22.55100 52.32000 28.71600
O  21.39100 52.57300 29.07700
C  23.62700 51.89500 29.75500
C  23.89800 52.98400 30.67500
O  24.61900 53.96200 30.39900
O  23.17000 52.81600 31.80000
C  23.19100 54.00200 32.67400
H  30.05900 49.76600 29.55200
H  29.61200 48.95700 23.19800
H  23.63200 51.49100 23.39400
H  26.17000 51.79000 31.34200
H  28.57100 50.15700 31.30300
H  29.33400 52.37100 31.77800
H  27.83600 53.01300 31.08600
H  29.33700 52.45800 30.14100
H  26.58200 48.96700 31.88400
H  25.12500 49.12700 30.93200
H  23.91900 50.15400 32.39200
H  25.18100 51.16200 33.03500
H  31.72100 48.80400 28.85200
H  32.80000 49.71700 27.83800
H  32.54000 47.88100 27.62500
H  33.90300 49.37700 25.68000
H  34.26700 48.22300 24.35000
H  33.62500 47.53500 25.70800
H  27.29700 48.75600 21.74400
H  25.78600 51.07900 21.46500
H  28.46300 51.57600 21.66200
H  27.66700 50.86500 20.21300
H  29.11700 50.05300 20.81700
H  24.61700 48.40800 22.39800
H  25.33400 48.50600 20.78900
H  23.46600 49.01500 19.96600
H  23.54200 50.63000 20.77000
H  22.75900 49.42500 21.63600
H  20.74300 52.19200 25.94200
H  21.59300 51.94500 24.29700
H  21.62700 53.40000 25.16200
H  23.20100 51.03300 30.26900
H  23.40500 54.94800 32.17600
H  24.04100 53.94000 33.35300
H  22.46600 54.05500 33.48600

