158

Mg -1.44500 17.64800 27.59600
C  -2.14700 15.30300 30.12300
C  -2.32600 20.11700 29.65300
C  -0.99700 19.80300 25.03400
C  -0.98000 15.01800 25.22800
N  -2.10800 17.60600 29.66900
C  -2.13000 16.60600 30.57800
C  -2.22100 17.16200 32.05800
C  -2.42700 18.71800 31.83600
C  -2.34300 18.84700 30.28300
C  -3.73800 19.35600 32.47300
C  -1.10700 16.57700 33.02900
C  -0.55300 17.44400 34.17900
H  0.16800 16.75700 35.30600
N  -1.56200 19.68400 27.42700
C  -1.95000 20.58200 28.37200
C  -1.76100 22.00300 27.91300
C  -1.35300 21.89500 26.55200
C  -1.25800 20.44000 26.28100
C  -1.88800 23.22300 28.84600
C  -1.01200 23.05300 25.66000
O  -0.54700 22.92700 24.55300
C  -1.33800 24.41200 26.07700
N  -0.87400 17.42800 25.41600
C  -0.82700 18.47700 24.61600
C  -0.70700 18.05700 23.11800
C  -0.57100 16.50100 23.24400
C  -0.79700 16.25100 24.76700
C  -1.98100 18.56000 22.40600
C  0.86800 15.93000 22.80800
C  2.08400 16.39200 23.68400
N  -1.62500 15.62600 27.61000
C  -1.38700 14.72100 26.58700
C  -1.55500 13.40000 27.15900
C  -1.85500 13.54600 28.54100
C  -1.88100 14.95000 28.78400
C  -1.32600 12.17600 26.37800
C  -2.14100 12.82500 29.73800
O  -2.22100 11.61300 29.96100
C  -2.26500 13.97800 30.87500
C  -1.11600 13.68000 31.78800
O  0.04600 14.01200 31.71500
O  -1.60400 12.83900 32.81200
C  -0.67700 12.46200 33.84400
H  -2.50900 20.91000 30.38200
H  -0.83800 20.44600 24.16600
H  -0.87900 14.14800 24.57500
H  -3.16700 16.85200 32.50100
H  -1.49300 19.11700 32.23100
H  -3.43700 20.21500 33.07300
H  -4.22600 18.62400 33.11600
H  -4.40500 19.72500 31.69400
H  -0.19900 16.41200 32.44900
H  -1.54000 15.66700 33.44500
H  -1.23900 18.18700 34.58600
H  0.33000 17.87700 33.71000
H  -0.95700 23.77300 28.71200
H  -1.97000 22.88900 29.88100
H  -2.69100 23.89300 28.53800
H  -2.33100 24.52600 26.51200
H  -1.19700 25.21200 25.35000
H  -0.61400 24.72300 26.82900
H  0.18000 18.54200 22.71100
H  -1.33100 15.98700 22.65700
H  -1.79900 19.20700 21.54800
H  -2.69700 19.06300 23.05700
H  -2.48600 17.77800 21.83800
H  1.04500 16.37900 21.83100
H  0.80700 14.86600 22.57800
H  1.75600 17.07800 24.46400
H  2.75000 17.02700 23.10000
H  2.62500 15.60500 24.20800
H  -2.05700 11.94300 25.60400
H  -1.18900 11.26900 26.96700
H  -0.37700 12.24200 25.84600
H  -3.24000 13.91800 31.35800
H  -0.37500 13.32900 34.43200
H  0.29200 12.12400 33.47700
H  -1.03500 11.60300 34.41100
Mg 9.82700 48.57200 24.98000
C  7.81800 48.79600 27.85100
C  12.45500 49.76100 26.81000
C  11.64700 48.01800 22.39100
C  6.82200 48.14100 23.14700
N  10.02300 49.12700 27.04700
C  9.15000 49.03500 28.09300
C  9.76700 49.54700 29.37400
C  11.03100 50.35800 28.88400
C  11.20200 49.80800 27.48700
C  10.85300 51.89700 28.87600
C  10.12500 48.35200 30.41300
C  9.56600 48.41500 31.84400
H  9.59100 47.26500 32.84300
N  11.79700 48.92700 24.65300
C  12.72000 49.33700 25.51600
C  14.04800 49.27000 24.86100
C  13.86800 48.69600 23.61900
C  12.37200 48.51500 23.49200
C  15.29500 49.70900 25.65000
C  14.84800 48.29600 22.54300
O  14.54000 47.85200 21.46600
C  16.34000 48.54000 22.67900
N  9.27100 48.13600 23.05000
C  10.24700 47.88800 22.15300
C  9.57300 47.63500 20.69700
C  8.03200 47.52000 21.03500
C  8.00700 47.88700 22.48200
C  9.85600 48.73100 19.60900
C  7.31600 46.14700 20.78100
C  7.74900 44.96700 21.61900
N  7.66200 48.58700 25.37600
C  6.61400 48.38600 24.54100
C  5.44300 48.29300 25.36100
C  5.83600 48.49600 26.66600
C  7.21200 48.59600 26.59400
C  4.01200 47.97500 24.86600
C  5.42000 48.63700 28.01800
O  4.30200 48.69100 28.54500
C  6.71200 48.81700 28.87100
C  6.86800 47.59400 29.75500
O  7.43000 46.60300 29.49100
O  6.19500 47.84600 30.93200
C  6.16500 46.80700 31.85200
H  13.25800 50.18300 27.41900
H  12.14700 47.88000 21.43000
H  5.93600 47.94400 22.54000
H  9.14500 50.24200 29.93900
H  11.92800 50.02200 29.40300
H  10.02600 52.10100 29.55500
H  10.52600 52.23200 27.89200
H  11.74500 52.45000 29.17200
H  11.21300 48.30100 30.41800
H  9.98300 47.35600 29.99300
H  8.55200 48.80700 31.91000
H  10.21200 49.20600 32.22500
H  15.47700 49.08600 26.52600
H  15.04100 50.69600 26.03700
H  16.22400 49.79500 25.08700
H  16.56300 49.59000 22.86800
H  16.83800 48.20800 21.76800
H  16.74200 47.92600 23.48500
H  9.92800 46.63700 20.43800
H  7.54900 48.40400 20.62000
H  8.96700 49.00400 19.04100
H  10.63100 48.40300 18.91600
H  10.07800 49.68800 20.08000
H  7.59200 45.85500 19.76800
H  6.25900 46.40300 20.84500
H  6.86200 44.49800 22.04400
H  8.37800 45.30800 22.44100
H  8.36700 44.28200 21.03800
H  3.53500 47.29300 25.57000
H  4.00800 47.35400 23.97000
H  3.42500 48.89200 24.81800
H  6.70800 49.63500 29.59200
H  6.59800 47.04600 32.82400
H  6.69200 45.92100 31.49600
H  5.13900 46.54400 32.10900

