158

Mg 16.41100 -2.19700 27.96200
C  15.57500 -0.27800 30.71100
C  18.46000 -4.07700 29.93800
C  17.56200 -3.74400 25.24600
C  14.42800 -0.13800 26.01700
N  16.96600 -2.20500 30.08000
C  16.60400 -1.19300 30.96800
C  17.18300 -1.54400 32.33600
C  18.32500 -2.61300 31.98800
C  17.84200 -3.04800 30.62200
C  19.80900 -2.06900 32.18800
C  16.14800 -2.17000 33.33100
C  16.42800 -1.93500 34.82300
H  17.50500 -1.00000 35.31100
N  17.75800 -3.84100 27.62800
C  18.49100 -4.46500 28.53500
C  19.29700 -5.48200 27.91400
C  18.84500 -5.53200 26.50200
C  18.06900 -4.34500 26.40600
C  20.34500 -6.34500 28.72600
C  19.29800 -6.46000 25.32900
O  18.87500 -6.27200 24.21200
C  20.29900 -7.54400 25.61900
N  16.12200 -1.85400 25.90400
C  16.79700 -2.61600 25.00800
C  16.39300 -2.13800 23.61300
C  15.37900 -0.96000 23.83000
C  15.31200 -0.90300 25.29000
C  17.78600 -1.68600 22.92100
C  14.04900 -1.25500 23.07300
C  13.72100 -0.45700 21.81600
N  15.19600 -0.55000 28.20400
C  14.30900 0.10400 27.35000
C  13.59700 1.14800 28.06100
C  14.02900 1.01400 29.37000
C  15.01500 0.00400 29.40500
C  12.58600 2.12700 27.53800
C  13.91700 1.49200 30.69900
O  13.13200 2.35500 31.10800
C  14.81600 0.63300 31.64200
C  15.66700 1.57000 32.29300
O  16.70700 2.02900 31.88500
O  14.98200 2.02900 33.42100
C  15.57100 3.23700 33.99000
H  19.12500 -4.62100 30.61200
H  18.03400 -4.17000 24.35900
H  13.65200 0.38900 25.45700
H  17.51800 -0.60200 32.76900
H  18.20500 -3.44900 32.67700
H  20.19800 -1.98100 31.17400
H  20.44500 -2.70000 32.80900
H  19.81600 -1.10600 32.69900
H  16.16000 -3.25200 33.19900
H  15.13200 -1.95300 33.00200
H  16.49800 -2.93700 35.24700
H  15.53800 -1.41000 35.17000
H  19.98100 -7.35500 28.91300
H  20.65900 -5.87900 29.66100
H  21.26600 -6.45600 28.15400
H  20.17800 -8.06500 26.56800
H  21.31000 -7.13700 25.66400
H  20.30800 -8.27000 24.80600
H  15.99800 -3.01000 23.09000
H  15.85100 -0.02200 23.53700
H  18.53800 -1.62700 23.70700
H  17.76700 -0.63000 22.65200
H  18.27100 -2.23200 22.11200
H  13.34800 -1.16000 23.90200
H  14.01000 -2.32100 22.85100
H  12.81900 0.07800 22.11300
H  13.76300 -1.05600 20.90700
H  14.57400 0.20300 21.65900
H  12.12900 2.63400 28.38800
H  11.83700 1.63600 26.91800
H  13.04200 2.79600 26.80800
H  14.08300 0.17300 32.30600
H  15.28200 4.05300 33.32800
H  16.65800 3.14900 34.00100
H  15.24600 3.38500 35.02000
Mg -11.37400 38.39000 41.96700
C  -9.17700 35.69400 41.25400
C  -9.07100 40.49000 40.28000
C  -13.60600 40.77500 42.24500
C  -13.58000 36.07500 43.37000
N  -9.46900 38.08100 40.69900
C  -8.79500 36.89100 40.56700
C  -7.56600 37.05300 39.63900
C  -7.49600 38.60100 39.36900
C  -8.66600 39.12900 40.23000
C  -6.14900 39.28900 39.52500
C  -7.73800 36.14800 38.33400
C  -6.53600 35.29600 38.02700
H  -5.41200 35.91400 37.11000
N  -11.33500 40.42400 41.41700
C  -10.32900 41.07300 40.72800
C  -10.70700 42.46000 40.63900
C  -11.95300 42.62800 41.27600
C  -12.35400 41.24900 41.68300
C  -9.77300 43.51900 40.18100
C  -12.67800 43.90200 41.47000
O  -12.09200 44.88600 41.06200
C  -14.12400 44.06200 42.14200
N  -13.38200 38.33000 42.57100
C  -14.04800 39.54100 42.67600
C  -15.47400 39.38200 43.24100
C  -15.40900 37.90000 43.67200
C  -14.06700 37.35900 43.11900
C  -15.93900 40.46300 44.37000
C  -16.69400 37.13700 43.33500
C  -17.21800 36.21400 44.43700
N  -11.44000 36.28200 42.25600
C  -12.33800 35.51900 42.98300
C  -11.82200 34.17300 43.24500
C  -10.55300 34.28800 42.58300
C  -10.38600 35.50900 41.91700
C  -12.49300 33.12200 44.12500
C  -9.34600 33.45900 42.36800
O  -9.06900 32.28400 42.53900
C  -8.40600 34.41500 41.39500
C  -7.01700 34.67300 41.88800
O  -6.02100 34.12800 41.44000
O  -6.98500 35.70400 42.79100
C  -5.71000 36.08300 43.30200
H  -8.39600 41.18100 39.77100
H  -14.38700 41.53900 42.26100
H  -14.35200 35.50000 43.88500
H  -6.64600 36.78700 40.16000
H  -7.66500 38.79300 38.31000
H  -6.31700 40.05800 40.27800
H  -5.83000 39.71900 38.57500
H  -5.39000 38.59200 39.88000
H  -7.86900 36.88800 37.54500
H  -8.58100 35.45900 38.38300
H  -6.88300 34.33500 37.64700
H  -5.95100 35.09600 38.92400
H  -9.76600 43.72300 39.11100
H  -8.79100 43.13500 40.45900
H  -9.77800 44.43200 40.77600
H  -14.20400 43.60000 43.12600
H  -14.85500 43.61700 41.46700
H  -14.31700 45.13300 42.20600
H  -16.14100 39.54500 42.39400
H  -15.40100 37.91000 44.76200
H  -15.32500 41.36200 44.33200
H  -15.77200 39.92100 45.30000
H  -16.98200 40.77700 44.43100
H  -16.58800 36.51300 42.44800
H  -17.45100 37.86800 43.05200
H  -18.18700 36.59700 44.75600
H  -16.43000 35.95600 45.14500
H  -17.52400 35.26300 44.00200
H  -12.97500 32.40800 43.45800
H  -13.24600 33.43700 44.84700
H  -11.73700 32.45200 44.53400
H  -8.32100 33.95400 40.41100
H  -5.44500 37.10100 43.01700
H  -4.85600 35.49200 42.97300
H  -5.81400 36.01800 44.38600

