158

Mg 9.86700 48.61800 25.69600
C  7.94300 48.36100 28.70400
C  12.53900 49.61000 27.75400
C  11.61600 49.10100 22.96300
C  7.07100 47.79700 23.98600
N  10.07600 49.18200 27.92100
C  9.22300 48.91600 28.91600
C  9.80300 49.25800 30.31500
C  11.09100 49.98600 29.84400
C  11.29500 49.56000 28.40400
C  11.17500 51.54400 30.03800
C  10.03500 48.16000 31.41000
C  9.36900 48.28400 32.81100
H  10.03100 49.08200 33.99900
N  11.82000 49.13200 25.35200
C  12.81500 49.45700 26.35100
C  14.03000 49.50300 25.70900
C  13.76900 49.54700 24.30500
C  12.30900 49.29600 24.13500
C  15.35600 49.72900 26.38100
C  14.80900 49.49900 23.08600
O  14.37800 49.48800 21.91600
C  16.29900 49.48400 23.27300
N  9.32900 48.67300 23.71700
C  10.26100 48.83900 22.75800
C  9.64900 48.74200 21.35100
C  8.32600 48.06200 21.72600
C  8.21400 48.10000 23.21600
C  9.49400 50.05400 20.56400
C  8.17400 46.60800 21.08000
C  8.82100 45.46600 21.87800
N  7.80300 48.30300 26.15800
C  6.77600 47.98800 25.32800
C  5.61100 47.65200 26.16000
C  6.03200 47.89200 27.49700
C  7.34800 48.20100 27.44500
C  4.35900 47.08700 25.75800
C  5.61800 47.82000 28.83000
O  4.51300 47.49700 29.27200
C  6.86700 48.04100 29.73100
C  7.04400 46.79100 30.54200
O  7.68400 45.81000 30.12100
O  6.50300 46.96800 31.83400
C  6.51600 45.86800 32.77800
H  13.39300 49.83900 28.39600
H  12.16100 49.23400 22.02600
H  6.27500 47.36400 23.37700
H  9.13100 50.03500 30.67800
H  11.86300 49.64900 30.53600
H  11.52400 51.86000 29.05500
H  12.05200 51.73700 30.65600
H  10.30800 52.08400 30.41900
H  11.10200 48.08200 31.61900
H  9.64400 47.24200 30.96900
H  9.02800 47.29700 33.12400
H  8.49500 48.92800 32.71000
H  16.10200 48.93900 26.28800
H  15.25500 49.91800 27.44900
H  15.75500 50.65400 25.96500
H  16.70800 50.40400 23.69200
H  16.71100 49.45400 22.26400
H  16.47100 48.56900 23.84000
H  10.27000 48.15000 20.67900
H  7.47500 48.51600 21.21900
H  9.89200 50.93400 21.07100
H  8.43100 50.25300 20.43100
H  9.93700 49.92100 19.57700
H  8.54900 46.49300 20.06300
H  7.09500 46.45500 21.09400
H  7.98300 44.96900 22.36600
H  9.50700 45.89600 22.60700
H  9.43100 44.83900 21.22600
H  4.65600 46.21200 25.18000
H  3.85900 47.82500 25.13200
H  3.64200 46.83100 26.53800
H  6.71600 48.90500 30.37800
H  6.29500 44.84400 32.47800
H  5.79700 46.18800 33.53200
H  7.47500 45.81300 33.29400
Mg -11.33700 38.29500 41.98300
C  -8.88400 35.70400 41.61000
C  -9.29600 40.15000 39.88200
C  -13.89500 40.44100 41.58400
C  -13.41400 35.90900 43.35400
N  -9.30700 37.91200 40.77000
C  -8.44900 36.90900 41.00300
C  -7.12200 37.17100 40.30200
C  -7.23000 38.64400 39.78900
C  -8.69600 38.96000 40.18700
C  -6.31400 39.67700 40.38200
C  -6.76400 36.15100 39.12400
C  -5.29500 35.80800 38.82600
H  -4.50200 36.28200 37.57500
N  -11.52700 40.08900 41.01100
C  -10.56900 40.71600 40.22600
C  -11.06400 42.01700 39.99100
C  -12.35600 42.17300 40.51400
C  -12.67400 40.85200 41.04900
C  -10.31600 43.10900 39.21300
C  -13.24500 43.48500 40.49700
O  -12.81600 44.52400 40.06000
C  -14.66800 43.60600 41.08300
N  -13.37500 38.19300 42.25600
C  -14.25400 39.21400 42.16600
C  -15.65500 38.86000 42.61600
C  -15.55700 37.31200 42.89700
C  -13.99500 37.10900 42.84400
C  -16.16200 39.65200 43.88100
C  -16.34900 36.38300 42.00500
C  -17.74900 35.96100 42.53500
N  -11.20600 36.23500 42.51200
C  -12.10200 35.46600 43.14800
C  -11.50300 34.13500 43.38300
C  -10.21300 34.21200 42.77900
C  -10.09100 35.52100 42.23700
C  -12.18300 33.10400 44.18800
C  -8.99200 33.47200 42.59300
O  -8.64300 32.32600 42.97900
C  -8.09800 34.42100 41.75300
C  -6.77400 34.56500 42.36900
O  -5.95400 33.63000 42.36000
O  -6.66200 35.62400 43.15000
C  -5.45700 35.71600 43.97300
H  -8.80000 40.87800 39.23600
H  -14.76600 41.09700 41.54100
H  -14.14700 35.26400 43.84400
H  -6.44400 37.16600 41.15600
H  -7.13500 38.78700 38.71300
H  -5.56900 39.81700 39.59800
H  -5.76800 39.29400 41.24400
H  -6.72700 40.68400 40.42900
H  -7.01400 36.66400 38.19500
H  -7.50800 35.35600 39.08100
H  -5.23300 34.72500 38.93300
H  -4.81200 36.23200 39.70600
H  -9.55400 42.72000 38.53800
H  -9.78400 43.86300 39.79300
H  -11.01800 43.66000 38.58600
H  -14.69800 43.08200 42.03800
H  -15.16500 42.94400 40.37400
H  -15.11400 44.59300 40.95600
H  -16.37100 39.10600 41.83200
H  -15.93400 37.01200 43.87500
H  -16.84900 40.47900 43.70200
H  -15.26700 40.00500 44.39300
H  -16.58000 38.97900 44.62900
H  -15.71400 35.55300 41.69600
H  -16.59600 36.92000 41.08900
H  -18.33900 36.87200 42.43200
H  -17.84200 35.58700 43.55400
H  -18.04800 35.10200 41.93400
H  -12.32500 32.17400 43.63800
H  -13.12400 33.48300 44.58800
H  -11.71200 32.83700 45.13300
H  -7.95200 33.98500 40.76500
H  -4.71200 35.08100 43.49400
H  -5.67900 35.30600 44.95800
H  -5.25100 36.78100 44.07300

