158

Mg 25.82800 1.03900 28.76600
C  27.73100 0.61700 31.79200
C  22.98100 1.22900 30.84000
C  24.04500 1.09300 26.08100
C  28.65800 0.18000 27.04500
N  25.43800 1.01100 31.14300
C  26.34100 0.93900 32.11600
C  25.72600 1.10100 33.47800
C  24.20500 1.15200 33.16600
C  24.16000 1.15400 31.66200
C  23.31200 -0.00300 33.66400
C  26.38100 2.29500 34.28300
C  27.13300 2.09700 35.67500
H  26.92100 3.12600 36.87400
N  23.78800 1.12700 28.48600
C  22.82300 1.20600 29.44800
C  21.48200 1.19300 28.81000
C  21.78800 1.15500 27.41700
C  23.20800 1.16400 27.28800
C  20.19300 0.93400 29.47600
C  20.85600 1.06500 26.19400
O  21.26100 1.14200 25.02200
C  19.35700 0.95000 26.41100
N  26.29100 0.55300 26.83800
C  25.40300 0.87500 25.86300
C  26.11200 1.01000 24.50400
C  27.52600 0.51800 24.81100
C  27.47800 0.38000 26.31700
C  25.44300 0.21000 23.34400
C  28.68900 1.31000 24.16500
C  29.24200 0.72300 22.83800
N  27.77200 0.47500 29.30000
C  28.82800 0.16200 28.40200
C  30.02200 0.01200 29.16100
C  29.66200 0.14400 30.50100
C  28.25900 0.40700 30.51800
C  31.43200 -0.27600 28.62200
C  30.13200 0.11300 31.85900
O  31.25600 -0.16900 32.23500
C  28.90100 0.35100 32.78400
C  28.58500 -0.80600 33.68200
O  27.79500 -1.68400 33.43700
O  29.28300 -0.57400 34.84600
C  28.74800 -1.41100 35.93700
H  22.12100 1.39900 31.49200
H  23.45400 1.36000 25.20200
H  29.63500 0.08200 26.56600
H  25.86400 0.15400 34.00100
H  23.83700 2.15000 33.40300
H  22.55500 0.50100 34.26500
H  23.89100 -0.73900 34.22300
H  22.77400 -0.58000 32.91200
H  25.66900 3.07300 34.55600
H  27.03300 2.83600 33.59700
H  28.19100 2.29100 35.50000
H  26.91300 1.09300 36.03900
H  19.70800 0.03000 29.10800
H  19.59800 1.84500 29.41200
H  20.36600 0.72700 30.53200
H  18.73600 1.28700 25.58100
H  19.09900 1.59900 27.24700
H  19.06400 -0.09700 26.48800
H  26.07000 2.07100 24.26000
H  27.73700 -0.45500 24.36700
H  25.25500 1.03700 22.66000
H  24.42200 -0.14700 23.48200
H  26.16300 -0.51100 22.95700
H  29.57300 1.38200 24.79900
H  28.27800 2.28200 23.89100
H  29.08700 1.49900 22.08900
H  28.75300 -0.18600 22.48800
H  30.30100 0.52500 23.00500
H  31.55200 0.20200 27.65000
H  31.58800 -1.35300 28.55100
H  32.13500 0.25100 29.26800
H  29.09700 1.26600 33.34200
H  28.91100 -2.44600 35.63300
H  27.69800 -1.22900 36.16500
H  29.42300 -1.40500 36.79300
Mg 36.16000 48.77400 25.95700
C  36.34300 47.22600 29.08100
C  34.67800 51.48300 27.58800
C  35.54200 50.07500 22.97400
C  37.03200 45.78000 24.49500
N  35.52700 49.25600 28.06700
C  35.86400 48.55100 29.13900
C  35.46700 49.32700 30.46200
C  34.67700 50.56300 29.94300
C  34.99600 50.44700 28.42700
C  33.19900 50.64100 30.31400
C  36.79700 49.73500 31.19600
C  37.09500 49.18500 32.57200
H  36.10800 49.53800 33.74500
N  35.32300 50.61300 25.33800
C  34.77200 51.59500 26.20800
C  34.32700 52.69100 25.37700
C  34.61300 52.32100 23.97100
C  35.08800 50.95600 24.03700
C  33.82700 54.06600 26.02800
C  34.41600 53.05700 22.67500
O  34.62200 52.56000 21.54000
C  33.87100 54.42200 22.69900
N  36.22900 48.00500 24.00600
C  36.06400 48.80200 22.99100
C  36.27300 48.03000 21.66200
C  36.81300 46.57900 22.15400
C  36.83300 46.82900 23.60200
C  34.97700 47.99700 20.80700
C  38.18500 46.33100 21.54700
C  38.22900 45.30200 20.42100
N  36.46600 46.83500 26.57800
C  36.82200 45.70900 25.92400
C  36.96200 44.57000 26.84000
C  36.85800 45.16500 28.10600
C  36.54300 46.51100 27.88500
C  37.26400 43.14700 26.49400
C  36.96700 44.85500 29.54500
O  37.24100 43.84900 30.10700
C  36.67400 46.24200 30.24400
C  35.55300 46.12200 31.17100
O  34.34400 46.16200 30.88400
O  36.00800 45.74100 32.45900
C  35.08800 45.39500 33.50200
H  34.05200 52.25300 28.04500
H  35.44000 50.49400 21.97000
H  37.19100 44.81400 24.01000
H  34.81800 48.69000 31.06400
H  35.07600 51.52600 30.26300
H  32.62300 50.65900 29.38900
H  33.08200 51.56300 30.88200
H  33.04200 49.74100 30.90900
H  36.77400 50.81000 31.37700
H  37.65200 49.59500 30.53500
H  38.09500 49.53900 32.82300
H  37.29600 48.11500 32.62100
H  34.61500 54.72500 26.39300
H  33.17400 53.89900 26.88400
H  33.29900 54.55900 25.21100
H  34.39200 55.23100 23.21200
H  32.85300 54.39600 23.09000
H  33.71900 54.64000 21.64100
H  37.00900 48.58300 21.07800
H  36.13200 45.75300 21.95300
H  34.90700 47.02300 20.32100
H  34.92200 48.81100 20.08500
H  34.08300 48.18600 21.40100
H  38.80700 45.79400 22.26300
H  38.71100 47.21000 21.17500
H  38.50400 45.75000 19.46600
H  37.25400 44.85700 20.21900
H  38.97500 44.54300 20.65700
H  38.20100 42.99400 27.02900
H  37.45900 43.01300 25.43000
H  36.60000 42.34100 26.80500
H  37.52500 46.60300 30.82000
H  35.34800 44.36900 33.76100
H  34.03100 45.52400 33.26900
H  35.10900 46.02400 34.39100

