158

Mg 25.90400 -0.34700 28.98500
C  27.83600 -0.30500 31.93600
C  23.12400 -0.07800 30.93400
C  24.09100 -0.33700 26.17700
C  28.72900 -1.39300 27.19800
N  25.56400 -0.37300 31.29400
C  26.46500 -0.07700 32.25900
C  25.88200 0.17800 33.68400
C  24.36900 0.16000 33.27000
C  24.34400 -0.10900 31.68800
C  23.47400 -0.96800 34.02500
C  26.48500 1.36900 34.42300
C  27.09200 1.24100 35.72700
H  26.78200 2.22800 36.86700
N  23.84900 -0.22800 28.62100
C  22.88100 -0.08900 29.55800
C  21.62800 0.11500 28.88000
C  21.86500 0.17700 27.48500
C  23.28200 -0.16800 27.36900
C  20.32700 0.16900 29.67800
C  20.98700 0.39300 26.27800
O  21.39600 0.41300 25.11200
C  19.52700 0.61500 26.48800
N  26.35900 -0.87700 26.92700
C  25.42900 -0.66400 25.91400
C  26.05900 -0.92700 24.58900
C  27.56200 -1.22600 24.96600
C  27.55400 -1.17600 26.43400
C  25.49000 -1.87900 23.53700
C  28.63700 -0.37600 24.16900
C  28.97900 1.01600 24.69400
N  27.90000 -0.79000 29.39500
C  28.91400 -1.22300 28.56700
C  30.19800 -1.26000 29.37500
C  29.77500 -0.87900 30.62200
C  28.41300 -0.67000 30.63600
C  31.58400 -1.58300 28.85100
C  30.31200 -0.65200 31.93000
O  31.46300 -0.82400 32.28700
C  29.05100 -0.30600 32.80200
C  28.83800 -1.35400 33.81300
O  28.32200 -2.45500 33.64000
O  29.41400 -0.93400 35.00400
C  29.31600 -1.77800 36.20700
H  22.34200 0.00400 31.69100
H  23.59500 -0.23000 25.21000
H  29.59200 -1.58700 26.55900
H  26.07900 -0.79200 34.13900
H  23.83400 1.10900 33.30000
H  23.98300 -1.32300 34.92200
H  23.40900 -1.80900 33.33600
H  22.43100 -0.73000 34.23600
H  25.78400 2.20300 34.44600
H  27.27700 1.83300 33.83500
H  28.17100 1.11900 35.63700
H  26.85400 0.23600 36.07500
H  20.58100 0.39600 30.71300
H  19.83800 -0.79100 29.50600
H  19.80700 1.01500 29.22800
H  19.05800 0.66500 25.50500
H  19.32100 1.48400 27.11300
H  19.21600 -0.33700 26.91800
H  26.18500 0.02900 24.08100
H  27.80500 -2.28200 24.84900
H  26.29400 -2.37500 22.99300
H  24.88900 -1.29900 22.83700
H  24.81000 -2.60100 23.98700
H  28.37400 -0.41200 23.11200
H  29.53000 -1.00100 24.18500
H  29.97300 0.99200 25.14300
H  28.27600 1.20100 25.50600
H  28.95300 1.81800 23.95700
H  32.26500 -1.00000 29.47000
H  31.69200 -1.39000 27.78400
H  31.70100 -2.63000 29.13200
H  29.07600 0.70900 33.19800
H  29.34300 -2.84400 35.98500
H  28.39200 -1.62300 36.76300
H  30.26800 -1.57600 36.69800
Mg 16.39900 52.45800 25.21800
C  18.09700 51.00100 27.98100
C  13.67100 52.94900 27.29700
C  14.55200 53.27800 22.54000
C  19.02600 51.21700 23.20600
N  15.96500 52.09000 27.33400
C  16.85900 51.53100 28.30400
C  16.24500 51.71200 29.77400
C  14.79900 52.23400 29.52300
C  14.80700 52.45300 27.96600
C  13.59000 51.33900 29.90200
C  17.14100 52.69400 30.66000
C  17.32800 52.27600 32.09600
H  16.25000 51.30600 32.61400
N  14.36600 53.12600 24.95600
C  13.39400 53.21800 25.95000
C  12.18600 53.81800 25.26300
C  12.44800 53.83900 23.85400
C  13.82800 53.40800 23.74500
C  10.94200 54.12500 26.01900
C  11.53400 54.29900 22.71900
O  11.87000 54.33700 21.55900
C  10.13400 54.79300 22.97500
N  16.70400 52.17400 23.24100
C  15.82800 52.67000 22.33200
C  16.37400 52.76600 20.95800
C  17.79100 52.06200 21.03600
C  17.90500 51.85800 22.58100
C  15.49900 52.39100 19.71700
C  18.98200 52.89500 20.34900
C  19.86300 52.12100 19.37200
N  18.19800 51.37100 25.45200
C  19.16700 50.92400 24.57900
C  20.15400 50.15000 25.21800
C  19.75900 50.14300 26.55900
C  18.57100 50.87300 26.65400
C  21.28200 49.29300 24.57400
C  20.11700 49.70400 27.89400
O  21.04000 49.02300 28.36600
C  19.11500 50.32100 28.81200
C  18.45000 49.16800 29.58700
O  17.50200 48.45200 29.17500
O  18.99400 49.05500 30.90200
C  18.65400 47.93600 31.69600
H  12.79200 53.20000 27.89400
H  14.06600 53.64000 21.63200
H  19.89800 50.96000 22.60100
H  16.26100 50.72300 30.23200
H  14.60500 53.22000 29.94700
H  13.96300 50.37300 30.24200
H  12.95700 51.23800 29.02000
H  13.03300 51.77500 30.73200
H  16.62300 53.64300 30.79300
H  18.07100 52.84000 30.11000
H  17.38800 53.17000 32.71800
H  18.26600 51.72300 32.14400
H  10.17500 53.49000 25.57600
H  10.78900 55.17100 25.75400
H  11.04800 54.09500 27.10300
H  10.16200 55.69900 23.58200
H  9.50500 53.96700 23.30300
H  9.68700 55.12200 22.03700
H  16.74400 53.78900 20.88600
H  17.87600 51.03800 20.67300
H  14.57300 51.90800 20.03000
H  15.99800 51.79500 18.95300
H  15.13000 53.27000 19.18900
H  19.57400 53.32300 21.15800
H  18.63400 53.78200 19.81900
H  19.77800 51.03900 19.46800
H  20.88700 52.43500 19.57300
H  19.67100 52.38700 18.33300
H  22.11700 49.94100 24.30600
H  21.10000 48.84900 23.59500
H  21.62600 48.65700 25.38900
H  19.70700 50.90800 29.51300
H  17.57000 47.84300 31.75800
H  19.00500 48.08100 32.71800
H  19.13300 47.05100 31.27800

