158

Mg 47.87000 14.51500 28.84400
C  45.73400 14.52300 31.42500
C  49.98500 16.66400 30.64800
C  49.86300 14.80200 26.17500
C  45.44600 13.06400 26.66800
N  47.87100 15.56200 30.81700
C  46.91700 15.24100 31.80600
C  47.41200 15.82000 33.18400
C  48.72000 16.66300 32.82800
C  48.79900 16.35000 31.31400
C  48.64900 18.16400 33.06400
C  47.55600 14.71400 34.29500
C  46.84700 15.18600 35.64600
H  47.02700 16.68100 36.06000
N  49.74500 15.47000 28.51400
C  50.41200 16.25100 29.39500
C  51.65900 16.60000 28.80800
C  51.72200 16.03500 27.46800
C  50.41500 15.38200 27.30800
C  52.69800 17.45100 29.51800
C  52.77200 16.07000 26.47600
O  52.77000 15.37700 25.48200
C  54.02000 16.86800 26.60900
N  47.66600 14.02500 26.68300
C  48.65000 14.17500 25.83600
C  48.27300 13.88200 24.37400
C  47.04300 13.04800 24.65800
C  46.64000 13.39300 26.10300
C  47.89900 15.12400 23.49600
C  47.14300 11.48700 24.46800
C  48.38000 10.91100 25.24600
N  45.97100 13.91000 28.94700
C  45.10000 13.33700 28.05900
C  43.85300 12.97600 28.76200
C  43.99500 13.48200 30.02900
C  45.34400 13.97800 30.12600
C  42.73300 12.17300 28.21000
C  43.40800 13.59300 31.33700
O  42.27700 13.26300 31.66700
C  44.43600 14.28400 32.24500
C  43.81600 15.56400 32.83000
O  43.53200 16.55200 32.16100
O  43.77800 15.41900 34.19900
C  43.33500 16.67900 34.85500
H  50.70000 17.21100 31.26700
H  50.38700 14.91000 25.22300
H  44.82000 12.44700 26.02000
H  46.56900 16.41200 33.53900
H  49.56800 16.19100 33.32400
H  48.88800 18.64500 32.11500
H  49.42100 18.49600 33.75800
H  47.70800 18.62400 33.36700
H  48.55600 14.49000 34.66500
H  47.09000 13.90800 33.72700
H  47.16600 14.58600 36.49900
H  45.76900 15.03500 35.60000
H  52.38900 17.88800 30.46700
H  53.02400 18.31300 28.93600
H  53.50000 16.74700 29.73600
H  53.75300 17.91300 26.76900
H  54.50600 16.81400 25.63500
H  54.66500 16.52700 27.41900
H  49.05200 13.26700 23.92100
H  46.34400 13.36700 23.88500
H  46.86700 15.47300 23.51500
H  48.08900 14.73600 22.49500
H  48.54500 15.94000 23.82100
H  47.16600 11.25600 23.40300
H  46.31900 10.96400 24.95300
H  49.07700 10.63200 24.45500
H  48.09500 10.16900 25.99200
H  48.93400 11.67000 25.79800
H  42.98200 11.91400 27.18100
H  41.80000 12.73700 28.18700
H  42.50300 11.32500 28.85500
H  44.61300 13.58900 33.06600
H  43.53300 16.53200 35.91700
H  42.24600 16.72000 34.83600
H  43.74400 17.63100 34.51700
Mg 26.21800 51.13400 25.30700
C  24.16700 52.52000 27.76400
C  28.37600 50.12000 27.79900
C  28.20900 50.15800 22.86600
C  24.04000 52.63000 22.89500
N  26.26000 51.32600 27.44200
C  25.26800 51.84800 28.27700
C  25.52500 51.63500 29.79200
C  26.97200 51.04900 29.73200
C  27.25500 50.79400 28.21900
C  28.04100 51.97300 30.15300
C  24.53100 50.64800 30.57100
C  24.01300 51.02400 31.91700
H  25.08200 51.45400 32.91600
N  28.07000 50.25900 25.32400
C  28.75800 49.90900 26.45700
C  29.99500 49.34700 26.05300
C  29.99500 49.33600 24.62700
C  28.72600 49.97300 24.17700
C  31.11100 49.08400 27.04700
C  31.11500 49.08400 23.73500
O  31.10300 49.43400 22.55800
C  32.30900 48.34700 24.17100
N  26.02900 51.24000 23.14500
C  26.98100 50.72900 22.41600
C  26.67600 50.73300 20.87900
C  25.31000 51.53500 20.92600
C  25.05400 51.81900 22.40600
C  27.84200 51.23100 19.93000
C  24.05500 50.78300 20.34900
C  23.19200 51.50000 19.20500
N  24.47300 52.40000 25.20300
C  23.74300 52.89100 24.23900
C  22.55700 53.53400 24.77000
C  22.71800 53.43100 26.14000
C  23.90600 52.79600 26.36700
C  21.46700 54.14300 24.10100
C  22.07800 53.71700 27.39000
O  20.97300 54.24100 27.59900
C  22.94800 53.12000 28.52100
C  23.35800 54.12400 29.54700
O  24.40100 54.73300 29.67100
O  22.26600 54.45700 30.32900
C  22.57600 55.14700 31.58400
H  28.94500 49.73500 28.64800
H  28.92000 50.00100 22.05200
H  23.47900 52.96800 22.02200
H  25.48500 52.59900 30.30000
H  27.06000 50.16700 30.36700
H  28.79300 52.14500 29.38300
H  28.50000 51.57200 31.05600
H  27.67500 52.95000 30.46700
H  24.97000 49.65100 30.60100
H  23.61000 50.57700 29.99200
H  23.39800 50.18100 32.23100
H  23.43400 51.92900 31.73400
H  31.41200 48.03700 27.05300
H  30.88500 49.41300 28.06200
H  32.06700 49.55600 26.82100
H  32.89100 47.98300 23.32400
H  32.06100 47.55200 24.87400
H  32.87100 49.01700 24.82100
H  26.49300 49.75800 20.42800
H  25.34600 52.43800 20.31700
H  28.05700 50.51600 19.13600
H  28.79600 51.25100 20.45600
H  27.60800 52.23700 19.58100
H  23.39300 50.53300 21.17800
H  24.38000 49.87100 19.84800
H  22.18400 51.36500 19.59800
H  23.34300 50.80200 18.38200
H  23.33500 52.53300 18.88700
H  21.76300 55.11900 23.71500
H  20.70100 54.34000 24.85100
H  21.26800 53.45600 23.27900
H  22.37900 52.38500 29.09100
H  22.71900 56.21800 31.44000
H  23.40900 54.67800 32.10800
H  21.64500 55.05200 32.14200

