158

Mg 25.58600 1.97600 29.61200
C  27.57400 1.64700 32.43600
C  22.66200 1.97200 31.75000
C  23.48600 1.96900 26.94000
C  28.18000 1.01600 27.56100
N  25.13200 1.79500 31.81500
C  26.14900 1.83200 32.73000
C  25.56600 2.10400 34.19600
C  24.05800 2.02600 33.99900
C  23.89400 1.97800 32.43000
C  23.40700 0.87000 34.89800
C  26.14000 3.39500 34.90300
C  27.09100 3.06000 36.04200
H  27.16200 3.95800 37.37400
N  23.43200 2.05600 29.44300
C  22.48300 1.98000 30.42000
C  21.10800 1.96100 29.84400
C  21.32100 2.15400 28.39600
C  22.78900 2.01400 28.23300
C  19.91100 1.88800 30.64400
C  20.33900 2.35800 27.31400
O  20.65800 2.49400 26.15700
C  18.89400 2.48400 27.59500
N  25.79700 1.52000 27.59000
C  24.84000 1.90300 26.69600
C  25.38100 1.96300 25.23500
C  26.92500 1.64400 25.45800
C  27.02300 1.47600 26.95500
C  24.71000 0.99900 24.19300
C  27.97700 2.61300 24.91400
C  29.02500 2.02000 23.93400
N  27.52000 1.52500 29.91800
C  28.50000 1.08800 29.01000
C  29.72000 0.89600 29.64400
C  29.45900 1.21100 30.99900
C  28.09500 1.55400 31.13300
C  30.93900 0.34600 28.91700
C  30.00800 1.11000 32.37100
O  31.09400 0.74600 32.74700
C  28.84600 1.49900 33.32500
C  28.54800 0.42200 34.39600
O  28.01100 -0.62600 34.28600
O  29.27700 0.73600 35.55900
C  29.09400 -0.14000 36.73200
H  21.75600 1.97000 32.36000
H  22.86000 2.13900 26.06100
H  28.89900 0.59200 26.85700
H  25.89600 1.25800 34.79900
H  23.76100 3.00500 34.37500
H  22.77300 0.33400 34.19200
H  22.88000 1.32800 35.73400
H  24.18700 0.19600 35.25200
H  25.34300 4.08100 35.19000
H  26.76000 3.93800 34.18900
H  28.06900 2.91600 35.58300
H  26.76500 2.13900 36.52600
H  19.12900 2.60500 30.39300
H  20.02000 1.97200 31.72500
H  19.53600 0.86500 30.60600
H  18.54000 1.49100 27.87300
H  18.41700 3.00000 26.76200
H  18.69300 3.23100 28.36200
H  25.19100 2.98700 24.91300
H  27.23000 0.64800 25.13700
H  23.73700 1.41600 23.93200
H  24.43900 0.08700 24.72600
H  25.42000 0.93800 23.36800
H  28.36000 3.00300 25.85700
H  27.55600 3.48800 24.41900
H  29.60700 2.81300 23.46500
H  28.50800 1.46000 23.15400
H  29.56500 1.27600 24.51900
H  31.31400 1.20900 28.36600
H  30.71500 -0.48400 28.24700
H  31.60200 0.00100 29.71000
H  29.12700 2.42800 33.82200
H  28.05000 -0.43700 36.83900
H  29.45500 0.35200 37.63500
H  29.66300 -1.03200 36.47000
Mg 40.57300 9.22500 29.77600
C  42.56800 10.56200 32.41600
C  38.23300 8.41100 32.15700
C  39.01100 7.42700 27.32600
C  43.20700 9.73800 27.55000
N  40.52400 9.39500 32.06100
C  41.38300 10.06600 32.86600
C  40.86400 10.03400 34.34200
C  39.49000 9.24600 34.24200
C  39.37700 9.01900 32.71500
C  39.35600 7.93400 34.95100
C  40.92300 11.47700 34.94700
C  40.08200 11.66300 36.31300
H  40.85400 12.12200 37.53600
N  38.79300 8.27300 29.71200
C  37.91300 8.03200 30.83200
C  36.65800 7.53100 30.28200
C  36.87200 7.23200 28.88600
C  38.32400 7.58500 28.56200
C  35.38700 7.29000 31.17000
C  35.82200 6.85200 27.82800
O  35.98600 6.80200 26.63500
C  34.45200 6.76300 28.25000
N  41.06400 8.55100 27.75300
C  40.29900 7.82600 26.93100
C  40.78300 7.87900 25.45600
C  41.90300 9.04100 25.52000
C  42.10500 9.08200 27.02100
C  41.24000 6.47700 24.87700
C  41.61500 10.39500 24.88100
C  42.84700 11.24300 24.42200
N  42.50200 10.00700 29.94000
C  43.41000 10.24400 28.90300
C  44.62500 10.88800 29.50900
C  44.29800 11.09900 30.86100
C  43.01100 10.49100 31.06700
C  45.78300 11.29100 28.66500
C  44.74000 11.70100 32.07000
O  45.81300 12.25600 32.32000
C  43.62800 11.24500 33.17600
C  44.33200 10.39100 34.16400
O  44.78500 9.29000 33.92600
O  44.37700 11.05700 35.32400
C  44.94900 10.46000 36.56100
H  37.51900 8.16900 32.94800
H  38.54700 6.82200 26.54400
H  43.98700 9.99900 26.83200
H  41.61000 9.43200 34.86200
H  38.60500 9.80700 34.54200
H  38.47900 8.09700 35.57700
H  40.25200 7.80500 35.55800
H  39.15200 7.00000 34.42700
H  40.36700 12.04400 34.20000
H  41.94100 11.76800 35.20300
H  39.68600 10.68300 36.58200
H  39.19600 12.27100 36.12700
H  34.36200 7.47200 30.84800
H  35.57400 7.97900 31.99300
H  35.51100 6.34100 31.69100
H  33.75700 6.54800 27.43800
H  34.20300 7.73400 28.67700
H  34.28300 6.04700 29.05500
H  39.91800 8.19700 24.87500
H  42.82700 8.64500 25.10000
H  42.23800 6.54400 24.44300
H  40.72300 6.04500 24.02100
H  41.19900 5.84100 25.76100
H  41.12500 11.05300 25.59900
H  41.01800 10.34700 23.97000
H  43.74700 10.62900 24.44500
H  42.89200 12.07200 25.12700
H  42.79700 11.75700 23.46200
H  46.38400 10.41600 28.41800
H  46.37300 11.98900 29.25900
H  45.49700 11.86400 27.78300
H  43.30700 12.17500 33.64600
H  45.87100 10.91400 36.92500
H  44.97300 9.37600 36.67200
H  44.27700 10.82400 37.33800

