158

Mg 43.65900 2.90900 47.59400
C  41.51200 5.57700 47.25800
C  40.97900 0.72100 47.71000
C  45.88300 0.31000 47.56400
C  46.36800 5.06600 46.79200
N  41.46800 3.11100 47.22800
C  40.84000 4.34700 47.14200
C  39.37100 4.13000 47.03600
C  39.19400 2.57100 47.45000
C  40.62800 2.05900 47.48000
C  38.46900 2.46400 48.84100
C  38.95200 4.43800 45.55900
C  37.94200 5.65000 45.24300
H  38.24300 6.53100 43.95800
N  43.41600 0.72400 47.66200
C  42.28300 0.04200 47.80700
C  42.54100 -1.25500 47.97900
C  43.93900 -1.42300 47.79300
C  44.49400 -0.08600 47.66800
C  41.43700 -2.24600 48.20000
C  44.64400 -2.79300 47.78800
O  43.92500 -3.80000 47.71100
C  46.17200 -2.86800 47.91800
N  45.74400 2.69200 47.05100
C  46.47600 1.52900 47.10300
C  47.99400 1.82300 47.08800
C  48.10100 3.30900 46.61500
C  46.62500 3.68500 46.74000
C  48.76300 1.57400 48.43600
C  48.64000 3.45500 45.17300
C  50.10300 3.77700 45.14000
N  43.94600 4.92100 47.28000
C  45.09700 5.63700 47.04300
C  44.70700 7.11500 46.92200
C  43.29200 7.12400 47.18200
C  42.92000 5.75500 47.26800
C  45.55900 8.22400 46.64000
C  42.11600 7.93600 47.32900
O  41.97800 9.19300 47.17400
C  40.95200 6.97100 47.45800
C  40.41400 7.05800 48.85000
O  40.99000 6.62600 49.86700
O  39.19700 7.68600 48.85300
C  38.62000 8.11000 50.14800
H  40.04800 0.19900 47.94100
H  46.70400 -0.41000 47.56100
H  47.24100 5.72100 46.74900
H  38.82900 4.71800 47.77600
H  38.73600 1.86000 46.76200
H  38.21700 3.43200 49.27300
H  38.98800 1.87400 49.59700
H  37.53700 1.91500 48.70700
H  38.42700 3.57800 45.14200
H  39.85600 4.40100 44.95200
H  38.04100 6.39700 46.03100
H  36.88200 5.39300 45.25200
H  40.43500 -1.82300 48.13500
H  41.52900 -2.65700 49.20500
H  41.51300 -3.15800 47.60800
H  46.37500 -2.61100 48.95700
H  46.65800 -2.27000 47.14700
H  46.56600 -3.88400 47.93000
H  48.49800 1.11900 46.42600
H  48.67100 3.89500 47.33600
H  49.20000 0.57900 48.35900
H  48.07600 1.73900 49.26700
H  49.54500 2.32800 48.52400
H  48.15100 4.28600 44.66300
H  48.60800 2.50700 44.63700
H  50.67400 2.86000 44.99500
H  50.43000 4.28400 46.04800
H  50.38000 4.50800 44.38100
H  46.18800 8.02300 45.77300
H  46.29900 8.35400 47.43000
H  45.01300 9.16300 46.55500
H  40.20600 7.06900 46.67000
H  39.08500 7.67600 51.03400
H  37.56700 7.83200 50.10300
H  38.69700 9.19700 50.14300
Mg 47.13600 16.10400 28.79900
C  45.05100 15.57200 31.45700
C  48.76500 18.48800 30.60900
C  49.18300 16.85500 26.12000
C  45.06200 14.30200 26.67400
N  46.90100 16.84800 30.93700
C  46.09900 16.40700 31.90100
C  46.46000 16.99700 33.28400
C  47.30200 18.21100 32.81800
C  47.71900 17.88300 31.30700
C  46.69500 19.64700 32.87200
C  47.14100 15.89600 34.19600
C  46.88700 16.06100 35.74000
H  47.93700 15.73800 36.72000
N  48.88400 17.36800 28.57600
C  49.37700 18.22300 29.41700
C  50.41800 19.03400 28.82000
C  50.59500 18.62500 27.44300
C  49.50400 17.60000 27.27700
C  51.18900 20.06800 29.65800
C  51.53400 19.13800 26.37800
O  51.50000 18.66900 25.22000
C  52.40500 20.27700 26.62800
N  47.09100 15.60400 26.68400
C  48.16000 15.88600 25.85100
C  48.15300 14.99300 24.64800
C  46.75300 14.34600 24.73300
C  46.26300 14.72000 26.11100
C  48.48800 15.65500 23.22500
C  46.79600 12.85700 24.52800
C  47.24500 11.92500 25.71900
N  45.39900 15.11900 28.94400
C  44.63300 14.44100 28.00000
C  43.44700 14.01200 28.62800
C  43.54500 14.40600 29.95800
C  44.76400 15.05800 30.13800
C  42.33900 13.08800 28.04300
C  42.83100 14.47500 31.17300
O  41.73800 14.04700 31.41100
C  43.80300 15.18800 32.26000
C  43.09100 16.34700 32.98500
O  43.14300 17.52100 32.63100
O  42.39300 16.01800 34.20200
C  41.95800 17.12400 35.02800
H  49.06500 19.29400 31.28200
H  49.87400 16.99500 25.28600
H  44.48800 13.64100 26.02200
H  45.54700 17.29000 33.80100
H  48.17400 18.15200 33.47000
H  45.67100 19.57800 33.23900
H  46.68200 20.21600 31.94200
H  47.37300 20.18700 33.53400
H  48.21700 15.81300 34.04000
H  46.74700 14.94400 33.84000
H  46.01900 15.48700 36.06400
H  46.60100 17.08600 35.97500
H  52.24000 19.83700 29.48600
H  51.00200 19.98700 30.72900
H  51.03500 21.08400 29.29400
H  52.88500 20.52600 25.68100
H  53.22400 20.01000 27.29600
H  51.93900 21.14800 27.08800
H  48.81500 14.16200 24.89400
H  46.09800 14.93500 24.09100
H  48.46400 16.74400 23.25700
H  47.94800 15.30600 22.34400
H  49.55300 15.47400 23.08100
H  47.39900 12.67600 23.63700
H  45.83800 12.49900 24.15200
H  48.16500 11.42000 25.42500
H  46.52300 11.10900 25.73900
H  47.46300 12.44100 26.65500
H  42.67400 12.05400 28.11700
H  42.24500 13.39600 27.00100
H  41.40500 13.27600 28.57300
H  43.86700 14.46900 33.07700
H  42.33500 18.10800 34.75100
H  42.15700 16.93700 36.08400
H  40.87900 17.25000 34.93900

