158

Mg 30.53600 57.92600 40.44500
C  27.66000 55.99400 39.64200
C  32.47700 55.24300 39.53700
C  33.04500 60.04800 40.22300
C  28.31700 60.64700 40.90700
N  30.04900 55.85500 39.87900
C  28.89500 55.29100 39.55100
C  29.19200 53.88900 38.93300
C  30.60000 53.51900 39.50300
C  31.12000 54.93800 39.72500
C  30.61400 52.76500 40.82900
C  29.12000 53.99300 37.40500
C  27.80400 53.35800 36.82700
H  26.90600 54.13900 35.88600
N  32.59400 57.61700 40.05500
C  33.16900 56.49900 39.61100
C  34.58900 56.75200 39.35700
C  34.80000 58.16800 39.60100
C  33.47500 58.70900 39.94900
C  35.64400 55.73300 38.95000
C  36.09300 59.03800 39.31900
O  37.07000 58.47000 38.99900
C  36.16400 60.50100 39.53600
N  30.62200 60.08500 40.39800
C  31.81600 60.69500 40.51200
C  31.74900 62.10400 40.97800
C  30.22000 62.29000 41.26300
C  29.63200 60.94500 40.81500
C  32.61300 62.43000 42.23800
C  29.54900 63.61300 40.54900
C  28.95600 64.73500 41.50300
N  28.39000 58.30000 40.40100
C  27.62100 59.45200 40.60500
C  26.23100 59.12300 40.49500
C  26.21400 57.78000 40.15000
C  27.52800 57.32700 40.07600
C  25.04300 60.04000 40.72900
C  25.31700 56.65900 39.85300
O  24.09900 56.55300 39.89400
C  26.27400 55.47000 39.58700
C  26.00100 54.43400 40.63900
O  26.73200 54.23500 41.59500
O  24.85300 53.67400 40.42100
C  24.85600 52.40100 41.13000
H  33.05000 54.39100 39.16400
H  33.93200 60.64700 40.44300
H  27.77800 61.55900 41.17100
H  28.38100 53.34100 39.41200
H  31.19600 53.02500 38.73600
H  31.38900 53.09900 41.51900
H  30.78500 51.75700 40.45300
H  29.66300 52.80300 41.35900
H  29.95800 53.55600 36.86200
H  29.10600 55.05400 37.15400
H  27.09200 53.10400 37.61200
H  28.08000 52.46800 36.26300
H  35.76500 55.57300 37.87800
H  35.35900 54.79700 39.43000
H  36.59300 56.01800 39.40500
H  36.02200 60.67800 40.60200
H  35.42800 61.10200 39.00200
H  37.15400 60.87100 39.26900
H  32.05800 62.67400 40.10200
H  30.11500 62.43700 42.33800
H  32.71100 63.51200 42.32200
H  33.60000 61.97500 42.31900
H  32.01100 62.14800 43.10200
H  28.75600 63.17000 39.94700
H  30.33300 64.10100 39.97000
H  28.73800 64.18700 42.42000
H  28.00900 65.20600 41.23800
H  29.71300 65.50700 41.64400
H  25.15900 60.65600 41.62100
H  24.05200 59.58600 40.74300
H  25.25200 60.86100 40.04300
H  26.07800 55.10300 38.58000
H  24.30200 51.66000 40.55400
H  24.47100 52.53100 42.14100
H  25.84500 51.99200 41.33400
Mg 17.09900 52.72500 26.30800
C  18.69800 51.03100 28.99900
C  14.66700 53.85900 28.50000
C  15.68200 54.05600 23.65100
C  19.61200 51.43800 24.19800
N  16.72500 52.42500 28.46600
C  17.52000 51.65800 29.35800
C  16.94200 51.79100 30.81400
C  15.53600 52.38700 30.50400
C  15.66500 53.05500 29.11300
C  14.37100 51.43400 30.50100
C  17.84200 52.63800 31.75600
C  17.99600 51.96400 33.14600
H  17.14000 52.35500 34.34600
N  15.44100 53.86200 26.07800
C  14.58600 54.28800 27.07800
C  13.57500 55.10000 26.54100
C  13.90200 55.25700 25.14200
C  15.06600 54.35400 24.88000
C  12.46800 55.72500 27.32700
C  13.15200 55.98400 24.06800
O  13.38200 55.94900 22.87200
C  11.98300 56.83600 24.44000
N  17.57400 52.72400 24.18800
C  16.73300 53.32400 23.29600
C  17.19100 53.01100 21.82100
C  18.61900 52.40100 22.05800
C  18.60100 52.12100 23.51200
C  16.26500 52.12300 21.00100
C  19.83200 53.36500 21.68500
C  20.58300 53.01400 20.34000
N  18.75000 51.45100 26.48600
C  19.70400 51.12800 25.54300
C  20.69600 50.22300 26.18100
C  20.35000 50.24600 27.57900
C  19.18900 50.96200 27.71200
C  21.96100 49.64300 25.50000
C  20.73700 49.67500 28.92600
O  21.66700 48.97400 29.22800
C  19.69600 50.26800 29.88200
C  19.05400 49.17000 30.56000
O  18.19200 48.44600 30.04400
O  19.51800 49.06800 31.88600
C  18.96500 48.10000 32.78800
H  13.90700 54.21900 29.19700
H  15.06000 54.39800 22.82100
H  20.32600 50.94900 23.53200
H  16.74600 50.78900 31.19800
H  15.33300 53.26000 31.12500
H  13.62400 51.73200 31.23700
H  14.67400 50.41300 30.73300
H  13.77700 51.31400 29.59500
H  17.40900 53.63100 31.87200
H  18.78200 52.84900 31.24500
H  19.06800 51.96300 33.34600
H  17.77700 50.89700 33.09400
H  11.48300 55.44500 26.95400
H  12.62000 56.80400 27.31800
H  12.44700 55.34900 28.35000
H  11.12200 56.23100 24.72300
H  11.69000 57.46600 23.60000
H  12.17100 57.42400 25.33800
H  17.26900 53.92700 21.23500
H  18.74900 51.45400 21.53400
H  15.78500 51.41900 21.68000
H  16.87200 51.59900 20.26200
H  15.54100 52.76900 20.50400
H  20.58000 53.46600 22.47100
H  19.36800 54.33000 21.47900
H  20.89300 53.98600 19.95600
H  19.84900 52.47600 19.74000
H  21.47000 52.39900 20.49100
H  22.28200 50.42400 24.81100
H  21.73000 48.72000 24.96700
H  22.65600 49.37300 26.29400
H  20.22100 50.91700 30.58200
H  19.45100 47.12500 32.75100
H  17.87600 48.10500 32.73800
H  19.18100 48.36400 33.82300

