158

Mg 26.01800 -0.66500 29.64800
C  28.09100 -0.61700 32.49500
C  23.41900 0.32100 31.56700
C  24.04600 -0.77800 26.92100
C  28.76000 -1.77300 27.78000
N  25.77300 -0.26400 31.74100
C  26.74100 -0.29900 32.78000
C  26.17500 0.03000 34.16600
C  24.59200 0.20900 33.79400
C  24.56800 0.07800 32.25700
C  23.54900 -0.76500 34.46500
C  26.77800 1.22800 34.93500
C  25.94400 1.72800 36.15800
H  26.68800 2.19300 37.40600
N  23.99500 -0.20700 29.28300
C  23.07600 0.16400 30.21100
C  21.79400 0.35700 29.59500
C  21.89000 -0.03100 28.25100
C  23.33900 -0.40100 28.03800
C  20.57200 0.79900 30.38200
C  20.77200 -0.10800 27.10000
O  21.06300 -0.35300 25.93100
C  19.35600 0.15700 27.45400
N  26.34800 -1.30200 27.66300
C  25.40700 -1.10600 26.71000
C  25.96900 -1.40800 25.29100
C  27.49200 -1.60900 25.57100
C  27.54900 -1.50200 27.11400
C  25.45000 -2.67400 24.59100
C  28.35000 -0.40900 24.90800
C  29.72600 -0.62600 24.29100
N  28.03700 -1.12600 30.01900
C  29.00900 -1.65500 29.13500
C  30.25600 -1.75000 29.87700
C  29.88800 -1.27800 31.20600
C  28.51100 -1.05100 31.22300
C  31.58000 -2.21000 29.25400
C  30.51100 -0.93100 32.47200
O  31.67100 -0.98000 32.90800
C  29.29300 -0.57500 33.40500
C  29.23800 -1.51500 34.51100
O  28.77200 -2.61200 34.36100
O  29.78500 -0.97900 35.63700
C  29.51500 -1.65800 36.89700
H  22.64500 0.77700 32.18700
H  23.44200 -0.77000 26.01100
H  29.49000 -2.21600 27.10000
H  26.28900 -0.84400 34.80700
H  24.30200 1.23800 34.00600
H  23.78400 -1.03800 35.49300
H  23.44100 -1.66000 33.85300
H  22.55900 -0.31000 34.40700
H  26.84500 2.03300 34.20300
H  27.74600 0.95900 35.35600
H  25.28700 0.89600 36.41300
H  25.47300 2.62900 35.76300
H  20.89700 1.06400 31.38800
H  19.86400 -0.00800 30.57500
H  20.00200 1.59500 29.90200
H  19.03900 -0.61600 28.15300
H  18.68400 0.00400 26.60900
H  19.15700 1.17000 27.80200
H  25.77600 -0.57700 24.61100
H  27.92300 -2.56000 25.25700
H  24.56000 -3.09200 25.06300
H  26.15300 -3.50400 24.52400
H  25.10100 -2.49300 23.57400
H  28.37900 0.38000 25.66000
H  27.78200 0.05700 24.10300
H  30.41100 0.03900 24.81800
H  29.77800 -0.39500 23.22700
H  29.94500 -1.68700 24.40400
H  31.55700 -2.73000 28.29700
H  32.09100 -2.90800 29.91800
H  32.15400 -1.31100 29.02900
H  29.36200 0.39800 33.89200
H  30.47700 -2.02100 37.26100
H  28.87900 -2.54200 36.85400
H  29.09700 -0.89000 37.54700
Mg 35.83600 0.83900 29.88900
C  33.79400 2.08900 32.50700
C  38.45400 0.79900 32.14600
C  37.88300 -0.24000 27.38400
C  33.30100 1.45500 27.63700
N  35.99000 1.33500 32.09200
C  35.05200 1.74200 32.99200
C  35.64000 2.01400 34.35200
C  37.15300 1.76200 34.19500
C  37.23800 1.17800 32.73700
C  38.08700 3.04300 34.42500
C  34.87300 1.18800 35.47200
C  34.35000 1.95000 36.78500
H  35.08300 3.08300 37.39400
N  37.88700 0.19600 29.76800
C  38.81300 0.36300 30.78700
C  40.17200 0.11500 30.32100
C  39.96500 -0.36100 28.94600
C  38.54400 -0.18500 28.61400
C  41.45600 0.30400 31.12200
C  41.08200 -0.86600 27.95500
O  40.79300 -1.21200 26.79900
C  42.49200 -0.92500 28.48800
N  35.62800 0.64500 27.81400
C  36.56800 0.09700 26.99100
C  36.12600 0.01000 25.53700
C  34.62500 0.56500 25.65300
C  34.52100 0.91400 27.12900
C  37.05800 0.60200 24.46500
C  33.56300 -0.37900 25.17500
C  33.30300 -1.64800 25.94100
N  34.03300 1.72800 29.97500
C  33.06300 1.81800 28.97000
C  31.82700 2.19500 29.51400
C  32.09300 2.46100 30.90000
C  33.42100 2.02500 31.15000
C  30.53000 2.43600 28.77000
C  31.52400 2.85500 32.15100
O  30.31600 3.11300 32.34400
C  32.59200 2.70900 33.23800
C  32.92600 4.05400 33.78200
O  33.70700 4.86200 33.24600
O  32.12000 4.35000 34.81800
C  32.32500 5.63300 35.55800
H  39.27800 0.92300 32.85200
H  38.53800 -0.58900 26.58300
H  32.45300 1.53700 26.95400
H  35.44600 3.06500 34.56400
H  37.56900 1.02900 34.88600
H  37.49100 3.93800 34.24800
H  38.94300 3.00900 33.75100
H  38.62300 2.99200 35.37300
H  35.58200 0.41400 35.76500
H  33.97000 0.72300 35.07600
H  34.19300 1.17800 37.53800
H  33.37300 2.38400 36.57000
H  41.32500 0.98200 31.96600
H  42.20900 0.85500 30.55700
H  41.95100 -0.62200 31.41400
H  42.91100 0.07900 28.42100
H  43.02900 -1.62600 27.84900
H  42.64500 -1.35500 29.47800
H  36.05000 -1.03200 25.22400
H  34.60200 1.57200 25.23500
H  37.58500 -0.11400 23.83400
H  37.91300 1.20400 24.77300
H  36.47000 1.27700 23.84200
H  33.95300 -0.67300 24.20100
H  32.65600 0.19700 24.99000
H  34.00500 -1.76500 26.76700
H  33.35500 -2.50700 25.27300
H  32.33600 -1.57600 26.43700
H  29.72400 1.90200 29.27400
H  30.65000 2.01400 27.77200
H  30.21900 3.47400 28.65900
H  32.19600 2.10300 34.05200
H  33.32000 6.05700 35.42200
H  32.21200 5.49600 36.63300
H  31.54800 6.33200 35.24800

