158

Mg -1.88100 17.67900 26.90200
C  -2.36200 15.26400 29.33500
C  -2.26900 20.02500 29.37000
C  -1.74400 20.03700 24.43200
C  -1.99000 15.20000 24.43500
N  -2.21600 17.55300 29.19600
C  -2.24700 16.45900 29.98700
C  -2.44000 16.87100 31.43000
C  -2.60000 18.41000 31.31600
C  -2.34500 18.71100 29.86000
C  -4.08600 18.87600 31.75100
C  -1.30800 16.32900 32.38800
C  -0.91900 17.04300 33.63800
H  -0.75600 16.17000 34.76600
N  -1.88400 19.67600 26.91700
C  -2.07800 20.46100 28.00300
C  -1.91400 21.84500 27.63700
C  -1.75700 21.88500 26.23200
C  -1.79400 20.49000 25.81400
C  -2.04200 23.08500 28.60700
C  -1.55300 23.03600 25.22800
O  -1.50900 22.96100 24.00700
C  -1.47600 24.38100 25.79700
N  -2.04900 17.58500 24.72400
C  -1.79900 18.70800 23.92200
C  -1.50400 18.30400 22.45800
C  -1.73700 16.77100 22.45200
C  -1.89100 16.49200 23.97800
C  -2.31600 19.10300 21.37600
C  -0.46900 15.89200 21.85500
C  0.87500 15.96000 22.59800
N  -2.13400 15.67300 26.81600
C  -2.18000 14.80100 25.79600
C  -2.34900 13.48400 26.23100
C  -2.47800 13.65000 27.61800
C  -2.30100 14.97600 27.92500
C  -2.45500 12.16200 25.43900
C  -2.63800 12.88800 28.93100
O  -2.88100 11.68200 29.12500
C  -2.66300 13.89100 30.04400
C  -1.70300 13.40600 31.09300
O  -0.48800 13.48800 30.98300
O  -2.38700 12.81700 32.16200
C  -1.59600 12.06600 33.09100
H  -2.27500 20.77800 30.16100
H  -1.70300 20.77000 23.62300
H  -1.84600 14.36200 23.74900
H  -3.34500 16.37800 31.78500
H  -1.81400 18.94900 31.84500
H  -4.75000 18.02700 31.91100
H  -4.61200 19.40900 30.96000
H  -4.05900 19.48200 32.65700
H  -0.35000 16.29600 31.86900
H  -1.76300 15.36800 32.62500
H  -1.58000 17.84400 33.96900
H  0.06900 17.46900 33.46200
H  -2.50300 24.02000 28.28700
H  -1.01900 23.38700 28.83200
H  -2.55100 22.78800 29.52400
H  -2.43700 24.66300 26.22600
H  -1.17500 25.02700 24.97100
H  -0.73400 24.54500 26.57800
H  -0.46600 18.63500 22.41800
H  -2.60200 16.62300 21.80600
H  -2.88200 19.83800 21.94900
H  -3.05500 18.47300 20.88200
H  -1.56700 19.60800 20.76700
H  -0.26000 16.14600 20.81600
H  -0.68500 14.82500 21.78600
H  0.65300 16.07800 23.65900
H  1.45300 16.79500 22.20200
H  1.49100 15.07000 22.47100
H  -1.80500 11.48600 25.99500
H  -2.05900 12.15800 24.42400
H  -3.41200 11.64500 25.36200
H  -3.66800 13.96900 30.45800
H  -2.18700 11.23000 33.46400
H  -1.24800 12.82400 33.79200
H  -0.69300 11.66300 32.63200
Mg -11.78600 17.68800 41.68400
C  -8.66500 16.30100 41.21800
C  -10.54900 20.79700 40.73300
C  -14.85700 18.89100 41.88300
C  -12.94500 14.39800 42.43800
N  -9.86200 18.44000 41.03300
C  -8.71100 17.66900 40.91300
C  -7.49200 18.53400 40.51400
C  -8.11700 20.02300 40.65500
C  -9.63500 19.75700 40.90800
C  -7.55500 20.73700 41.98300
C  -6.96200 18.18700 39.12700
C  -5.45900 18.26300 38.76200
H  -5.00200 18.42600 37.28900
N  -12.56800 19.55700 41.28900
C  -11.92000 20.65000 40.81300
C  -12.82100 21.76300 40.61600
C  -14.08800 21.26800 41.07300
C  -13.86100 19.83700 41.38900
C  -12.47300 23.05800 39.97100
C  -15.48100 22.08700 41.21000
O  -15.50700 23.26800 40.86900
C  -16.79500 21.45800 41.74300
N  -13.66400 16.76300 41.89200
C  -14.72200 17.58000 42.15000
C  -15.97300 16.65100 42.48900
C  -15.33500 15.36600 42.87500
C  -13.89600 15.44300 42.36200
C  -16.92900 17.29200 43.54800
C  -16.20700 14.05300 42.47900
C  -16.75900 13.21500 43.66400
N  -11.06900 15.68900 41.62700
C  -11.59500 14.45400 42.04800
C  -10.57000 13.35100 41.92100
C  -9.39700 14.12600 41.66000
C  -9.72200 15.48300 41.53100
C  -10.92700 11.95400 41.94500
C  -7.95600 14.02700 41.46600
O  -7.25300 13.00400 41.41600
C  -7.47500 15.41600 41.25800
C  -6.35400 15.91300 42.12200
O  -6.59000 16.54200 43.12300
O  -5.15100 15.28700 41.81400
C  -4.20600 15.28200 42.89000
H  -10.15100 21.75600 40.39700
H  -15.85400 19.29400 42.07400
H  -13.25000 13.43500 42.85200
H  -6.73300 18.34800 41.27300
H  -8.07000 20.61000 39.73800
H  -8.40600 21.04000 42.59300
H  -7.04400 21.67100 41.74900
H  -7.06000 20.09000 42.70700
H  -7.52400 18.73600 38.37100
H  -7.19500 17.17500 38.79500
H  -4.89000 17.36600 39.00600
H  -5.03300 19.14200 39.24700
H  -12.20600 23.76500 40.75600
H  -13.33200 23.46500 39.43700
H  -11.67600 22.86700 39.25300
H  -17.23300 20.70700 41.08400
H  -17.53400 22.25700 41.79800
H  -16.63700 21.06100 42.74600
H  -16.35000 16.66100 41.46600
H  -15.14200 15.34900 43.94800
H  -16.91900 16.69500 44.46000
H  -17.91800 17.50300 43.14300
H  -16.48700 18.21800 43.91600
H  -15.50600 13.36900 42.00100
H  -17.01500 14.34200 41.80800
H  -16.34000 12.22900 43.86200
H  -17.81000 13.03600 43.44000
H  -16.56600 13.77500 44.58000
H  -11.09900 11.72800 40.89300
H  -11.85400 11.82700 42.50300
H  -10.16800 11.29700 42.37000
H  -7.16900 15.38600 40.21300
H  -3.22100 15.39000 42.43700
H  -4.29100 14.36200 43.46800
H  -4.18500 16.08400 43.62800

