158

Mg 46.86700 24.71600 29.19500
C  47.65100 27.09700 31.63800
C  46.32000 22.43900 31.75100
C  46.54900 22.26600 26.82300
C  47.54300 27.03700 26.73000
N  46.93600 24.77900 31.44600
C  47.15500 25.91100 32.17100
C  46.81500 25.68200 33.66900
C  46.57900 24.10800 33.69700
C  46.58200 23.74600 32.18000
C  47.56300 23.31300 34.62500
C  45.63100 26.60600 34.12700
C  45.85500 27.34400 35.43700
H  44.71200 27.16400 36.43800
N  46.45200 22.65000 29.20800
C  46.22700 21.92400 30.36300
C  45.68700 20.63600 30.02900
C  46.00900 20.47600 28.65000
C  46.38000 21.80300 28.15500
C  45.23900 19.67900 31.05400
C  45.79300 19.23700 27.67000
O  46.13800 19.28600 26.51700
C  45.19500 17.94600 28.20200
N  47.12400 24.62400 26.98000
C  46.79100 23.56400 26.25900
C  46.93600 23.79800 24.77600
C  47.08400 25.38900 24.79700
C  47.28200 25.74400 26.27600
C  48.18800 23.10500 24.19100
C  45.82200 26.17100 24.17000
C  44.53200 26.24100 25.03400
N  47.51100 26.61400 29.12100
C  47.76200 27.44800 28.07700
C  48.26900 28.72000 28.51500
C  48.27800 28.62900 29.92300
C  47.83300 27.33700 30.21600
C  48.77600 29.88700 27.74500
C  48.53400 29.39800 31.17500
O  48.94300 30.54800 31.29300
C  48.10200 28.44400 32.38000
C  49.19900 28.25300 33.35000
O  50.14200 27.47800 33.16200
O  48.91600 28.96800 34.52200
C  49.53800 28.42200 35.70100
H  46.03000 21.74900 32.54600
H  46.31700 21.53800 26.04200
H  47.80600 27.84100 26.03900
H  47.69100 25.84700 34.29600
H  45.56200 23.88800 34.02200
H  48.19000 22.61200 34.07300
H  46.88100 22.78000 35.28700
H  48.16200 23.86300 35.35200
H  44.70600 26.03200 34.17700
H  45.48400 27.30900 33.30700
H  45.87200 28.41300 35.22400
H  46.74500 27.11700 36.02400
H  45.64400 19.85900 32.05000
H  45.57100 18.69400 30.72600
H  44.15800 19.74500 31.17600
H  44.86700 17.32600 27.36700
H  44.35400 18.16100 28.86100
H  45.95600 17.34100 28.69400
H  46.08300 23.44100 24.19900
H  47.95900 25.78400 24.28300
H  48.42400 22.29000 24.87500
H  49.03800 23.77000 24.03500
H  47.86700 22.67200 23.24400
H  45.64500 25.81600 23.15400
H  46.02900 27.23100 24.02900
H  44.73500 25.77500 25.99900
H  43.88500 25.63000 24.40500
H  44.04400 27.17300 25.31800
H  48.61700 30.82600 28.27700
H  48.13700 30.03300 26.87400
H  49.84000 29.78500 27.53500
H  47.23600 28.87600 32.88100
H  49.33900 27.36900 35.90100
H  49.20500 28.99800 36.56500
H  50.62000 28.34300 35.60400
Mg 25.75400 51.13900 26.51300
C  23.39600 52.44000 28.92800
C  27.94700 50.52200 29.03700
C  28.07600 51.09200 24.23600
C  23.34000 52.37400 24.15000
N  25.66300 51.47000 28.62100
C  24.64600 51.98900 29.48600
C  25.04100 51.93700 30.95200
C  26.60200 51.56200 30.90500
C  26.77600 51.25000 29.44600
C  27.56400 52.55700 31.56500
C  24.09400 51.10700 31.91700
C  24.54200 50.42500 33.25300
H  25.00100 51.42000 34.37800
N  27.77500 50.75200 26.64100
C  28.48500 50.44400 27.73700
C  29.85300 50.16900 27.35600
C  29.87300 50.32100 25.92000
C  28.52400 50.71100 25.53300
C  30.83900 49.76800 28.40000
C  31.00300 50.04400 24.94200
O  30.83600 49.90900 23.74000
C  32.37600 49.82400 25.58000
N  25.76600 51.85500 24.60700
C  26.89100 51.65200 23.82900
C  26.60300 52.07300 22.40200
C  25.09400 52.11500 22.27200
C  24.63800 52.08400 23.74900
C  27.35300 53.27200 21.95700
C  24.38400 51.00900 21.45400
C  22.85900 51.25300 21.09900
N  23.60000 51.99300 26.43100
C  22.82700 52.42000 25.41300
C  21.61700 53.00700 25.90700
C  21.79200 53.01500 27.30100
C  23.00600 52.41700 27.56000
C  20.57400 53.68600 25.00300
C  21.25300 53.48900 28.63200
O  20.28900 54.18700 28.89600
C  22.27000 52.96400 29.70400
C  22.70200 54.25100 30.45500
O  23.05500 55.31600 29.93700
O  22.67900 54.06500 31.82400
C  22.65500 55.29800 32.61700
H  28.56000 50.06700 29.81700
H  28.89000 51.17800 23.51300
H  22.63600 52.86300 23.47400
H  24.91100 52.95900 31.30700
H  26.67400 50.60400 31.42000
H  28.22200 53.05800 30.85500
H  28.17000 51.99800 32.27800
H  26.98800 53.32000 32.08800
H  23.49100 50.43800 31.30300
H  23.38600 51.83600 32.31200
H  25.36300 49.74400 33.02900
H  23.75000 49.81800 33.69200
H  30.63200 49.96300 29.45200
H  31.77700 50.28000 28.18500
H  30.95500 48.73000 28.08600
H  33.07100 49.42300 24.84200
H  32.39600 49.08000 26.37600
H  32.71700 50.78900 25.95500
H  26.87200 51.26800 21.71800
H  24.74800 53.02100 21.77600
H  27.62700 53.13000 20.91200
H  28.18600 53.51600 22.61700
H  26.69500 54.13400 22.06600
H  24.45000 50.09400 22.04300
H  24.98000 50.94700 20.54400
H  22.65700 52.27400 21.42300
H  22.20000 50.52600 21.57300
H  22.66900 51.26200 20.02500
H  20.56300 53.50000 23.92900
H  20.86800 54.73000 25.10600
H  19.61800 53.40800 25.44700
H  21.93900 52.22500 30.43400
H  23.23900 55.18700 33.53100
H  21.58200 55.37400 32.79300
H  22.92800 56.28400 32.24000

