158

Mg 2.49200 -1.04800 43.28200
C  5.89000 -0.30100 42.80100
C  1.68500 1.77600 41.52000
C  -0.63700 -2.31900 42.73000
C  3.54000 -4.23400 44.45300
N  3.65500 0.49300 42.22900
C  5.00400 0.59400 42.18700
C  5.37100 1.87200 41.38200
C  4.06400 2.76200 41.45100
C  3.00600 1.62300 41.86100
C  4.05500 4.04300 42.29900
C  5.95700 1.48200 39.96600
C  5.10200 1.02900 38.87200
H  4.97300 1.87200 37.53900
N  0.76300 -0.32000 42.46700
C  0.65900 0.89200 41.75400
C  -0.74600 1.14600 41.38400
C  -1.46400 -0.00700 41.80100
C  -0.48300 -0.95300 42.40700
C  -1.05900 2.44900 40.57300
C  -2.88100 -0.14900 41.52700
O  -3.43500 0.82600 40.96900
C  -3.68900 -1.26200 41.92400
N  1.57800 -2.97300 43.63800
C  0.32600 -3.27400 43.23900
C  0.03300 -4.79600 43.25900
C  1.31200 -5.31300 44.01500
C  2.22200 -4.11900 44.09900
C  -1.28600 -5.08700 44.05800
C  1.87500 -6.62000 43.47200
C  2.07000 -7.69500 44.58500
N  4.32500 -2.06100 43.70600
C  4.55300 -3.34500 44.20100
C  5.96500 -3.53100 44.22900
C  6.56800 -2.36800 43.70200
C  5.53600 -1.49100 43.38400
C  6.58500 -4.72700 44.89900
C  7.82300 -1.67900 43.38800
O  8.99700 -2.02500 43.43600
C  7.38100 -0.33700 42.74200
C  7.99500 0.85900 43.33700
O  8.78100 1.59300 42.73800
O  7.76900 0.95900 44.65400
C  8.61800 2.02400 45.32800
H  1.43600 2.63300 40.89100
H  -1.56400 -2.75100 42.34600
H  3.82000 -5.23000 44.80200
H  6.16500 2.36100 41.94600
H  3.96600 3.08900 40.41600
H  3.22400 3.92700 42.99500
H  3.85700 4.86500 41.61100
H  5.04200 4.21600 42.72800
H  6.74000 0.73600 40.10200
H  6.44700 2.37500 39.57700
H  4.06600 0.98700 39.20800
H  5.40000 0.01900 38.59100
H  -0.26100 2.66800 39.86300
H  -1.20900 3.35300 41.16400
H  -2.01800 2.46400 40.05600
H  -3.59600 -1.28400 43.01000
H  -3.36600 -2.20500 41.48300
H  -4.67500 -1.29300 41.46000
H  -0.10600 -5.21000 42.26100
H  0.96700 -5.50300 45.03100
H  -1.24600 -5.65200 44.98900
H  -1.78400 -5.76100 43.36100
H  -1.96600 -4.24700 44.20300
H  2.83300 -6.34900 43.02800
H  1.38200 -7.07000 42.61000
H  2.79200 -8.41900 44.20700
H  1.12300 -8.10100 44.94000
H  2.42200 -7.05000 45.39100
H  6.76200 -5.54400 44.20100
H  6.09200 -4.99700 45.83300
H  7.56000 -4.43700 45.29000
H  7.82300 -0.30000 41.74600
H  8.27400 3.04500 45.16200
H  9.63700 2.00400 44.94300
H  8.60700 1.84600 46.40300
Mg 8.90100 3.47400 27.38400
C  10.48700 2.01000 30.29700
C  7.24000 5.48100 29.63500
C  7.00800 4.47100 24.80000
C  10.64500 1.22300 25.49800
N  8.85600 3.64700 29.73200
C  9.59300 3.05500 30.65900
C  9.33500 3.54700 32.07900
C  8.15400 4.49800 31.87600
C  8.04200 4.60600 30.34500
C  6.86500 3.98200 32.55500
C  10.61700 4.25800 32.69100
C  11.20400 3.80800 34.04100
H  10.38400 3.31400 35.24800
N  7.38500 4.86100 27.23900
C  6.90400 5.60600 28.24300
C  6.04100 6.53200 27.64700
C  5.82500 6.22700 26.28700
C  6.73600 5.15600 26.01600
C  5.28500 7.57000 28.44700
C  4.85600 6.84100 25.21000
O  4.83400 6.44600 24.07300
C  3.80800 7.91800 25.56700
N  8.76000 2.84300 25.46900
C  7.96200 3.47300 24.55500
C  8.24100 3.00500 23.16500
C  9.33800 1.90600 23.37200
C  9.66600 2.00800 24.83700
C  7.00200 2.54300 22.30500
C  10.56000 1.95200 22.44200
C  10.58300 0.93100 21.25700
N  10.29900 2.04600 27.78500
C  10.94100 1.24600 26.88000
C  11.86600 0.39200 27.56700
C  11.73900 0.71700 28.88400
C  10.77800 1.67100 28.97300
C  12.74400 -0.63200 26.92400
C  12.17500 0.33600 30.18500
O  13.02800 -0.49800 30.50900
C  11.45100 1.26500 31.10400
C  10.78800 0.45900 32.16400
O  9.67200 -0.04800 32.13300
O  11.48100 0.69200 33.32900
C  10.85800 0.09200 34.51300
H  6.78800 6.19600 30.32500
H  6.46800 4.79100 23.90600
H  11.30700 0.58000 24.91400
H  9.03300 2.70200 32.69800
H  8.30100 5.44700 32.39100
H  6.12700 3.92200 31.75500
H  6.53600 4.79700 33.19900
H  6.92600 3.05600 33.12800
H  10.35000 5.28500 32.94000
H  11.43600 4.25800 31.97200
H  12.00400 4.46600 34.38300
H  11.85100 3.03300 33.63000
H  5.68500 8.52900 28.11800
H  5.40000 7.53300 29.53100
H  4.21700 7.58300 28.22900
H  3.23300 8.24300 24.70000
H  4.24200 8.78700 26.06200
H  3.16500 7.35000 26.23900
H  8.71400 3.83300 22.63800
H  9.00600 0.87100 23.29500
H  7.23500 1.54800 21.92700
H  6.94700 3.25500 21.48200
H  6.06500 2.46000 22.85600
H  11.47500 1.79700 23.01400
H  10.59900 2.90900 21.92200
H  10.98600 1.45300 20.38900
H  9.56700 0.66100 20.96900
H  11.19700 0.04100 21.39700
H  12.11700 -1.25200 26.28200
H  13.17400 -1.39600 27.57200
H  13.49500 -0.02800 26.41500
H  12.26400 1.87500 31.49500
H  10.74800 -0.99200 34.50800
H  9.88600 0.54600 34.70600
H  11.61300 0.45000 35.21300

