158

Mg 41.22300 9.51000 30.20400
C  43.39700 10.73200 32.70400
C  38.99100 8.55600 32.49700
C  39.56400 8.03200 27.76400
C  43.98300 9.94900 27.91100
N  41.28900 9.62100 32.36300
C  42.15600 10.26300 33.18900
C  41.62400 10.34100 34.61300
C  40.31500 9.50900 34.52000
C  40.13300 9.25200 33.00100
C  40.19400 8.22900 35.37700
C  41.43600 11.84800 34.97900
C  40.53800 12.08800 36.18100
H  41.12000 12.93400 37.34500
N  39.38400 8.51300 30.18500
C  38.59500 8.20200 31.21300
C  37.41200 7.52700 30.71000
C  37.46700 7.51600 29.28000
C  38.86000 7.95900 29.00000
C  36.36500 7.02500 31.56900
C  36.52300 7.01300 28.25300
O  36.76300 7.04000 27.07900
C  35.20400 6.58600 28.67100
N  41.70600 9.08600 28.17500
C  40.81900 8.41100 27.37400
C  41.30100 8.32700 25.91300
C  42.81800 8.74600 26.03800
C  42.85000 9.25400 27.49900
C  41.12800 6.91100 25.24000
C  43.21100 9.82400 24.90800
C  42.83800 11.29500 25.14300
N  43.22200 10.26800 30.22100
C  44.27800 10.30100 29.27700
C  45.42300 10.86500 29.86900
C  45.08200 11.13300 31.17600
C  43.78700 10.68500 31.37800
C  46.80200 11.12800 29.27300
C  45.58300 11.76600 32.39100
O  46.59800 12.38000 32.58900
C  44.48700 11.50400 33.46300
C  44.98800 10.71000 34.62200
O  45.07300 9.50300 34.59700
O  45.36300 11.58700 35.63900
C  45.71100 10.87400 36.80800
H  38.23800 8.47300 33.28300
H  38.98700 7.56100 26.96500
H  44.71300 9.97800 27.10000
H  42.41300 9.83800 35.17200
H  39.44700 10.11000 34.79200
H  40.76100 8.46400 36.27700
H  40.57400 7.36100 34.83800
H  39.17800 8.17700 35.76800
H  40.98300 12.37600 34.14000
H  42.38400 12.35900 35.15000
H  40.37900 11.10200 36.61700
H  39.58200 12.45100 35.80500
H  35.46700 7.64300 31.55500
H  36.67200 7.00300 32.61400
H  36.13800 5.99200 31.30800
H  34.85700 7.28900 29.42800
H  35.19300 5.58400 29.10000
H  34.45000 6.64400 27.88600
H  40.79500 9.00600 25.22600
H  43.37400 7.81000 25.97100
H  40.19700 6.47500 25.60300
H  41.94900 6.24900 25.51600
H  41.10000 7.04700 24.15900
H  42.65100 9.37900 24.08600
H  44.29900 9.76500 24.86900
H  42.13200 11.26900 25.97300
H  42.39600 11.85900 24.32200
H  43.68600 11.85900 25.53200
H  46.85000 10.55500 28.34700
H  47.57000 10.89400 30.01000
H  46.88700 12.19200 29.05400
H  44.05200 12.42800 33.84400
H  44.82600 10.78300 37.43900
H  46.37400 11.57000 37.32100
H  46.28400 9.96000 36.64900
Mg 17.03400 51.42500 26.28700
C  19.11400 49.93200 28.84200
C  14.77500 52.14600 28.69300
C  15.17600 52.33100 23.78300
C  19.40900 50.07000 24.07200
N  16.97600 51.07400 28.43900
C  17.95400 50.51200 29.35400
C  17.58200 50.71000 30.81300
C  16.09900 51.10500 30.65600
C  15.95500 51.52400 29.15400
C  15.04800 50.05400 31.09000
C  18.52600 51.81800 31.51500
C  18.69500 51.64000 33.05800
H  17.77000 50.62300 33.78200
N  15.29300 52.44700 26.27000
C  14.46700 52.58700 27.36500
C  13.21100 53.15700 26.89100
C  13.31800 53.20500 25.47300
C  14.63500 52.64500 25.12900
C  12.11000 53.76300 27.83800
C  12.38900 53.76100 24.38700
O  12.74600 53.84900 23.23800
C  10.99400 54.22700 24.80800
N  17.23000 51.18300 24.23400
C  16.35300 51.70800 23.41500
C  16.73700 51.49900 21.93600
C  18.21500 50.90700 22.06700
C  18.34100 50.79200 23.54600
C  15.69100 50.66500 21.11200
C  19.32500 51.69100 21.33400
C  20.34800 50.75600 20.52300
N  18.85300 50.14200 26.35900
C  19.66400 49.68400 25.40800
C  20.84900 49.00700 25.96000
C  20.73900 49.10300 27.31900
C  19.48000 49.76700 27.52900
C  21.92700 48.40600 25.15300
C  21.26600 48.74300 28.62400
O  22.24800 48.13400 28.93700
C  20.25200 49.34800 29.69500
C  19.86800 48.34300 30.66300
O  18.90200 47.59500 30.58100
O  20.61500 48.37200 31.80900
C  20.41900 47.25600 32.76000
H  13.96900 52.26400 29.42100
H  14.45800 52.55500 22.99100
H  20.21200 49.78600 23.38800
H  17.60700 49.77000 31.36500
H  15.91400 52.06300 31.14400
H  15.56200 49.27000 31.64700
H  14.55300 49.55000 30.25900
H  14.20300 50.43800 31.66100
H  18.00900 52.77100 31.40100
H  19.52300 51.75200 31.08100
H  18.65500 52.55700 33.64600
H  19.66500 51.14900 33.14400
H  12.53800 53.82100 28.83900
H  11.31500 53.01700 27.85500
H  11.68500 54.70200 27.48500
H  11.02400 55.13900 25.40500
H  10.59200 53.35200 25.31900
H  10.42800 54.40200 23.89300
H  16.75000 52.48300 21.46800
H  18.21800 49.85800 21.77100
H  16.06800 49.77000 20.61600
H  15.39200 51.30100 20.27800
H  14.82000 50.33600 21.67800
H  19.72100 52.48200 21.97100
H  18.84000 52.34100 20.60600
H  21.31500 51.07500 20.91300
H  20.25100 50.92800 19.45200
H  20.21800 49.68600 20.68600
H  22.81100 49.03700 25.05000
H  21.48400 48.33900 24.16000
H  22.19800 47.38800 25.43100
H  20.88300 50.10100 30.16800
H  21.24800 47.16000 33.46100
H  20.15000 46.29300 32.32500
H  19.64500 47.63300 33.42700

