158

Mg 25.28400 -7.30200 49.25900
C  27.73600 -5.06800 47.82900
C  23.13800 -6.18500 46.90800
C  23.38900 -9.81500 50.10900
C  28.18000 -8.73400 50.94500
N  25.55100 -5.90600 47.47700
C  26.53100 -5.15800 47.08600
C  26.26400 -4.25100 45.87400
C  24.76300 -4.54900 45.68200
C  24.45600 -5.57400 46.75100
C  23.85800 -3.39200 45.39400
C  27.25300 -4.69900 44.72600
C  27.92400 -3.59900 43.81200
H  27.01300 -2.59000 43.10700
N  23.47200 -7.91100 48.65100
C  22.66000 -7.20500 47.75200
C  21.38800 -7.84000 47.60500
C  21.38000 -8.90800 48.61300
C  22.70400 -8.91500 49.26800
C  20.33900 -7.37100 46.67000
C  20.18900 -9.85400 48.94200
O  19.16100 -9.70700 48.32300
C  20.19100 -10.82800 50.01900
N  25.70200 -8.99300 50.22600
C  24.71300 -9.81400 50.66400
C  25.25400 -11.02500 51.41500
C  26.76800 -10.68100 51.58700
C  26.90600 -9.39500 50.86600
C  24.40100 -11.28800 52.75200
C  27.74200 -11.77500 51.01800
C  28.76100 -12.31300 52.01200
N  27.50700 -6.83500 49.63100
C  28.51600 -7.54700 50.31600
C  29.73600 -6.86400 50.23800
C  29.50200 -5.85100 49.28800
C  28.14800 -5.92900 48.90800
C  30.96600 -7.28200 50.91900
C  30.03200 -4.71900 48.58400
O  31.06000 -4.12000 48.70500
C  28.90700 -4.18400 47.61100
C  28.54600 -2.74800 47.95400
O  27.93900 -2.36300 48.93500
O  28.88300 -1.92500 46.92400
C  28.21100 -0.61600 46.80100
H  22.51600 -5.74200 46.12700
H  22.77100 -10.63900 50.47100
H  28.88500 -9.32400 51.53400
H  26.25600 -3.24400 46.29000
H  24.64000 -5.18600 44.80700
H  23.16500 -3.24700 46.22300
H  23.29400 -3.65300 44.49800
H  24.41800 -2.46600 45.26200
H  26.52400 -5.23700 44.12100
H  28.06300 -5.37900 44.98800
H  28.56800 -3.94800 43.00500
H  28.55600 -2.99000 44.45900
H  20.24700 -6.28500 46.65000
H  19.37200 -7.76700 46.98200
H  20.39600 -7.80500 45.67200
H  20.56500 -10.42300 50.95900
H  20.76800 -11.72300 49.78800
H  19.19200 -11.24700 50.13500
H  25.18300 -11.94400 50.83400
H  26.95200 -10.46800 52.64000
H  23.99500 -12.29900 52.77600
H  23.56700 -10.62500 52.97900
H  25.11000 -11.01000 53.53300
H  28.35500 -11.31000 50.24600
H  27.23600 -12.55100 50.44300
H  29.71300 -11.92400 51.65200
H  28.88100 -13.39500 52.07000
H  28.60800 -11.85500 52.98900
H  31.38400 -6.38400 51.37200
H  31.61200 -7.87600 50.27100
H  30.63900 -7.87000 51.77600
H  29.40200 -4.27400 46.64400
H  28.87700 0.21900 47.01600
H  27.25800 -0.68300 47.32500
H  28.00600 -0.59800 45.73000
Mg 47.25400 15.27000 28.15900
C  45.09100 15.15700 30.84700
C  49.49600 17.07800 30.12000
C  49.01100 15.90900 25.34700
C  45.01500 13.40600 26.34800
N  47.19800 16.13400 30.23900
C  46.28300 15.78100 31.25200
C  46.74500 16.31100 32.66100
C  48.10000 17.07700 32.28500
C  48.27400 16.81200 30.79300
C  48.19300 18.64200 32.58100
C  46.90000 15.08900 33.59800
C  46.16900 15.16900 34.96500
H  45.96700 16.65700 35.43600
N  49.00100 16.29900 27.77300
C  49.83000 16.95300 28.72200
C  50.97900 17.27100 28.04600
C  50.85300 17.09400 26.67900
C  49.58800 16.41000 26.51400
C  52.06500 17.92200 28.71700
C  51.76900 17.47900 25.47000
O  51.46000 17.36000 24.29800
C  53.09000 18.10900 25.84800
N  47.13700 14.54500 26.15000
C  47.93100 15.04900 25.18800
C  47.52000 14.61200 23.71900
C  46.29300 13.73800 24.11300
C  46.08700 13.93800 25.61900
C  47.22200 15.79400 22.80100
C  46.30100 12.22100 23.72800
C  47.27600 11.50300 24.61900
N  45.45600 14.56300 28.46600
C  44.66400 13.73600 27.63000
C  43.39900 13.43200 28.22200
C  43.53300 13.99900 29.53500
C  44.85100 14.60700 29.60300
C  42.30400 12.59600 27.77500
C  42.84600 14.11300 30.82400
O  41.79000 13.58900 31.20200
C  43.85800 14.81700 31.76000
C  43.25000 16.08900 32.22600
O  43.41600 17.18100 31.66600
O  42.50000 15.97300 33.39600
C  41.88500 17.24000 33.67900
H  50.24200 17.58400 30.73800
H  49.45700 16.13700 24.37600
H  44.30600 12.78700 25.79400
H  45.96900 16.98400 33.02700
H  48.99100 16.66300 32.75600
H  49.18800 18.77300 33.00500
H  47.42100 18.89400 33.30800
H  48.07400 19.19100 31.64700
H  47.89100 14.93000 34.02300
H  46.51900 14.21800 33.06600
H  46.74800 14.74100 35.78400
H  45.21800 14.63700 34.99300
H  52.23000 18.96100 28.43200
H  53.01500 17.43100 28.50800
H  51.94600 17.97900 29.79900
H  53.64600 18.28800 24.92700
H  53.59600 17.30500 26.38100
H  53.00000 19.05600 26.38100
H  48.36800 14.04400 23.33400
H  45.46100 14.19800 23.58100
H  48.14900 16.11200 22.32300
H  46.85200 16.67500 23.32500
H  46.46200 15.54900 22.06000
H  46.49500 12.19900 22.65600
H  45.34200 11.71200 23.82400
H  48.03600 12.16300 25.03700
H  47.84800 10.77000 24.04900
H  46.66700 10.86800 25.26300
H  42.02800 12.74900 26.73200
H  41.41100 12.84600 28.34800
H  42.61900 11.56800 27.95700
H  43.95000 14.27900 32.70400
H  41.03500 17.16400 34.35700
H  41.53900 17.88400 32.87100
H  42.58900 17.84200 34.25400

