158

Mg 1.60200 -1.55900 44.77200
C  4.75700 -0.37800 44.00100
C  0.31600 1.23400 43.29700
C  -1.42400 -3.08600 44.70400
C  3.09200 -4.66000 45.55300
N  2.49300 0.16400 43.54600
C  3.77900 0.49700 43.43400
C  4.02000 1.83500 42.68600
C  2.51600 2.45400 42.95300
C  1.69900 1.22600 43.30800
C  2.43900 3.49900 44.02700
C  4.41500 1.60800 41.19500
C  5.85900 2.10900 40.90700
H  6.70400 1.37000 39.89100
N  -0.31900 -0.91000 44.34800
C  -0.60600 0.25600 43.71400
C  -2.05100 0.32500 43.57600
C  -2.65900 -0.90500 43.99600
C  -1.50900 -1.66800 44.43600
C  -2.68700 1.63800 42.99900
C  -4.16200 -1.33500 43.93800
O  -5.01200 -0.52300 43.59800
C  -4.77100 -2.66100 44.29800
N  0.96600 -3.62100 44.81100
C  -0.37600 -3.90700 45.03700
C  -0.70300 -5.24600 45.67700
C  0.73300 -5.78100 45.89400
C  1.67300 -4.62000 45.37100
C  -1.53000 -5.11100 46.90600
C  0.96000 -7.20300 45.22600
C  1.42300 -8.28000 46.24200
N  3.51400 -2.38000 44.83900
C  4.04700 -3.64300 45.19300
C  5.50600 -3.63300 45.13800
C  5.78600 -2.33600 44.72800
C  4.57900 -1.64800 44.56500
C  6.42200 -4.86000 45.41700
C  6.92600 -1.48600 44.40000
O  8.13800 -1.58500 44.45700
C  6.26700 -0.17800 43.94900
C  6.55600 0.73800 45.07400
O  5.86900 0.83100 46.08700
O  7.66100 1.41600 44.74900
C  7.85900 2.68600 45.37600
H  -0.21100 2.14800 43.01700
H  -2.44500 -3.46000 44.80300
H  3.61900 -5.56200 45.86900
H  4.77400 2.40000 43.23300
H  2.15000 2.89700 42.02700
H  2.98500 4.38200 43.69500
H  2.81800 3.18100 44.99800
H  1.42900 3.87900 44.18300
H  3.79200 2.29500 40.62200
H  4.39400 0.57600 40.84500
H  6.47200 2.03900 41.80500
H  5.72600 3.15400 40.62700
H  -3.77100 1.56100 42.91700
H  -2.42200 1.85200 41.96300
H  -2.47500 2.55800 43.54300
H  -4.38100 -2.93800 45.27700
H  -4.33200 -3.33900 43.56600
H  -5.85600 -2.64600 44.40600
H  -1.31500 -5.87700 45.03400
H  1.04600 -5.85400 46.93600
H  -2.57800 -5.10700 46.60700
H  -1.25200 -4.18100 47.40100
H  -1.30200 -6.01000 47.47900
H  1.63400 -6.98400 44.39700
H  -0.01800 -7.57300 44.91900
H  1.21300 -8.06700 47.29000
H  2.46300 -8.57500 46.10200
H  0.80900 -9.15600 46.03200
H  5.77100 -5.72200 45.27700
H  6.70400 -4.83300 46.46900
H  7.30600 -4.86200 44.77900
H  6.71500 0.20700 43.03300
H  8.80400 2.98400 44.92100
H  7.73300 2.51300 46.44500
H  7.15300 3.44400 45.03600
Mg 44.16700 4.90500 46.78200
C  42.25200 7.93900 46.44600
C  41.13800 3.29300 45.96000
C  45.92400 2.24200 46.19400
C  47.01800 6.95700 46.48200
N  41.93300 5.56100 46.35900
C  41.45600 6.87000 46.36200
C  39.98100 6.91700 46.01700
C  39.55300 5.40800 45.89100
C  40.91300 4.69500 46.06800
C  38.51600 4.87900 46.91400
C  39.68600 7.73400 44.75600
C  40.59000 7.48700 43.52100
H  39.91900 7.79600 42.17500
N  43.56200 3.01300 46.33700
C  42.27900 2.48800 45.99300
C  42.44200 1.04700 45.63200
C  43.87200 0.78600 45.61500
C  44.54800 2.04100 46.13400
C  41.31900 0.13800 45.28100
C  44.49200 -0.54900 45.24500
O  43.84200 -1.55200 44.95800
C  45.96800 -0.74800 45.22000
N  46.16700 4.59000 46.38700
C  46.67000 3.37300 46.44500
C  48.18900 3.39700 46.28300
C  48.53100 4.86500 46.43800
C  47.16400 5.57400 46.47500
C  48.97200 2.37600 47.09300
C  49.56600 5.48500 45.42300
C  50.93200 5.78400 46.09600
N  44.58600 6.98500 46.70100
C  45.82200 7.70800 46.61100
C  45.61300 9.14800 46.55600
C  44.22100 9.27800 46.57500
C  43.67100 8.00100 46.57000
C  46.66300 10.24500 46.51500
C  43.10700 10.26500 46.54600
O  43.07600 11.46700 46.44600
C  41.85100 9.41600 46.40300
C  40.94700 9.69600 47.53400
O  41.14800 9.43700 48.69100
O  39.78600 10.32100 47.06200
C  38.66200 10.47300 48.06100
H  40.25700 2.73200 45.64200
H  46.53300 1.33700 46.13800
H  47.94400 7.53400 46.45700
H  39.43000 7.41100 46.81800
H  39.10400 5.07400 44.95500
H  38.25100 5.70700 47.57200
H  38.89100 4.06800 47.53900
H  37.64400 4.46000 46.41100
H  39.65100 8.78700 45.03500
H  38.71600 7.33800 44.45500
H  40.97300 6.46700 43.49600
H  41.46700 8.12400 43.63800
H  41.48900 -0.13300 44.23900
H  40.39300 0.71200 45.31700
H  41.25700 -0.69100 45.98600
H  46.15000 -1.75900 44.85500
H  46.37700 -0.77300 46.23000
H  46.48200 -0.02800 44.58400
H  48.36200 3.12100 45.24300
H  48.75000 4.91700 47.50400
H  48.33900 1.60700 47.53600
H  49.47000 2.94700 47.87600
H  49.73300 1.79000 46.57800
H  49.20900 6.42400 44.99900
H  49.75100 4.92000 44.51000
H  51.10800 5.53400 47.14200
H  51.46400 6.73500 46.06400
H  51.67200 5.23800 45.51200
H  47.57800 9.71400 46.25200
H  46.75300 10.70800 47.49700
H  46.40800 10.98200 45.75300
H  41.28900 9.82200 45.56200
H  38.04200 11.23300 47.58500
H  38.86700 10.65100 49.11700
H  38.04900 9.57800 47.95400

