158

Mg 16.76800 -1.37000 27.97900
C  15.80800 0.78600 30.64400
C  18.84800 -3.00600 29.97100
C  18.10100 -2.91000 25.20100
C  14.88300 0.82400 25.72100
N  17.24100 -1.04000 30.00300
C  16.75600 -0.19800 30.94900
C  17.38500 -0.54900 32.32600
C  18.43000 -1.61300 32.02000
C  18.15700 -1.90700 30.56400
C  19.93700 -1.20000 32.21100
C  16.21900 -1.04600 33.22400
C  16.05700 -0.33200 34.60900
H  17.21900 0.45000 35.29000
N  18.18300 -2.92700 27.68600
C  18.94700 -3.44600 28.64600
C  19.80700 -4.44900 28.10600
C  19.45300 -4.52700 26.72700
C  18.58400 -3.37600 26.47300
C  20.79700 -5.17700 28.82700
C  20.09400 -5.45700 25.68300
O  19.75100 -5.42000 24.50600
C  20.89300 -6.62500 26.13300
N  16.53000 -1.13900 25.76100
C  17.21800 -1.89400 24.86800
C  17.02100 -1.36700 23.45600
C  15.70500 -0.57600 23.61200
C  15.67200 -0.22100 25.13300
C  18.28800 -0.53700 22.92500
C  14.43400 -1.40800 23.27500
C  13.81700 -1.06600 21.95900
N  15.60200 0.39900 28.13000
C  14.92700 1.10200 27.11400
C  14.24600 2.25900 27.79600
C  14.47500 2.07300 29.17500
C  15.29400 0.95400 29.29400
C  13.38000 3.35300 27.22300
C  14.21600 2.71600 30.42200
O  13.58400 3.71900 30.70100
C  15.06500 1.86400 31.45000
C  15.97900 2.83500 32.03700
O  17.08600 3.10700 31.58000
O  15.43800 3.35500 33.14800
C  16.30800 4.39400 33.75400
H  19.46000 -3.46300 30.75100
H  18.52500 -3.38900 24.31600
H  14.34100 1.48000 25.03800
H  17.80900 0.37100 32.72800
H  18.24000 -2.58000 32.48500
H  20.38700 -0.86500 31.27600
H  20.47200 -2.03600 32.66100
H  20.07800 -0.33400 32.85900
H  16.29600 -2.10900 33.45200
H  15.28400 -1.00300 32.66600
H  15.81500 -1.10600 35.33700
H  15.16600 0.29300 34.55000
H  20.60300 -6.24000 28.68800
H  20.81900 -4.98700 29.90000
H  21.81400 -4.92400 28.52900
H  20.35400 -7.13700 26.93000
H  21.88500 -6.29800 26.44700
H  20.95500 -7.17000 25.19100
H  16.88100 -2.24700 22.82900
H  15.66200 0.36000 23.05400
H  18.03700 0.33600 22.32200
H  18.95300 -1.16600 22.33200
H  18.88400 -0.18700 23.76800
H  13.61200 -1.23000 23.96800
H  14.66700 -2.46500 23.14700
H  12.74700 -1.17200 22.13500
H  14.05500 -1.63700 21.06200
H  13.90700 -0.02400 21.65400
H  12.63400 3.60700 27.97600
H  12.77500 3.03400 26.37400
H  13.97900 4.20300 26.89500
H  14.45300 1.44900 32.25100
H  16.33800 5.22100 33.04500
H  17.23600 3.87300 33.99100
H  15.84000 4.69200 34.69300
Mg -1.30200 34.36500 27.73200
C  -3.14000 32.29800 29.98300
C  0.18200 35.72900 30.49300
C  0.00600 36.55300 25.65300
C  -3.07800 32.79000 25.13600
N  -1.56300 34.07400 29.94600
C  -2.34800 33.21300 30.64400
C  -2.11100 33.25600 32.13500
C  -1.21800 34.55100 32.33200
C  -0.88500 34.90300 30.84900
C  -1.85100 35.72700 33.07400
C  -1.45800 31.96300 32.73300
C  -1.95200 31.48000 34.11300
H  -1.30500 31.91100 35.41400
N  0.07600 35.85100 27.99400
C  0.60900 36.24600 29.25600
C  1.66400 37.16000 28.97900
C  1.60800 37.38200 27.55200
C  0.54500 36.57000 26.97400
C  2.51600 37.80200 30.08400
C  2.39700 38.43500 26.75900
O  2.12300 38.71800 25.63900
C  3.47900 39.21500 27.40800
N  -1.55500 34.61200 25.70800
C  -0.99100 35.71600 25.10000
C  -1.59100 35.95900 23.73300
C  -2.28500 34.61700 23.41400
C  -2.39800 33.93400 24.80700
C  -2.50600 37.21300 23.58700
C  -1.59500 33.73500 22.30200
C  -2.18700 34.03100 20.85200
N  -2.74500 32.81900 27.46200
C  -3.33400 32.17200 26.39000
C  -4.18800 31.12400 26.78500
C  -4.21200 31.17500 28.19900
C  -3.29300 32.17900 28.57600
C  -4.92700 30.17900 25.87100
C  -4.75600 30.51900 29.30400
O  -5.55400 29.59100 29.27600
C  -4.04000 31.18000 30.58100
C  -5.25600 31.70800 31.29500
O  -6.11000 32.51000 30.89200
O  -5.27800 31.15300 32.56300
C  -6.18800 31.78500 33.52400
H  0.56300 36.24400 31.37800
H  0.24700 37.35800 24.95500
H  -3.56900 32.37700 24.25200
H  -3.05100 33.43600 32.65800
H  -0.28500 34.35800 32.86100
H  -2.92700 35.55700 33.12100
H  -1.66500 36.65400 32.53300
H  -1.47400 35.77900 34.09600
H  -0.42800 32.27500 32.90500
H  -1.48000 31.13900 32.01900
H  -2.17100 30.41500 34.04500
H  -2.96600 31.85100 34.25900
H  3.52700 37.64700 29.70600
H  2.53800 37.21900 31.00400
H  2.27400 38.85300 30.24200
H  3.05500 39.83700 28.19600
H  4.03800 39.85800 26.72700
H  4.20300 38.53600 27.85800
H  -0.74700 35.96600 23.04300
H  -3.31700 34.84300 23.14600
H  -2.80400 37.58400 24.56800
H  -3.45600 37.03300 23.08400
H  -2.02500 38.01600 23.02900
H  -1.65200 32.67800 22.56300
H  -0.51800 33.87200 22.40300
H  -2.98500 34.77300 20.85800
H  -2.59600 33.10200 20.45700
H  -1.41500 34.46500 20.21700
H  -4.32300 30.00300 24.98100
H  -5.94300 30.48600 25.62200
H  -5.06300 29.21100 26.35500
H  -3.47300 30.55200 31.26800
H  -5.68500 32.20800 34.39400
H  -6.74400 30.98700 34.01600
H  -6.88600 32.51200 33.11100

