158

Mg 48.85500 44.75400 42.57100
C  45.64500 45.38100 41.56200
C  48.69000 41.63100 41.17500
C  52.16900 44.54900 42.92600
C  49.19500 48.28700 43.39800
N  47.43600 43.75100 41.44200
C  46.11100 44.10400 41.23000
C  45.40700 43.13600 40.28900
C  46.23200 41.84600 40.48500
C  47.53200 42.38600 41.16300
C  45.53400 40.79700 41.32000
C  45.37100 43.67400 38.82900
C  44.06900 43.58200 38.12400
H  44.08300 42.90000 36.73700
N  50.21100 43.27700 42.21500
C  49.97800 42.02000 41.62100
C  51.20400 41.32200 41.63400
C  52.17000 42.13300 42.24100
C  51.51700 43.41500 42.50100
C  51.29800 39.90900 40.98300
C  53.63500 41.74600 42.51700
O  54.14800 40.68700 42.18900
C  54.58800 42.58400 43.45600
N  50.45600 46.26100 43.10100
C  51.73500 45.85400 43.13900
C  52.63200 46.94300 43.61000
C  51.72700 48.19100 43.52300
C  50.38500 47.60700 43.28000
C  53.20100 46.69300 45.06300
C  52.07600 49.02800 42.20700
C  52.58500 50.44900 42.56200
N  47.68400 46.46900 42.51700
C  47.91000 47.79200 42.95200
C  46.67900 48.54400 42.86900
C  45.76700 47.58500 42.39700
C  46.42800 46.37600 42.10100
C  46.38500 49.99500 43.35800
C  44.33700 47.35100 42.11600
O  43.40900 48.15200 42.23300
C  44.20100 45.85600 41.55000
C  43.34900 44.96500 42.39500
O  42.18500 44.62000 42.19600
O  44.04200 44.43600 43.40300
C  43.48600 43.27100 44.11600
H  48.61300 40.60200 40.81900
H  53.23400 44.45600 43.14900
H  49.20300 49.35100 43.64100
H  44.45700 42.90500 40.77200
H  46.58600 41.41700 39.54800
H  46.22900 40.45600 42.08800
H  45.21400 39.94400 40.72200
H  44.70100 41.21000 41.88900
H  46.04600 43.10000 38.19300
H  45.61300 44.72400 38.66900
H  43.54700 44.53800 38.10200
H  43.35800 42.94800 38.65400
H  52.03900 39.34900 41.55400
H  51.59900 39.76400 39.94600
H  50.32600 39.44400 41.14400
H  53.95300 42.96200 44.25700
H  55.02300 43.27400 42.73300
H  55.31100 41.84900 43.80900
H  53.47100 46.97100 42.91500
H  51.69700 48.68200 44.49500
H  52.58300 47.06600 45.88000
H  54.18700 47.15100 44.98200
H  53.19700 45.61000 45.18400
H  51.19400 49.11100 41.57100
H  52.83200 48.47000 41.65500
H  53.60300 50.50700 42.17600
H  52.59400 50.70000 43.62300
H  51.92900 51.18700 42.10100
H  45.29900 50.08300 43.39700
H  46.70900 50.79000 42.68600
H  46.80300 50.08100 44.36100
H  43.75200 45.97100 40.56300
H  42.93100 42.53100 43.53900
H  42.82000 43.55800 44.93000
H  44.37200 42.73300 44.45400
Mg -2.12000 34.80400 26.37500
C  -4.09600 32.92400 28.74600
C  -1.20500 36.80600 29.01400
C  -0.43600 36.69600 24.10700
C  -3.22200 32.87400 23.82000
N  -2.58100 34.76800 28.63500
C  -3.40400 34.01900 29.34600
C  -3.25100 34.27600 30.82200
C  -2.59600 35.58700 30.82400
C  -2.08700 35.76000 29.38400
C  -3.63000 36.72900 31.13700
C  -2.57900 33.19300 31.63200
C  -2.99700 32.97100 33.06600
H  -3.23300 34.21000 33.90300
N  -0.95800 36.49100 26.54300
C  -0.70900 37.14200 27.69700
C  0.21600 38.27100 27.40800
C  0.32500 38.29300 26.00700
C  -0.32900 37.10600 25.45000
C  0.71900 39.19200 28.49500
C  0.97500 39.29800 25.18100
O  1.15700 39.11700 24.00800
C  1.53200 40.53800 25.80000
N  -1.86000 34.82600 24.25600
C  -1.07700 35.62600 23.55800
C  -0.90500 35.16700 22.07700
C  -1.70300 33.87000 22.11000
C  -2.33100 33.84200 23.46900
C  -1.40200 36.22100 20.95000
C  -0.71800 32.72500 21.82100
C  0.47500 32.63000 22.75000
N  -3.51700 33.35700 26.19900
C  -3.87600 32.66600 25.09400
C  -4.79700 31.65100 25.45900
C  -4.92600 31.72300 26.87800
C  -4.12300 32.73100 27.31400
C  -5.53900 30.71200 24.59600
C  -5.52200 31.14400 28.05700
O  -6.28000 30.21600 28.16000
C  -5.02400 31.86500 29.30300
C  -6.17900 32.45000 30.00400
O  -7.04600 33.12400 29.50800
O  -6.12000 32.09700 31.32900
C  -7.25000 32.34400 32.14100
H  -0.93900 37.39600 29.89400
H  0.05700 37.32200 23.36100
H  -3.55900 32.14400 23.08100
H  -4.26000 34.23600 31.23100
H  -1.77900 35.57400 31.54600
H  -3.12900 37.41600 31.81900
H  -4.53700 36.32600 31.58900
H  -3.96800 37.30200 30.27400
H  -1.49600 33.27900 31.71800
H  -2.70900 32.27600 31.05700
H  -2.22600 32.35800 33.53200
H  -3.96300 32.46800 33.02600
H  1.76000 39.33000 28.20300
H  0.67200 38.88400 29.53900
H  0.08900 40.07800 28.41900
H  0.60000 40.97200 26.16300
H  1.84500 41.13600 24.94400
H  2.39500 40.44700 26.46000
H  0.18100 35.16700 21.98300
H  -2.45900 33.89800 21.32400
H  -2.17900 35.83700 20.28800
H  -0.55600 36.44100 20.29900
H  -1.71600 37.07000 21.55700
H  -0.44800 32.64600 20.76800
H  -1.31500 31.82500 21.96800
H  0.49300 31.65400 23.23600
H  0.65300 33.47300 23.41800
H  1.33700 32.67200 22.08400
H  -4.95200 29.79400 24.59600
H  -5.55300 30.94200 23.53100
H  -6.53300 30.52000 25.00000
H  -4.47000 31.16100 29.92400
H  -7.96900 33.04900 31.72300
H  -6.94800 32.51200 33.17500
H  -7.80900 31.41400 32.24900

