158

Mg 35.28200 2.85200 29.45600
C  32.89500 3.77200 31.96300
C  37.72300 2.74700 32.02500
C  37.35400 1.93100 27.20100
C  32.69700 3.37000 27.16000
N  35.27300 3.27500 31.68700
C  34.16100 3.54300 32.50300
C  34.55400 3.61500 33.95300
C  36.12600 3.69700 33.85200
C  36.40900 3.18700 32.41700
C  36.57100 5.12600 34.14900
C  34.04700 2.29800 34.68900
C  33.96000 2.20200 36.20000
H  34.38100 3.39200 37.08800
N  37.30300 2.46100 29.55700
C  38.12100 2.35800 30.68800
C  39.46000 1.99000 30.26800
C  39.40600 1.71800 28.88100
C  37.97800 2.02800 28.48400
C  40.68500 1.97600 31.19500
C  40.47300 1.34400 27.83000
O  40.25200 1.23700 26.60900
C  41.88700 1.06100 28.13400
N  35.07600 2.84200 27.30400
C  36.06900 2.27500 26.65300
C  35.66700 2.15400 25.22200
C  34.08300 2.42400 25.24000
C  33.89900 2.90600 26.61800
C  36.29400 3.20800 24.29500
C  33.26000 1.17200 24.91700
C  33.55600 -0.13700 25.72500
N  33.29200 3.67800 29.46200
C  32.41700 3.75400 28.47500
C  31.11200 4.09100 28.98900
C  31.23100 4.14500 30.35700
C  32.53500 3.80400 30.61600
C  29.79900 4.29200 28.21500
C  30.50600 4.46300 31.56700
O  29.42300 4.95900 31.75400
C  31.59900 4.11800 32.74400
C  31.79100 5.30300 33.57900
O  32.26300 6.33900 33.25900
O  31.17900 5.01200 34.75300
C  31.30200 6.01300 35.88100
H  38.42800 2.67600 32.85600
H  37.81500 1.30700 26.43200
H  31.87100 3.46100 26.45200
H  34.13500 4.42700 34.54700
H  36.62400 3.13600 34.64300
H  37.17500 5.54200 33.34200
H  37.29800 5.05400 34.95900
H  35.78200 5.76200 34.55000
H  34.61600 1.41100 34.41100
H  33.01500 2.15600 34.36600
H  34.56900 1.33300 36.45000
H  32.93700 1.96600 36.49700
H  41.31700 1.11100 30.99400
H  40.41200 1.91000 32.24800
H  41.31100 2.85400 31.03300
H  42.47400 0.79200 27.25600
H  42.00100 0.36000 28.96000
H  42.38300 1.92300 28.58000
H  35.87300 1.16300 24.81900
H  33.85100 3.20100 24.51100
H  37.34300 3.39500 24.52600
H  35.78200 4.16700 24.37600
H  36.35000 2.86600 23.26200
H  33.46300 0.89100 23.88300
H  32.21900 1.47300 25.03100
H  33.71500 -0.84900 24.91500
H  32.63800 -0.38000 26.25900
H  34.46700 -0.10800 26.32200
H  29.90000 3.86600 27.21700
H  29.47000 5.32900 28.14000
H  28.98800 3.81300 28.76300
H  31.29500 3.26500 33.35200
H  30.29900 6.42700 35.98100
H  32.00900 6.81700 35.67500
H  31.62400 5.50900 36.79200
Mg -12.08600 15.41400 42.67900
C  -8.98500 13.82000 41.99400
C  -10.72500 18.07200 40.87700
C  -15.13100 16.63200 42.30800
C  -13.33200 12.34900 43.71800
N  -10.03200 15.92800 41.66300
C  -9.03700 15.05900 41.43200
C  -7.89300 15.66100 40.66700
C  -8.27400 17.09400 40.48200
C  -9.74200 17.09600 41.08800
C  -7.43400 18.14800 41.21800
C  -7.53100 14.87600 39.31200
C  -6.02500 14.72400 39.01000
H  -5.33400 15.45300 37.74500
N  -12.77000 17.15800 41.78100
C  -12.08200 18.18900 41.26700
C  -13.05500 19.24700 40.90300
C  -14.33100 18.81900 41.33000
C  -14.13800 17.47000 41.86300
C  -12.70700 20.49500 40.13400
C  -15.55400 19.72700 41.38300
O  -15.51100 20.91200 40.98200
C  -16.86000 19.26600 41.93600
N  -13.90300 14.71900 43.21100
C  -15.07800 15.41800 42.98800
C  -16.27100 14.60600 43.36400
C  -15.72000 13.28000 43.83500
C  -14.18400 13.40900 43.50200
C  -17.17800 15.30400 44.48100
C  -16.36700 11.99500 43.42500
C  -16.63300 10.90300 44.50900
N  -11.27800 13.60400 43.16400
C  -11.92300 12.43100 43.54000
C  -10.89500 11.45100 43.78000
C  -9.71600 11.97200 43.15800
C  -10.07300 13.23400 42.68200
C  -11.04200 10.05200 44.35100
C  -8.35200 11.65400 42.83100
O  -7.70800 10.68700 43.12300
C  -7.79200 12.84600 42.09600
C  -6.66900 13.47600 42.89500
O  -6.76500 13.94500 44.02600
O  -5.53200 13.48600 42.11700
C  -4.62100 14.38900 42.78100
H  -10.30500 18.90900 40.31700
H  -16.16600 16.86000 42.04300
H  -13.74900 11.36900 43.96100
H  -7.12800 15.73400 41.44000
H  -8.33800 17.26300 39.40700
H  -6.40200 17.87400 40.99600
H  -7.51800 18.05300 42.30000
H  -7.75000 19.14800 40.92200
H  -8.06300 15.32600 38.47500
H  -7.95200 13.87400 39.22300
H  -5.84400 13.65000 39.04700
H  -5.38800 15.15300 39.78400
H  -12.03400 20.15100 39.34800
H  -12.18700 21.20300 40.77900
H  -13.51800 20.96200 39.57500
H  -17.52000 20.08800 42.21200
H  -16.56900 18.79900 42.87700
H  -17.29600 18.56100 41.22800
H  -16.87200 14.41700 42.47500
H  -15.77000 13.32300 44.92300
H  -16.81500 16.30000 44.73600
H  -17.43200 14.69800 45.35000
H  -18.01700 15.59900 43.84900
H  -15.73900 11.68500 42.59000
H  -17.27700 12.26900 42.89100
H  -15.74000 10.30400 44.69100
H  -17.42200 10.23000 44.17500
H  -16.97300 11.30100 45.46400
H  -10.31900 9.83300 45.13600
H  -10.74400 9.39600 43.53300
H  -12.09700 10.05100 44.62400
H  -7.46200 12.69800 41.06800
H  -5.17700 15.32600 42.74400
H  -3.80100 14.56700 42.08500
H  -4.32000 14.01200 43.75800

