158

Mg 43.75900 4.46800 46.71900
C  41.68100 7.11100 46.76500
C  41.19400 2.26200 46.32900
C  46.00800 1.80900 46.91100
C  46.61100 6.75500 46.74600
N  41.75200 4.68200 46.40200
C  41.09100 5.82800 46.65800
C  39.60000 5.66000 46.63000
C  39.46800 4.08400 46.68800
C  40.88200 3.66400 46.41000
C  38.96200 3.54300 48.06000
C  38.86200 6.29400 45.40100
C  39.62200 6.28800 44.03400
H  38.80300 5.94200 42.77500
N  43.63300 2.31000 46.47100
C  42.45300 1.65800 46.39200
C  42.73900 0.24000 46.28900
C  44.16100 0.09900 46.30600
C  44.69100 1.43500 46.63000
C  41.74700 -0.87300 46.20500
C  44.99700 -1.18000 46.00100
O  44.40200 -2.23700 45.86100
C  46.49200 -1.11800 45.82900
N  45.95000 4.24900 46.84300
C  46.56700 3.09200 47.02400
C  48.08500 3.28300 47.24700
C  48.17700 4.86300 47.40500
C  46.82100 5.38100 46.95300
C  48.55800 2.49500 48.43500
C  49.33200 5.37500 46.41300
C  50.76200 4.88800 46.52900
N  44.13300 6.52000 46.58900
C  45.29100 7.34000 46.67100
C  44.88000 8.72200 46.77800
C  43.47400 8.71200 46.78600
C  43.11600 7.34400 46.63400
C  45.94400 9.83600 46.92200
C  42.31800 9.49000 46.98700
O  42.20600 10.68700 47.19600
C  41.07500 8.45100 46.98100
C  40.26100 8.55500 48.21700
O  40.63100 8.36000 49.39900
O  38.97300 8.95900 47.87700
C  38.04400 9.10900 49.04600
H  40.35500 1.56900 46.23700
H  46.71800 0.99300 47.06500
H  47.34800 7.55900 46.78600
H  39.21100 6.05600 47.56900
H  38.67500 3.89900 45.96400
H  38.54700 4.32300 48.69800
H  39.76800 3.17700 48.69700
H  38.20900 2.76000 47.97600
H  38.64500 7.33600 45.63600
H  37.86300 5.88200 45.25800
H  40.53200 5.68900 44.08100
H  39.92800 7.31700 43.84500
H  40.77300 -0.47400 46.48700
H  41.92700 -1.70800 46.88300
H  41.80000 -1.32500 45.21500
H  46.93200 -1.23000 46.82000
H  46.87500 -0.19400 45.39500
H  46.80200 -1.93200 45.17300
H  48.66100 2.99400 46.36800
H  48.44300 5.22900 48.39700
H  48.09200 1.52900 48.62500
H  48.59100 3.06300 49.36500
H  49.60000 2.27100 48.20400
H  49.44900 6.35600 46.87400
H  48.91300 5.52000 45.41700
H  51.36900 5.74200 46.82700
H  51.09100 4.52000 45.55700
H  50.93700 3.99600 47.13100
H  46.67700 9.57600 46.15800
H  46.32400 9.77100 47.94200
H  45.59300 10.84100 46.68900
H  40.53700 8.69500 46.06500
H  38.38300 8.85000 50.04900
H  37.17600 8.53400 48.72200
H  37.68900 10.13900 49.04900
Mg 7.14700 56.78900 42.44300
C  6.00200 53.38600 41.94900
C  10.00300 55.89000 40.96300
C  7.69900 60.00200 42.16200
C  3.83900 57.43400 43.68600
N  7.82200 54.87100 41.37100
C  7.27500 53.63400 41.30000
C  8.21500 52.70900 40.50400
C  9.55200 53.37700 40.79500
C  9.13300 54.82800 40.98100
C  10.45800 52.75900 41.94200
C  7.79400 52.61500 38.98300
C  7.54300 51.24100 38.44000
H  6.69500 51.16400 37.13200
N  8.57800 57.80600 41.48000
C  9.78600 57.28000 41.06700
C  10.68600 58.41400 40.67100
C  9.91100 59.64400 40.90500
C  8.71100 59.19500 41.59900
C  12.10100 58.07900 40.23100
C  10.35600 61.08200 40.54000
O  11.51500 61.20700 40.16800
C  9.35400 62.29100 40.46200
N  5.90900 58.45800 42.94100
C  6.41200 59.66800 42.74000
C  5.35400 60.79100 43.10400
C  4.09300 59.91500 43.50800
C  4.68600 58.46600 43.56600
C  5.71300 61.84200 44.15800
C  2.82100 60.02000 42.63700
C  1.51600 60.72800 43.16000
N  5.36600 55.70100 42.83600
C  4.14700 56.12900 43.43500
C  3.35200 54.96400 43.67900
C  4.04300 53.84700 43.11300
C  5.28500 54.37100 42.62500
C  1.93300 54.99500 44.31600
C  3.99700 52.39600 42.77500
O  3.10100 51.59900 43.00700
C  5.27600 52.07600 42.05600
C  4.94500 51.48800 40.67400
O  4.67500 52.09200 39.65900
O  4.98100 50.12400 40.76100
C  4.53400 49.46100 39.54400
H  11.01800 55.57400 40.71400
H  7.87600 61.07900 42.12200
H  2.94100 57.59700 44.28400
H  8.16500 51.70400 40.92200
H  10.23700 53.36400 39.94800
H  9.88600 52.07800 42.57100
H  10.92900 53.52400 42.55900
H  11.30200 52.17500 41.57500
H  8.58400 53.13800 38.44200
H  6.93200 53.24900 38.77700
H  6.89100 50.72000 39.14100
H  8.45600 50.66300 38.29500
H  12.24100 58.10100 39.15000
H  12.35600 57.04200 40.45100
H  12.77600 58.74300 40.76900
H  8.40000 61.91200 40.09600
H  9.66300 62.90400 39.61500
H  9.37700 62.85400 41.39500
H  5.15900 61.40000 42.22100
H  3.76700 60.30500 44.47200
H  6.54100 61.33600 44.65600
H  4.91400 62.04500 44.87100
H  5.98400 62.80300 43.72100
H  2.62800 59.06700 42.14400
H  3.00100 60.62800 41.75000
H  1.31900 61.68200 42.67300
H  1.60400 60.96600 44.22000
H  0.60000 60.15600 43.01400
H  1.91200 55.39000 45.33200
H  1.50900 53.99300 44.24200
H  1.29200 55.64200 43.71800
H  5.83800 51.31400 42.59700
H  3.44800 49.50300 39.46300
H  4.89400 48.43700 39.63700
H  5.02500 49.87600 38.66400

