158

Mg 47.08100 24.91500 29.14900
C  47.93900 27.26900 31.68100
C  45.90900 22.77500 31.56200
C  46.65700 22.53700 26.78300
C  48.52500 26.96500 26.80100
N  46.71400 25.13700 31.26800
C  47.22000 26.11200 32.08200
C  46.97900 25.73400 33.61100
C  46.51100 24.28000 33.48400
C  46.29300 24.07600 31.98400
C  47.52100 23.30700 34.14900
C  45.93400 26.77300 34.24800
C  46.05200 27.30900 35.73700
H  46.73600 26.41900 36.81500
N  46.30600 22.95000 29.14500
C  45.85800 22.30900 30.20500
C  45.32800 21.01000 29.82800
C  45.46000 20.91200 28.44900
C  46.20500 22.14000 28.02700
C  44.61300 19.97300 30.80600
C  45.10800 19.78000 27.50100
O  45.18300 19.91600 26.26300
C  44.49200 18.51600 28.11900
N  47.43500 24.73200 27.04600
C  47.28700 23.72300 26.32200
C  47.75500 23.94400 24.88300
C  48.12800 25.40100 24.88800
C  48.02500 25.76700 26.34400
C  48.74400 22.90300 24.32500
C  47.17100 26.25100 23.95400
C  45.71700 26.19800 24.26800
N  48.03800 26.81600 29.16100
C  48.63200 27.47700 28.12500
C  49.20300 28.70300 28.61200
C  48.94500 28.64500 30.04400
C  48.30200 27.44500 30.30300
C  49.90800 29.69500 27.73200
C  49.10400 29.39900 31.24800
O  49.63300 30.48900 31.27700
C  48.63200 28.46800 32.39300
C  49.64200 28.11900 33.33200
O  50.54500 27.29100 33.17800
O  49.50800 28.81300 34.52400
C  50.43100 28.33300 35.53000
H  45.61200 22.12800 32.39000
H  46.73000 21.74800 26.03200
H  48.86800 27.54900 25.94400
H  47.96500 25.88100 34.05300
H  45.51400 24.17600 33.91400
H  48.27800 23.86600 34.69900
H  48.05400 22.76500 33.36700
H  47.08000 22.60200 34.85400
H  44.99400 26.22200 34.28100
H  45.83900 27.60500 33.55100
H  45.01600 27.46900 36.03700
H  46.57900 28.26100 35.79900
H  44.29000 20.38100 31.76400
H  45.40700 19.27300 31.06600
H  43.73100 19.40500 30.50900
H  45.29300 18.08500 28.71900
H  44.32600 17.81500 27.30100
H  43.52300 18.60600 28.61100
H  46.84800 23.77600 24.30200
H  49.19100 25.50600 24.67000
H  49.75700 23.30500 24.32900
H  48.44500 22.81000 23.28100
H  48.84300 21.93900 24.82300
H  47.26300 25.85600 22.94300
H  47.44800 27.30200 23.86700
H  45.26700 25.82700 23.34700
H  45.30300 27.15700 24.57800
H  45.39100 25.54400 25.07700
H  50.65800 29.29400 27.05100
H  50.36600 30.39400 28.43200
H  49.27300 30.28600 27.07200
H  47.83100 28.90900 32.98600
H  50.16500 27.36400 35.95400
H  50.29800 28.94300 36.42300
H  51.49800 28.48200 35.36300
Mg -5.78200 25.13700 25.39100
C  -4.02800 26.44400 28.09200
C  -7.20000 22.83400 27.60600
C  -7.13700 23.50700 22.69200
C  -3.97800 27.23400 23.28500
N  -5.58600 24.75900 27.59700
C  -4.88100 25.43300 28.51100
C  -5.28900 25.01200 29.88600
C  -5.92300 23.63200 29.65700
C  -6.28700 23.74200 28.18400
C  -5.18200 22.37100 30.10700
C  -6.17200 26.04100 30.55100
C  -6.19500 26.09100 32.11600
H  -5.51200 25.00600 32.98100
N  -7.09200 23.52700 25.19900
C  -7.59100 22.75800 26.20900
C  -8.51800 21.78500 25.71100
C  -8.54400 21.97700 24.27700
C  -7.54100 23.09100 23.94400
C  -9.04200 20.61100 26.49100
C  -9.35600 21.15800 23.26700
O  -9.42100 21.35400 22.05400
C  -10.30200 20.01400 23.72600
N  -5.44100 25.24000 23.32000
C  -6.20700 24.46300 22.42200
C  -5.90400 24.87200 21.01200
C  -5.05600 26.18400 21.14000
C  -4.76700 26.22600 22.63200
C  -5.22600 23.89800 20.01700
C  -5.84100 27.38900 20.50500
C  -7.02900 28.02600 21.13700
N  -4.34600 26.54900 25.66400
C  -3.64900 27.22500 24.67500
C  -2.79400 28.16400 25.25200
C  -2.83300 27.89800 26.63500
C  -3.84000 26.88400 26.82200
C  -1.96800 29.32700 24.65200
C  -2.34400 28.21400 27.93500
O  -1.53000 29.06600 28.24900
C  -3.13800 27.31900 28.97400
C  -2.16400 26.54000 29.85300
O  -1.38900 25.63600 29.51300
O  -2.41900 26.97300 31.14800
C  -1.59500 26.33300 32.18300
H  -7.51000 22.14300 28.39200
H  -7.49600 22.99200 21.79800
H  -3.33900 27.79700 22.60200
H  -4.41900 24.94000 30.53800
H  -6.82800 23.58900 30.26200
H  -5.08000 21.67000 29.27800
H  -5.77600 21.81800 30.83400
H  -4.25300 22.68100 30.58600
H  -7.19000 25.87200 30.19800
H  -5.82200 27.01800 30.21700
H  -7.21900 26.03100 32.48600
H  -5.84500 27.04400 32.51300
H  -8.71900 20.74500 27.52300
H  -8.73000 19.65500 26.07200
H  -10.13100 20.65500 26.53300
H  -11.13200 20.42300 24.30100
H  -9.62100 19.32300 24.22400
H  -10.68400 19.46800 22.86300
H  -6.83400 25.04000 20.46900
H  -4.21200 26.16400 20.45000
H  -5.51000 22.84600 20.03700
H  -4.15600 23.97600 20.21000
H  -5.63300 24.14400 19.03600
H  -6.00600 27.17300 19.44900
H  -5.04300 28.12800 20.42700
H  -6.80800 28.98300 21.60900
H  -7.45800 27.28400 21.81100
H  -7.85000 28.21600 20.44500
H  -0.94800 28.99100 24.46900
H  -1.97700 30.15200 25.36400
H  -2.44800 29.60700 23.71400
H  -3.78400 27.91900 29.61600
H  -1.72600 26.92900 33.08600
H  -0.55100 26.44100 31.89100
H  -1.72000 25.25400 32.28300

