158

Mg 17.18700 52.63800 26.58400
C  19.40700 51.13200 28.75100
C  15.11000 53.20000 29.14800
C  15.20800 54.19600 24.42200
C  19.54600 52.03100 23.97500
N  17.17000 52.05100 28.68300
C  18.18500 51.42500 29.41000
C  17.97900 51.48800 30.92800
C  16.44500 51.78600 30.93300
C  16.17400 52.38300 29.49600
C  15.56300 50.54800 31.21700
C  18.84400 52.68000 31.53700
C  18.98600 52.52900 33.03600
H  17.89400 51.91500 33.79800
N  15.34700 53.56400 26.77400
C  14.69900 53.74600 27.92700
C  13.55900 54.63000 27.67900
C  13.55600 54.89100 26.27000
C  14.73000 54.22500 25.73800
C  12.58800 55.05300 28.76700
C  12.55800 55.69500 25.46900
O  12.54000 55.71200 24.28300
C  11.62300 56.51300 26.18800
N  17.29900 52.91100 24.45600
C  16.33900 53.64800 23.82300
C  16.75700 53.89000 22.36900
C  18.20900 53.33000 22.29700
C  18.35700 52.70400 23.62500
C  15.78300 53.11400 21.42000
C  19.35500 54.28600 21.89600
C  20.00000 54.17600 20.51400
N  18.96200 51.50200 26.34800
C  19.86200 51.51600 25.26100
C  20.99200 50.78100 25.63700
C  20.89400 50.61100 26.98500
C  19.64900 51.11300 27.36600
C  22.26300 50.49000 24.79700
C  21.56200 50.23500 28.14200
O  22.67400 49.74600 28.32700
C  20.66700 50.55500 29.30300
C  20.35400 49.33900 30.19700
O  19.93400 48.32600 29.72800
O  20.64400 49.70300 31.49800
C  20.24700 48.72400 32.49500
H  14.58500 53.63900 29.99900
H  14.59700 54.82800 23.77400
H  20.40600 51.94100 23.30800
H  18.24400 50.53500 31.38500
H  16.17600 52.49700 31.71400
H  14.91900 50.37000 30.35600
H  15.01600 50.69400 32.14900
H  16.17200 49.64400 31.19600
H  18.31200 53.63200 31.53700
H  19.83400 52.84900 31.11300
H  19.17600 53.45300 33.58300
H  19.92900 52.00600 33.19200
H  11.56900 54.80000 28.47300
H  12.66600 56.13300 28.88900
H  12.84200 54.60400 29.72700
H  10.79800 55.94200 26.61500
H  11.20200 57.26200 25.51700
H  12.19300 57.04200 26.95300
H  16.64700 54.95600 22.17200
H  18.11800 52.54700 21.54300
H  16.27900 52.90800 20.47100
H  15.01700 53.86400 21.22400
H  15.46100 52.17200 21.86400
H  20.22000 54.22400 22.55500
H  19.11500 55.33300 22.08400
H  21.08900 54.19900 20.56500
H  19.63700 54.98500 19.87900
H  19.58300 53.28400 20.04700
H  23.05600 50.32100 25.52500
H  22.55700 51.33400 24.17300
H  22.28900 49.57000 24.21300
H  21.15700 51.26800 29.96700
H  19.70400 47.84200 32.15500
H  19.76900 49.19500 33.35400
H  21.21800 48.38600 32.85600
Mg -11.40000 38.31700 41.58500
C  -9.00600 35.75900 41.08300
C  -9.51400 40.41700 39.70100
C  -14.08500 40.32900 41.41100
C  -13.56500 35.72000 42.92900
N  -9.53900 38.06400 40.42800
C  -8.74400 36.93000 40.47900
C  -7.44700 37.22100 39.71500
C  -7.59300 38.74400 39.26900
C  -8.97100 39.11700 39.79400
C  -6.42900 39.74500 39.57800
C  -7.01900 36.21300 38.60600
C  -5.71700 35.48200 38.80600
H  -4.62600 35.60300 37.68300
N  -11.68900 40.23300 40.87400
C  -10.83500 40.92500 40.01300
C  -11.42600 42.12900 39.59300
C  -12.67000 42.20800 40.25500
C  -12.88500 40.90600 40.93400
C  -10.63600 43.05900 38.70400
C  -13.59000 43.44600 40.12800
O  -13.10700 44.48700 39.64900
C  -15.00300 43.45200 40.63200
N  -13.53400 38.05200 42.14900
C  -14.37100 39.06100 42.01300
C  -15.79700 38.69500 42.36100
C  -15.63900 37.25200 42.91100
C  -14.14900 36.97400 42.69400
C  -16.58500 39.66700 43.27300
C  -16.50500 36.33500 41.96200
C  -18.07300 36.66600 41.84700
N  -11.25900 36.23300 42.13100
C  -12.18600 35.36600 42.73700
C  -11.54500 34.10100 43.00500
C  -10.29400 34.19500 42.40900
C  -10.18100 35.49700 41.81900
C  -12.22100 32.98200 43.63500
C  -9.10800 33.57000 42.20500
O  -8.81800 32.44800 42.59800
C  -8.12600 34.57600 41.45500
C  -6.88400 34.81000 42.27600
O  -5.91800 34.08200 42.32400
O  -6.87200 36.07000 42.92300
C  -5.71800 36.44400 43.62900
H  -8.79200 41.07200 39.21000
H  -14.99800 40.92300 41.32400
H  -14.21000 34.97000 43.39200
H  -6.68000 37.17000 40.48800
H  -7.75900 38.64100 38.19600
H  -5.48100 39.25300 39.79500
H  -6.56000 40.54200 40.31100
H  -6.15000 40.28400 38.67200
H  -6.96500 36.63500 37.60200
H  -7.80400 35.45700 38.55900
H  -6.03300 34.44400 38.90500
H  -5.19900 35.80500 39.70900
H  -11.08200 43.96900 38.30500
H  -10.33700 42.43600 37.86100
H  -9.83500 43.34700 39.38600
H  -14.94800 43.17800 41.68500
H  -15.63700 42.90800 39.93200
H  -15.33200 44.48800 40.54200
H  -16.25300 38.70000 41.37100
H  -15.99500 37.12200 43.93300
H  -17.12700 39.02200 43.96400
H  -17.30100 40.25000 42.69300
H  -15.84800 40.32600 43.73300
H  -16.35300 35.30800 42.29500
H  -16.14100 36.46300 40.94300
H  -18.30500 37.53900 42.45700
H  -18.71600 35.85700 42.19200
H  -18.37200 36.99300 40.85200
H  -12.59700 33.24100 44.62500
H  -11.61700 32.07500 43.60700
H  -13.07300 32.74000 42.99900
H  -7.84600 34.00100 40.57200
H  -5.61600 37.52800 43.66100
H  -4.80400 36.06900 43.16900
H  -5.82200 36.14200 44.67200

