158

Mg 24.68100 -7.05800 45.36700
C  26.96800 -4.51500 44.24600
C  22.28100 -5.66400 43.39500
C  23.06600 -10.00100 45.60400
C  27.46800 -8.56200 47.00300
N  24.71800 -5.26800 44.00800
C  25.70700 -4.41000 43.64100
C  25.17700 -3.35900 42.63300
C  23.62400 -3.58200 42.72600
C  23.51700 -4.91700 43.38900
C  22.89600 -2.47600 43.45400
C  25.66500 -3.55300 41.24000
C  26.26100 -2.25100 40.53300
H  26.03800 -2.25400 39.02500
N  22.83700 -7.67600 44.67800
C  22.01300 -7.00400 43.86800
C  20.83400 -7.80600 43.49900
C  20.96400 -9.01800 44.16300
C  22.34500 -8.96700 44.86200
C  19.73900 -7.33900 42.58800
C  19.85100 -10.10500 44.24700
O  18.83500 -10.02000 43.59800
C  19.98700 -11.26400 45.26400
N  25.16200 -8.95400 46.31900
C  24.34900 -10.00300 46.24800
C  24.90600 -11.22700 47.00200
C  26.24200 -10.77100 47.42400
C  26.26200 -9.32900 46.97500
C  24.01600 -11.73500 48.13600
C  27.40200 -11.74800 46.90000
C  28.71300 -11.70300 47.65100
N  26.73900 -6.57900 45.74200
C  27.70100 -7.30100 46.38600
C  28.94200 -6.47900 46.48200
C  28.74800 -5.43500 45.63500
C  27.35600 -5.54100 45.16600
C  30.21500 -6.92900 47.23100
C  29.26000 -4.22100 45.02700
O  30.39300 -3.84300 45.08900
C  28.14100 -3.57400 44.15600
C  27.86000 -2.21700 44.71800
O  27.42400 -1.98600 45.82900
O  27.85900 -1.33500 43.66900
C  27.38700 0.01000 43.74200
H  21.55400 -5.10200 42.80400
H  22.69700 -11.02800 45.56700
H  28.22400 -9.13600 47.54300
H  25.34900 -2.37000 43.06000
H  23.21000 -3.74600 41.73100
H  22.07200 -2.88000 44.04200
H  22.42000 -1.83200 42.71400
H  23.59000 -1.92400 44.08800
H  24.81100 -3.85800 40.63600
H  26.45600 -4.30200 41.28500
H  27.31500 -2.26700 40.81100
H  25.88200 -1.30400 40.91500
H  19.81000 -7.90000 41.65600
H  19.83300 -6.25900 42.47600
H  18.73200 -7.42500 42.99600
H  19.02500 -11.77500 45.21600
H  20.21600 -10.92700 46.27500
H  20.71200 -12.03500 45.00500
H  25.04000 -11.98600 46.23100
H  26.29900 -10.82900 48.51100
H  24.60000 -11.88400 49.04400
H  23.49000 -12.65900 47.89700
H  23.23900 -11.01700 48.39700
H  27.64800 -11.56000 45.85500
H  26.98800 -12.75600 46.92900
H  29.51900 -11.19400 47.12300
H  29.13200 -12.70600 47.72100
H  28.58900 -11.34400 48.67300
H  30.10700 -6.90200 48.31500
H  31.06100 -6.36000 46.84700
H  30.37500 -7.97800 46.98100
H  28.67200 -3.44400 43.21300
H  27.49600 0.38200 44.76100
H  26.32600 0.12800 43.52200
H  28.06300 0.66400 43.19100
Mg 7.18900 53.70500 41.63200
C  6.13200 50.36200 41.08700
C  10.30600 52.96600 40.46100
C  7.64300 56.97200 41.31800
C  3.76200 54.31500 42.32800
N  8.04200 51.88700 40.65300
C  7.50300 50.64000 40.67100
C  8.49100 49.61700 40.05600
C  9.81800 50.43800 40.24700
C  9.34400 51.88200 40.53400
C  10.82800 49.82900 41.24900
C  8.23300 49.21500 38.56800
C  8.14300 50.27900 37.48500
H  6.78300 50.36800 36.77400
N  8.82000 54.82000 41.07700
C  10.04300 54.36100 40.62300
C  10.93800 55.37700 40.34900
C  10.15000 56.54500 40.55300
C  8.81500 56.19800 41.02800
C  12.38600 55.23200 39.88000
C  10.75900 57.97200 40.44300
O  11.91200 58.18800 40.06300
C  9.83300 59.23000 40.67100
N  5.97600 55.41000 41.95400
C  6.41100 56.64100 41.89100
C  5.36300 57.72700 42.03300
C  4.06900 56.79800 42.21500
C  4.62500 55.41000 42.14900
C  5.58900 58.75300 43.19700
C  2.99800 57.05800 40.99900
C  1.71400 57.72200 41.47400
N  5.41100 52.57800 41.90100
C  4.13400 53.00100 42.29000
C  3.26700 51.87000 42.37000
C  3.99300 50.81800 41.90500
C  5.30500 51.28300 41.63300
C  1.83600 51.87000 42.78100
C  3.91000 49.39100 41.57700
O  3.07100 48.45800 41.69900
C  5.40200 49.10700 41.17800
C  5.25400 48.34500 39.86300
O  4.77800 48.77700 38.86000
O  5.86900 47.12800 39.93400
C  5.62000 46.24800 38.75800
H  11.36200 52.70600 40.36400
H  7.78100 58.05100 41.23000
H  2.77700 54.54300 42.74100
H  8.56300 48.73100 40.68800
H  10.42800 50.40800 39.34500
H  11.66700 49.29300 40.80500
H  10.34600 49.19600 41.99500
H  11.44200 50.56500 41.76800
H  7.26300 48.71800 38.57800
H  9.03900 48.50800 38.37000
H  8.93600 50.16000 36.74600
H  8.35500 51.16200 38.08900
H  12.60700 54.18100 39.69200
H  13.03500 55.59700 40.67600
H  12.46300 55.70200 38.90000
H  9.02400 59.17800 39.94200
H  10.38600 60.12100 40.37400
H  9.54100 59.22000 41.72100
H  5.25400 58.22800 41.07100
H  3.62800 56.88100 43.20800
H  4.87900 58.59900 44.01000
H  5.34500 59.72500 42.76800
H  6.61800 58.74100 43.55800
H  2.74700 56.13600 40.47500
H  3.36900 57.62500 40.14500
H  0.98900 56.90900 41.44100
H  1.41000 58.50000 40.77400
H  1.70500 58.18000 42.46300
H  1.20400 51.94300 41.89500
H  1.50800 52.57300 43.54700
H  1.57800 50.94400 43.29400
H  5.87500 48.37000 41.82800
H  4.54400 46.07400 38.72400
H  6.21000 45.34800 38.92800
H  5.94100 46.64700 37.79600

