158

Mg 16.87600 -3.01900 28.20800
C  16.06200 -0.80100 30.88300
C  18.97200 -4.77700 30.35100
C  18.53600 -4.58000 25.62200
C  15.76100 -0.58700 26.03700
N  17.50600 -2.79700 30.38000
C  16.88900 -1.92100 31.30100
C  17.27300 -2.27700 32.74500
C  18.48600 -3.28900 32.52400
C  18.26200 -3.68200 31.01900
C  19.96700 -2.80200 32.98000
C  16.10100 -2.81400 33.63700
C  16.18100 -2.43900 35.16300
H  17.50100 -2.21700 35.82400
N  18.35100 -4.59000 27.98000
C  19.06400 -5.15300 28.98300
C  19.94500 -6.16700 28.51100
C  19.68900 -6.20200 27.11000
C  18.74400 -5.10500 26.87300
C  20.82900 -7.05900 29.43300
C  20.27900 -7.05600 26.06500
O  19.81800 -7.08400 24.93500
C  21.35200 -8.07400 26.40800
N  17.02500 -2.68700 26.13500
C  17.75500 -3.47500 25.29100
C  17.62900 -2.99700 23.85800
C  16.67400 -1.70500 23.99800
C  16.49400 -1.65500 25.44600
C  18.96000 -2.62200 23.07300
C  15.29600 -1.85400 23.26700
C  14.69600 -0.58300 22.67200
N  15.90900 -1.19900 28.39500
C  15.36200 -0.39900 27.35800
C  14.51800 0.66600 27.92600
C  14.80800 0.51100 29.30000
C  15.61400 -0.63800 29.57400
C  13.84600 1.70800 27.08900
C  14.69800 1.17200 30.58400
O  14.14600 2.29100 30.80900
C  15.44900 0.26400 31.67800
C  16.44900 1.18100 32.34300
O  17.61600 1.39500 32.02200
O  15.88500 1.83000 33.43700
C  16.67200 2.93800 34.00500
H  19.60400 -5.26000 31.09900
H  19.02000 -4.95600 24.71900
H  15.77700 0.32700 25.43900
H  17.68900 -1.37400 33.19300
H  18.33400 -4.16100 33.15900
H  20.27200 -3.39100 33.84500
H  19.82800 -1.77900 33.32900
H  20.68700 -3.08900 32.21300
H  15.90100 -3.88400 33.56500
H  15.20900 -2.29200 33.29100
H  15.62200 -3.08900 35.83500
H  15.57200 -1.53700 35.10400
H  21.82900 -6.66600 29.24900
H  20.88000 -8.10000 29.11300
H  20.59700 -6.98500 30.49500
H  22.15200 -7.62100 26.99400
H  21.87600 -8.55100 25.57800
H  20.84300 -8.86800 26.95400
H  17.07200 -3.75700 23.31000
H  17.23400 -0.78700 23.81900
H  18.80600 -1.76600 22.41600
H  19.30800 -3.47600 22.49200
H  19.81000 -2.37400 23.70800
H  14.60500 -2.15800 24.05200
H  15.37700 -2.62400 22.49900
H  15.00300 -0.59400 21.62600
H  15.17300 0.21700 23.23900
H  13.60900 -0.52700 22.72500
H  14.14200 2.70700 27.40900
H  12.78200 1.71400 27.32400
H  13.98700 1.55800 26.01800
H  14.66600 -0.03800 32.37300
H  16.42700 3.88500 33.52500
H  17.75300 2.79700 33.98900
H  16.37000 2.89100 35.05100
Mg 46.43800 44.75800 43.49900
C  42.89700 44.64500 43.24800
C  46.43600 41.31800 42.97200
C  49.72700 45.03400 43.09300
C  46.17200 48.20300 43.56000
N  44.89500 43.27500 43.17100
C  43.49600 43.42000 43.00800
C  42.78300 42.05300 42.65800
C  43.90400 41.07200 43.01500
C  45.16500 41.94400 43.03000
C  43.69500 40.32100 44.38100
C  42.27700 41.93500 41.18700
C  43.21400 42.40700 40.13100
H  42.95700 42.01400 38.58700
N  47.92000 43.40400 43.05900
C  47.74300 42.01600 42.85400
C  48.96400 41.42000 42.54500
C  49.99900 42.42700 42.63700
C  49.23700 43.72100 42.95600
C  49.14800 39.89500 42.30500
C  51.51300 42.20000 42.55200
O  51.92500 41.04900 42.29800
C  52.44200 43.33500 42.77000
N  47.75700 46.39500 43.29200
C  49.09400 46.25000 43.25200
C  49.78600 47.60700 43.17500
C  48.66900 48.67800 43.23700
C  47.46700 47.74000 43.40000
C  51.02900 47.77100 44.20200
C  48.57800 49.50400 41.93900
C  48.13100 50.93300 42.08800
N  44.91000 46.17100 43.51900
C  44.96300 47.50000 43.63500
C  43.59700 48.05100 43.86300
C  42.79500 46.97300 43.67200
C  43.60700 45.82500 43.44200
C  43.18700 49.46800 43.95700
C  41.39900 46.55800 43.60500
O  40.38500 47.22600 43.63400
C  41.43600 44.99300 43.27400
C  40.67100 44.27500 44.32200
O  39.82300 43.43700 44.12400
O  41.09600 44.62300 45.58700
C  40.62500 43.85700 46.73500
H  46.40600 40.23100 43.07300
H  50.79900 45.13100 42.90300
H  46.05200 49.27100 43.75200
H  41.90200 41.90400 43.28100
H  44.01800 40.39600 42.16700
H  43.52100 39.26800 44.15900
H  42.81500 40.73600 44.87400
H  44.54100 40.40700 45.06200
H  41.45600 42.65200 41.17100
H  42.02500 40.87700 41.11200
H  44.24300 42.18500 40.41400
H  42.90000 43.45000 40.10900
H  48.93800 39.74100 41.24600
H  48.43000 39.26000 42.82400
H  50.16700 39.55200 42.48400
H  52.26600 43.84900 43.71600
H  52.30100 44.00900 41.92500
H  53.45500 42.93700 42.73000
H  50.27000 47.53400 42.20100
H  48.69500 49.24000 44.17000
H  50.76400 47.36500 45.17800
H  51.31500 48.80500 44.39700
H  51.95100 47.38300 43.77100
H  47.89800 48.87900 41.36000
H  49.52200 49.53700 41.39600
H  48.89100 51.62700 42.44600
H  47.18200 50.98600 42.62300
H  47.58400 51.14400 41.16800
H  42.92400 49.64000 45.00000
H  42.22600 49.54900 43.44900
H  43.98100 50.13800 43.62800
H  40.89200 44.88400 42.33600
H  40.74500 44.43800 47.65000
H  41.22600 42.95100 46.80800
H  39.59100 43.52700 46.63500

