158

Mg 48.56300 25.13100 27.97100
C  49.43100 27.26300 30.70800
C  47.55600 22.83100 30.50700
C  48.01500 22.84100 25.54300
C  50.10500 27.19000 25.80300
N  48.39900 25.15300 30.36500
C  48.85800 26.12200 31.22300
C  48.62800 25.72300 32.68000
C  48.00500 24.24600 32.56900
C  47.97600 24.05600 31.04000
C  48.73900 23.16100 33.44400
C  47.70100 26.79100 33.41700
C  47.15700 26.36400 34.82300
H  47.58500 27.15800 36.06900
N  47.77800 23.20300 27.97900
C  47.37700 22.40700 29.10500
C  46.83000 21.12200 28.60200
C  46.83600 21.15700 27.14400
C  47.59100 22.40900 26.81200
C  46.42000 19.95000 29.45900
C  46.42800 20.14800 26.08200
O  46.58600 20.10900 24.85000
C  45.61600 18.95900 26.70500
N  49.03500 24.94700 25.92000
C  48.76500 23.94000 25.09400
C  48.95000 24.36700 23.56000
C  49.32000 25.86900 23.72100
C  49.58600 26.02500 25.23300
C  50.20500 23.58100 22.99800
C  48.18200 26.80500 23.30400
C  48.48100 27.56600 22.01500
N  49.58700 26.78400 28.11900
C  50.08800 27.65800 27.16100
C  50.65200 28.76900 27.76800
C  50.57600 28.63300 29.10900
C  49.77500 27.46700 29.34000
C  51.33200 29.88900 27.02000
C  50.89300 29.27500 30.39800
O  51.57000 30.25800 30.61500
C  50.16800 28.40800 31.51100
C  51.24900 27.78900 32.25300
O  51.84200 26.76700 31.95800
O  51.50800 28.58000 33.32000
C  52.70300 28.36600 34.10600
H  47.14300 22.08900 31.19300
H  47.80400 22.18600 24.69600
H  50.32100 28.04700 25.16100
H  49.56800 25.61200 33.22000
H  46.95200 24.14100 32.83100
H  49.08400 22.29300 32.88300
H  47.99000 22.89700 34.19100
H  49.66900 23.53600 33.87100
H  46.84700 26.97300 32.76400
H  48.38000 27.63900 33.50800
H  47.32800 25.32200 35.09200
H  46.07100 26.35200 34.72900
H  46.72700 18.99500 29.03300
H  45.38600 20.10100 29.77100
H  46.91100 19.97600 30.43200
H  46.33200 18.21600 27.05700
H  44.96900 18.51200 25.95000
H  44.98100 19.36600 27.49100
H  47.97000 24.22900 23.10300
H  50.28300 26.11100 23.27100
H  50.37700 22.70000 23.61700
H  51.13500 24.14900 23.01500
H  49.92000 23.27200 21.99300
H  48.12400 27.55900 24.08800
H  47.19000 26.35500 23.26200
H  47.72000 27.45600 21.24300
H  49.40100 27.14300 21.60900
H  48.61900 28.59500 22.34600
H  50.62400 30.17100 26.24000
H  52.18000 29.53200 26.43600
H  51.60600 30.70300 27.69100
H  49.53200 29.04200 32.12900
H  53.60400 28.29600 33.49800
H  52.61000 27.44600 34.68400
H  52.82900 29.17700 34.82400
Mg -12.06600 16.77100 41.47100
C  -8.89700 15.27400 41.19800
C  -10.82000 19.51300 40.17900
C  -15.30100 17.90400 40.96500
C  -13.42900 13.57900 42.37800
N  -10.09400 17.27500 40.71100
C  -8.93600 16.56500 40.72300
C  -7.68700 17.31700 40.14800
C  -8.35700 18.73300 39.89600
C  -9.87800 18.50200 40.28100
C  -7.66200 19.96200 40.61600
C  -7.12100 16.62400 38.88700
C  -5.65200 16.34800 38.89900
H  -5.01700 16.51700 37.49700
N  -12.92800 18.54900 40.72300
C  -12.23600 19.58200 40.28500
C  -13.12900 20.65300 39.90300
C  -14.45200 20.22600 40.09100
C  -14.29600 18.82000 40.58000
C  -12.63700 21.97000 39.41100
C  -15.75500 20.95500 39.62900
O  -15.67300 22.11900 39.15300
C  -17.15900 20.31100 39.55300
N  -14.03600 16.01900 41.80500
C  -15.19300 16.65100 41.48500
C  -16.51500 15.88800 41.87000
C  -15.85900 14.49000 42.39100
C  -14.35500 14.68000 42.18300
C  -17.55300 16.65400 42.80600
C  -16.47600 13.17000 41.60700
C  -16.74300 12.00200 42.54000
N  -11.37900 14.89300 41.88800
C  -11.99300 13.66200 42.27800
C  -10.93100 12.65500 42.46400
C  -9.79300 13.26000 42.01700
C  -10.08800 14.61800 41.63700
C  -11.21800 11.27400 42.98000
C  -8.44200 12.91000 41.73800
O  -7.81800 11.78400 41.80200
C  -7.74300 14.33100 41.35300
C  -6.95700 14.84700 42.55800
O  -7.14300 14.49700 43.75400
O  -5.93600 15.63400 42.13600
C  -4.91400 15.88600 43.14600
H  -10.41200 20.48400 39.89000
H  -16.33500 18.13800 40.70300
H  -13.79500 12.56800 42.56600
H  -6.97800 17.47300 40.96100
H  -8.29200 19.07900 38.86500
H  -8.35400 20.29000 41.39200
H  -7.59900 20.85000 39.98600
H  -6.77300 19.67000 41.17400
H  -7.51200 17.14300 38.01200
H  -7.62100 15.65900 38.80000
H  -5.44200 15.29600 39.09600
H  -5.14100 17.01200 39.59500
H  -13.19800 22.11200 38.48700
H  -11.57200 21.98700 39.18000
H  -12.92300 22.75600 40.11100
H  -17.03200 19.53600 38.79700
H  -17.94700 20.97300 39.19400
H  -17.46400 19.88800 40.51100
H  -17.00900 15.66100 40.92500
H  -15.88100 14.41500 43.47800
H  -17.26000 17.70200 42.86700
H  -17.57500 16.27100 43.82600
H  -18.53000 16.54400 42.33500
H  -15.63400 12.88500 40.97600
H  -17.30400 13.36900 40.92600
H  -17.00500 12.47100 43.48800
H  -15.90800 11.31900 42.69700
H  -17.61100 11.49000 42.12200
H  -11.72900 10.71200 42.19800
H  -11.87400 11.41300 43.83900
H  -10.29100 10.76700 43.24800
H  -7.09600 14.20400 40.48500
H  -4.63000 16.93300 43.03100
H  -3.98700 15.34800 42.94800
H  -5.18400 15.78700 44.19700

