158

Mg 24.83200 2.06200 30.00700
C  26.81200 1.63300 32.82100
C  22.09000 2.35700 31.96000
C  22.92000 2.05400 27.14200
C  27.74500 1.62600 28.03500
N  24.57300 2.22200 32.11400
C  25.46000 1.84600 33.06000
C  24.92400 2.20100 34.39200
C  23.40300 2.04700 34.15200
C  23.32800 2.22900 32.64400
C  22.76400 0.66600 34.56800
C  25.31500 3.66000 34.92300
C  26.05300 3.69600 36.21800
H  25.37200 4.48600 37.36800
N  22.83000 2.20700 29.67000
C  21.86100 2.28200 30.62800
C  20.51700 2.22700 29.97300
C  20.72700 2.26900 28.59400
C  22.23200 2.29000 28.40700
C  19.24800 2.22600 30.78400
C  19.67500 1.92200 27.53400
O  20.01600 1.92200 26.34900
C  18.21200 1.57100 27.79400
N  25.23800 1.68600 27.92500
C  24.27500 1.85000 26.92900
C  24.88700 1.84800 25.52000
C  26.47900 1.86700 25.76800
C  26.53200 1.77200 27.32800
C  24.34100 0.75100 24.58300
C  27.16400 3.05800 25.09400
C  27.02500 4.47700 25.74700
N  26.89900 1.61000 30.30900
C  27.91100 1.51300 29.41700
C  29.11400 1.21600 30.08300
C  28.75900 1.35000 31.51100
C  27.37700 1.56400 31.56000
C  30.44400 0.91400 29.51500
C  29.21500 1.34200 32.80900
O  30.33500 1.26100 33.25800
C  27.98400 1.50100 33.75200
C  27.86900 0.31400 34.66200
O  27.32500 -0.77900 34.42900
O  28.46400 0.70200 35.75700
C  28.31000 -0.13400 36.96800
H  21.25000 2.36300 32.65700
H  22.24800 2.15200 26.28700
H  28.70700 1.72000 27.52600
H  25.26300 1.44600 35.10200
H  22.83300 2.92300 34.46200
H  23.44600 0.09300 35.19600
H  22.46100 0.11600 33.67700
H  21.90900 0.80400 35.23100
H  24.49700 4.37500 35.00800
H  25.99000 4.06500 34.16900
H  26.99100 4.21500 36.02100
H  26.34400 2.70900 36.57800
H  19.49500 2.48700 31.81200
H  18.82800 1.22600 30.89000
H  18.57900 2.98400 30.37600
H  18.06900 0.93900 28.67100
H  17.81100 1.02500 26.94000
H  17.64200 2.50000 27.76900
H  24.51900 2.79700 25.13000
H  26.85100 0.90800 25.41000
H  23.84400 1.19500 23.72100
H  23.55600 0.13000 25.01600
H  25.13800 0.11500 24.19900
H  26.59200 3.22200 24.18100
H  28.15500 2.74500 24.76400
H  26.26400 4.94500 25.12200
H  28.01800 4.92500 25.75600
H  26.64500 4.47100 26.76800
H  30.42100 -0.17500 29.49400
H  31.24100 1.31900 30.13900
H  30.53200 1.40200 28.54400
H  28.10900 2.42400 34.31900
H  27.78800 0.36800 37.78200
H  29.31600 -0.39700 37.29600
H  27.76100 -1.06800 36.84300
Mg 47.26700 25.73600 28.43900
C  48.30400 27.80900 31.03000
C  46.16300 23.47100 31.01500
C  46.69500 23.44100 26.15800
C  48.88300 27.75800 26.20100
N  47.19000 25.66500 30.78200
C  47.58000 26.67200 31.55900
C  47.26000 26.39600 33.02000
C  46.78000 24.93600 33.07500
C  46.66800 24.64900 31.54200
C  47.61600 23.90700 33.74300
C  46.23300 27.38300 33.60900
C  46.65700 27.81700 35.04500
H  45.48000 27.98100 36.03300
N  46.48100 23.73500 28.56600
C  46.07600 22.98500 29.66900
C  45.67900 21.66000 29.22700
C  45.73200 21.65100 27.84300
C  46.30600 22.98200 27.44700
C  45.23000 20.65100 30.19700
C  45.25300 20.51600 26.83900
O  45.31400 20.63900 25.63000
C  44.89700 19.13900 27.40600
N  47.92500 25.48700 26.51700
C  47.45700 24.49800 25.74300
C  47.71100 24.77400 24.24700
C  48.21400 26.30000 24.31600
C  48.34100 26.57200 25.76700
C  48.84400 23.86900 23.64800
C  47.26400 27.33000 23.62200
C  47.76500 28.27300 22.52500
N  48.26200 27.46600 28.53500
C  48.90600 28.17800 27.50700
C  49.60500 29.32100 28.04200
C  49.32300 29.24200 29.44900
C  48.58800 28.07000 29.67900
C  50.53400 30.34000 27.30200
C  49.57500 29.85100 30.69200
O  50.16900 30.83500 30.89700
C  48.97700 28.96000 31.70100
C  50.04500 28.47900 32.52600
O  50.86000 27.63800 32.20600
O  49.98200 28.98500 33.81900
C  50.72400 28.30700 34.82900
H  45.75500 22.79000 31.76500
H  46.29500 22.82900 25.34700
H  49.35700 28.38700 25.44500
H  48.15200 26.42500 33.64600
H  45.76700 24.90400 33.47600
H  47.84500 23.00800 33.17000
H  46.95800 23.53200 34.52700
H  48.53000 24.28800 34.19800
H  45.19500 27.05000 33.61400
H  46.12000 28.20300 32.90000
H  47.19800 28.74600 34.86300
H  47.53100 27.35200 35.50100
H  44.21000 20.33400 29.97900
H  45.34900 21.03300 31.21100
H  45.86400 19.76400 30.20000
H  45.66000 18.59300 27.95900
H  44.53600 18.50700 26.59500
H  44.02000 19.31100 28.02900
H  46.78300 24.64500 23.69000
H  49.23500 26.42100 23.95400
H  49.69400 24.54500 23.55300
H  48.60400 23.43900 22.67600
H  49.15500 23.14600 24.40100
H  46.70500 27.87600 24.38200
H  46.56300 26.72000 23.05300
H  48.85400 28.26200 22.48500
H  47.41600 29.28100 22.74900
H  47.33000 28.06800 21.54700
H  49.86500 31.08200 26.86600
H  51.11900 29.99200 26.45100
H  51.24700 30.83100 27.96400
H  48.44100 29.60600 32.39600
H  49.99200 28.27500 35.63500
H  51.51500 29.00600 35.10200
H  51.12800 27.32400 34.58400

