158

Mg 17.07000 -2.93500 28.25500
C  16.17700 -0.82400 30.92500
C  18.71300 -5.02900 30.41200
C  18.31200 -4.51000 25.55800
C  15.94000 -0.27300 26.04700
N  17.32000 -2.93400 30.44800
C  16.91200 -1.97100 31.35900
C  17.36200 -2.31800 32.79800
C  18.27100 -3.64800 32.55700
C  18.03200 -3.95100 31.05700
C  19.81000 -3.42900 32.97000
C  16.07900 -2.63200 33.62400
C  16.05900 -1.84100 34.96600
H  17.40800 -1.45000 35.59200
N  18.29000 -4.56100 28.03000
C  18.87200 -5.34200 29.04100
C  19.63700 -6.41600 28.49300
C  19.42500 -6.36000 27.09400
C  18.68300 -5.09500 26.79800
C  20.30600 -7.48900 29.36500
C  19.91100 -7.30700 26.02200
O  19.74600 -7.09900 24.84100
C  20.68000 -8.59100 26.46200
N  17.00000 -2.50800 26.07900
C  17.65400 -3.33700 25.21900
C  17.69200 -2.75900 23.77800
C  16.67800 -1.53400 23.88500
C  16.54300 -1.41200 25.45200
C  19.08600 -2.38000 23.30800
C  15.44200 -1.85300 22.98700
C  15.39500 -1.16200 21.65100
N  16.16300 -0.97200 28.41000
C  15.69200 -0.10700 27.41900
C  15.00800 0.97900 28.10200
C  15.21300 0.73200 29.47100
C  15.91900 -0.41100 29.60100
C  14.15500 2.01300 27.41100
C  14.98700 1.28400 30.79500
O  14.54300 2.35700 31.14400
C  15.63700 0.26600 31.80800
C  16.58100 0.95600 32.67600
O  17.72000 1.38100 32.30600
O  15.98000 1.35900 33.84900
C  16.60800 2.43800 34.58800
H  19.28500 -5.59300 31.15100
H  18.66200 -4.90800 24.60400
H  15.71800 0.61100 25.44500
H  17.87600 -1.42400 33.15200
H  17.97400 -4.45700 33.22500
H  19.98300 -4.36500 33.50100
H  19.98400 -2.52400 33.55200
H  20.28800 -3.42200 31.99000
H  15.96900 -3.70100 33.80600
H  15.19000 -2.28100 33.10000
H  15.45700 -2.38700 35.69300
H  15.43300 -0.94900 34.95200
H  19.59800 -8.31800 29.36700
H  20.46800 -7.26600 30.42000
H  21.27700 -7.79500 28.97500
H  20.87300 -9.10600 25.52100
H  20.12700 -9.15400 27.21400
H  21.66900 -8.30900 26.82300
H  17.39100 -3.67100 23.26100
H  17.17300 -0.61500 23.57400
H  18.98600 -1.39600 22.85000
H  19.48300 -3.11700 22.60900
H  19.87200 -2.33400 24.06200
H  14.58300 -1.56100 23.59100
H  15.33300 -2.92800 22.84400
H  14.43800 -0.63900 21.64400
H  15.52400 -1.99700 20.96200
H  16.23000 -0.46200 21.65800
H  14.43100 2.93800 27.91600
H  13.10000 1.77500 27.54800
H  14.50600 2.22100 26.40000
H  14.79400 -0.09900 32.39500
H  16.94000 3.18800 33.87000
H  17.33500 2.14500 35.34600
H  15.86200 3.01900 35.12900
Mg 29.83500 58.50500 40.28400
C  26.81800 57.00400 39.16200
C  31.55100 55.69800 38.95200
C  32.68600 60.47200 39.86800
C  28.02900 61.42000 40.82700
N  29.18700 56.58400 39.16200
C  27.94900 56.17000 38.84700
C  27.90100 54.87000 37.93600
C  29.37700 54.30600 38.23900
C  30.13900 55.61500 38.83300
C  29.33500 53.19400 39.33700
C  27.76500 55.23600 36.40800
C  27.40100 54.15400 35.42900
H  26.60200 54.64100 34.21100
N  31.86600 58.11200 39.68800
C  32.34700 56.93500 39.21300
C  33.79800 57.08200 39.04100
C  34.15100 58.46700 39.27600
C  32.87100 59.05600 39.65700
C  34.63200 55.95200 38.59100
C  35.50100 59.19700 39.07200
O  36.39700 58.64600 38.43500
C  35.80800 60.54800 39.59900
N  30.33300 60.66900 40.35000
C  31.54200 61.19300 40.25400
C  31.60700 62.70600 40.54500
C  30.15900 62.97500 40.90700
C  29.46400 61.63800 40.74400
C  32.68100 63.18800 41.55500
C  29.31500 64.08000 40.07700
C  28.56000 65.13800 40.88300
N  27.75900 59.09400 40.23400
C  27.24300 60.35800 40.48200
C  25.82300 60.23900 40.24500
C  25.60000 58.94600 39.78600
C  26.81600 58.31200 39.74700
C  24.76600 61.34300 40.42800
C  24.54900 58.06400 39.18800
O  23.38800 58.26400 38.92700
C  25.31000 56.66900 38.91400
C  24.89800 55.77300 40.00100
O  24.64700 56.03400 41.11400
O  24.76600 54.49800 39.46200
C  24.06000 53.46400 40.24600
H  32.09200 54.82400 38.58100
H  33.43300 61.24700 39.68500
H  27.50200 62.32100 41.14800
H  27.10200 54.18900 38.22800
H  29.93100 53.96900 37.36400
H  28.33000 52.82700 39.54500
H  29.65600 53.43500 40.35000
H  29.80100 52.30100 38.92000
H  28.71100 55.65800 36.06800
H  26.99500 56.00400 36.33300
H  26.75900 53.45500 35.96400
H  28.34100 53.70000 35.11600
H  34.27300 55.22900 39.32300
H  35.71600 56.05600 38.64000
H  34.37500 55.62600 37.58400
H  36.89400 60.56000 39.70100
H  35.28800 60.44200 40.55000
H  35.43500 61.26900 38.87200
H  31.83300 63.30400 39.66100
H  30.05300 63.21300 41.96500
H  32.17600 63.48300 42.47500
H  33.20800 64.08400 41.22800
H  33.42500 62.45600 41.86900
H  28.66300 63.56000 39.37600
H  30.06500 64.62200 39.50200
H  28.76500 65.05400 41.95000
H  27.49800 64.99400 40.68200
H  28.84700 66.16100 40.64100
H  25.15000 61.94500 41.25100
H  23.80800 60.87900 40.65800
H  24.90900 61.95000 39.53300
H  25.18400 56.24500 37.91800
H  23.53700 52.86400 39.50100
H  23.29300 53.96300 40.83900
H  24.73300 52.84400 40.83900

