158

Mg -3.35600 16.77800 27.36000
C  -3.12400 14.72100 30.32300
C  -3.32100 19.63100 29.34100
C  -3.49600 18.53700 24.66100
C  -3.44800 13.84500 25.52400
N  -3.23700 17.09600 29.55900
C  -3.11000 16.12700 30.57600
C  -3.12000 16.76400 31.94900
C  -3.28600 18.24300 31.56600
C  -3.20800 18.39600 30.05000
C  -4.59500 18.83500 32.18200
C  -1.87400 16.41300 32.81100
C  -1.51900 17.31800 34.07300
H  -0.84000 16.72000 35.29300
N  -3.36500 18.77300 27.00700
C  -3.35200 19.77800 27.95900
C  -3.23400 21.01200 27.34600
C  -3.31200 20.78900 25.92700
C  -3.45300 19.30400 25.79700
C  -3.18500 22.31800 28.06500
C  -3.09500 21.78400 24.64600
O  -3.15300 21.43400 23.48000
C  -2.57500 23.20000 24.93200
N  -3.41800 16.23000 25.33500
C  -3.48700 17.16500 24.37400
C  -3.43800 16.51400 22.96300
C  -3.28700 15.02500 23.29000
C  -3.40400 15.03900 24.78500
C  -4.68800 16.79800 22.05000
C  -1.96500 14.36700 22.84300
C  -1.88700 13.94300 21.39500
N  -3.43200 14.74600 27.76100
C  -3.40500 13.68300 26.89700
C  -3.36200 12.39200 27.59200
C  -3.23700 12.79600 28.93200
C  -3.32500 14.22300 28.98800
C  -3.43900 11.02700 27.06400
C  -3.23500 12.28500 30.28500
O  -3.12700 11.13400 30.74800
C  -3.02900 13.56600 31.25600
C  -1.66200 13.36400 31.80000
O  -0.72100 13.94600 31.34200
O  -1.68700 12.69900 32.97600
C  -0.43200 12.63800 33.73000
H  -3.38400 20.41600 30.09800
H  -3.50000 19.12400 23.74000
H  -3.49700 12.97900 24.86000
H  -4.02200 16.43600 32.46500
H  -2.49700 18.82200 32.04500
H  -4.58400 19.92400 32.13200
H  -4.53500 18.69100 33.26100
H  -5.44900 18.35900 31.70100
H  -1.01800 16.35600 32.13800
H  -1.93300 15.39600 33.19800
H  -2.45000 17.79300 34.38400
H  -0.86200 18.11900 33.73400
H  -2.23300 22.82700 27.91000
H  -3.33500 22.22500 29.14100
H  -3.93900 23.01400 27.69700
H  -1.67600 23.06900 25.53400
H  -3.26400 23.82900 25.49500
H  -2.36700 23.74400 24.01000
H  -2.56400 16.95300 22.48100
H  -4.16500 14.51600 22.89100
H  -5.34300 17.54300 22.50100
H  -5.37700 16.02500 21.70900
H  -4.31600 17.30600 21.16000
H  -1.73300 13.46200 23.40400
H  -1.16500 15.09600 22.97800
H  -2.76700 14.35800 20.90100
H  -1.86800 12.85700 21.30300
H  -0.98300 14.33500 20.93000
H  -4.45400 10.66000 27.21900
H  -2.67900 10.49900 27.63900
H  -3.05900 10.90200 26.05000
H  -3.77100 13.42600 32.04300
H  -0.31400 13.46100 34.43400
H  0.47900 12.48900 33.14900
H  -0.57900 11.68600 34.23900
Mg 10.98100 46.82000 25.74800
C  8.95600 46.85700 28.67100
C  13.57200 47.89800 27.50600
C  12.70300 47.08000 22.92700
C  7.96000 46.42500 23.90000
N  11.20300 47.31900 27.84400
C  10.26300 47.23000 28.83400
C  11.00700 47.57400 30.18500
C  12.26200 48.32900 29.68800
C  12.37700 47.80900 28.22000
C  12.20600 49.84500 29.75800
C  11.34900 46.42000 31.21800
C  10.90000 46.51400 32.70800
H  10.93200 45.28500 33.56300
N  12.91800 47.19500 25.31300
C  13.91000 47.50200 26.23500
C  15.19300 47.30300 25.61100
C  14.95100 47.10500 24.15200
C  13.45300 47.13900 24.08000
C  16.43000 47.41400 26.40000
C  15.98600 46.82200 23.04000
O  15.65700 46.57400 21.89200
C  17.47400 46.85300 23.46700
N  10.38200 46.94300 23.70100
C  11.30400 47.05400 22.66900
C  10.69100 46.75100 21.38600
C  9.20500 46.46500 21.70700
C  9.15200 46.64300 23.17500
C  11.05800 47.78900 20.21100
C  8.63100 45.08400 21.22500
C  9.12600 44.57300 19.83600
N  8.77800 46.72500 26.15300
C  7.72500 46.43100 25.32300
C  6.52900 46.24400 26.14000
C  6.99700 46.37700 27.50600
C  8.36400 46.72100 27.41000
C  5.11300 45.96300 25.60100
C  6.62100 46.47000 28.89200
O  5.45400 46.37500 29.25600
C  7.89000 46.59200 29.75400
C  8.13000 45.42700 30.51100
O  8.75700 44.46000 30.12100
O  7.50900 45.47100 31.74800
C  7.61600 44.24200 32.62100
H  14.30600 48.32300 28.19300
H  13.36600 46.82900 22.09600
H  7.01500 46.24400 23.38400
H  10.32800 48.21700 30.74400
H  13.16100 48.01000 30.21400
H  13.17200 50.33000 29.90200
H  11.43600 50.08100 30.49200
H  11.81500 50.32600 28.86200
H  12.41900 46.27300 31.07100
H  10.89700 45.48200 30.89600
H  9.85700 46.83000 32.73500
H  11.48700 47.36800 33.04700
H  17.03400 48.24600 26.03800
H  17.10300 46.55800 26.43600
H  16.22600 47.73700 27.42100
H  17.64200 45.90900 23.98700
H  17.72500 47.71200 24.08900
H  18.03000 46.89800 22.53000
H  11.20700 45.81200 21.18600
H  8.62500 47.24200 21.21000
H  11.47500 48.72600 20.58000
H  10.26800 48.06700 19.51300
H  11.76800 47.27700 19.56200
H  7.54300 45.14900 21.22500
H  8.99800 44.30500 21.89400
H  8.24000 44.18800 19.33100
H  9.88100 43.79100 19.91900
H  9.54900 45.35900 19.21100
H  4.42900 46.41600 26.31800
H  4.89000 44.90600 25.74300
H  4.88000 46.29100 24.58800
H  7.78400 47.34100 30.53800
H  7.52100 44.54700 33.66300
H  8.59800 43.77800 32.53200
H  6.81300 43.53100 32.42400

