158

Mg 36.10100 2.79500 30.22200
C  33.65500 3.89400 32.45300
C  38.44900 3.16300 32.86800
C  38.52600 2.02800 28.06800
C  33.78300 2.99600 27.63100
N  36.06200 3.47700 32.40100
C  34.92200 3.75100 33.06800
C  35.15100 3.62200 34.59700
C  36.68000 3.87000 34.66100
C  37.13000 3.47800 33.23500
C  37.12800 5.36300 35.00800
C  34.59600 2.32900 35.24100
C  33.97000 2.41200 36.60600
H  34.62500 3.37200 37.60400
N  38.15600 2.57600 30.42300
C  38.91900 2.76700 31.58900
C  40.31900 2.37200 31.29000
C  40.33100 1.91300 29.91100
C  38.98100 2.19100 29.38400
C  41.43900 2.35100 32.28100
C  41.45400 1.33200 29.09800
O  41.40600 1.15800 27.85500
C  42.78000 1.12500 29.73400
N  36.25900 2.91200 28.14000
C  37.33100 2.37200 27.47700
C  37.07400 2.12200 25.95200
C  35.51300 2.43400 25.85800
C  35.16900 2.84100 27.28100
C  37.91700 3.02200 24.98400
C  34.65000 1.24700 25.39100
C  33.85100 1.37000 24.01000
N  34.17200 3.26000 30.00700
C  33.33700 3.32500 28.89500
C  32.04400 3.70300 29.28300
C  32.10200 3.90600 30.64900
C  33.41600 3.60500 31.03900
C  30.80900 3.85900 28.46600
C  31.28200 4.38300 31.76700
O  30.15000 4.88500 31.82300
C  32.26500 4.13500 33.05700
C  32.20900 5.35400 34.01000
O  32.54400 6.48900 33.74900
O  31.72800 4.93800 35.22500
C  31.47800 5.94900 36.21900
H  39.06900 2.91900 33.73300
H  39.36700 1.62600 27.49800
H  32.99900 3.06200 26.87500
H  34.58000 4.46900 34.97600
H  37.09300 3.18400 35.40000
H  37.85800 5.77400 34.31000
H  37.69100 5.36000 35.94100
H  36.22100 5.96000 34.91500
H  35.42300 1.62800 35.36000
H  33.87300 2.00100 34.49400
H  34.02000 1.43600 37.08800
H  32.91200 2.67400 36.56100
H  42.41700 2.59900 31.86800
H  41.47100 1.39700 32.80600
H  41.21700 3.20100 32.92700
H  43.26100 2.07600 29.96300
H  43.38900 0.58800 29.00700
H  42.63100 0.58100 30.66600
H  37.33600 1.07400 25.81200
H  35.32800 3.27600 25.19200
H  38.12900 3.92100 25.56300
H  37.22100 3.22400 24.17000
H  38.76900 2.43700 24.64000
H  33.93500 0.94700 26.15600
H  35.33000 0.41200 25.22100
H  32.83700 1.70800 24.22400
H  33.91600 0.45300 23.42500
H  34.31100 2.13300 23.38200
H  29.95800 3.76600 29.14000
H  30.70900 3.11700 27.67400
H  30.73800 4.81600 27.94800
H  31.99200 3.20000 33.54500
H  32.26900 5.91000 36.96800
H  30.52500 5.75300 36.71100
H  31.44000 6.95800 35.80900
Mg 6.34700 55.08100 41.39400
C  5.19200 51.77600 41.53600
C  9.34400 53.93600 39.96000
C  7.18200 58.23200 40.52800
C  3.16500 56.15500 42.28100
N  7.14000 53.08400 40.73900
C  6.44800 51.90900 40.90800
C  7.19500 50.75100 40.26600
C  8.66500 51.40800 40.33500
C  8.42900 52.91600 40.28700
C  9.58200 51.02000 41.55300
C  6.74700 50.35600 38.82500
C  5.68000 51.28000 38.10600
H  6.25600 52.39300 37.29600
N  8.01400 55.95600 40.36600
C  9.10100 55.29000 39.89100
C  10.09900 56.22300 39.38600
C  9.42000 57.50600 39.32900
C  8.16300 57.29000 40.10400
C  11.49100 55.82300 38.98300
C  9.96900 58.83300 38.71900
O  11.06700 58.92500 38.19200
C  9.15900 60.15700 38.72000
N  5.27100 56.99900 41.41500
C  5.91900 58.15200 41.17500
C  5.01500 59.30900 41.56000
C  3.74800 58.62900 42.06200
C  4.09800 57.13100 42.00300
C  5.76300 60.33800 42.44100
C  2.51900 59.21100 41.34900
C  2.12700 58.57600 40.05400
N  4.55400 54.16200 41.95600
C  3.38200 54.75400 42.33000
C  2.44800 53.69700 42.66200
C  3.18100 52.51500 42.50000
C  4.40000 52.89800 41.94000
C  1.06100 53.95900 43.19800
C  3.09100 51.07800 42.57100
O  2.16600 50.36800 43.03100
C  4.44400 50.54500 42.05100
C  4.18300 49.56800 41.00700
O  3.70000 49.79300 39.90900
O  4.58200 48.33000 41.45200
C  4.30000 47.28100 40.46700
H  10.35700 53.65300 39.66600
H  7.52500 59.23500 40.26400
H  2.24800 56.58300 42.69300
H  7.19700 49.84300 40.87000
H  9.17800 51.13600 39.41300
H  9.68300 51.81200 42.29600
H  10.57200 50.78600 41.16000
H  9.10700 50.25100 42.16300
H  6.35200 49.34000 38.85700
H  7.63500 50.53100 38.21800
H  5.03100 51.72500 38.86100
H  4.98500 50.61300 37.59500
H  11.72500 55.73000 37.92200
H  11.81100 54.91300 39.49200
H  12.19900 56.60500 39.25800
H  8.22100 60.18500 38.16500
H  9.92400 60.84300 38.35500
H  9.06600 60.53800 39.73700
H  4.95900 59.78500 40.58200
H  3.50300 58.80600 43.11000
H  5.08600 60.71700 43.20800
H  5.99000 61.16400 41.76800
H  6.67000 59.96200 42.91300
H  2.67100 60.28900 41.30100
H  1.68000 59.06400 42.02800
H  3.00600 58.28000 39.48300
H  1.56100 59.14300 39.31400
H  1.57700 57.69600 40.38600
H  0.52000 54.66300 42.56600
H  1.07300 54.29800 44.23400
H  0.55000 53.00200 43.08700
H  4.90100 50.04400 42.90500
H  3.22300 47.28400 40.29400
H  4.61800 46.34900 40.93400
H  4.91900 47.44100 39.58500

