158

Mg 35.83600 1.46200 30.32700
C  33.43100 2.53000 32.76900
C  38.07500 1.24100 32.80400
C  37.88800 0.61100 27.94900
C  33.28700 2.02800 27.89600
N  35.71800 1.65200 32.58600
C  34.68100 2.16300 33.29100
C  35.03400 2.24500 34.78500
C  36.62400 2.16800 34.74300
C  36.85200 1.66800 33.30700
C  37.41000 3.47600 35.01200
C  34.35500 1.16000 35.63600
C  34.84000 1.00900 37.11900
H  35.47800 2.19100 37.96800
N  37.69500 0.98500 30.37400
C  38.46900 0.88000 31.49800
C  39.80000 0.36600 31.21600
C  39.82500 0.31500 29.77900
C  38.42200 0.69800 29.26500
C  40.89400 -0.09600 32.20700
C  40.97800 -0.00600 28.81900
O  40.82100 -0.01800 27.61200
C  42.31100 -0.44500 29.43600
N  35.56400 1.20000 28.23800
C  36.60500 0.80000 27.42300
C  36.18300 0.70200 25.93600
C  34.68500 1.23800 25.91200
C  34.44900 1.47900 27.44100
C  37.20100 1.55300 25.00000
C  33.62300 0.39100 25.21700
C  32.61400 1.10600 24.27000
N  33.77600 2.16400 30.27900
C  32.93200 2.31700 29.25200
C  31.67900 2.71600 29.77900
C  31.80900 2.82000 31.15700
C  33.12700 2.46500 31.42900
C  30.43800 3.05600 28.97200
C  31.04300 3.04600 32.32500
O  29.85100 3.32300 32.46000
C  32.13300 2.96400 33.49700
C  32.25600 4.32800 34.28000
O  32.40300 5.39600 33.71900
O  31.89400 4.14100 35.61500
C  31.90400 5.40200 36.45300
H  38.86600 1.15500 33.55200
H  38.59200 0.37700 27.14800
H  32.49300 2.32500 27.20800
H  34.78300 3.22300 35.19500
H  36.94700 1.43600 35.48300
H  38.39600 3.18300 35.37200
H  36.89500 4.19300 35.65200
H  37.60100 3.94800 34.04900
H  34.75300 0.30000 35.09800
H  33.26900 1.07300 35.61100
H  35.55100 0.18400 37.10100
H  34.05900 0.66500 37.79800
H  41.82700 0.39500 31.93100
H  41.11800 -1.15600 32.08600
H  40.61400 0.12800 33.23600
H  42.91700 -1.05300 28.76400
H  42.22000 -1.30100 30.10500
H  42.81700 0.38700 29.92600
H  36.18200 -0.33000 25.58500
H  34.73900 2.24500 25.49800
H  37.53300 0.87000 24.21800
H  38.08600 1.95100 25.49700
H  36.65900 2.39400 24.57000
H  33.06300 -0.03600 26.04800
H  34.09700 -0.41900 24.66200
H  32.84700 2.16300 24.15000
H  31.66800 1.08600 24.81100
H  32.55100 0.58800 23.31300
H  29.99100 2.10300 28.69100
H  30.61900 3.54900 28.01700
H  29.78800 3.68900 29.57700
H  31.83800 2.17300 34.18700
H  32.13000 5.18200 37.49600
H  30.93900 5.89200 36.32400
H  32.73100 6.06500 36.19600
Mg 25.68100 51.22500 25.65500
C  23.40000 51.91900 28.02000
C  28.04800 50.64900 28.09700
C  27.97300 50.64400 23.28600
C  23.48400 52.21500 23.09700
N  25.70000 51.20600 27.80400
C  24.57600 51.35600 28.59900
C  24.86000 51.22100 30.07700
C  26.38000 50.86700 29.98300
C  26.75100 50.93300 28.53200
C  27.25700 51.75100 30.84800
C  23.85400 50.18300 30.76900
C  23.39200 50.54500 32.24000
H  23.80000 49.42800 33.34900
N  27.69900 50.74700 25.64900
C  28.55600 50.49800 26.75400
C  29.93300 50.11600 26.33600
C  29.87600 50.11000 24.91600
C  28.43400 50.49800 24.53700
C  31.04500 49.80500 27.33100
C  30.92600 49.72100 23.93300
O  30.85700 49.92200 22.73200
C  32.25500 49.40100 24.37700
N  25.71000 51.38400 23.49000
C  26.74800 51.00700 22.68800
C  26.49100 51.08700 21.19200
C  25.00400 51.53600 21.16800
C  24.66900 51.68800 22.67300
C  27.42300 52.12000 20.43400
C  24.04800 50.49000 20.43700
C  23.36500 50.97700 19.18700
N  23.94600 51.99800 25.54500
C  23.15200 52.39000 24.48700
C  21.90800 52.99900 24.93300
C  21.97400 52.85000 26.35300
C  23.18200 52.19200 26.67100
C  20.83300 53.53100 24.15400
C  21.22500 52.96600 27.57400
O  20.07200 53.41900 27.74500
C  22.08000 52.28700 28.74600
C  22.33400 53.36800 29.67100
O  23.11300 54.25500 29.45900
O  21.49400 53.18700 30.75100
C  21.69600 54.07900 31.91300
H  28.70300 50.24900 28.87300
H  28.57500 50.37600 22.41600
H  22.75500 52.58900 22.37600
H  24.62600 52.18900 30.51900
H  26.64900 49.89600 30.39900
H  26.68600 52.57500 31.27800
H  28.09400 52.12600 30.26000
H  27.61100 51.11600 31.66000
H  24.38200 49.22900 30.75600
H  22.99400 49.95800 30.13800
H  22.30600 50.53100 32.32400
H  23.64700 51.53800 32.61000
H  31.79200 49.09000 26.98600
H  30.66200 49.23700 28.17900
H  31.46700 50.77200 27.60400
H  32.62800 50.02300 25.19000
H  33.03800 49.39500 23.61800
H  32.17500 48.37700 24.74300
H  26.54200 50.03500 20.91300
H  24.99300 52.52000 20.69800
H  27.98300 52.80500 21.07000
H  26.93600 52.72300 19.66900
H  28.16900 51.48000 19.96200
H  23.27300 50.33600 21.18800
H  24.52800 49.52500 20.27500
H  23.11000 50.11600 18.57000
H  23.93700 51.66900 18.56900
H  22.43900 51.39100 19.58600
H  19.99700 53.49600 24.85200
H  20.81300 53.12700 23.14200
H  21.05800 54.58800 24.01300
H  21.46200 51.45400 29.08200
H  22.08700 54.95200 31.39000
H  22.50200 53.74500 32.56500
H  20.77500 54.33300 32.43800

