158

Mg 44.28900 4.10700 48.20800
C  42.06700 6.84700 47.69000
C  41.43900 2.04100 47.93600
C  46.31100 1.39800 48.00400
C  47.01100 6.24200 48.02300
N  42.01800 4.42300 48.03200
C  41.34000 5.65500 47.74400
C  39.85000 5.47100 47.54400
C  39.74500 3.94500 47.69800
C  41.17400 3.38500 47.91300
C  38.71500 3.49300 48.77800
C  39.45200 5.92800 46.12100
C  37.99200 6.44100 46.07500
H  37.28700 6.37500 44.71500
N  43.96500 2.02400 48.05200
C  42.73900 1.43400 47.91600
C  42.97500 -0.03600 47.71600
C  44.40200 -0.17700 47.62500
C  44.92800 1.09400 47.92500
C  41.96400 -1.15000 47.51700
C  45.11400 -1.49400 47.33200
O  44.58600 -2.61800 47.31600
C  46.57900 -1.55700 46.96800
N  46.32200 3.85200 47.77100
C  46.94200 2.64100 47.98900
C  48.41600 2.82900 48.21200
C  48.67400 4.32800 47.72200
C  47.25800 4.81200 47.92300
C  48.80100 2.46000 49.71800
C  49.26900 4.58400 46.33500
C  50.73700 5.09800 46.34000
N  44.56400 6.17500 48.03100
C  45.71700 6.91800 47.98500
C  45.42300 8.32400 48.03300
C  43.99600 8.34600 47.87100
C  43.48700 7.01500 47.85100
C  46.37800 9.42400 48.32900
C  42.80200 9.19500 47.76600
O  42.73900 10.42000 47.74000
C  41.52000 8.27900 47.66600
C  40.63900 8.60000 48.81200
O  40.84100 8.30700 49.96900
O  39.55600 9.35100 48.37000
C  38.55100 9.72200 49.40600
H  40.51400 1.46500 47.86200
H  47.03700 0.58400 48.06600
H  47.91800 6.84500 47.94100
H  39.23600 5.94800 48.30800
H  39.33900 3.35900 46.87300
H  37.89700 4.21400 48.79600
H  39.20500 3.62700 49.74300
H  38.40000 2.45100 48.72300
H  39.44800 5.00000 45.54900
H  40.06300 6.69400 45.64200
H  37.98500 7.49100 46.36900
H  37.31400 5.98500 46.79700
H  41.86700 -1.45200 46.47400
H  40.99100 -0.71300 47.74100
H  42.13000 -1.98300 48.20000
H  47.09400 -1.54700 47.92800
H  46.91100 -0.70400 46.37600
H  46.73100 -2.42900 46.33100
H  48.86500 2.08700 47.55200
H  49.36700 4.66300 48.49400
H  47.89000 2.46400 50.31800
H  49.45500 3.23800 50.11100
H  49.26100 1.47200 49.72600
H  48.66700 5.38200 45.90100
H  49.25800 3.71700 45.67400
H  50.80300 6.18400 46.39900
H  51.06500 4.82400 45.33700
H  51.39300 4.61800 47.06600
H  46.57900 9.42600 49.40000
H  46.08200 10.43700 48.05900
H  47.28700 9.19400 47.77400
H  41.03300 8.62900 46.75600
H  37.69200 10.01100 48.80000
H  39.01300 10.52700 49.97800
H  38.31300 8.87300 50.04700
Mg -5.33000 25.20100 25.60700
C  -3.69400 26.68400 28.27100
C  -6.95900 23.07100 27.96200
C  -6.70800 23.52800 22.99200
C  -3.39700 27.12400 23.38100
N  -5.20900 24.82400 27.93300
C  -4.59100 25.66100 28.80900
C  -5.10900 25.48200 30.24200
C  -5.89500 24.12400 30.13500
C  -6.03600 23.96900 28.57200
C  -5.05900 22.98300 30.73600
C  -5.78100 26.68200 30.96300
C  -6.09500 26.45700 32.50900
H  -5.47600 25.30300 33.31500
N  -6.58800 23.49300 25.51900
C  -7.17100 22.85900 26.62200
C  -8.19200 21.95700 26.08100
C  -8.21200 22.17200 24.66300
C  -7.04800 23.02300 24.31900
C  -9.11100 21.22400 27.03400
C  -9.29000 21.67700 23.69900
O  -9.12600 21.72900 22.49700
C  -10.56800 21.09200 24.25100
N  -5.01000 25.20600 23.46000
C  -5.79700 24.50600 22.58800
C  -5.34500 24.74700 21.14100
C  -4.46400 26.01000 21.29800
C  -4.27500 26.10900 22.80900
C  -4.59200 23.52500 20.55800
C  -5.00000 27.33500 20.67600
C  -4.10400 28.19500 19.73400
N  -3.91600 26.61700 25.76300
C  -3.27500 27.36200 24.79900
C  -2.43700 28.34200 25.40800
C  -2.54700 28.04300 26.79100
C  -3.46700 27.02200 26.96100
C  -1.55600 29.32100 24.71300
C  -2.00400 28.48500 28.07900
O  -1.11000 29.34100 28.29500
C  -2.76900 27.60500 29.08900
C  -1.85100 27.02000 30.09600
O  -0.76200 26.47300 29.82100
O  -2.17600 27.44300 31.35300
C  -1.44300 26.87900 32.45300
H  -7.44800 22.51200 28.76200
H  -7.15800 23.09600 22.09600
H  -3.02500 27.80800 22.61600
H  -4.23500 25.46200 30.89400
H  -6.85900 24.18200 30.64100
H  -4.29900 23.34600 31.42800
H  -4.49000 22.46100 29.96700
H  -5.68600 22.22500 31.20500
H  -6.73800 26.73600 30.44400
H  -5.17500 27.56700 30.77100
H  -7.15800 26.41500 32.74500
H  -5.62700 27.30300 33.01100
H  -8.40500 20.81800 27.75800
H  -9.45100 20.32800 26.51400
H  -9.98300 21.80500 27.33500
H  -10.95200 21.69500 25.07400
H  -10.48600 20.05000 24.56000
H  -11.27700 21.02300 23.42600
H  -6.19900 24.88800 20.47800
H  -3.52800 25.70600 20.83100
H  -3.58200 23.83300 20.29000
H  -5.05500 23.11300 19.66100
H  -4.39300 22.87200 21.40800
H  -5.16700 27.96700 21.54800
H  -5.90800 26.98200 20.18700
H  -4.63000 28.38600 18.79800
H  -3.22200 27.56600 19.61400
H  -3.80200 29.15900 20.14300
H  -2.09300 30.24600 24.50500
H  -1.25300 28.73200 23.84700
H  -0.63600 29.53300 25.25800
H  -3.27400 28.45900 29.54000
H  -0.37200 27.08500 32.45100
H  -1.72100 25.82700 32.51200
H  -1.75700 27.13000 33.46600

