158

Mg 44.09600 4.01900 47.61700
C  41.64000 6.65900 47.12800
C  41.40700 1.80900 47.37300
C  46.27800 1.47200 47.41100
C  46.56500 6.32100 46.96000
N  41.75400 4.29000 47.29000
C  41.03800 5.46400 47.09600
C  39.55300 5.13100 46.89700
C  39.54000 3.56900 47.15200
C  41.02800 3.14700 47.28300
C  38.70300 3.11900 48.34900
C  39.09700 5.57400 45.49800
C  37.82100 6.44000 45.36200
H  37.88200 7.75200 44.43900
N  43.92300 1.87500 47.50800
C  42.72600 1.26800 47.41800
C  42.99600 -0.14600 47.45900
C  44.43400 -0.35600 47.54200
C  44.95500 0.99100 47.53500
C  41.97000 -1.28700 47.41900
C  45.13200 -1.71200 47.77200
O  44.48000 -2.74700 47.89400
C  46.62300 -1.75900 47.84300
N  46.07200 3.96100 47.23100
C  46.78600 2.79600 47.30900
C  48.32500 3.09300 47.24100
C  48.38700 4.63900 46.99300
C  46.90000 4.97500 46.98400
C  49.19600 2.54100 48.49700
C  49.18400 5.11600 45.78100
C  50.35500 4.31100 45.27600
N  44.17200 6.13500 47.25200
C  45.27500 6.86800 47.07300
C  44.87000 8.32700 47.01900
C  43.44300 8.25500 47.10900
C  43.04600 6.93600 47.12300
C  45.73700 9.55800 46.87600
C  42.23500 9.02700 47.07500
O  42.12700 10.24200 46.87000
C  41.01400 8.02200 47.02100
C  40.06500 8.27300 48.13900
O  39.98000 7.58800 49.18200
O  39.21600 9.23500 47.82500
C  38.09200 9.50500 48.73400
H  40.63600 1.06100 47.18100
H  47.07200 0.72600 47.34100
H  47.37900 7.04800 46.90900
H  38.80000 5.54200 47.57000
H  39.18700 3.05700 46.25700
H  37.68700 3.48400 48.19800
H  39.09400 3.56400 49.26400
H  38.57300 2.05400 48.53900
H  38.95700 4.63900 44.95700
H  39.87200 6.08900 44.93000
H  37.52700 6.79900 46.34900
H  37.01400 5.84400 44.93700
H  40.96900 -0.85600 47.45000
H  42.00000 -1.91900 48.30600
H  42.02000 -1.89000 46.51200
H  47.03500 -1.24800 46.97300
H  46.88400 -2.81800 47.82300
H  47.05700 -1.35200 48.75600
H  48.71400 2.56500 46.37000
H  48.71500 5.08900 47.93000
H  49.83900 1.73300 48.14900
H  48.65300 1.97200 49.25100
H  49.62900 3.44700 48.92200
H  49.44500 6.12700 46.09600
H  48.55400 5.14900 44.89200
H  51.24400 4.93600 45.35900
H  50.18000 4.00900 44.24300
H  50.43000 3.35800 45.80000
H  46.19500 9.95500 47.78200
H  45.13000 10.35700 46.45000
H  46.53200 9.37600 46.15300
H  40.41400 8.22600 46.13400
H  38.37600 9.34000 49.77400
H  37.31600 8.79200 48.45900
H  37.74700 10.53500 48.64900
Mg 40.55000 8.83500 29.77700
C  42.25000 10.34700 32.57600
C  38.23700 7.67500 32.10900
C  38.90000 7.55800 27.23300
C  43.05400 9.96400 27.78100
N  40.38100 8.92500 32.14100
C  41.10900 9.61900 33.00800
C  40.53900 9.50800 34.40900
C  39.21900 8.66300 34.26700
C  39.26400 8.40700 32.72500
C  39.29600 7.46800 35.22800
C  40.36200 10.89200 35.15400
C  39.37400 10.82400 36.38600
H  39.60900 11.84800 37.57800
N  38.80600 7.79200 29.76000
C  37.96200 7.41300 30.73700
C  36.88000 6.74800 30.12700
C  36.98700 6.72000 28.68800
C  38.27000 7.32000 28.50000
C  35.82200 6.07300 31.08000
C  36.04000 6.29100 27.55700
O  36.31400 6.38500 26.38100
C  34.73100 5.82400 27.99700
N  41.04800 8.58600 27.92500
C  40.17800 8.02800 26.98700
C  40.82700 7.95000 25.62300
C  42.12100 8.69600 25.77400
C  42.09400 9.16800 27.28600
C  40.89300 6.58800 24.92400
C  42.34400 9.82000 24.60900
C  41.58100 11.04900 24.85300
N  42.28200 9.91300 30.03100
C  43.13200 10.37300 29.13500
C  44.14800 11.24200 29.73300
C  43.79200 11.29100 31.10100
C  42.70300 10.47800 31.22400
C  45.26600 11.83700 29.03100
C  44.21200 11.72400 32.37800
O  45.19200 12.39500 32.69400
C  43.11100 11.15700 33.33900
C  43.76100 10.50400 34.55200
O  44.33300 9.42900 34.54900
O  43.71600 11.40000 35.59700
C  44.33100 10.86900 36.75600
H  37.47400 7.30000 32.79300
H  38.47600 7.06300 26.35600
H  43.87700 10.09900 27.07500
H  41.26300 8.86500 34.91000
H  38.34600 9.22300 34.60500
H  39.99500 7.57500 36.05700
H  39.65900 6.57400 34.71900
H  38.34500 7.31600 35.73700
H  40.11400 11.76500 34.55100
H  41.32400 11.14500 35.59900
H  39.29700 9.81800 36.80000
H  38.47700 11.13000 35.84800
H  35.37900 5.18000 30.63800
H  35.00400 6.77100 31.25700
H  36.30200 5.65400 31.96400
H  34.69900 4.85600 28.49700
H  34.06700 5.87200 27.13400
H  34.35600 6.57300 28.69400
H  40.28000 8.59300 24.93400
H  43.00700 8.06300 25.72300
H  40.11000 6.45500 24.17800
H  40.75500 5.76900 25.63100
H  41.83500 6.33600 24.43800
H  41.92100 9.53500 23.64500
H  43.39800 10.00600 24.40400
H  41.01800 11.55100 24.06600
H  42.24100 11.83100 25.22800
H  40.74100 10.80600 25.50300
H  45.14700 11.80000 27.94800
H  46.11300 11.16700 29.17800
H  45.44800 12.79500 29.51800
H  42.58000 12.03500 33.70600
H  44.61400 9.81700 36.72200
H  43.65300 10.95400 37.60500
H  45.16900 11.48000 37.09100

