158

Mg 16.76800 -1.37000 27.97900
C  15.80800 0.78600 30.64400
C  18.84800 -3.00600 29.97100
C  18.10100 -2.91000 25.20100
C  14.88300 0.82400 25.72100
N  17.24100 -1.04000 30.00300
C  16.75600 -0.19800 30.94900
C  17.38500 -0.54900 32.32600
C  18.43000 -1.61300 32.02000
C  18.15700 -1.90700 30.56400
C  19.93700 -1.20000 32.21100
C  16.21900 -1.04600 33.22400
C  16.05700 -0.33200 34.60900
H  17.21900 0.45000 35.29000
N  18.18300 -2.92700 27.68600
C  18.94700 -3.44600 28.64600
C  19.80700 -4.44900 28.10600
C  19.45300 -4.52700 26.72700
C  18.58400 -3.37600 26.47300
C  20.79700 -5.17700 28.82700
C  20.09400 -5.45700 25.68300
O  19.75100 -5.42000 24.50600
C  20.89300 -6.62500 26.13300
N  16.53000 -1.13900 25.76100
C  17.21800 -1.89400 24.86800
C  17.02100 -1.36700 23.45600
C  15.70500 -0.57600 23.61200
C  15.67200 -0.22100 25.13300
C  18.28800 -0.53700 22.92500
C  14.43400 -1.40800 23.27500
C  13.81700 -1.06600 21.95900
N  15.60200 0.39900 28.13000
C  14.92700 1.10200 27.11400
C  14.24600 2.25900 27.79600
C  14.47500 2.07300 29.17500
C  15.29400 0.95400 29.29400
C  13.38000 3.35300 27.22300
C  14.21600 2.71600 30.42200
O  13.58400 3.71900 30.70100
C  15.06500 1.86400 31.45000
C  15.97900 2.83500 32.03700
O  17.08600 3.10700 31.58000
O  15.43800 3.35500 33.14800
C  16.30800 4.39400 33.75400
H  19.46000 -3.46300 30.75100
H  18.52500 -3.38900 24.31600
H  14.34100 1.48000 25.03800
H  17.80900 0.37100 32.72800
H  18.24000 -2.58000 32.48500
H  20.38700 -0.86500 31.27600
H  20.47200 -2.03600 32.66100
H  20.07800 -0.33400 32.85900
H  16.29600 -2.10900 33.45200
H  15.28400 -1.00300 32.66600
H  15.81500 -1.10600 35.33700
H  15.16600 0.29300 34.55000
H  20.60300 -6.24000 28.68800
H  20.81900 -4.98700 29.90000
H  21.81400 -4.92400 28.52900
H  20.35400 -7.13700 26.93000
H  21.88500 -6.29800 26.44700
H  20.95500 -7.17000 25.19100
H  16.88100 -2.24700 22.82900
H  15.66200 0.36000 23.05400
H  18.03700 0.33600 22.32200
H  18.95300 -1.16600 22.33200
H  18.88400 -0.18700 23.76800
H  13.61200 -1.23000 23.96800
H  14.66700 -2.46500 23.14700
H  12.74700 -1.17200 22.13500
H  14.05500 -1.63700 21.06200
H  13.90700 -0.02400 21.65400
H  12.63400 3.60700 27.97600
H  12.77500 3.03400 26.37400
H  13.97900 4.20300 26.89500
H  14.45300 1.44900 32.25100
H  16.33800 5.22100 33.04500
H  17.23600 3.87300 33.99100
H  15.84000 4.69200 34.69300
Mg 47.87000 25.22600 28.24300
C  48.40600 27.52100 30.70100
C  47.31200 22.91200 30.66200
C  47.50700 22.97000 25.77800
C  49.00400 27.50400 25.88100
N  47.84500 25.23300 30.46500
C  47.87500 26.38000 31.21700
C  47.63600 26.00300 32.72500
C  47.42900 24.42700 32.75100
C  47.48800 24.16300 31.23600
C  48.52200 23.61700 33.52900
C  46.32500 26.80300 33.24200
C  46.63900 28.14700 33.93400
H  45.93100 28.61600 35.19000
N  47.45300 23.19500 28.23000
C  47.26600 22.46000 29.33800
C  46.85100 21.13700 28.90600
C  46.90900 21.09800 27.47700
C  47.34000 22.45700 27.09900
C  46.36200 20.10600 29.83800
C  46.64700 19.95700 26.51000
O  46.81200 20.07200 25.26700
C  45.97100 18.71600 27.01000
N  48.27900 25.25400 26.12600
C  48.02800 24.14900 25.32000
C  47.93200 24.61200 23.81200
C  48.22700 26.08700 23.83800
C  48.55900 26.29600 25.32300
C  48.99000 23.82600 22.88600
C  47.07200 27.00500 23.36000
C  47.36400 27.88200 22.12600
N  48.65400 27.06500 28.29300
C  49.03100 27.86300 27.27200
C  49.54100 29.09900 27.82300
C  49.29800 29.02600 29.18600
C  48.67200 27.81300 29.40700
C  50.12000 30.23000 27.04800
C  49.45400 29.69900 30.42800
O  49.98100 30.77200 30.59100
C  48.99200 28.68100 31.51900
C  50.09300 28.37000 32.44200
O  51.00200 27.60100 32.25700
O  49.97100 29.14200 33.57800
C  51.04000 28.86400 34.54500
H  47.18400 22.16700 31.44900
H  47.19900 22.23900 25.02800
H  49.14800 28.33200 25.18400
H  48.39300 26.26600 33.46400
H  46.51000 24.26100 33.31300
H  48.96300 24.32600 34.23000
H  49.25700 23.23700 32.81900
H  48.09500 22.78800 34.09400
H  45.58200 26.20400 33.76900
H  45.77300 27.04300 32.33200
H  46.35700 28.81100 33.11700
H  47.71600 28.09600 34.10000
H  45.41000 19.68100 29.52200
H  46.04600 20.60000 30.75700
H  47.08100 19.28900 29.88900
H  45.14800 19.22400 27.51400
H  46.68600 18.29800 27.71900
H  45.61900 18.08700 26.19300
H  46.93900 24.38800 23.42200
H  49.16800 26.20300 23.30100
H  48.64600 22.79300 22.83400
H  49.98200 23.93800 23.32400
H  48.93100 24.27400 21.89400
H  46.67900 27.66100 24.13700
H  46.18000 26.45000 23.06800
H  47.23300 28.89700 22.50000
H  46.66300 27.63400 21.32800
H  48.41400 27.77000 21.85800
H  50.29200 30.06000 25.98500
H  51.09200 30.43900 27.49500
H  49.46500 31.10200 27.05100
H  48.21400 29.12100 32.14300
H  50.50300 28.08200 35.08200
H  51.20600 29.79200 35.09100
H  51.93600 28.28400 34.32500

