158

Mg 3.01000 -0.18400 44.49500
C  6.39700 0.54500 43.99600
C  2.16000 2.80700 42.55500
C  -0.25500 -1.07300 44.35900
C  3.84100 -3.13500 45.94300
N  4.08100 1.36000 43.38600
C  5.51400 1.46000 43.28600
C  5.95100 2.47600 42.18500
C  4.65000 3.46000 42.13800
C  3.52800 2.54000 42.72600
C  4.84200 4.86400 42.93000
C  6.42900 1.73800 40.81200
C  7.72200 2.40000 40.09900
H  7.39900 3.45600 39.03900
N  1.18400 0.76300 43.56400
C  1.06500 1.96300 42.84000
C  -0.28300 2.07800 42.46700
C  -1.01400 0.94100 42.88600
C  -0.01400 0.10500 43.54200
C  -0.75500 3.34100 41.66300
C  -2.45000 0.78700 42.61700
O  -3.19700 1.66100 42.19900
C  -3.04600 -0.61400 42.81700
N  1.99800 -1.85400 45.04700
C  0.59500 -1.97500 44.96700
C  0.20800 -3.41000 45.41700
C  1.50000 -3.78600 46.29200
C  2.49300 -2.93600 45.63700
C  -1.17300 -3.49600 46.15600
C  1.88600 -5.33600 46.19700
C  2.02100 -6.06000 47.52600
N  4.75500 -1.19400 44.87100
C  4.92900 -2.40900 45.49000
C  6.35400 -2.66400 45.56500
C  6.92900 -1.54300 45.06700
C  5.94000 -0.62400 44.64400
C  7.05500 -3.92000 46.22600
C  8.19500 -0.93400 44.75100
O  9.37400 -1.39900 44.85400
C  7.90300 0.48400 44.04900
C  8.54000 1.62600 44.79300
O  8.08300 2.15300 45.80800
O  9.56700 2.17500 44.04200
C  9.91300 3.59900 44.38000
H  1.97600 3.77600 42.08500
H  -1.28100 -1.44800 44.35900
H  4.16000 -3.89600 46.65800
H  6.81200 3.03100 42.55700
H  4.56100 3.77000 41.09700
H  5.60400 4.66500 43.68400
H  3.98300 5.23200 43.49000
H  5.31600 5.61100 42.29300
H  5.52700 1.85000 40.21100
H  6.63900 0.67700 40.95100
H  8.38500 1.66000 39.65100
H  8.25200 3.01100 40.82900
H  0.07900 3.61100 41.01600
H  -1.13000 4.17400 42.25700
H  -1.43900 3.13000 40.84200
H  -3.95200 -0.72800 42.22200
H  -3.43000 -0.78600 43.82200
H  -2.35900 -1.38700 42.47200
H  0.19400 -3.95200 44.47100
H  1.44900 -3.56000 47.35700
H  -1.87200 -4.09600 45.57200
H  -1.55400 -2.50300 46.39200
H  -1.07100 -4.13400 47.03400
H  2.79900 -5.45900 45.61500
H  1.14500 -5.93300 45.66400
H  2.89400 -5.94500 48.16800
H  2.00500 -7.12900 47.31400
H  1.15700 -5.78800 48.13400
H  7.85000 -4.15400 45.51800
H  6.48200 -4.84700 46.24900
H  7.51800 -3.83400 47.21000
H  8.34500 0.39100 43.05700
H  10.26400 4.05600 43.45500
H  10.62300 3.67200 45.20400
H  8.99800 4.10600 44.68700
Mg 47.85300 24.59600 28.06000
C  48.42900 27.02700 30.33700
C  46.62700 22.63000 30.53800
C  47.32700 22.24000 25.73000
C  49.25600 26.65700 25.60100
N  47.77700 24.77200 30.22900
C  47.90300 25.89800 30.96500
C  47.47200 25.69700 32.44200
C  47.04300 24.26600 32.48500
C  47.13000 23.82800 30.99300
C  47.74400 23.25600 33.39900
C  46.43700 26.76200 32.97100
C  46.71300 27.31400 34.43700
H  45.53900 27.33300 35.41800
N  47.06900 22.68100 28.16100
C  46.55700 21.99000 29.24900
C  46.09600 20.71200 28.85600
C  46.26000 20.63400 27.45300
C  46.96900 21.87300 27.05900
C  45.49700 19.75900 29.80700
C  45.75300 19.57900 26.48300
O  45.97300 19.52700 25.23900
C  44.88500 18.49200 27.00600
N  48.37500 24.40900 26.00100
C  48.05000 23.34600 25.26400
C  48.36400 23.60200 23.75400
C  48.70500 25.13300 23.67700
C  48.81400 25.41200 25.20500
C  49.48200 22.67600 23.11100
C  47.68100 25.91600 22.91100
C  46.47900 26.53000 23.66000
N  48.75900 26.44400 27.92600
C  49.27600 27.18900 26.85000
C  49.75200 28.50000 27.32900
C  49.46600 28.47000 28.71200
C  48.83100 27.21200 28.98800
C  50.19000 29.56700 26.44800
C  49.54500 29.21200 29.96900
O  50.08300 30.26500 30.15100
C  48.75100 28.32300 31.05600
C  49.79900 28.12300 32.13100
O  50.63800 27.28700 32.11200
O  49.44200 28.85700 33.20100
C  50.19000 28.67100 34.45300
H  46.24600 22.06700 31.39200
H  47.10800 21.45900 24.99900
H  49.65400 27.35700 24.86400
H  48.39000 25.85000 33.01000
H  46.02700 24.15800 32.86400
H  48.60100 23.79300 33.80400
H  48.03000 22.35100 32.86200
H  47.09400 22.92900 34.21100
H  45.41800 26.38300 33.04700
H  46.33400 27.57200 32.25000
H  47.04400 28.35000 34.35500
H  47.49900 26.68100 34.85000
H  44.43200 19.95200 29.93700
H  45.89900 19.93000 30.80500
H  45.72600 18.73600 29.50700
H  44.30900 18.12000 26.15900
H  44.14900 18.94700 27.67000
H  45.46100 17.69600 27.47700
H  47.49700 23.30400 23.16500
H  49.66400 25.32400 23.19700
H  50.29500 23.37400 22.91000
H  49.11300 22.03400 22.31200
H  49.88600 22.01300 23.87500
H  47.22000 25.38500 22.07800
H  48.21400 26.73900 22.43300
H  46.52300 27.61900 23.68000
H  46.43700 26.07500 24.64900
H  45.58100 26.27600 23.09700
H  49.75700 29.69500 25.45600
H  51.24200 29.34000 26.27500
H  50.12900 30.50300 27.00300
H  47.87300 28.84900 31.43100
H  49.42500 28.34300 35.15700
H  50.53400 29.65900 34.76000
H  51.02400 27.97500 34.53300

