158

Mg 46.90700 16.42300 28.39900
C  44.59000 16.03300 30.95700
C  48.89600 18.23200 30.37700
C  48.96000 16.80800 25.81000
C  44.56700 14.80100 26.17600
N  46.76900 17.13000 30.39600
C  45.82800 16.72600 31.32600
C  46.23200 17.08200 32.74500
C  47.39600 18.05300 32.45900
C  47.69200 17.80800 30.98300
C  47.13000 19.53400 32.93900
C  46.60400 15.80900 33.57600
C  47.18700 16.09400 34.99800
H  47.09400 17.48100 35.64500
N  48.69300 17.35300 28.14100
C  49.41800 18.02600 29.11000
C  50.63900 18.62800 28.53400
C  50.69900 18.11400 27.17800
C  49.38800 17.31800 27.01500
C  51.59500 19.53700 29.38600
C  51.84000 18.26300 26.17800
O  51.90100 17.80200 25.04400
C  53.05400 19.05300 26.47200
N  46.63400 16.04500 26.24000
C  47.71800 16.27200 25.42900
C  47.32400 15.94500 23.97800
C  46.24400 14.82400 24.21700
C  45.77100 15.23300 25.61200
C  46.77100 17.25700 23.35700
C  46.78000 13.36400 24.18300
C  46.03600 12.47300 23.17800
N  45.00400 15.56900 28.47700
C  44.20000 14.96900 27.52500
C  43.00700 14.43500 28.22500
C  43.09500 14.81200 29.55500
C  44.34000 15.60400 29.58200
C  41.96500 13.57500 27.52000
C  42.43400 14.79000 30.84000
O  41.28900 14.39900 31.11500
C  43.37300 15.51800 31.72600
C  42.70000 16.53800 32.54300
O  41.78500 17.22600 32.09900
O  43.14900 16.49700 33.84800
C  42.69500 17.56900 34.74100
H  49.50200 18.82500 31.06600
H  49.67500 17.02500 25.01400
H  43.90400 14.15700 25.59500
H  45.50200 17.64400 33.32600
H  48.29800 17.72500 32.97500
H  47.05100 20.23500 32.10800
H  48.02100 19.93400 33.42300
H  46.34600 19.59300 33.69300
H  47.24200 15.24700 32.89400
H  45.74100 15.15900 33.72300
H  48.24000 15.87500 34.82200
H  46.86100 15.41900 35.78900
H  51.18400 19.72000 30.37900
H  51.68700 20.47300 28.83600
H  52.59900 19.11400 29.41300
H  52.85200 20.08300 26.76700
H  53.74400 18.86300 25.65000
H  53.71300 18.78600 27.29800
H  48.25600 15.58700 23.54100
H  45.33600 15.03600 23.65300
H  45.82200 17.47300 23.84800
H  46.72700 17.16800 22.27200
H  47.41600 18.08000 23.66500
H  46.70400 12.90200 25.16700
H  47.84100 13.44600 23.95100
H  45.45500 11.70300 23.68500
H  46.74700 11.87800 22.60300
H  45.31800 13.06800 22.61400
H  41.00200 13.93600 27.88100
H  42.14800 12.56300 27.88200
H  42.03100 13.77000 26.45000
H  43.74800 14.79300 32.44900
H  42.65600 17.17700 35.75700
H  41.67700 17.85800 34.47800
H  43.42800 18.37200 34.66400
Mg 16.88800 53.19300 25.96500
C  18.72400 51.86300 28.64800
C  14.29800 53.82500 28.15900
C  15.07500 54.29200 23.45700
C  19.52200 52.17500 23.91500
N  16.50200 52.77700 28.19600
C  17.45900 52.29800 29.08200
C  16.95900 52.37000 30.54600
C  15.51100 52.85000 30.32300
C  15.40500 53.16600 28.83300
C  14.46200 51.82700 30.75700
C  17.70000 53.39400 31.49600
C  17.62000 53.00600 32.96900
H  16.72300 53.75900 33.94400
N  14.96700 54.05000 25.82500
C  14.04900 54.25200 26.82800
C  12.87400 54.84700 26.21600
C  13.00900 54.90400 24.83100
C  14.39700 54.37400 24.64600
C  11.76300 55.27700 27.13600
C  12.01200 55.32700 23.72800
O  12.38100 55.45400 22.55500
C  10.58600 55.66900 24.16400
N  17.18000 53.17000 23.92700
C  16.34600 53.69300 23.07600
C  16.84600 53.63800 21.64500
C  18.38500 53.24800 21.85300
C  18.41100 52.81000 23.31900
C  15.97800 52.76700 20.66100
C  19.31500 54.49600 21.40500
C  19.25800 55.76200 22.22300
N  18.74500 52.19200 26.16700
C  19.72200 51.86500 25.26300
C  20.80400 51.15900 25.82000
C  20.48500 51.16400 27.21800
C  19.18800 51.76900 27.35100
C  21.92600 50.54200 25.04600
C  20.89800 50.75600 28.57200
O  21.79000 50.12300 29.04700
C  19.81400 51.23300 29.50600
C  19.30500 50.14600 30.41500
O  18.65700 49.16500 30.03500
O  19.53800 50.53700 31.72300
C  19.03000 49.60700 32.70500
H  13.53000 54.04600 28.90400
H  14.60100 54.52700 22.50100
H  20.28500 51.85800 23.20100
H  16.97300 51.36000 30.95600
H  15.17100 53.73800 30.85700
H  14.99000 50.99600 31.22500
H  13.88700 51.43700 29.91700
H  13.78200 52.27300 31.48300
H  17.26700 54.38200 31.34100
H  18.73900 53.44400 31.17300
H  18.62600 53.18600 33.34700
H  17.25700 51.98600 33.09800
H  11.01900 54.48200 27.07800
H  11.30200 56.22200 26.84900
H  12.00700 55.49600 28.17600
H  10.71600 56.73600 24.34600
H  10.23300 55.05000 24.98800
H  9.93300 55.47600 23.31300
H  16.79500 54.61000 21.15300
H  18.65900 52.50200 21.10700
H  15.42700 52.07500 21.29900
H  16.50100 52.27800 19.83900
H  15.26000 53.46300 20.22800
H  19.31600 54.52600 20.31600
H  20.32700 54.10100 21.49000
H  18.23000 55.99600 22.49700
H  19.81000 56.49200 21.63100
H  19.83900 55.77600 23.14600
H  21.69600 50.50500 23.98100
H  22.00000 49.52800 25.43800
H  22.93100 50.89500 25.27900
H  20.48700 51.91000 30.03200
H  19.46500 48.60700 32.69100
H  17.94500 49.50500 32.72000
H  19.28000 49.98600 33.69500

