158

Mg 25.82100 -0.13200 29.05000
C  27.61900 -0.65800 32.01400
C  22.94400 -0.03500 30.84000
C  24.14700 0.20800 26.22500
C  28.82900 -0.81500 27.19500
N  25.36900 -0.31400 31.13400
C  26.23800 -0.44500 32.21600
C  25.49100 -0.34400 33.60600
C  23.98600 -0.26200 33.18500
C  24.09600 -0.25400 31.61900
C  23.05000 -1.33400 33.83100
C  26.00300 0.88300 34.49500
C  26.46200 0.70200 35.94900
H  26.21400 1.79500 36.99000
N  23.85900 0.17900 28.60400
C  22.76300 0.20400 29.45000
C  21.49900 0.24300 28.77100
C  21.83900 0.34800 27.38100
C  23.35300 0.30800 27.35600
C  20.10800 0.12200 29.32000
C  21.02300 0.45900 26.13900
O  21.58100 0.48400 25.01300
C  19.58200 0.41300 26.22800
N  26.40900 -0.44500 26.98700
C  25.54100 -0.00200 26.03800
C  26.11400 -0.10600 24.56800
C  27.66600 -0.28100 24.88100
C  27.69000 -0.52800 26.41500
C  25.40400 -1.08300 23.67400
C  28.56100 0.92900 24.44600
C  28.19600 2.23900 25.01500
N  27.79000 -0.62700 29.45000
C  28.85300 -0.88000 28.58500
C  30.00500 -1.22900 29.38700
C  29.54200 -1.10200 30.72500
C  28.23900 -0.74100 30.74100
C  31.40600 -1.40100 28.87400
C  30.02700 -1.23300 32.09500
O  31.16200 -1.49100 32.47200
C  28.77200 -0.82900 33.03200
C  28.51400 -2.07000 33.84300
O  27.74200 -2.95200 33.48100
O  29.20100 -1.88400 35.05200
C  28.84000 -2.97600 35.99100
H  21.95700 0.01400 31.30500
H  23.84300 0.59300 25.24900
H  29.74400 -1.00000 26.62800
H  25.65800 -1.25100 34.18600
H  23.56000 0.72600 33.36000
H  23.50500 -1.74000 34.73400
H  22.81800 -2.14900 33.14600
H  22.11800 -0.86400 34.14600
H  25.18500 1.59700 34.59300
H  26.86600 1.38400 34.05700
H  27.55000 0.67900 35.88000
H  26.07200 -0.23800 36.33900
H  20.15700 -0.02100 30.40000
H  19.41700 -0.53900 28.79600
H  19.63300 1.10300 29.33100
H  19.21600 1.12200 26.97000
H  19.37800 -0.64100 26.41600
H  19.23000 0.73100 25.24700
H  25.95100 0.87100 24.11200
H  28.10200 -1.18700 24.46200
H  26.11700 -1.76100 23.20300
H  25.03300 -0.43000 22.88400
H  24.57000 -1.60000 24.14600
H  28.49000 1.16700 23.38500
H  29.59500 0.73500 24.73200
H  29.03900 2.65000 25.57000
H  27.33900 2.18200 25.68700
H  27.93700 3.00000 24.28000
H  31.45300 -2.04300 27.99500
H  32.04700 -1.59800 29.73300
H  31.51000 -0.40000 28.45600
H  29.03300 0.13000 33.47800
H  29.73200 -3.01700 36.61700
H  28.72200 -3.92300 35.46300
H  27.98200 -2.65800 36.58300
Mg 48.41400 34.80800 27.48800
C  46.47100 33.51500 30.00600
C  48.99900 37.58200 29.20100
C  50.03800 36.15900 24.71300
C  47.82400 31.85100 25.69900
N  47.74100 35.42900 29.41100
C  47.06500 34.76300 30.31800
C  47.29300 35.44500 31.72100
C  47.70200 36.88900 31.30900
C  48.17700 36.65700 29.89600
C  46.59600 37.97100 31.47800
C  48.46300 34.67100 32.46200
C  48.41100 34.70300 33.99000
H  47.62800 35.90200 34.64200
N  49.54500 36.61200 27.04600
C  49.61600 37.66900 27.88900
C  50.44100 38.74300 27.27300
C  50.80400 38.24000 26.00000
C  50.14000 36.94300 25.83700
C  50.67100 40.10400 27.95900
C  51.68800 38.94900 24.98900
O  51.87600 38.54200 23.81100
C  52.51400 39.99000 25.40000
N  48.76700 34.11200 25.47600
C  49.42900 34.90800 24.56600
C  49.46400 34.16700 23.25600
C  48.89300 32.70700 23.60200
C  48.46800 32.86200 24.97500
C  48.75800 34.91200 22.08700
C  49.94200 31.50300 23.58500
C  49.53100 30.26900 22.86000
N  47.25900 33.00500 27.71600
C  47.16700 31.91000 26.92100
C  46.38100 30.90700 27.62900
C  46.18200 31.52800 28.86500
C  46.69100 32.80900 28.86400
C  46.06300 29.45800 27.27900
C  45.58700 31.27200 30.13000
O  45.07000 30.25600 30.55100
C  45.57400 32.64600 30.88300
C  45.86800 32.56800 32.29800
O  46.71600 31.86000 32.89300
O  44.78500 33.23500 32.91200
C  44.38600 32.98700 34.32800
H  49.29000 38.41700 29.84100
H  50.45600 36.66200 23.83800
H  47.68800 30.93300 25.12300
H  46.31700 35.38400 32.20100
H  48.64200 37.07800 31.82800
H  45.68200 37.55900 31.05000
H  46.94400 38.81700 30.88500
H  46.41000 38.27100 32.50900
H  49.43600 35.10700 32.23700
H  48.48200 33.61700 32.18500
H  49.39900 34.90100 34.40400
H  47.95000 33.81900 34.43100
H  50.44200 40.89000 27.24100
H  51.64800 40.18300 28.43600
H  49.97800 40.29200 28.78000
H  52.01100 40.95700 25.37100
H  53.42400 39.85000 24.81700
H  52.86100 39.84800 26.42400
H  50.51300 34.22700 22.96500
H  47.97900 32.49900 23.04700
H  47.95100 35.61500 22.29300
H  48.34800 34.20600 21.36500
H  49.36400 35.60500 21.50400
H  50.16000 31.14800 24.59200
H  50.87000 31.90300 23.17700
H  50.21000 30.01000 22.04700
H  48.56900 30.38800 22.36300
H  49.42100 29.40300 23.51300
H  44.98600 29.29100 27.29900
H  46.42400 28.62600 27.88400
H  46.34900 29.25400 26.24700
H  44.58300 33.08700 30.77800
H  44.78100 32.04800 34.71700
H  43.30900 32.82600 34.34600
H  44.60300 33.80700 35.01200

