158

Mg 46.57800 24.59000 28.50500
C  47.49000 27.04300 30.89400
C  45.68800 22.45800 31.34700
C  45.92700 22.05400 26.41700
C  48.22000 26.36300 26.11200
N  46.59900 24.72000 30.85400
C  46.86300 25.88200 31.50000
C  46.53500 25.83400 32.99800
C  46.36300 24.26200 33.21600
C  46.19100 23.71700 31.70600
C  47.45000 23.57000 33.97100
C  45.33700 26.68500 33.37800
C  45.42200 27.42100 34.80000
H  46.46800 27.11100 35.84400
N  45.71600 22.69500 28.76000
C  45.53600 21.96000 29.96900
C  45.05800 20.63500 29.70200
C  44.91300 20.48400 28.23400
C  45.54700 21.75000 27.76100
C  44.77000 19.64800 30.76200
C  44.35800 19.37100 27.39600
O  44.37600 19.41500 26.16600
C  43.77700 18.12600 28.11400
N  46.89300 24.26500 26.48000
C  46.67200 23.15000 25.88500
C  47.19100 23.18000 24.47000
C  47.79100 24.63800 24.31300
C  47.63100 25.14300 25.75100
C  48.40400 22.21600 24.12200
C  47.27400 25.49200 23.08500
C  46.23500 26.57700 23.44200
N  47.50300 26.39800 28.44100
C  48.18000 27.00800 27.37800
C  48.64900 28.27900 27.85600
C  48.40500 28.29400 29.22200
C  47.74100 27.12200 29.51900
C  49.22700 29.33800 27.03300
C  48.46600 29.14800 30.41800
O  48.79300 30.33600 30.54200
C  47.89500 28.35500 31.59700
C  48.94200 28.13700 32.64500
O  49.78200 27.26800 32.65700
O  48.91700 29.20500 33.56500
C  49.98200 29.24200 34.55600
H  45.29400 21.96700 32.23900
H  45.75000 21.28000 25.66700
H  48.77100 26.89600 25.33400
H  47.41200 26.24700 33.49600
H  45.51700 24.02200 33.86000
H  48.09500 24.33600 34.40000
H  48.07900 22.91600 33.36800
H  47.11900 22.93100 34.79000
H  44.32600 26.32000 33.19600
H  45.44900 27.48100 32.64100
H  44.47400 27.32100 35.32800
H  45.75600 28.40800 34.47900
H  43.90800 19.05800 30.45300
H  44.71000 20.11300 31.74600
H  45.71100 19.10800 30.66100
H  44.60200 17.62000 28.61600
H  43.38300 17.46200 27.34500
H  42.99100 18.51700 28.76000
H  46.26900 23.01400 23.91200
H  48.86400 24.62300 24.12300
H  49.24700 22.45700 24.77000
H  48.79100 22.47400 23.13600
H  48.11400 21.16500 24.12500
H  46.83600 24.68400 22.49900
H  48.15500 25.72200 22.48600
H  45.76000 26.35400 24.39700
H  45.47900 26.49100 22.66100
H  46.81000 27.50100 23.37500
H  48.52200 29.76900 26.32200
H  49.90000 28.86800 26.31500
H  49.63300 30.13500 27.65600
H  47.05500 28.94200 31.96900
H  49.87800 30.20800 35.05100
H  50.98000 29.16300 34.12400
H  49.86500 28.47700 35.32300
Mg 9.34200 48.79800 25.98900
C  7.27100 49.16300 28.85900
C  11.99000 49.85100 27.79800
C  11.06100 48.68100 23.11800
C  6.37000 48.32700 24.12100
N  9.54500 49.33900 28.11000
C  8.58600 49.33400 29.14700
C  9.31200 49.63700 30.42200
C  10.67000 50.31400 29.94000
C  10.78200 49.81600 28.48200
C  10.61300 51.84600 30.12700
C  9.60300 48.37600 31.28000
C  9.87400 48.55400 32.71800
H  9.94400 47.33600 33.61400
N  11.26500 49.14600 25.55700
C  12.26800 49.48200 26.50400
C  13.47800 49.38100 25.78400
C  13.25700 49.15900 24.40200
C  11.81100 48.96000 24.28400
C  14.83400 49.61500 26.50200
C  14.23700 49.11900 23.28100
O  13.92600 48.90900 22.09700
C  15.67200 49.44700 23.58800
N  8.80300 48.61000 23.95200
C  9.69900 48.54200 22.95900
C  9.02700 48.30000 21.53200
C  7.55500 48.44200 21.83900
C  7.57100 48.47500 23.42600
C  9.55100 49.20900 20.38800
C  6.64500 47.35400 21.27600
C  5.66700 47.77500 20.16300
N  7.28000 48.56700 26.34700
C  6.20100 48.35800 25.49000
C  4.97400 48.31500 26.20900
C  5.37500 48.66600 27.56600
C  6.77600 48.86500 27.56800
C  3.65800 48.16700 25.56600
C  4.85300 48.93500 28.87400
O  3.71800 49.09500 29.36100
C  6.11300 49.13600 29.79300
C  6.18000 47.94800 30.74800
O  6.08700 46.76400 30.41600
O  6.46000 48.46300 31.98500
C  6.53600 47.43500 33.02500
H  12.84700 50.27600 28.32500
H  11.68800 48.60300 22.22800
H  5.43600 48.24000 23.56200
H  8.60600 50.24700 30.98700
H  11.49100 49.92800 30.54500
H  9.57700 52.18100 30.08000
H  11.04500 52.34200 29.25700
H  11.06500 52.03500 31.10100
H  10.59700 48.06500 30.95700
H  8.96000 47.53300 31.02600
H  9.04900 49.10600 33.16800
H  10.76400 49.17900 32.80000
H  14.55500 49.82500 27.53500
H  15.38600 50.49500 26.17200
H  15.43800 48.70800 26.50700
H  16.11000 48.85700 24.39200
H  15.66700 50.47800 23.94300
H  16.28100 49.52800 22.68800
H  9.12300 47.26300 21.20900
H  7.07200 49.39100 21.60500
H  8.69300 49.71900 19.95200
H  10.08200 48.55200 19.69900
H  10.30100 49.89200 20.78800
H  5.97000 46.92100 22.01400
H  7.21300 46.52400 20.85400
H  4.67900 47.65200 20.60800
H  5.73000 47.02100 19.37900
H  5.78400 48.78900 19.78000
H  3.57600 47.24600 24.98900
H  3.47500 49.01600 24.90800
H  2.89000 48.22000 26.33700
H  5.92600 50.02200 30.40000
H  5.72400 46.71800 32.90300
H  6.46900 47.85000 34.03100
H  7.47900 46.89200 32.97200

