158

Mg 35.75300 49.97200 25.62800
C  35.76600 47.89600 28.50900
C  34.22100 52.30100 27.40700
C  35.78100 51.70600 22.83700
C  37.21000 47.23300 23.87000
N  35.13500 50.04200 27.77500
C  35.23000 49.11800 28.77600
C  34.91200 49.78600 30.14700
C  34.30300 51.17400 29.72100
C  34.60200 51.21000 28.16700
C  32.84900 51.52100 30.13900
C  36.15700 49.85700 31.15700
C  35.92300 49.31600 32.55700
H  34.43800 49.44700 33.08500
N  34.98500 51.66600 25.16000
C  34.37500 52.53600 26.02900
C  33.90600 53.69900 25.31100
C  34.27100 53.51500 23.96200
C  35.07700 52.29300 23.93000
C  33.09900 54.71700 25.95300
C  33.93800 54.31200 22.72600
O  34.39300 54.10100 21.63400
C  32.88500 55.35400 22.81400
N  36.40500 49.52100 23.63100
C  36.34200 50.42700 22.66100
C  36.54600 49.82500 21.24800
C  37.47200 48.59100 21.76800
C  36.99200 48.42300 23.15500
C  35.27500 49.46300 20.44400
C  38.99100 48.61300 21.34600
C  39.95600 49.04300 22.38000
N  36.34300 47.99900 26.04100
C  36.87700 47.00000 25.19900
C  36.99900 45.76800 25.94700
C  36.60000 46.13600 27.26000
C  36.17300 47.42600 27.23800
C  37.37600 44.43200 25.47400
C  36.43800 45.55800 28.54400
O  36.73800 44.42000 28.97000
C  35.86900 46.74200 29.45500
C  34.58400 46.29700 30.05800
O  33.49400 46.17300 29.55300
O  34.84900 45.88000 31.41200
C  33.63800 45.65300 32.18300
H  33.77600 53.17100 27.89500
H  35.78700 52.17800 21.85300
H  37.79300 46.52200 23.28100
H  34.13200 49.20200 30.63600
H  34.91600 51.87800 30.28300
H  32.13000 51.60900 29.32400
H  32.84200 52.40400 30.77800
H  32.47100 50.67500 30.71200
H  36.40000 50.91300 31.27400
H  37.03400 49.45000 30.65500
H  36.57200 49.85100 33.24900
H  36.36300 48.32000 32.59600
H  32.05200 54.66100 25.65500
H  33.31700 55.73000 25.61300
H  33.17400 54.77200 27.03900
H  33.21500 56.19300 23.42700
H  32.03600 54.93800 23.35700
H  32.62800 55.68000 21.80600
H  37.05900 50.60200 20.68100
H  37.14100 47.62400 21.38800
H  34.32800 49.71300 20.92300
H  35.28400 48.38300 20.30100
H  35.25800 50.04900 19.52500
H  39.12000 49.23200 20.45800
H  39.34300 47.61400 21.08900
H  40.62500 49.81200 21.99300
H  40.57800 48.24100 22.77700
H  39.46900 49.47500 23.25500
H  37.31600 44.54100 24.39100
H  36.66100 43.71400 25.87700
H  38.36000 44.27800 25.91800
H  36.61000 46.95300 30.22600
H  32.73800 46.21700 31.93800
H  33.84000 45.78200 33.24600
H  33.43100 44.58200 32.18100
Mg -1.53600 34.03200 27.01700
C  -2.60500 32.38900 29.91400
C  0.27400 36.30100 29.12200
C  -0.90500 35.89000 24.33400
C  -3.64300 31.89100 25.16000
N  -1.28300 34.39700 29.28300
C  -1.67000 33.40700 30.22200
C  -1.05600 33.65600 31.58900
C  -0.21100 34.94700 31.34900
C  -0.40200 35.23900 29.84100
C  -0.58500 36.08700 32.29900
C  -0.37900 32.43200 32.32800
C  -0.97300 32.00600 33.68300
H  0.00700 31.78800 34.86100
N  -0.51300 35.90100 26.73300
C  0.23900 36.62400 27.66500
C  0.80300 37.75400 26.95100
C  0.37800 37.71400 25.63400
C  -0.40500 36.49800 25.50800
C  1.62900 38.79700 27.58900
C  0.71200 38.71400 24.53800
O  0.33400 38.50800 23.44500
C  1.57900 39.89700 24.72400
N  -2.29700 33.96700 25.02000
C  -1.75900 34.77100 24.10000
C  -2.32100 34.39600 22.71100
C  -2.92600 32.98400 22.91800
C  -2.96300 32.93200 24.45400
C  -3.35900 35.47000 22.15300
C  -2.08000 31.94300 22.23600
C  -0.63000 31.69500 22.90000
N  -2.81600 32.44500 27.37600
C  -3.61400 31.67700 26.55800
C  -4.51300 30.80600 27.29500
C  -4.05000 30.99900 28.63100
C  -3.06500 32.02100 28.61300
C  -5.60000 29.91200 26.73900
C  -4.31200 30.58800 29.99600
O  -5.14400 29.78100 30.44400
C  -3.38100 31.48600 30.88100
C  -4.34800 32.21300 31.69100
O  -5.22600 33.01400 31.36800
O  -4.19800 31.78900 32.99800
C  -4.94100 32.36500 34.11400
H  1.07400 36.84100 29.63200
H  -0.79700 36.48400 23.42400
H  -4.27200 31.16200 24.64600
H  -1.98700 33.88100 32.11000
H  0.81600 34.70000 31.61700
H  -0.99100 35.68300 33.22700
H  -1.41700 36.61000 31.82800
H  0.17600 36.84400 32.49000
H  0.63000 32.75600 32.57900
H  -0.34100 31.65000 31.56900
H  -1.51500 31.08500 33.46800
H  -1.84100 32.59400 33.98300
H  1.81800 38.52500 28.62700
H  1.12700 39.76100 27.67300
H  2.62000 38.86400 27.13900
H  1.54900 40.48000 23.80300
H  2.51800 39.47100 25.08000
H  1.11600 40.51500 25.49300
H  -1.45800 34.51800 22.05600
H  -3.99200 33.05000 22.70000
H  -2.95600 35.89200 21.23200
H  -3.56400 36.21000 22.92700
H  -4.36100 35.10000 21.93500
H  -1.91400 32.22500 21.19600
H  -2.52400 30.94900 22.28100
H  0.08100 31.86600 22.09200
H  -0.62800 30.65500 23.22800
H  -0.37400 32.26800 23.79100
H  -5.96000 30.18300 25.74600
H  -6.42900 29.88300 27.44600
H  -5.22400 28.88900 26.71800
H  -2.88300 30.75500 31.51800
H  -5.80900 31.71300 34.20900
H  -5.25100 33.38900 33.90300
H  -4.29300 32.39100 34.99000

