158

Mg 39.62800 10.31400 29.95500
C  41.52500 11.35800 32.67600
C  37.40300 8.89400 32.30600
C  37.72300 8.90600 27.43300
C  42.12700 11.14600 27.75900
N  39.58100 10.06400 32.18400
C  40.33200 10.73100 33.08300
C  39.87900 10.69700 34.52500
C  38.71700 9.66400 34.33600
C  38.53200 9.58200 32.84500
C  38.88500 8.21800 35.00000
C  39.50900 12.11100 35.09800
C  40.31700 12.74100 36.27500
H  39.55200 13.19900 37.47900
N  37.82700 9.03800 29.90600
C  37.00300 8.67400 30.96100
C  35.74900 7.98300 30.41300
C  35.83500 7.99100 29.01200
C  37.17700 8.63100 28.73700
C  34.78100 7.34500 31.42300
C  34.82100 7.43300 27.99800
O  34.99400 7.46900 26.80500
C  33.51000 6.88800 28.56900
N  39.91400 9.98500 27.94100
C  38.99100 9.45900 27.03800
C  39.54900 9.61800 25.55100
C  40.78300 10.61400 25.72900
C  40.96900 10.57900 27.24900
C  39.84000 8.29700 24.76200
C  40.47200 12.11700 25.39500
C  41.75000 12.80800 24.73600
N  41.45600 11.06100 30.08800
C  42.35300 11.42200 29.14900
C  43.47200 11.97700 29.75300
C  43.17700 12.10700 31.12700
C  41.96800 11.41700 31.29700
C  44.68400 12.42000 29.00300
C  43.62200 12.65900 32.42200
O  44.65500 13.26600 32.65600
C  42.63700 12.13900 33.47200
C  43.33500 11.20600 34.46400
O  43.76000 10.09800 34.20800
O  43.49400 11.89100 35.68500
C  43.99800 11.10800 36.83000
H  36.70900 8.67300 33.12000
H  37.17800 8.57800 26.54500
H  42.92300 11.38200 27.05000
H  40.73000 10.18900 34.97900
H  37.84300 10.13300 34.78800
H  38.00700 7.88800 35.55600
H  39.73500 8.43800 35.64500
H  39.29600 7.48900 34.30200
H  38.45700 12.01300 35.36800
H  39.59500 12.84500 34.29700
H  40.86400 13.63200 35.96800
H  41.05600 11.97400 36.50400
H  34.36700 6.43700 30.98400
H  33.92000 8.00900 31.50300
H  35.33300 7.12900 32.33700
H  33.23400 7.68700 29.25800
H  33.80000 6.01100 29.14800
H  32.71800 6.60700 27.87500
H  38.82100 10.07500 24.88100
H  41.64200 10.30800 25.13200
H  40.92600 8.25500 24.67900
H  39.35800 7.96400 23.84300
H  39.57000 7.46800 25.41800
H  40.10200 12.70500 26.23500
H  39.65400 12.20700 24.68000
H  41.42900 12.98100 23.70900
H  42.60300 12.13500 24.81900
H  41.94600 13.77400 25.20100
H  44.58800 12.02200 27.99200
H  45.65300 12.10400 29.38600
H  44.86000 13.49500 28.96200
H  42.27200 13.02900 33.98400
H  43.49200 11.27900 37.78000
H  45.07800 11.24400 36.88700
H  43.74100 10.05400 36.72300
Mg 45.70400 17.34100 29.17700
C  43.65800 16.90400 31.93300
C  47.61100 19.47400 31.23900
C  47.50900 18.45400 26.37800
C  43.39900 15.86600 27.06000
N  45.55700 18.18800 31.35200
C  44.78400 17.57000 32.31000
C  45.18600 17.97400 33.66300
C  46.27100 19.03900 33.34200
C  46.50600 18.87800 31.87200
C  46.05600 20.46500 33.80300
C  45.55100 16.85000 34.65200
C  46.30100 17.19300 35.84600
H  46.07000 18.57900 36.60200
N  47.30800 18.67300 28.91600
C  47.90100 19.47300 29.90200
C  48.95900 20.16900 29.30900
C  48.95000 20.01000 27.86300
C  47.91600 18.99600 27.65100
C  50.00200 21.01900 30.12400
C  49.77600 20.66200 26.82300
O  49.69300 20.44900 25.62800
C  50.78600 21.71900 27.25300
N  45.60200 17.08900 26.91700
C  46.43400 17.61000 26.07000
C  46.08500 17.19400 24.64500
C  44.87200 16.31900 24.87500
C  44.56800 16.41100 26.36600
C  45.89900 18.34000 23.54000
C  45.02000 14.90900 24.46900
C  45.68800 13.95700 25.49200
N  43.93700 16.54000 29.34600
C  43.13700 15.92000 28.43200
C  41.98300 15.50000 29.12800
C  42.17800 15.74300 30.45600
C  43.36300 16.43800 30.58900
C  40.77500 14.81400 28.61400
C  41.49200 15.66000 31.75100
O  40.39900 15.19500 32.05900
C  42.54000 16.33300 32.75600
C  41.88400 17.29900 33.67700
O  41.14600 18.26400 33.38900
O  42.18400 16.94500 34.93900
C  41.58800 17.76300 36.07000
H  48.12600 20.05600 32.00700
H  47.90200 18.83500 25.43300
H  42.57200 15.39300 26.52700
H  44.29200 18.42500 34.09200
H  47.24800 18.75900 33.73400
H  45.85900 21.07800 32.92400
H  46.94000 20.72900 34.38400
H  45.19700 20.46700 34.47300
H  46.02300 16.08600 34.03200
H  44.61000 16.44500 35.02400
H  47.36700 17.02100 35.70300
H  45.99700 16.42100 36.55300
H  49.84000 22.09500 30.05500
H  51.07900 20.97400 29.96500
H  49.82500 20.84100 31.18500
H  51.28000 22.11100 26.36400
H  51.65700 21.37400 27.81000
H  50.26800 22.59200 27.64800
H  46.84200 16.48800 24.30500
H  44.03400 16.71300 24.30000
H  46.00500 19.35500 23.92100
H  44.87800 18.24900 23.16800
H  46.60800 18.24400 22.71700
H  45.42100 14.83500 23.45800
H  44.05000 14.43200 24.33000
H  44.95800 13.28700 25.94400
H  46.28500 14.35400 26.31300
H  46.31700 13.17900 25.05800
H  40.79500 13.74300 28.81300
H  40.70200 15.08600 27.56100
H  39.90100 15.29500 29.05400
H  43.01200 15.52100 33.30900
H  40.86900 17.08900 36.53400
H  41.12200 18.67500 35.69700
H  42.38500 18.00800 36.77300

