158

Mg 29.72000 57.26400 40.57000
C  27.15600 55.29500 39.47000
C  32.10400 54.97500 39.24200
C  32.43200 59.28300 41.41400
C  27.45700 59.83200 41.37000
N  29.58900 55.31000 39.53500
C  28.39500 54.81700 39.03700
C  28.71800 53.81900 37.92000
C  30.26200 53.57800 38.11100
C  30.71700 54.69800 39.04900
C  30.67700 52.25400 38.69200
C  28.28000 54.24300 36.45900
C  27.06600 53.54100 35.82200
H  26.28700 54.25400 34.78700
N  32.01300 57.08700 40.52700
C  32.73700 56.03300 39.91800
C  34.06900 56.37000 40.10000
C  34.21400 57.61900 40.67900
C  32.89700 58.05300 40.90600
C  35.19800 55.49000 39.63200
C  35.56700 58.33200 41.01900
O  36.62000 57.72000 40.90200
C  35.68400 59.85700 41.48900
N  29.90900 59.29800 41.25400
C  31.15300 59.88700 41.53200
C  30.99000 61.32100 42.02300
C  29.42600 61.46600 42.17500
C  28.84400 60.17100 41.54400
C  31.79400 61.63900 43.28400
C  28.85100 62.77500 41.58000
C  28.30400 63.95000 42.55500
N  27.72800 57.58100 40.51100
C  26.89100 58.57100 40.94500
C  25.50700 58.14000 40.91500
C  25.57100 56.90000 40.25400
C  26.88500 56.54700 40.03300
C  24.32300 59.00300 41.33500
C  24.80600 55.76800 39.71100
O  23.58000 55.61000 39.64900
C  25.79700 54.74200 39.13100
C  25.36300 53.51200 39.78300
O  25.80800 53.09000 40.84800
O  24.43700 52.86300 38.96900
C  23.88900 51.62300 39.52400
H  32.78500 54.21500 38.85200
H  33.23100 59.99400 41.63500
H  26.71800 60.54700 41.73800
H  28.11900 52.91600 38.04100
H  30.62300 53.56200 37.08300
H  30.81900 52.30700 39.77100
H  31.62800 51.96300 38.24500
H  29.88300 51.53700 38.48500
H  29.13600 54.08500 35.80300
H  28.01000 55.29400 36.35600
H  26.49100 53.18000 36.67500
H  27.38500 52.63300 35.31100
H  34.84100 54.47400 39.80100
H  36.13900 55.53000 40.18000
H  35.33600 55.70000 38.57100
H  35.27500 60.69100 40.91900
H  36.71700 60.11600 41.72000
H  35.25900 59.90700 42.49100
H  31.36600 61.91300 41.18900
H  29.24100 61.29100 43.23500
H  32.47900 60.82100 43.50800
H  31.17100 61.96600 44.11700
H  32.46100 62.47300 43.06800
H  27.99000 62.51700 40.96300
H  29.60100 63.16500 40.89200
H  27.22500 63.88400 42.69900
H  28.52000 64.91500 42.09700
H  28.87000 63.94500 43.48700
H  24.24900 59.93200 40.77000
H  24.29200 59.13900 42.41600
H  23.38700 58.51700 41.05900
H  25.65000 54.63600 38.05600
H  23.13100 51.93800 40.24100
H  24.58800 51.04600 40.12900
H  23.54200 50.93300 38.75500
Mg -0.18800 44.20100 24.98700
C  1.71900 44.45000 28.06600
C  -2.85200 43.24900 26.77200
C  -1.84500 43.45500 22.07800
C  2.77200 44.35200 23.26000
N  -0.43900 43.81600 27.21600
C  0.35500 44.17000 28.33700
C  -0.42500 43.90200 29.61200
C  -1.90700 43.52400 29.12500
C  -1.69400 43.49300 27.59000
C  -2.54100 42.25200 29.82000
C  -0.43800 45.18500 30.49600
C  0.07400 44.88100 31.95900
H  -0.22700 43.41700 32.51700
N  -2.18800 43.57700 24.48600
C  -3.08900 43.23600 25.42700
C  -4.34900 42.91800 24.76000
C  -4.14600 43.12200 23.34900
C  -2.68500 43.32200 23.21700
C  -5.57000 42.41700 25.65500
C  -5.11800 43.06600 22.16300
O  -4.76000 43.30800 21.02300
C  -6.66100 42.97400 22.58100
N  0.38600 44.02500 23.02500
C  -0.46800 43.76700 22.01100
C  0.23500 43.81900 20.66100
C  1.57800 44.38500 21.06000
C  1.54000 44.27400 22.50800
C  0.31000 42.42300 20.04100
C  1.86300 45.89700 20.52000
C  1.66800 47.03000 21.45500
N  1.81800 44.40900 25.46600
C  2.93400 44.45800 24.65400
C  4.12100 44.63800 25.45000
C  3.68500 44.62400 26.81400
C  2.29400 44.52400 26.81500
C  5.51900 44.88100 25.02600
C  4.14600 44.68900 28.23900
O  5.27700 44.78100 28.68100
C  2.81700 44.70300 29.06300
C  2.90700 43.68200 30.20500
O  2.42400 42.55000 30.16500
O  3.69900 44.17300 31.18700
C  4.05300 43.13100 32.15000
H  -3.74000 43.04300 27.37300
H  -2.44200 43.46300 21.16400
H  3.68500 44.37500 22.66200
H  0.11400 43.08700 30.09600
H  -2.56900 44.36700 29.32100
H  -3.49000 42.58300 30.24300
H  -1.79200 41.79400 30.46700
H  -2.62900 41.56200 28.98100
H  -1.47600 45.50700 30.58700
H  0.24700 45.97300 30.18300
H  -0.24700 45.67000 32.63900
H  1.16000 44.89200 31.87000
H  -6.11000 41.63400 25.12200
H  -6.25400 43.24500 25.83800
H  -5.19800 41.92200 26.55200
H  -6.98800 41.95300 22.78200
H  -7.25700 43.38200 21.76600
H  -7.00900 43.46500 23.49000
H  -0.30200 44.52100 20.02300
H  2.36400 43.67700 20.79700
H  1.23100 42.42100 19.45800
H  -0.50300 42.13500 19.37400
H  0.28500 41.72200 20.87600
H  1.21800 46.10300 19.66500
H  2.81600 46.10400 20.03400
H  1.03800 47.81300 21.03400
H  2.62800 47.48500 21.70200
H  1.07300 46.76900 22.33000
H  5.74300 45.16200 23.99700
H  6.07900 43.97600 25.25900
H  5.74700 45.74600 25.64900
H  2.70700 45.62400 29.63400
H  4.96300 42.61200 31.84900
H  3.31500 42.33000 32.20600
H  4.25000 43.54800 33.13700

