158

Mg 36.29000 50.01500 24.98600
C  36.51000 47.86200 27.76500
C  34.91500 52.46700 26.93100
C  35.45300 51.77900 22.20300
C  37.07800 47.16600 23.08600
N  35.73200 50.14900 27.07000
C  35.98900 49.16800 28.04600
C  35.64600 49.73600 29.44200
C  35.03200 51.12700 29.12300
C  35.29100 51.33000 27.64100
C  33.47500 51.51700 29.49100
C  36.99300 49.80000 30.24900
C  36.98800 49.61900 31.80200
H  35.59000 49.50900 32.50900
N  35.43300 51.87700 24.66100
C  34.97100 52.77100 25.55700
C  34.59500 54.02200 24.86800
C  34.71900 53.85500 23.44200
C  35.16000 52.43600 23.37500
C  34.12000 55.26400 25.63800
C  34.40100 54.86500 22.36100
O  34.51600 54.62800 21.14000
C  33.86500 56.25300 22.68600
N  36.08800 49.53000 22.86700
C  35.89300 50.51700 21.94200
C  36.33500 49.94900 20.58300
C  37.18100 48.64200 20.93900
C  36.68100 48.36700 22.39600
C  35.23200 49.82000 19.49300
C  38.68700 48.84000 20.87100
C  39.58500 47.77800 20.30900
N  36.77400 47.91600 25.25300
C  37.08100 46.88200 24.44900
C  37.42300 45.71600 25.17300
C  37.21800 46.07800 26.54000
C  36.77100 47.37600 26.47000
C  37.76100 44.43200 24.47000
C  37.10200 45.52000 27.91700
O  37.24400 44.36700 28.37000
C  36.76800 46.74300 28.74600
C  35.60300 46.41300 29.65900
O  34.39700 46.53000 29.38100
O  36.05000 45.78100 30.77300
C  34.95900 45.14800 31.54600
H  34.65000 53.35600 27.50800
H  35.37800 52.38300 21.29600
H  37.47700 46.42000 22.39600
H  34.88500 49.06700 29.84400
H  35.61100 51.95900 29.52300
H  33.23700 51.00200 30.42200
H  32.72900 51.27400 28.73400
H  33.56200 52.58500 29.69000
H  37.52500 50.72700 30.03300
H  37.70000 49.06100 29.87200
H  37.43000 50.54800 32.16300
H  37.75500 48.88300 32.04300
H  34.63900 56.19800 25.42200
H  34.03300 55.08300 26.70900
H  33.06500 55.43900 25.43000
H  32.95200 56.33400 23.27600
H  33.71000 56.77900 21.74400
H  34.72700 56.63800 23.23200
H  36.96700 50.71300 20.13000
H  36.77500 47.79500 20.38600
H  34.41000 50.23800 20.07400
H  35.08100 48.81000 19.11300
H  35.44100 50.51800 18.68200
H  39.12300 48.82600 21.87000
H  38.96600 49.80900 20.45700
H  39.73900 47.08400 21.13500
H  40.55400 48.19800 20.04000
H  39.05100 47.33500 19.46800
H  37.80300 44.53900 23.38600
H  36.97100 43.70900 24.67600
H  38.66400 43.97700 24.87700
H  37.61700 46.92400 29.40400
H  34.05300 45.73500 31.69700
H  35.32500 44.93500 32.55000
H  34.66400 44.19300 31.11100
Mg -12.33300 17.25400 40.79700
C  -9.54900 15.21700 40.10800
C  -10.72000 19.83700 39.53900
C  -15.40900 18.75900 40.54600
C  -14.08100 14.17700 41.61300
N  -10.28600 17.53600 40.05500
C  -9.33700 16.55200 39.83500
C  -7.99100 17.19000 39.44300
C  -8.39300 18.70200 39.28700
C  -9.86200 18.76000 39.70700
C  -7.34800 19.58700 39.97700
C  -7.40600 16.56500 38.19100
C  -5.88100 16.16300 38.10700
H  -5.16000 16.60100 36.86700
N  -12.93900 19.14500 40.26100
C  -12.13000 20.08900 39.75100
C  -12.89700 21.25600 39.36700
C  -14.29600 20.93800 39.66300
C  -14.26400 19.54300 40.20200
C  -12.17300 22.52700 38.85500
C  -15.45500 21.92000 39.46800
O  -15.19500 23.04500 39.10700
C  -16.84200 21.56600 39.75500
N  -14.46400 16.53400 41.00400
C  -15.49200 17.39300 40.94200
C  -16.80500 16.82400 41.46700
C  -16.42000 15.39700 41.93200
C  -14.86500 15.36200 41.49500
C  -17.50600 17.74600 42.59900
C  -17.35600 14.25400 41.29600
C  -17.96900 13.42300 42.31700
N  -11.92700 15.11800 41.01400
C  -12.72400 14.03300 41.33700
C  -11.92300 12.82700 41.33700
C  -10.67400 13.21400 40.84600
C  -10.71100 14.59700 40.67800
C  -12.34200 11.43100 41.64300
C  -9.34500 12.74100 40.39400
O  -8.86500 11.60400 40.35100
C  -8.55400 14.04100 39.95800
C  -7.46000 14.32600 40.89600
O  -7.50600 14.65900 42.06300
O  -6.33400 13.75500 40.33700
C  -5.04800 13.83200 41.05100
H  -10.09700 20.62600 39.11300
H  -16.40800 19.16000 40.36000
H  -14.60500 13.27400 41.93100
H  -7.27500 16.98700 40.24000
H  -8.25500 19.07100 38.27100
H  -7.80700 20.57400 40.03600
H  -6.36300 19.51400 39.51600
H  -7.27800 19.14800 40.97200
H  -7.61500 17.28600 37.40100
H  -7.89600 15.61400 37.98200
H  -5.79400 15.09500 38.30500
H  -5.38700 16.64500 38.95000
H  -12.46300 22.59900 37.80700
H  -11.08400 22.52300 38.89600
H  -12.54300 23.39200 39.40500
H  -17.56000 22.35100 39.52100
H  -16.87400 21.28400 40.80800
H  -17.10600 20.74100 39.09300
H  -17.48600 16.76700 40.61700
H  -16.47200 15.28600 43.01500
H  -18.48300 18.11500 42.28700
H  -16.95800 18.61900 42.95300
H  -17.63900 17.25100 43.56100
H  -16.75800 13.56100 40.70300
H  -18.06300 14.73300 40.61900
H  -19.03200 13.30800 42.10600
H  -17.96700 13.91300 43.29100
H  -17.49000 12.44700 42.40600
H  -13.04300 11.36000 42.47500
H  -11.54200 10.71100 41.81800
H  -12.82800 11.14200 40.71100
H  -8.16900 13.79900 38.96800
H  -4.93400 12.92300 41.64200
H  -4.98800 14.72100 41.67800
H  -4.27000 13.82200 40.28800

