158

Mg 1.87500 -1.80000 43.95400
C  5.23500 -1.40100 43.40900
C  1.32200 1.12700 42.38400
C  -1.37800 -2.58500 44.10100
C  2.53700 -5.06700 45.14500
N  3.17800 -0.36900 42.83200
C  4.51700 -0.36100 42.85400
C  5.05300 0.82700 42.08400
C  3.79700 1.78400 41.85800
C  2.68700 0.79700 42.40000
C  3.82000 3.19100 42.60800
C  5.70400 0.51200 40.73000
C  6.87000 1.40700 40.41200
H  6.73800 2.24400 39.18000
N  0.18800 -0.80900 43.34000
C  0.12100 0.46400 42.81400
C  -1.20800 0.78900 42.63200
C  -2.06200 -0.22500 43.20900
C  -1.07600 -1.30100 43.61400
C  -1.74100 2.06600 42.08600
C  -3.62400 -0.22800 43.42400
O  -4.29700 0.56500 42.81000
C  -4.28400 -1.13600 44.35500
N  0.73200 -3.59300 44.56200
C  -0.57200 -3.67600 44.55200
C  -1.15900 -5.05700 44.91600
C  0.08300 -5.88100 45.09700
C  1.20200 -4.78200 44.91700
C  -2.16000 -4.98400 46.04700
C  0.38800 -7.05800 44.01900
C  0.15600 -8.50700 44.46900
N  3.55900 -3.03500 44.33100
C  3.69000 -4.29800 44.84700
C  5.12900 -4.60100 44.92200
C  5.78400 -3.48700 44.39000
C  4.78300 -2.55200 44.07900
C  5.77400 -5.79200 45.51500
C  6.96200 -2.96200 44.06800
O  8.09300 -3.44000 44.23000
C  6.72600 -1.52000 43.43700
C  7.45000 -0.45000 44.23900
O  7.57200 -0.34100 45.46500
O  8.01000 0.48600 43.43300
C  8.80000 1.54000 44.23500
H  1.04400 2.02900 41.83500
H  -2.41000 -2.93900 44.15000
H  2.74500 -6.10800 45.40300
H  5.73500 1.35200 42.75300
H  3.61800 1.98300 40.80200
H  3.90100 4.03900 41.92800
H  4.72300 3.27400 43.21200
H  3.03200 3.25800 43.35900
H  4.96000 0.67100 39.95000
H  5.89300 -0.53800 40.50600
H  7.81900 0.88800 40.28000
H  7.15900 2.10700 41.19700
H  -2.61600 1.85400 41.47200
H  -1.09000 2.58600 41.38300
H  -1.86300 2.93900 42.72800
H  -5.25800 -0.67400 44.51900
H  -3.57700 -1.36700 45.15100
H  -4.43000 -2.03200 43.75300
H  -1.71200 -5.36400 44.02900
H  0.25400 -6.13100 46.14400
H  -1.84800 -5.75700 46.75000
H  -3.18800 -5.07900 45.69800
H  -2.08600 -4.00400 46.51800
H  1.45000 -7.03900 43.77400
H  -0.14000 -6.73800 43.12100
H  -0.50800 -9.05800 43.80300
H  -0.44700 -8.59200 45.37300
H  1.09500 -9.04100 44.61900
H  6.40700 -6.34000 44.81800
H  4.96500 -6.43800 45.85900
H  6.32000 -5.35900 46.35300
H  7.29800 -1.53300 42.50900
H  8.01700 2.23100 44.54700
H  9.57200 1.99100 43.61300
H  9.45500 1.10400 44.98900
Mg -9.74400 40.30600 42.19800
C  -8.96700 36.86900 41.47400
C  -6.88100 41.10500 40.60000
C  -10.85800 43.47800 42.06500
C  -12.98800 39.23000 43.07100
N  -8.06900 39.09900 41.30000
C  -7.93600 37.75100 41.02200
C  -6.64500 37.49900 40.17000
C  -5.91700 38.85200 40.17600
C  -7.02500 39.77500 40.75700
C  -4.48200 38.95500 40.75800
C  -6.93100 36.83600 38.82800
C  -5.64100 36.12400 38.31100
H  -4.65000 36.75700 37.34500
N  -8.91900 42.07800 41.53700
C  -7.72200 42.15600 41.02400
C  -7.41400 43.57600 40.84100
C  -8.49900 44.38200 41.29400
C  -9.51000 43.32600 41.61700
C  -6.09400 44.13000 40.37000
C  -8.72700 45.87400 41.35300
O  -7.85600 46.66600 41.01700
C  -10.00100 46.56900 41.64600
N  -11.66000 41.24200 42.39900
C  -11.79000 42.59200 42.49600
C  -13.18400 43.07500 42.95000
C  -13.81000 41.73900 43.26000
C  -12.76500 40.62400 42.94100
C  -13.15000 44.12600 44.11800
C  -15.24900 41.45800 42.65500
C  -16.15200 40.62700 43.63600
N  -10.79200 38.46300 42.30600
C  -12.06600 38.23500 42.77100
C  -12.32300 36.80000 42.85700
C  -11.04100 36.17900 42.40200
C  -10.20300 37.26100 42.08800
C  -13.59200 36.12700 43.31300
C  -10.30800 34.94600 42.12000
O  -10.72800 33.80700 42.30000
C  -8.98000 35.30100 41.45800
C  -7.77500 34.84900 42.23800
O  -7.56700 35.09000 43.43200
O  -6.86600 34.20200 41.47500
C  -5.52600 34.00200 42.07400
H  -5.92800 41.40700 40.16000
H  -11.10000 44.51500 42.30600
H  -13.97400 39.05000 43.50500
H  -6.17500 36.80500 40.86800
H  -5.87100 39.10800 39.11700
H  -4.09900 37.94800 40.59300
H  -4.43600 39.22600 41.81200
H  -3.80800 39.58100 40.17200
H  -7.26600 37.62600 38.15600
H  -7.77500 36.14900 38.88300
H  -6.00800 35.12700 38.06500
H  -4.93700 35.96600 39.12800
H  -6.10000 45.20000 40.16200
H  -5.58300 43.68600 39.51600
H  -5.39700 43.98000 41.19500
H  -10.41600 46.36400 42.63200
H  -10.74100 46.09500 41.00100
H  -9.91100 47.60000 41.30400
H  -13.62100 43.55200 42.07300
H  -13.89900 41.65800 44.34400
H  -12.11500 44.29900 44.41400
H  -13.74000 43.91400 45.01000
H  -13.62500 45.05100 43.79400
H  -15.14600 41.05300 41.64800
H  -15.73900 42.42100 42.51000
H  -16.57000 39.71700 43.20700
H  -16.84000 41.38800 44.00400
H  -15.63700 40.27000 44.52800
H  -14.13100 35.60700 42.52100
H  -14.24900 36.86800 43.76700
H  -13.30200 35.42700 44.09600
H  -9.03700 34.88100 40.45400
H  -4.95500 33.42800 41.34400
H  -5.44100 33.44700 43.00800
H  -5.06500 34.97900 42.22300

