158

Mg 54.32500 25.33700 44.10200
C  51.57200 27.63800 43.61700
C  52.45600 22.85300 42.96400
C  57.17700 23.57900 43.81200
C  56.28400 28.30600 44.74200
N  52.29400 25.33300 43.05000
C  51.28500 26.29300 43.16100
C  49.89900 25.69100 42.78100
C  50.26600 24.12600 42.93400
C  51.73600 24.06900 42.98300
C  49.65600 23.43200 44.09200
C  49.44600 26.07900 41.37300
C  50.59100 26.38200 40.28400
H  50.14500 26.58400 38.87700
N  54.81100 23.43800 43.64700
C  53.87800 22.58500 43.16100
C  54.57300 21.32500 42.87200
C  55.91000 21.47200 43.33400
C  56.01300 22.85900 43.54400
C  53.85100 20.08700 42.33000
C  56.95200 20.38100 43.40200
O  56.55200 19.20600 43.24700
C  58.39800 20.60400 43.77800
N  56.42700 25.89400 44.20300
C  57.41700 24.90800 44.14700
C  58.82900 25.55800 44.39500
C  58.52600 27.03100 44.75100
C  56.99800 27.12900 44.66500
C  59.67900 24.77300 45.46200
C  59.19100 27.92100 43.68000
C  59.95800 29.13300 44.22500
N  54.06200 27.52200 44.28500
C  54.90300 28.52700 44.67200
C  54.22100 29.77600 44.87600
C  52.98200 29.43000 44.43200
C  52.87100 28.06100 44.09100
C  54.69800 31.11000 45.21800
C  51.68800 30.05500 44.24700
O  51.33700 31.22600 44.36700
C  50.81700 28.94200 43.54200
C  50.58400 29.43600 42.19000
O  51.45100 29.95800 41.51500
O  49.24500 29.51300 42.00400
C  48.79700 29.97800 40.69400
H  51.86500 21.98300 42.67000
H  58.15500 23.09500 43.76100
H  56.93400 29.09300 45.13000
H  49.16300 26.10400 43.47100
H  50.03800 23.46800 42.09500
H  49.79300 22.35300 44.15900
H  48.58200 23.57500 44.21000
H  50.05600 23.79300 45.04000
H  49.07200 27.08700 41.55000
H  48.73300 25.33600 41.01400
H  51.27600 25.53800 40.36500
H  51.08600 27.29500 40.61500
H  53.60100 19.39300 43.13200
H  54.55800 19.57900 41.67400
H  53.00800 20.29200 41.67000
H  58.90400 19.63900 43.73500
H  58.44900 20.94900 44.81100
H  58.80500 21.17200 42.94200
H  59.27100 25.42400 43.40800
H  58.75700 27.22800 45.79700
H  60.47900 24.17900 45.02000
H  59.18000 23.90100 45.88700
H  60.12500 25.53800 46.09600
H  58.60200 28.41700 42.90900
H  59.86400 27.30200 43.08700
H  59.76700 30.02700 43.63200
H  61.03600 28.96800 44.20900
H  59.74900 29.15800 45.29400
H  55.77000 31.29200 45.14800
H  54.32200 31.47000 46.17500
H  54.24800 31.79300 44.49800
H  49.90400 28.85900 44.13000
H  49.65300 30.14100 40.03900
H  48.13600 30.84400 40.67500
H  48.27000 29.13900 40.24000
Mg -1.62100 34.25500 27.00600
C  -3.38900 32.44000 29.51600
C  -0.57700 36.42400 29.33100
C  -0.25800 35.85000 24.50600
C  -3.11500 32.01600 24.69900
N  -1.97900 34.37900 29.16200
C  -2.64200 33.47000 29.99900
C  -2.31100 33.84700 31.49500
C  -1.51400 35.16500 31.37000
C  -1.39400 35.42200 29.87000
C  -2.10100 36.42700 32.12800
C  -1.61000 32.67200 32.34000
C  -2.48800 32.02600 33.36100
H  -1.83100 32.00100 34.73100
N  -0.46100 35.85600 26.90400
C  -0.19500 36.63800 27.95700
C  0.60600 37.69700 27.51900
C  0.78400 37.56700 26.12400
C  -0.05600 36.39600 25.78500
C  1.22800 38.68000 28.51400
C  1.63000 38.32100 25.19700
O  1.82500 37.87100 24.06700
C  2.38400 39.50000 25.71400
N  -1.66600 33.88200 24.86900
C  -0.96600 34.72200 24.10500
C  -1.25500 34.38800 22.62400
C  -2.12700 33.11800 22.73600
C  -2.27000 32.92200 24.18900
C  -1.87200 35.52100 21.71900
C  -1.65500 31.88600 21.89100
C  -2.69500 31.27700 20.97100
N  -3.06100 32.72600 27.03200
C  -3.53500 31.86800 26.04500
C  -4.35500 30.83200 26.55200
C  -4.35900 31.01700 27.92500
C  -3.60000 32.20200 28.19000
C  -4.86400 29.63900 25.83700
C  -4.77300 30.39600 29.14500
O  -5.37200 29.32100 29.31900
C  -4.09400 31.28300 30.27100
C  -5.23300 31.76500 31.18200
O  -6.13300 32.53600 30.81100
O  -5.15300 31.11300 32.31700
C  -6.29000 31.26700 33.30900
H  -0.16400 37.08100 30.09900
H  0.09000 36.42900 23.64800
H  -3.42300 31.34400 23.89500
H  -3.30500 34.02400 31.90800
H  -0.47800 34.97500 31.64700
H  -2.33800 37.12500 31.32600
H  -1.33200 36.85900 32.76800
H  -3.08900 36.20600 32.53300
H  -0.74800 33.10500 32.84800
H  -1.26400 31.84400 31.72000
H  -2.61200 31.03000 32.93700
H  -3.48900 32.45400 33.41500
H  0.34600 39.11400 28.98500
H  1.78900 39.50800 28.08300
H  1.88300 38.19000 29.23500
H  2.89700 40.01000 24.89900
H  3.14700 39.09000 26.37600
H  1.87200 40.31000 26.23300
H  -0.28800 34.14600 22.18300
H  -3.11900 33.39200 22.37600
H  -2.29100 36.20500 22.45700
H  -2.70900 35.22400 21.08800
H  -1.05500 35.95500 21.14400
H  -1.25400 31.15200 22.58900
H  -0.91900 32.14500 21.13000
H  -2.52800 31.37200 19.89800
H  -3.66000 31.66300 21.29900
H  -2.83100 30.22900 21.23500
H  -4.15600 28.81200 25.78900
H  -5.12500 29.95600 24.82800
H  -5.80000 29.39700 26.34100
H  -3.36400 30.73700 30.86800
H  -5.86100 31.77900 34.17000
H  -6.61100 30.23400 33.44400
H  -7.24700 31.72200 33.05100

