158

Mg 54.55600 23.58400 44.75000
C  52.03200 25.66400 43.57200
C  52.96000 20.97800 42.84500
C  57.31500 21.61300 44.85800
C  56.32500 26.32100 45.58700
N  52.85100 23.43400 43.14100
C  51.93900 24.40500 42.88400
C  50.84500 23.98400 41.87400
C  51.05500 22.42700 41.84500
C  52.34200 22.20900 42.70600
C  49.82700 21.58500 42.36100
C  51.06600 24.85500 40.59100
C  51.22000 24.12000 39.26300
H  51.30200 24.84900 37.90600
N  55.03000 21.55500 44.16300
C  54.20400 20.69600 43.42200
C  54.87300 19.36200 43.39400
C  56.06400 19.48100 44.12400
C  56.18300 20.88000 44.50700
C  54.30400 18.34300 42.51200
C  57.04000 18.40800 44.28800
O  56.92700 17.32700 43.67600
C  58.22800 18.46000 45.23400
N  56.53300 23.94900 45.01500
C  57.51400 22.91700 45.11700
C  58.81200 23.56600 45.51200
C  58.58400 25.11000 45.66000
C  57.06600 25.11800 45.43300
C  59.48000 22.95800 46.75500
C  59.44500 26.04600 44.80400
C  60.06400 27.15500 45.63800
N  54.22400 25.62700 44.85500
C  54.97400 26.57000 45.41900
C  54.28400 27.82300 45.46100
C  53.05600 27.50600 44.79000
C  53.12400 26.19400 44.33600
C  54.72700 29.08500 46.10000
C  51.79300 28.01800 44.39300
O  51.37300 29.15400 44.55200
C  51.06600 26.84000 43.60200
C  50.62900 27.42300 42.35400
O  51.38700 27.90300 41.52300
O  49.25800 27.44200 42.27900
C  48.67500 28.09300 41.06100
H  52.46600 20.11500 42.39400
H  58.18800 20.98600 44.66700
H  56.95100 27.15500 45.91100
H  49.89200 24.31500 42.28800
H  51.24100 22.07000 40.83200
H  49.07700 21.63300 41.57100
H  49.45700 21.88300 43.34200
H  50.24800 20.58200 42.29400
H  52.00500 25.40600 40.63500
H  50.31100 25.63800 40.51900
H  50.52300 23.28700 39.17800
H  52.21500 23.67500 39.24000
H  54.11500 18.77400 41.52900
H  53.38300 17.96500 42.95600
H  54.81800 17.40000 42.32300
H  58.17100 19.20000 46.03200
H  58.89300 18.94800 44.52200
H  58.51300 17.47500 45.60500
H  59.57400 23.44600 44.74200
H  58.56700 25.41600 46.70600
H  59.31600 23.60300 47.61700
H  60.56600 23.04600 46.71400
H  59.04400 21.97700 46.94300
H  58.82600 26.46300 44.01000
H  60.24100 25.48500 44.31400
H  59.74400 28.13200 45.27600
H  61.14000 26.98200 45.62300
H  59.80000 27.07800 46.69200
H  55.81000 29.12000 45.98600
H  54.59900 29.15800 47.18000
H  54.35400 29.87300 45.44500
H  50.17200 26.51600 44.13500
H  49.08600 27.64700 40.15600
H  48.91100 29.15600 41.00500
H  47.58700 28.11000 41.12200
Mg -11.09200 16.65700 41.72900
C  -7.76400 17.37400 41.56100
C  -11.83500 19.99100 41.14500
C  -14.37100 15.85600 41.60300
C  -10.34100 13.25200 42.13100
N  -9.94200 18.42400 41.34500
C  -8.61000 18.44300 41.26800
C  -8.07900 19.83400 40.91700
C  -9.36200 20.75900 41.16200
C  -10.43600 19.66300 41.26200
C  -9.34400 21.51800 42.51900
C  -7.67500 19.89000 39.44000
C  -6.20600 20.33300 39.19200
H  -5.52600 19.65100 38.02300
N  -12.85900 17.76700 41.17300
C  -12.95300 19.09200 41.08500
C  -14.33300 19.41400 40.90000
C  -15.07700 18.21600 40.96700
C  -14.08500 17.20400 41.28400
C  -14.73400 20.82700 40.73800
C  -16.59000 18.13600 40.58600
O  -17.26100 19.15000 40.38800
C  -17.20400 16.74400 40.33500
N  -12.19600 14.75300 41.80400
C  -13.54800 14.70100 41.83100
C  -14.10300 13.30200 42.04300
C  -12.76600 12.41700 42.01900
C  -11.70800 13.51100 41.96700
C  -14.89800 13.12300 43.27600
C  -12.84900 11.39800 40.80400
C  -13.14000 9.91200 41.09100
N  -9.37200 15.46700 41.86600
C  -9.22600 14.14400 42.13000
C  -7.75500 13.82300 41.98100
C  -7.17700 15.12900 41.90400
C  -8.20600 16.06600 41.80100
C  -7.13100 12.49600 41.94500
C  -5.86500 15.80800 41.83500
O  -4.67800 15.44700 41.93500
C  -6.23800 17.31100 41.65100
C  -5.64000 18.10700 42.72300
O  -6.29000 18.65900 43.54100
O  -4.28800 18.05800 42.57700
C  -3.53400 19.11800 43.32300
H  -12.04500 21.05700 41.03000
H  -15.41200 15.60300 41.81500
H  -10.13000 12.19000 42.27200
H  -7.24200 20.16000 41.53500
H  -9.59300 21.44200 40.34400
H  -8.66100 21.05300 43.23100
H  -10.34600 21.63400 42.93200
H  -8.94600 22.50900 42.30200
H  -8.27900 20.47600 38.74800
H  -7.78300 18.89800 39.00200
H  -5.59800 20.31300 40.09600
H  -6.24000 21.36900 38.85500
H  -14.66100 21.14400 39.69800
H  -14.16400 21.47800 41.40100
H  -15.73400 20.79200 41.17000
H  -18.11100 16.89000 39.74900
H  -17.46400 16.19300 41.23900
H  -16.52100 16.20000 39.68300
H  -14.72200 13.17500 41.15400
H  -12.68300 11.84000 42.94000
H  -15.81300 13.68700 43.09300
H  -14.26500 13.60900 44.01900
H  -14.95100 12.07400 43.56800
H  -11.86200 11.42800 40.34200
H  -13.57500 11.79300 40.09300
H  -13.70600 9.81500 42.01700
H  -12.18200 9.41000 41.23100
H  -13.68000 9.49500 40.24100
H  -6.85700 12.38700 40.89500
H  -7.88500 11.71100 41.99900
H  -6.22000 12.35900 42.52800
H  -5.81400 17.74000 40.74300
H  -4.07300 20.06600 43.34100
H  -2.52400 19.20500 42.92300
H  -3.41600 18.79300 44.35600

