158

Mg 40.47600 9.26300 28.55700
C  42.29000 10.81200 31.35700
C  38.47600 7.77400 30.93900
C  38.82000 8.19500 26.08200
C  42.96600 10.67300 26.48700
N  40.37300 9.29900 30.85800
C  41.15900 10.05400 31.76700
C  40.64900 9.82000 33.22300
C  39.44900 8.88900 32.97900
C  39.44800 8.52900 31.49500
C  39.40900 7.50000 33.76500
C  40.37300 11.10300 34.04400
C  39.25700 11.10000 35.16100
H  39.65700 11.83600 36.47500
N  38.96800 8.03300 28.48400
C  38.18000 7.52000 29.58500
C  37.08000 6.70600 28.96700
C  37.14700 6.88800 27.56200
C  38.35500 7.62400 27.30800
C  36.08700 5.88700 29.81100
C  36.20800 6.30300 26.51600
O  36.56400 6.28800 25.36100
C  34.83600 5.59300 26.86600
N  40.91600 9.32900 26.59200
C  39.90600 8.99600 25.76100
C  40.29300 9.27800 24.27500
C  41.64400 9.96700 24.37400
C  41.88200 9.95100 25.89200
C  40.22900 8.09000 23.29100
C  41.79600 11.21400 23.51700
C  41.33800 12.61900 24.12000
N  42.25500 10.49200 28.80100
C  43.15000 10.91000 27.84800
C  44.30800 11.53000 28.41600
C  44.01200 11.47600 29.80100
C  42.70500 10.87300 29.98800
C  45.57100 11.94800 27.69900
C  44.55800 11.80300 31.09700
O  45.54200 12.51400 31.33600
C  43.47700 11.40900 32.16900
C  44.04000 10.46700 33.21900
O  44.55400 9.42300 32.86500
O  43.73600 10.90700 34.50800
C  43.86200 9.96000 35.61800
H  37.70100 7.42000 31.62300
H  38.30500 7.81800 25.19500
H  43.68900 10.86900 25.69200
H  41.40500 9.25900 33.77100
H  38.54900 9.50100 33.04800
H  38.35800 7.36700 34.02400
H  40.04000 7.64600 34.64100
H  39.74900 6.68800 33.12200
H  40.36100 11.88800 33.28800
H  41.32300 11.43000 34.46900
H  38.84200 10.15700 35.51600
H  38.37100 11.64400 34.83300
H  35.08500 6.14700 29.47000
H  36.16500 6.06000 30.88400
H  36.22900 4.81600 29.66600
H  35.09400 4.71400 27.45600
H  34.38800 5.17300 25.96500
H  34.25700 6.35400 27.39000
H  39.58100 10.05300 23.99000
H  42.39000 9.24000 24.05100
H  39.95300 7.13300 23.73300
H  41.19700 7.95400 22.80900
H  39.50000 8.34000 22.52000
H  41.27500 11.01000 22.58200
H  42.85000 11.27100 23.24300
H  41.18100 12.57400 25.19800
H  40.41100 12.82600 23.58500
H  42.02400 13.44600 23.93200
H  45.25900 12.84500 27.16400
H  45.86200 11.15800 27.00600
H  46.40200 12.15000 28.37500
H  43.20500 12.23300 32.82800
H  44.47000 9.08100 35.40100
H  42.84300 9.69700 35.90100
H  44.33600 10.37600 36.50800
Mg -5.50700 25.64000 26.00500
C  -3.89400 27.14600 28.75900
C  -7.16800 23.69700 28.18500
C  -6.96700 24.13500 23.31400
C  -3.80800 27.76100 23.86000
N  -5.52800 25.48300 28.27400
C  -4.86600 26.15600 29.18100
C  -5.27000 25.81500 30.60700
C  -6.15800 24.56300 30.36900
C  -6.31500 24.59000 28.86000
C  -5.48400 23.21900 30.77600
C  -5.98300 27.04300 31.17400
C  -5.64800 27.43100 32.59400
H  -4.95900 26.31900 33.51400
N  -6.74400 24.07800 25.79600
C  -7.40000 23.41300 26.83900
C  -8.29300 22.46300 26.30800
C  -8.28000 22.50900 24.91600
C  -7.24300 23.55600 24.59600
C  -9.13900 21.58500 27.28800
C  -9.10000 21.79100 23.89900
O  -9.00200 22.04200 22.70000
C  -10.08500 20.78400 24.29500
N  -5.38800 25.94200 23.79900
C  -6.09200 25.16700 22.94700
C  -5.90800 25.67900 21.48800
C  -4.87800 26.79900 21.69000
C  -4.64700 26.84800 23.16600
C  -5.30500 24.67700 20.52800
C  -5.20200 28.18800 21.17000
C  -4.12900 28.86000 20.23300
N  -4.11000 27.09200 26.17900
C  -3.48600 27.90900 25.22700
C  -2.60500 28.87600 25.88500
C  -2.65600 28.49300 27.21700
C  -3.57500 27.44900 27.39200
C  -1.72400 29.91000 25.28700
C  -2.18000 28.85400 28.53300
O  -1.35100 29.62500 28.90000
C  -3.00500 28.01500 29.51300
C  -2.01800 27.15100 30.21100
O  -1.20100 26.48200 29.67100
O  -2.09300 27.28000 31.52300
C  -1.06800 26.58100 32.32700
H  -7.71200 23.10200 28.92200
H  -7.53300 23.75900 22.45900
H  -3.30500 28.50400 23.23700
H  -4.29700 25.63500 31.06200
H  -7.13000 24.68300 30.84600
H  -4.66400 23.42200 31.46600
H  -5.11600 22.63800 29.93000
H  -6.12400 22.56600 31.37000
H  -7.06500 26.94200 31.08000
H  -5.71800 27.95300 30.63600
H  -6.57600 27.75300 33.06500
H  -4.90900 28.23100 32.64500
H  -9.84300 22.16900 27.88000
H  -8.45200 21.07500 27.96400
H  -9.65800 20.79300 26.74700
H  -10.40600 20.43300 23.31500
H  -10.94200 21.03500 24.92100
H  -9.61700 19.86500 24.64600
H  -6.82500 26.21600 21.24500
H  -3.90800 26.58700 21.24100
H  -4.86800 23.72700 20.83500
H  -4.69700 25.16700 19.76900
H  -6.12400 24.34600 19.88900
H  -5.32600 28.95300 21.93700
H  -6.03800 28.04200 20.48500
H  -4.64900 29.05900 19.29500
H  -3.37800 28.13600 19.91500
H  -3.61100 29.72900 20.63800
H  -1.73400 29.71000 24.21500
H  -0.70400 30.03600 25.65100
H  -2.21000 30.87300 25.44700
H  -3.54400 28.72600 30.13800
H  -0.76500 25.55800 32.10100
H  -1.52500 26.47600 33.31100
H  -0.18200 27.19100 32.50100

