158

Mg 40.42400 9.74400 29.61700
C  42.18800 11.06700 32.40600
C  38.21000 8.40100 31.90400
C  38.91700 8.26500 27.01600
C  43.24400 10.38200 27.66600
N  40.25600 9.64200 31.89200
C  40.97500 10.45000 32.80700
C  40.32500 10.55900 34.13600
C  39.24000 9.42400 34.04300
C  39.20000 9.11800 32.48700
C  39.42800 8.19700 34.96100
C  39.84800 11.91400 34.74400
C  39.22000 11.89800 36.16100
H  40.03600 12.44100 37.40400
N  38.68900 8.64800 29.48100
C  37.93400 8.17300 30.53600
C  36.87800 7.29200 30.06000
C  36.99800 7.37500 28.56700
C  38.23600 8.11700 28.26000
C  35.96600 6.46400 30.96000
C  36.12500 6.74300 27.41400
O  36.31000 6.95900 26.17200
C  34.95900 5.88300 27.81800
N  41.10000 9.30100 27.68900
C  40.22100 8.74500 26.78700
C  40.73800 8.97400 25.34000
C  42.22700 9.40200 25.52500
C  42.20900 9.73300 27.01500
C  40.60800 7.74700 24.36600
C  42.73200 10.53200 24.55900
C  42.60700 12.03200 24.96300
N  42.32700 10.63200 29.85400
C  43.36400 10.85300 28.97400
C  44.39800 11.61500 29.59500
C  43.90800 11.83200 30.89200
C  42.73200 11.01100 31.10500
C  45.54900 12.08800 28.87600
C  44.23400 12.47600 32.18000
O  45.19900 13.13200 32.42300
C  43.15000 11.96000 33.16100
C  43.80700 11.37700 34.37300
O  44.51400 10.35500 34.34700
O  43.40500 12.08500 35.44800
C  43.86600 11.60100 36.76300
H  37.49600 8.00400 32.63000
H  38.33900 7.96900 26.13700
H  43.99700 10.69500 26.93900
H  41.14200 10.16100 34.73700
H  38.28600 9.89400 34.28300
H  40.47700 8.16900 35.25500
H  39.31000 7.25200 34.43200
H  38.75100 8.26500 35.81300
H  38.98700 12.24700 34.16600
H  40.58500 12.71600 34.79700
H  38.90800 10.88000 36.39400
H  38.33700 12.53300 36.23500
H  36.33700 6.29600 31.97100
H  35.86500 5.48600 30.49000
H  34.95600 6.87000 31.02400
H  35.37100 5.01800 28.33700
H  34.32700 5.66900 26.95700
H  34.44000 6.45600 28.58700
H  40.30100 9.89200 24.94700
H  42.96300 8.63200 25.29300
H  40.26400 6.81900 24.82300
H  41.51800 7.51500 23.81400
H  39.80400 7.98700 23.66900
H  42.28400 10.37500 23.57800
H  43.78900 10.30900 24.41400
H  41.91200 12.24300 25.77500
H  42.18400 12.57900 24.12100
H  43.61300 12.42500 25.10700
H  45.31600 12.48400 27.88700
H  46.34600 11.35500 28.75100
H  45.82900 12.97500 29.44400
H  42.70200 12.88600 33.52200
H  44.95400 11.59000 36.83500
H  43.35500 10.66100 36.97300
H  43.56000 12.35500 37.48800
Mg 49.52300 35.26300 26.71900
C  47.36700 34.05600 29.13600
C  50.00600 38.03900 28.45900
C  51.42600 36.41200 24.10500
C  48.74400 32.41000 24.78500
N  48.67400 36.00000 28.56300
C  47.96700 35.26800 29.45600
C  48.06100 35.88400 30.79500
C  48.62200 37.28500 30.58300
C  49.11200 37.17600 29.10400
C  47.67100 38.53900 30.80500
C  49.19100 35.12100 31.64600
C  48.94400 34.67900 33.04900
H  47.85200 35.47000 33.80300
N  50.52400 37.07400 26.28200
C  50.64200 38.09300 27.20400
C  51.52000 39.11700 26.67900
C  51.95200 38.62400 25.40900
C  51.32500 37.33200 25.21700
C  51.77300 40.42900 27.39900
C  52.70500 39.35500 24.39200
O  52.77100 39.00300 23.22500
C  53.30900 40.68300 24.68900
N  49.97500 34.52100 24.77300
C  50.78500 35.16600 23.90200
C  51.16600 34.29900 22.70900
C  50.44500 32.97200 22.95300
C  49.63300 33.28800 24.20400
C  50.88700 35.05600 21.26000
C  51.45800 31.83900 23.03500
C  51.23400 30.77300 22.00600
N  48.30400 33.67400 26.85100
C  48.05600 32.63300 25.98100
C  47.11600 31.72200 26.54200
C  46.73300 32.25700 27.82600
C  47.52500 33.41900 27.89700
C  46.74700 30.33800 25.90700
C  45.92700 31.97000 28.95000
O  45.12400 31.10600 29.27000
C  46.43000 33.12800 29.95300
C  46.97700 32.45500 31.15300
O  48.09400 31.98100 31.24700
O  45.85400 32.34300 32.05100
C  46.10200 31.58000 33.26700
H  50.23200 38.84600 29.15900
H  52.10100 36.65800 23.28200
H  48.51100 31.44300 24.33400
H  47.14200 35.94900 31.37700
H  49.50900 37.47400 31.18800
H  47.56800 39.11800 29.88700
H  48.18800 39.11600 31.57200
H  46.66600 38.46100 31.22000
H  50.16400 35.60800 31.57600
H  49.26400 34.22700 31.02700
H  49.81300 35.04400 33.59700
H  48.88600 33.59800 33.17800
H  51.51600 40.29100 28.44900
H  51.20000 41.24200 26.95300
H  52.84200 40.63900 27.43400
H  52.52700 41.40100 24.94000
H  53.88200 41.13500 23.88000
H  54.01500 40.45100 25.48600
H  52.24700 34.17900 22.76900
H  49.70600 32.83600 22.16300
H  50.65000 36.10100 21.46100
H  50.31400 34.54000 20.48900
H  51.88000 35.11700 20.81600
H  51.33700 31.35900 24.00600
H  52.45900 32.22900 22.84700
H  51.87700 30.81500 21.12700
H  50.22700 30.64800 21.60800
H  51.42400 29.82700 22.51300
H  45.90100 29.90400 26.44100
H  47.52600 29.58200 25.81100
H  46.47700 30.40800 24.85300
H  45.54700 33.67000 30.29100
H  47.09100 31.12500 33.21500
H  45.46900 30.70400 33.40700
H  45.97000 32.29200 34.08100

