158

Mg -1.73000 16.61700 25.79700
C  -1.78700 14.59000 28.55700
C  -2.09900 19.35800 28.01900
C  -1.94700 18.73000 23.15600
C  -1.94000 13.77300 23.68900
N  -1.90200 16.87400 28.06000
C  -1.87600 15.87100 28.98800
C  -2.08300 16.42900 30.40500
C  -2.19600 17.96800 30.13600
C  -2.10100 18.03400 28.58700
C  -3.43400 18.68800 30.76000
C  -0.96200 15.96200 31.37400
C  -0.40000 16.99400 32.42300
H  -0.25100 16.37000 33.87900
N  -1.77800 18.72900 25.67400
C  -1.96700 19.68700 26.70100
C  -1.88400 21.05300 26.04600
C  -1.84800 20.82300 24.64600
C  -1.81200 19.37500 24.43800
C  -1.78300 22.31400 26.85400
C  -1.57800 21.77900 23.49800
O  -1.54300 21.50300 22.27900
C  -1.41300 23.20400 23.84800
N  -2.12600 16.38400 23.78400
C  -2.09200 17.34100 22.88200
C  -2.28000 16.74600 21.43700
C  -2.06300 15.21300 21.63200
C  -2.01800 15.10100 23.14600
C  -3.64300 17.21600 20.81000
C  -0.77400 14.63100 21.03700
C  -0.80200 13.24600 20.38900
N  -1.84300 14.58500 25.98300
C  -1.91500 13.57800 25.03800
C  -1.90100 12.31700 25.75200
C  -1.87800 12.64200 27.10700
C  -1.78400 14.04600 27.23000
C  -1.98500 10.94500 25.15600
C  -2.00700 12.03700 28.42500
O  -2.11500 10.87100 28.77000
C  -1.79200 13.28000 29.44900
C  -0.42700 12.93700 30.04400
O  0.66100 13.39600 29.65900
O  -0.63900 12.02800 30.98800
C  0.42000 11.61600 31.83400
H  -1.95600 20.11400 28.79400
H  -1.92200 19.36100 22.26600
H  -1.89700 12.95500 22.96800
H  -3.07100 16.09300 30.71900
H  -1.31000 18.52200 30.44500
H  -4.02600 19.16600 29.97900
H  -3.04000 19.33500 31.54300
H  -4.10200 17.99500 31.27200
H  -0.09100 15.69300 30.77600
H  -1.35300 15.14100 31.97300
H  -0.99800 17.90500 32.47600
H  0.59800 17.25400 32.07000
H  -0.80100 22.78400 26.90800
H  -2.11400 22.08000 27.86600
H  -2.50300 23.05000 26.49400
H  -0.58200 23.26000 24.55100
H  -2.34000 23.68600 24.15700
H  -1.13800 23.82300 22.99400
H  -1.50400 17.13100 20.77600
H  -2.95200 14.60600 21.45900
H  -4.09000 17.96700 21.46200
H  -4.43100 16.46500 20.86500
H  -3.34300 17.63200 19.84800
H  -0.08100 14.59500 21.87700
H  -0.65000 15.38600 20.26000
H  -0.78500 13.19700 19.30000
H  -1.64500 12.62400 20.69200
H  0.00200 12.60200 20.74700
H  -2.86800 10.95600 24.51600
H  -2.06500 10.17300 25.92200
H  -1.05900 10.82400 24.59400
H  -2.54600 13.42300 30.22300
H  0.10300 11.63400 32.87700
H  1.35200 12.12600 31.59200
H  0.64300 10.56200 31.66400
Mg 42.90800 4.29200 48.26600
C  40.96200 6.93000 47.71900
C  40.20200 2.16900 47.95500
C  44.97200 1.65900 48.03500
C  45.83300 6.37700 47.51300
N  40.83000 4.52700 47.60200
C  40.25100 5.72800 47.51300
C  38.76300 5.59800 47.16800
C  38.48900 4.09700 47.63900
C  39.95600 3.56900 47.77900
C  37.75800 3.89800 48.99900
C  38.29000 5.80800 45.68600
C  37.08000 6.78400 45.54800
H  36.55200 6.76800 44.15200
N  42.61300 2.30600 48.13900
C  41.42600 1.60100 48.03300
C  41.64100 0.20900 48.09700
C  43.05300 -0.01600 48.30800
C  43.64100 1.34300 48.17500
C  40.59400 -0.83200 47.68700
C  43.70000 -1.37600 48.38900
O  43.07000 -2.41500 48.57100
C  45.16600 -1.56600 48.38300
N  45.13700 4.09600 47.75000
C  45.69000 2.88300 47.80700
C  47.21700 2.91800 47.62600
C  47.42900 4.41000 47.41600
C  46.09900 5.00300 47.57800
C  47.89900 2.41600 48.92800
C  48.07800 4.77500 46.03100
C  49.53400 4.48600 45.89600
N  43.40000 6.28700 48.04900
C  44.54300 6.99100 47.78500
C  44.20900 8.42300 47.74500
C  42.78900 8.42000 47.80400
C  42.37200 7.11000 47.88200
C  45.16700 9.61600 47.63300
C  41.58500 9.31800 47.66800
O  41.41100 10.55300 47.64200
C  40.38400 8.34400 47.63800
C  39.60600 8.58700 48.83400
O  39.99700 8.35700 49.98400
O  38.27900 8.72100 48.40000
C  37.33600 8.57400 49.52700
H  39.31000 1.54300 48.02100
H  45.68400 0.84800 47.86900
H  46.66300 7.05400 47.29900
H  38.29500 6.22400 47.92700
H  37.93100 3.52500 46.89800
H  37.48900 4.87900 49.39100
H  38.35400 3.31200 49.69900
H  36.86400 3.36500 48.67700
H  38.00200 4.90100 45.15500
H  39.12900 6.17100 45.09200
H  37.45800 7.75000 45.88400
H  36.32600 6.41600 46.24400
H  40.24700 -1.47200 48.49800
H  41.00600 -1.41200 46.86100
H  39.74400 -0.37700 47.17800
H  45.67300 -0.89000 49.07200
H  45.61900 -1.32000 47.42200
H  45.47800 -2.59200 48.57800
H  47.39500 2.27700 46.76300
H  48.03600 4.92900 48.15700
H  47.17500 2.32300 49.73700
H  48.68400 3.00300 49.40300
H  48.26200 1.41000 48.71700
H  47.90200 5.82200 45.78200
H  47.53000 4.18500 45.29700
H  50.06300 5.43400 45.79900
H  49.69900 3.88800 45.00000
H  49.86900 3.95500 46.78700
H  45.13500 10.11400 46.66400
H  46.12800 9.13600 47.81600
H  44.99300 10.35400 48.41600
H  39.77200 8.59000 46.77000
H  36.94100 9.50300 49.93700
H  37.64600 7.96700 50.37700
H  36.62700 7.90900 49.03500

