158

Mg 40.87600 8.93500 29.95700
C  42.85300 9.88600 32.64400
C  38.29300 8.27300 32.20400
C  39.22500 7.54300 27.59300
C  43.59200 9.59500 27.82700
N  40.66000 9.03000 32.22600
C  41.60300 9.56000 33.09800
C  40.87000 9.81000 34.49200
C  39.52300 9.06100 34.32600
C  39.44400 8.76700 32.81800
C  39.36400 7.70500 35.11900
C  40.85800 11.19200 35.07700
C  40.06500 11.42700 36.33400
H  40.99500 12.10300 37.40800
N  38.98200 8.14700 29.87000
C  38.05300 8.00700 30.90400
C  36.91500 7.27100 30.33200
C  37.19200 7.02000 28.93600
C  38.49800 7.55700 28.74500
C  35.62700 7.02300 31.13400
C  36.34100 6.47100 27.81500
O  36.67400 6.37500 26.64500
C  34.99100 6.02000 28.09500
N  41.37800 8.59200 27.97900
C  40.47600 8.05300 27.16100
C  40.97200 7.92200 25.71200
C  42.27600 8.77300 25.74400
C  42.47100 8.95700 27.29700
C  41.22400 6.44800 25.37300
C  42.14600 10.13600 25.03500
C  41.06500 11.16800 25.44800
N  42.77200 9.63600 30.15500
C  43.76200 9.90200 29.17200
C  44.96200 10.41700 29.78500
C  44.67000 10.35700 31.16800
C  43.30300 9.84800 31.32300
C  46.14100 10.84900 29.00800
C  45.18000 10.67600 32.54100
O  46.27200 11.07200 32.79200
C  44.02900 10.42400 33.50100
C  44.37800 9.48800 34.65000
O  44.44100 8.27800 34.62800
O  44.63300 10.27800 35.70700
C  45.15000 9.58700 36.88700
H  37.49600 8.17700 32.94300
H  38.82300 6.89500 26.81100
H  44.41800 10.01300 27.24700
H  41.53700 9.29200 35.18200
H  38.66300 9.68900 34.55900
H  40.17600 7.57000 35.83300
H  39.22500 6.84300 34.46600
H  38.59400 7.75700 35.88900
H  40.55100 11.95000 34.35600
H  41.91100 11.42800 35.23300
H  39.91000 10.40700 36.68400
H  39.15800 12.01900 36.21100
H  34.71400 7.46000 30.72900
H  35.80300 7.31600 32.16900
H  35.39600 5.95700 31.14200
H  34.42700 6.90000 28.40600
H  34.87000 5.22400 28.82900
H  34.48600 5.68100 27.19000
H  40.25400 8.39800 25.04400
H  43.15700 8.26700 25.35100
H  41.14000 5.91100 26.31700
H  42.22300 6.29300 24.96500
H  40.40200 6.00400 24.81300
H  42.11800 9.79400 24.00000
H  43.13600 10.58700 25.09900
H  40.65500 10.81700 26.39500
H  40.22600 11.32700 24.77100
H  41.54500 12.10300 25.73700
H  46.77500 11.45100 29.66000
H  45.68700 11.39800 28.18300
H  46.73100 10.00700 28.64700
H  43.87700 11.44000 33.86400
H  46.14400 9.39400 36.48600
H  44.76500 8.59800 37.13700
H  45.18500 10.23700 37.76100
Mg 28.12600 56.72800 40.76500
C  25.56000 54.31200 40.09500
C  30.35900 54.32600 39.63500
C  30.25700 59.10700 40.41600
C  25.47500 58.96800 41.16500
N  27.92500 54.55200 39.95300
C  26.81200 53.84400 39.69300
C  27.12500 52.46100 39.01500
C  28.69500 52.41700 39.16900
C  29.05300 53.86500 39.64000
C  29.07500 51.30400 40.22100
C  26.58500 52.36500 37.59400
C  26.78500 53.66400 36.76200
H  27.03400 53.41500 35.26300
N  30.08200 56.72400 40.18400
C  30.83100 55.64400 39.74800
C  32.15200 56.19400 39.52000
C  32.14100 57.56700 39.78800
C  30.79800 57.83000 40.15700
C  33.26200 55.32800 39.12700
C  33.38700 58.38700 39.59600
O  34.41500 57.97500 39.07600
C  33.37700 59.88800 40.03200
N  27.89900 58.70000 40.86400
C  28.97600 59.52200 40.81000
C  28.55300 61.01600 41.09000
C  27.01300 60.89400 41.26600
C  26.74100 59.43600 41.12300
C  29.29000 61.58500 42.30800
C  26.32500 61.68300 40.09000
C  25.67500 62.99700 40.62000
N  26.02000 56.59600 41.06900
C  25.08900 57.59600 41.22100
C  23.78900 57.00100 41.48400
C  23.91900 55.68400 41.04200
C  25.28500 55.50700 40.72800
C  22.49300 57.65100 41.84900
C  23.15400 54.47200 40.66600
O  21.97000 54.15300 40.77400
C  24.23300 53.54600 40.06300
C  24.23800 52.27600 40.80100
O  24.05800 51.18000 40.21000
O  24.63000 52.43700 42.08000
C  25.25100 51.26300 42.66100
H  31.09400 53.68100 39.15000
H  30.90700 59.97600 40.28800
H  24.60100 59.58900 41.36900
H  26.67400 51.65000 39.58700
H  29.15700 52.21400 38.20300
H  29.77300 51.76600 40.91800
H  29.70200 50.53500 39.77000
H  28.24900 50.90500 40.81000
H  25.51800 52.14300 37.62100
H  27.07300 51.54200 37.07200
H  27.64400 54.20500 37.16000
H  25.93900 54.32600 36.94600
H  34.16500 55.36800 39.73600
H  33.46900 55.45600 38.06500
H  33.02400 54.26500 39.15000
H  32.87900 59.86800 41.00100
H  32.74000 60.37700 39.29500
H  34.41900 60.18400 40.15800
H  28.84400 61.56500 40.19400
H  26.73200 61.17000 42.28200
H  29.77600 62.52100 42.03200
H  30.03700 60.89300 42.69700
H  28.63500 61.75200 43.16300
H  25.55700 61.00100 39.72600
H  26.98400 61.99400 39.27800
H  25.73700 63.12900 41.70000
H  24.64700 63.05000 40.26200
H  26.20400 63.84000 40.17500
H  21.76400 56.84100 41.85700
H  22.15900 58.17300 40.95200
H  22.48400 58.29000 42.73200
H  24.01400 53.18000 39.06000
H  25.53000 51.47900 43.69200
H  26.16700 50.99600 42.13600
H  24.59900 50.39000 42.68200

