158

Mg 16.95500 -0.88900 28.66200
C  15.70500 0.86000 31.48800
C  19.04600 -2.54300 30.80700
C  18.57800 -2.04700 26.01000
C  14.86100 0.98200 26.73300
N  17.31400 -0.88600 30.89900
C  16.66600 -0.13200 31.83700
C  17.05300 -0.53700 33.27600
C  18.40100 -1.35300 32.96800
C  18.19800 -1.70500 31.47600
C  19.81000 -0.68500 33.29600
C  15.87600 -1.22800 34.06200
C  15.69600 -0.93800 35.58000
H  16.94600 -0.49000 36.32000
N  18.53800 -2.24500 28.45000
C  19.20900 -2.89600 29.45100
C  20.13600 -3.90400 28.87000
C  19.87200 -3.83000 27.43400
C  19.01300 -2.62600 27.25000
C  20.88300 -4.93800 29.70400
C  20.36000 -4.77000 26.36000
O  20.17700 -4.67500 25.15400
C  21.13500 -6.01600 26.69400
N  16.78900 -0.51300 26.68400
C  17.58800 -1.12100 25.71100
C  17.18400 -0.76200 24.33800
C  15.99900 0.26200 24.63000
C  15.76200 0.21900 26.09000
C  18.33300 -0.18900 23.51700
C  14.68800 0.01300 23.74100
C  13.65700 -1.02400 24.18600
N  15.61900 0.68500 28.97700
C  14.75100 1.25000 28.07600
C  13.76800 2.12000 28.71800
C  14.12300 1.93400 30.08700
C  15.23700 1.09600 30.20600
C  12.60700 2.79000 28.11400
C  13.75500 2.37300 31.35100
O  12.90300 3.15700 31.74900
C  14.81600 1.73100 32.32400
C  15.65000 2.76100 33.04900
O  16.36700 3.62900 32.49400
O  15.59700 2.62800 34.46200
C  16.52300 3.52400 35.23900
H  19.57600 -3.17300 31.52600
H  18.95300 -2.46600 25.07400
H  14.11900 1.46100 26.09000
H  17.28100 0.44500 33.69100
H  18.45600 -2.31100 33.48400
H  19.64900 0.09300 34.04300
H  20.10500 -0.27700 32.32900
H  20.57800 -1.35400 33.68300
H  16.13900 -2.28600 34.06700
H  15.02600 -1.01900 33.41300
H  15.42400 -1.88400 36.05000
H  14.79700 -0.36100 35.79600
H  21.87800 -5.09200 29.28700
H  20.30200 -5.86000 29.67100
H  21.05300 -4.59500 30.72500
H  21.47500 -6.52900 25.79500
H  20.41100 -6.63200 27.22700
H  22.03300 -5.64600 27.18800
H  16.87900 -1.70200 23.87900
H  16.28100 1.28800 24.39400
H  17.92800 -0.09500 22.50900
H  19.16000 -0.89500 23.58700
H  18.53200 0.77700 23.98200
H  14.82800 -0.23200 22.68800
H  14.20500 0.98600 23.64900
H  12.75500 -0.55900 24.58300
H  14.01400 -1.60200 25.03900
H  13.55800 -1.72200 23.35500
H  11.96900 3.22500 28.88300
H  12.15900 2.06600 27.43400
H  12.90000 3.60500 27.45200
H  14.18300 1.13700 32.98300
H  16.71400 3.16700 36.25100
H  16.23200 4.57500 35.25600
H  17.49400 3.39000 34.76100
Mg 9.98100 46.58300 25.64700
C  7.84300 46.92600 28.32900
C  12.47800 48.02900 27.35800
C  11.92800 46.48300 22.81600
C  7.10000 46.00700 23.64500
N  10.16100 47.17500 27.63600
C  9.21200 47.13700 28.60200
C  9.82200 47.68500 29.94600
C  11.05000 48.45100 29.45300
C  11.26700 47.90900 28.03300
C  11.21800 50.02000 29.62800
C  10.09600 46.55000 30.89300
C  10.04000 46.88600 32.34700
H  9.94900 45.68500 33.28000
N  11.96400 47.11400 25.16300
C  12.92800 47.61700 26.08900
C  14.28500 47.72800 25.45600
C  14.07500 47.24800 24.12000
C  12.58100 46.95000 23.93800
C  15.54600 48.11900 26.28400
C  15.02400 47.07600 23.08000
O  14.74700 46.68100 21.92000
C  16.40600 47.44400 23.31300
N  9.56400 46.47900 23.55400
C  10.57200 46.32000 22.62000
C  10.06000 45.96200 21.24400
C  8.58300 45.49400 21.65000
C  8.38600 46.05800 23.05700
C  10.14300 47.12800 20.22200
C  8.35000 43.96700 21.37700
C  7.91200 43.60000 19.95000
N  7.84300 46.50400 25.88400
C  6.82000 46.30700 24.98500
C  5.50700 46.23300 25.73700
C  5.92900 46.44100 27.05300
C  7.29900 46.68500 27.03300
C  4.12600 45.94300 25.22600
C  5.43900 46.62100 28.42600
O  4.30000 46.62200 28.87500
C  6.66100 46.92900 29.31100
C  6.84500 45.86400 30.35900
O  7.13600 44.71100 30.12300
O  6.58700 46.20900 31.61400
C  6.51700 45.13000 32.59700
H  13.21500 48.44400 28.04900
H  12.51300 46.40500 21.89700
H  6.21800 45.63800 23.11600
H  9.14200 48.45100 30.31700
H  11.89800 48.14700 30.06600
H  12.12500 50.22400 30.19700
H  10.44300 50.43700 30.27100
H  11.22200 50.52500 28.66300
H  11.09200 46.13000 30.74800
H  9.44700 45.68400 30.76800
H  9.28300 47.64900 32.52700
H  11.04400 47.25500 32.55700
H  15.18300 48.27800 27.29900
H  15.93800 49.06400 25.90700
H  16.35600 47.39600 26.37000
H  16.88400 46.81500 24.06400
H  16.37200 48.50400 23.56300
H  17.00200 47.28600 22.41500
H  10.63600 45.11800 20.86500
H  7.84100 46.08700 21.11400
H  10.40100 48.12700 20.57200
H  9.16500 47.31600 19.77900
H  10.83400 46.82900 19.43400
H  7.64200 43.58300 22.11100
H  9.24400 43.37300 21.56800
H  8.72500 43.10800 19.41600
H  7.69700 44.47200 19.33200
H  7.12100 42.85000 19.92000
H  4.12600 45.26100 24.37600
H  3.69000 46.86200 24.83500
H  3.47300 45.54100 26.00100
H  6.62000 47.90600 29.79300
H  6.94300 45.48700 33.53500
H  7.13100 44.26400 32.35000
H  5.52000 44.73200 32.78800

