158

Mg 48.08800 15.10900 28.26200
C  45.74000 15.35900 31.00700
C  49.98400 17.61800 29.89000
C  50.13600 15.13000 25.65300
C  45.58100 13.54400 26.40800
N  47.83600 16.26400 30.22700
C  46.95500 16.14600 31.26900
C  47.29400 17.03500 32.51800
C  48.23300 18.06400 31.80300
C  48.76500 17.27700 30.52300
C  47.70800 19.53100 31.59300
C  48.03900 16.14900 33.58200
C  47.28400 16.12400 34.93500
H  48.07800 15.80700 36.12000
N  49.87600 16.16000 27.86600
C  50.51700 17.06100 28.67300
C  51.80000 17.33900 28.10300
C  51.89700 16.59200 26.90900
C  50.62600 15.88800 26.77000
C  52.81700 18.21200 28.79400
C  53.02800 16.53100 25.88100
O  52.93200 15.91900 24.80100
C  54.32000 17.30900 26.13700
N  47.78800 14.67100 26.23000
C  48.89800 14.52600 25.46200
C  48.50200 13.71900 24.21100
C  47.01000 13.43400 24.28400
C  46.77200 13.85000 25.73300
C  48.97100 14.24300 22.81500
C  46.51500 12.00900 23.87300
C  45.55100 11.96000 22.66200
N  46.12500 14.44000 28.66300
C  45.23700 13.79800 27.77900
C  44.10200 13.43300 28.49100
C  44.21000 14.12500 29.70900
C  45.49500 14.68000 29.78400
C  43.00900 12.68500 27.96300
C  43.51800 14.46400 30.90600
O  42.35600 14.16900 31.15400
C  44.55100 15.01100 31.92500
C  43.98400 16.28600 32.62400
O  43.45300 17.26300 32.09300
O  44.14600 16.16500 33.96800
C  43.73200 17.29200 34.79400
H  50.67200 18.30200 30.39000
H  50.84300 14.84700 24.87000
H  44.75800 13.10500 25.84000
H  46.33300 17.42400 32.85500
H  49.04400 18.20900 32.51700
H  48.35900 20.22900 32.11900
H  46.71100 19.51800 32.03300
H  47.86000 19.85600 30.56300
H  49.12300 16.22700 33.65400
H  47.93500 15.14400 33.17100
H  46.61000 15.27700 34.80400
H  46.66500 16.97200 35.22700
H  52.43100 18.75900 29.65400
H  53.21400 18.93600 28.08300
H  53.58400 17.53700 29.17200
H  54.86100 16.88700 26.98400
H  54.17600 18.38800 26.07100
H  54.91900 17.10200 25.25000
H  48.99800 12.74900 24.23400
H  46.40600 14.11800 23.68700
H  49.61300 15.12100 22.89100
H  48.11000 14.71900 22.34600
H  49.30600 13.43000 22.17000
H  46.09200 11.46400 24.71800
H  47.36800 11.37800 23.62300
H  46.06000 11.69700 21.73500
H  45.00000 12.89100 22.53000
H  44.76600 11.21300 22.77100
H  43.36000 11.96200 27.22700
H  42.43200 13.35000 27.32100
H  42.38000 12.23600 28.73100
H  44.86900 14.20500 32.58600
H  44.30400 18.16600 34.48100
H  43.85700 17.08000 35.85500
H  42.64900 17.40300 34.84500
Mg 41.73400 40.77500 27.02200
C  41.29500 43.42300 29.32700
C  42.73900 38.85900 29.63500
C  42.69500 38.51100 24.71300
C  41.20500 43.13900 24.45400
N  41.96700 41.14900 29.24900
C  41.64100 42.23700 29.95500
C  41.58400 41.95200 31.43500
C  42.27200 40.56000 31.51200
C  42.43300 40.17600 30.07500
C  43.64400 40.56000 32.27300
C  40.13400 42.04800 31.94300
C  39.88100 43.03800 33.05100
H  39.05400 42.61400 34.33000
N  42.34200 38.96100 27.17800
C  42.61700 38.28200 28.35000
C  42.92400 36.92900 28.02500
C  42.86000 36.81100 26.61200
C  42.57600 38.11500 26.11500
C  43.22200 35.86500 29.20100
C  42.95100 35.56200 25.74300
O  42.93000 35.57400 24.53200
C  42.96400 34.19200 26.45000
N  41.92000 40.77600 24.93500
C  42.46600 39.80000 24.17000
C  42.32800 40.06600 22.61600
C  41.66200 41.48100 22.61900
C  41.51700 41.81600 24.14700
C  43.57500 39.84400 21.64100
C  40.38500 41.58800 21.86500
C  39.09500 40.79300 22.40300
N  41.32700 42.87500 26.85500
C  41.16200 43.67100 25.73000
C  40.91300 45.00100 26.15500
C  40.80100 44.91700 27.54800
C  41.17900 43.65400 27.90100
C  40.61700 46.18600 25.25500
C  40.57300 45.68100 28.75000
O  40.19300 46.83600 28.81700
C  40.89300 44.73200 29.93800
C  41.97600 45.40300 30.76800
O  43.09000 45.74400 30.39800
O  41.46800 45.62900 32.07300
C  42.49900 46.14100 33.07000
H  42.85900 38.20800 30.50300
H  42.95400 37.76400 23.96100
H  40.95700 43.82500 23.64100
H  42.15800 42.76600 31.87900
H  41.75000 39.69400 31.91900
H  43.97000 41.50900 32.70000
H  44.38600 40.11900 31.60700
H  43.49200 39.93200 33.15000
H  39.99500 41.01500 32.26300
H  39.53100 42.20500 31.04900
H  39.32500 43.79200 32.49500
H  40.80200 43.47400 33.43700
H  43.52300 36.31000 30.14900
H  44.05300 35.21900 28.92000
H  42.45500 35.16800 29.54000
H  42.13300 34.18400 27.15500
H  43.91400 34.15600 26.98300
H  42.99400 33.41900 25.68200
H  41.50800 39.45300 22.24300
H  42.34000 42.21400 22.18200
H  43.26600 39.26500 20.77000
H  44.40900 39.34000 22.12800
H  43.94200 40.73500 21.13200
H  40.48700 41.13800 20.87800
H  40.15200 42.65300 21.84700
H  38.83200 39.97000 21.73900
H  38.22900 41.42400 22.60200
H  39.33500 40.33300 23.36200
H  40.32500 45.87700 24.25100
H  41.58000 46.66500 25.07700
H  39.83600 46.87800 25.57200
H  40.00100 44.59500 30.54900
H  43.50800 46.06600 32.66200
H  42.41600 45.52200 33.96300
H  42.40000 47.19200 33.34000

