158

Mg 24.00300 -5.67400 45.78200
C  26.13400 -3.34500 44.38400
C  21.55000 -4.74100 43.47900
C  22.16800 -8.66900 46.19000
C  26.74300 -7.24800 47.32400
N  23.88100 -4.17000 44.16500
C  24.85100 -3.29100 43.76300
C  24.42600 -2.27300 42.68900
C  22.86500 -2.49800 42.81200
C  22.74800 -3.98600 43.48200
C  22.15400 -1.47200 43.69700
C  25.16600 -2.62400 41.28800
C  26.09400 -1.52800 40.59800
H  26.01900 -1.26200 39.08300
N  21.96600 -6.50700 45.10600
C  21.20800 -5.86600 44.18100
C  19.97600 -6.62200 44.07800
C  20.11800 -7.83400 44.80900
C  21.40800 -7.72600 45.52300
C  18.75400 -6.23700 43.20400
C  19.01100 -8.89100 44.89100
O  17.88700 -8.69700 44.36300
C  19.16900 -10.13200 45.79100
N  24.36300 -7.60500 46.63400
C  23.49700 -8.64300 46.69000
C  23.99700 -9.84000 47.53600
C  25.43700 -9.40200 47.87500
C  25.56500 -8.01600 47.26400
C  23.05800 -10.23100 48.66400
C  26.53200 -10.44800 47.42700
C  26.95000 -11.46100 48.55400
N  25.99700 -5.23900 46.03700
C  27.01000 -5.96700 46.68700
C  28.25300 -5.23400 46.58900
C  28.02300 -4.15100 45.61800
C  26.59300 -4.30300 45.38400
C  29.51300 -5.52800 47.22200
C  28.56000 -3.04400 44.82800
O  29.63700 -2.56700 44.69500
C  27.35900 -2.44500 44.03100
C  27.19700 -0.95500 44.22000
O  26.68200 -0.46100 45.19400
O  27.75200 -0.30400 43.19800
C  27.70500 1.09500 43.07900
H  20.78000 -4.44800 42.76300
H  21.56900 -9.55100 46.42500
H  27.58900 -7.65700 47.87900
H  24.86600 -1.33400 43.02700
H  22.52500 -2.47000 41.77700
H  22.83000 -0.96900 44.38700
H  21.40500 -2.00800 44.28000
H  21.62900 -0.76900 43.04900
H  24.47100 -3.08400 40.58500
H  25.84500 -3.43700 41.54800
H  27.10800 -1.78200 40.90600
H  25.74700 -0.63500 41.11800
H  18.62800 -6.97100 42.40900
H  18.79400 -5.25900 42.72500
H  17.95900 -6.10300 43.93800
H  19.24500 -9.86300 46.84400
H  19.99500 -10.71400 45.38200
H  18.24400 -10.70500 45.85700
H  23.89600 -10.61200 46.77400
H  25.56600 -9.28700 48.95100
H  23.57400 -10.43100 49.60300
H  22.50700 -11.14200 48.43200
H  22.31000 -9.48000 48.92100
H  27.47000 -10.05200 47.03700
H  26.09200 -11.08500 46.66000
H  26.98200 -12.37800 47.96700
H  26.19700 -11.36300 49.33700
H  27.97000 -11.20100 48.83700
H  29.88000 -4.67800 47.79700
H  30.27000 -5.72500 46.46200
H  29.54700 -6.40900 47.86200
H  27.65500 -2.64100 43.00000
H  28.68200 1.57800 43.06500
H  27.29500 1.52700 43.99200
H  27.07000 1.42400 42.25600
Mg 35.10100 2.22400 28.97100
C  33.06800 3.59500 31.53400
C  37.72600 2.21800 31.02600
C  37.04800 1.38800 26.28800
C  32.47300 2.88400 26.71900
N  35.31300 2.93900 31.02400
C  34.39000 3.22700 31.95800
C  34.99800 3.29700 33.38100
C  36.54300 3.09300 33.07300
C  36.50200 2.72300 31.63000
C  37.37700 4.39000 33.36800
C  34.36100 2.14900 34.28200
C  33.76400 2.61200 35.57000
H  34.52000 3.71200 36.22500
N  37.06200 1.77400 28.69600
C  37.94200 1.70900 29.74600
C  39.16200 1.05200 29.31900
C  39.05900 0.86500 27.91100
C  37.64800 1.30400 27.57100
C  40.34800 0.91500 30.27300
C  40.04000 0.38400 26.84200
O  39.86100 0.41500 25.63700
C  41.32400 -0.20300 27.26500
N  34.70900 1.92500 26.87800
C  35.71400 1.64700 26.02700
C  35.15000 1.67800 24.57100
C  33.66200 2.03700 24.76600
C  33.57800 2.33000 26.20500
C  35.93100 2.71500 23.69300
C  32.62900 0.96100 24.20300
C  32.63700 -0.43400 24.85100
N  33.19200 3.09400 29.03800
C  32.25400 3.20500 28.08600
C  31.04400 3.78100 28.62400
C  31.30800 3.98300 29.98200
C  32.63200 3.50800 30.19800
C  29.77400 4.01700 28.03500
C  30.71600 4.32900 31.23700
O  29.66300 4.84100 31.51700
C  31.85700 4.06700 32.32700
C  32.10400 5.20000 33.22800
O  32.83400 6.15500 33.05800
O  31.32000 5.03300 34.31200
C  31.50100 6.01100 35.44700
H  38.52200 2.11900 31.76700
H  37.66700 1.12000 25.42900
H  31.63600 2.82700 26.02000
H  34.92700 4.27700 33.85200
H  37.04200 2.30900 33.64200
H  38.02200 4.81800 32.60100
H  37.91500 4.16400 34.28900
H  36.70600 5.19500 33.66700
H  35.00200 1.29900 34.51400
H  33.52900 1.79300 33.67500
H  33.64400 1.78700 36.27200
H  32.79200 3.04400 35.33300
H  40.85300 -0.01600 30.01500
H  39.96700 0.80500 31.28800
H  40.98000 1.80200 30.23100
H  41.88300 -0.72600 26.48900
H  41.18600 -0.89500 28.09600
H  41.99500 0.59600 27.57900
H  35.27600 0.66500 24.18900
H  33.51800 2.99600 24.26800
H  36.39200 3.35500 24.44500
H  35.22900 3.23300 23.04000
H  36.66000 2.08100 23.18800
H  32.74800 0.70600 23.15100
H  31.67000 1.47700 24.13800
H  32.66100 -1.22400 24.10100
H  31.71400 -0.58500 25.41200
H  33.52000 -0.54400 25.48100
H  29.74400 5.00000 27.56400
H  28.94900 4.15600 28.73400
H  29.43700 3.41700 27.19000
H  31.44100 3.15400 32.75300
H  30.56000 6.53600 35.60900
H  32.31200 6.69700 35.20200
H  31.77600 5.59000 36.41400

