158

Mg 27.02100 51.27600 25.26000
C  25.08600 52.05200 28.09600
C  29.38700 49.99900 27.43400
C  28.92100 50.58900 22.52000
C  24.55800 52.48900 23.29600
N  27.25900 51.22900 27.57800
C  26.30300 51.48700 28.48600
C  26.77100 51.12400 29.90900
C  28.23200 50.64900 29.68300
C  28.37200 50.58700 28.15000
C  29.45100 51.46200 30.31500
C  25.93300 50.01400 30.56100
C  25.48600 50.24300 32.05800
H  26.54100 50.62300 33.12900
N  28.90000 50.59900 25.03900
C  29.67400 49.95500 26.01200
C  30.88200 49.43800 25.44900
C  30.81700 49.74600 24.04600
C  29.52300 50.42400 23.79400
C  31.93600 48.77200 26.22200
C  31.87100 49.47800 22.97900
O  31.83300 49.96900 21.88400
C  33.04800 48.64400 23.28700
N  26.83100 51.56900 23.16400
C  27.66900 51.06400 22.21800
C  27.18200 51.23500 20.81200
C  25.81000 51.95300 21.05800
C  25.63400 51.99200 22.60300
C  28.09300 51.99800 19.79400
C  24.54600 51.41000 20.29800
C  23.50800 50.50500 21.04400
N  25.21300 52.19900 25.57900
C  24.30500 52.57400 24.64500
C  23.16600 53.18300 25.32300
C  23.33600 52.92400 26.66500
C  24.68500 52.31000 26.78900
C  21.98900 53.80600 24.60100
C  22.83500 53.10500 28.01400
O  21.81500 53.63400 28.43800
C  23.87900 52.43600 29.01900
C  24.28800 53.40500 30.02100
O  25.20600 54.16500 29.86900
O  23.61100 53.13700 31.13600
C  24.07700 53.65000 32.41900
H  30.13200 49.57700 28.11100
H  29.50100 50.39800 21.61400
H  23.73700 52.88000 22.69200
H  26.77700 52.04000 30.49900
H  28.47700 49.62000 29.94400
H  30.12100 51.78400 29.51800
H  30.07400 50.75000 30.85700
H  29.01500 52.24300 30.93800
H  26.49200 49.08100 30.49900
H  25.07400 49.73200 29.95200
H  24.82400 49.41300 32.30400
H  24.81600 51.10100 32.00200
H  32.10900 47.72400 25.97600
H  31.74500 48.76500 27.29500
H  32.86100 49.30500 26.00200
H  33.77400 49.13500 23.93600
H  33.54500 48.28500 22.38600
H  32.69700 47.75500 23.81100
H  27.06800 50.22700 20.41300
H  25.82400 53.03100 20.89500
H  27.48000 52.71600 19.24900
H  28.44000 51.27200 19.05900
H  28.99600 52.44700 20.21000
H  24.90200 50.83300 19.44400
H  24.06400 52.29700 19.88500
H  23.90800 50.01500 21.93200
H  23.21100 49.76200 20.30400
H  22.59000 51.03300 21.30100
H  21.04800 53.77800 25.15100
H  21.83700 53.29300 23.65200
H  22.16500 54.86100 24.39200
H  23.47400 51.57000 29.54300
H  24.05500 52.88500 33.19400
H  23.42900 54.46200 32.75200
H  25.10000 54.02400 32.44100
Mg -10.29100 39.28400 41.63900
C  -8.89500 36.12400 40.93600
C  -7.80500 40.70400 39.86700
C  -12.23500 42.03100 41.32200
C  -13.23300 37.50900 42.57400
N  -8.54900 38.48700 40.56800
C  -8.13800 37.15500 40.40700
C  -6.83500 37.08100 39.63000
C  -6.51500 38.53600 39.29000
C  -7.70300 39.32100 39.93700
C  -5.14200 39.00300 39.82800
C  -6.92000 36.03100 38.38400
C  -5.64500 35.34200 38.07900
H  -4.65800 36.19500 37.18900
N  -9.92100 41.16100 40.96500
C  -8.80600 41.58700 40.32400
C  -8.83300 42.97300 40.08300
C  -10.16200 43.42400 40.53000
C  -10.88900 42.18600 40.92000
C  -7.74100 43.74100 39.36800
C  -10.64600 44.86000 40.63800
O  -10.07000 45.76000 40.16300
C  -11.98400 45.23800 41.40900
N  -12.48300 39.72000 41.82500
C  -12.93300 40.98800 41.76900
C  -14.47800 41.00800 42.20200
C  -14.70900 39.50500 42.51600
C  -13.38600 38.88700 42.34300
C  -14.91600 42.08400 43.25600
C  -15.82900 38.89500 41.64300
C  -15.42800 38.27400 40.34200
N  -10.99800 37.21600 41.82100
C  -12.10300 36.72500 42.37000
C  -11.96500 35.29800 42.56400
C  -10.72700 34.96300 41.97600
C  -10.14800 36.20900 41.58600
C  -12.90700 34.39000 43.33000
C  -9.71900 33.93700 41.86400
O  -9.64400 32.75300 42.15200
C  -8.55900 34.62600 41.05300
C  -7.16700 34.42700 41.76200
O  -6.29900 33.61100 41.46400
O  -7.01200 35.37400 42.77100
C  -5.95200 35.10100 43.76500
H  -7.13000 41.13300 39.12300
H  -12.94400 42.85700 41.24300
H  -14.07500 37.04100 43.08700
H  -6.17000 36.72500 40.41700
H  -6.52900 38.65400 38.20700
H  -5.26300 39.85100 40.50200
H  -4.69300 39.53800 38.99200
H  -4.52200 38.22800 40.28000
H  -7.12900 36.61000 37.48400
H  -7.74600 35.32300 38.31800
H  -5.89500 34.39900 37.59100
H  -5.08100 35.03600 38.96000
H  -7.27200 43.12800 38.59800
H  -7.02700 44.09600 40.11100
H  -8.17700 44.59200 38.84500
H  -12.10200 44.62900 42.30400
H  -12.86000 45.06700 40.78400
H  -12.07000 46.31600 41.54900
H  -14.95700 41.30900 41.27000
H  -14.90200 39.27900 43.56400
H  -15.47200 42.89600 42.78600
H  -14.04400 42.37000 43.84500
H  -15.63000 41.71100 43.99100
H  -16.56400 39.67100 41.42900
H  -16.33200 38.13600 42.24300
H  -16.08400 38.77000 39.62700
H  -15.64400 37.20700 40.40200
H  -14.37800 38.41600 40.08600
H  -12.66000 34.31100 44.38900
H  -12.74400 33.40200 42.89900
H  -13.94300 34.72000 43.25900
H  -8.38500 34.09000 40.12000
H  -4.96000 34.93800 43.34400
H  -6.38600 34.30200 44.36700
H  -5.84700 36.03200 44.32300

