158

Mg 8.59800 3.82700 26.80500
C  9.58400 2.41300 29.67600
C  6.18300 5.63600 28.67100
C  7.40000 5.47800 23.98200
C  10.19500 1.52000 24.88200
N  8.01500 4.05700 28.86400
C  8.60800 3.32600 29.81100
C  7.96200 3.72800 31.18700
C  6.55100 4.19600 30.73000
C  6.90500 4.58200 29.35500
C  5.36400 3.16200 30.87700
C  8.79800 4.87800 31.96600
C  8.87900 4.75200 33.51400
H  10.21700 4.66200 34.28200
N  7.17900 5.40700 26.39200
C  6.32800 6.05000 27.27300
C  5.51700 7.03800 26.64300
C  5.96600 7.10200 25.29400
C  6.95600 5.99300 25.17700
C  4.49700 7.91300 27.38500
C  5.57300 8.08800 24.19700
O  5.79700 7.94100 23.01500
C  4.84300 9.29000 24.57700
N  8.82900 3.53600 24.66500
C  8.27100 4.30000 23.73900
C  8.36600 3.49800 22.36700
C  9.34300 2.35700 22.74600
C  9.45100 2.43000 24.18300
C  6.98300 3.00400 21.87400
C  10.68400 2.35900 21.95500
C  10.92600 1.09700 21.18100
N  9.77700 2.34800 27.14500
C  10.43100 1.50000 26.32300
C  11.16900 0.58800 27.03900
C  10.93500 0.91000 28.42400
C  10.05600 1.99700 28.43400
C  12.00200 -0.45700 26.39300
C  11.18300 0.51700 29.84200
O  11.81600 -0.41500 30.34100
C  10.32000 1.52200 30.71800
C  9.50300 0.86300 31.73400
O  8.56800 0.11800 31.44200
O  9.79600 1.29900 32.97000
C  9.25200 0.53000 34.08500
H  5.50600 6.20600 29.31100
H  6.89300 5.64700 23.02900
H  10.59200 0.70200 24.27700
H  7.89400 2.87500 31.86200
H  6.30800 5.06500 31.34200
H  5.61600 2.20400 31.33200
H  4.88700 3.18300 29.89700
H  4.71300 3.65000 31.60200
H  8.34800 5.86000 31.82500
H  9.81200 4.98300 31.57800
H  8.45700 3.75400 33.63500
H  8.15700 5.40800 34.00100
H  4.40200 7.53600 28.40300
H  3.52500 7.80200 26.90300
H  4.82400 8.94800 27.48200
H  4.92800 10.12100 23.87700
H  5.48900 9.45100 25.44000
H  3.82300 9.06300 24.88400
H  8.80900 4.21000 21.67000
H  8.77700 1.46800 22.46900
H  6.16700 3.10600 22.58800
H  7.01700 1.98900 21.48000
H  6.59300 3.58100 21.03500
H  11.55500 2.47200 22.60000
H  10.65100 3.08400 21.14200
H  10.55900 1.12600 20.15500
H  10.47200 0.20600 21.61500
H  12.01200 1.03200 21.11100
H  12.28500 -1.24500 27.09100
H  12.95300 -0.10700 25.99200
H  11.46800 -0.94400 25.57700
H  11.08300 2.09400 31.24700
H  10.06400 -0.01500 34.56700
H  8.50400 -0.20400 33.78700
H  8.93800 1.23700 34.85300
Mg 16.52200 51.97300 25.97800
C  18.59300 50.66600 28.69200
C  14.31900 52.97900 28.27100
C  14.70700 53.04000 23.39500
C  18.88900 50.43700 23.71500
N  16.59800 51.91400 28.26100
C  17.48000 51.43200 29.19400
C  17.00700 51.59700 30.59200
C  15.56800 52.10500 30.43300
C  15.43000 52.34000 28.87400
C  14.47800 51.05700 31.01500
C  17.83100 52.61900 31.42800
C  17.81800 52.54600 32.95700
H  16.70900 51.74200 33.56600
N  14.77300 52.89100 25.84300
C  14.06300 53.35400 26.90700
C  13.01300 54.19000 26.43100
C  13.08800 54.16800 24.99300
C  14.23100 53.31700 24.69100
C  11.96000 54.82600 27.31600
C  12.26200 54.93200 23.93800
O  12.51600 55.07300 22.74600
C  11.12300 55.78500 24.39600
N  16.71200 51.65800 23.79700
C  15.88200 52.31300 23.01600
C  16.47600 52.24100 21.55500
C  17.71000 51.29800 21.59700
C  17.81100 51.13200 23.10000
C  15.50400 52.01700 20.42100
C  19.05700 51.89800 21.00600
C  19.87500 50.86100 20.26500
N  18.35900 50.73100 26.05500
C  19.08900 50.20200 25.06600
C  20.29200 49.55100 25.63100
C  20.10700 49.70800 27.04500
C  18.99100 50.46500 27.26600
C  21.39300 48.89200 24.87000
C  20.66400 49.34000 28.34200
O  21.76700 48.89700 28.64800
C  19.72100 49.91500 29.47100
C  19.26500 48.76000 30.28300
O  18.86000 47.64400 29.96300
O  19.42100 49.16500 31.55200
C  19.47600 48.20200 32.59500
H  13.56900 53.12600 29.05100
H  14.19100 53.43500 22.51800
H  19.75200 50.06100 23.16200
H  17.09400 50.60500 31.03400
H  15.42200 53.06300 30.93300
H  15.04500 50.28400 31.53400
H  13.84000 50.57500 30.27400
H  13.85400 51.46000 31.81300
H  17.55200 53.65200 31.22000
H  18.80900 52.41200 30.99400
H  17.88900 53.57000 33.32200
H  18.74300 52.02100 33.19400
H  11.95000 54.48700 28.35200
H  10.93800 54.72300 26.95000
H  12.14500 55.89700 27.23900
H  10.25800 55.12700 24.48200
H  10.88300 56.46000 23.57400
H  11.23800 56.33000 25.33300
H  16.76400 53.27100 21.34500
H  17.46900 50.34000 21.13600
H  14.86200 52.89600 20.48200
H  14.95100 51.08400 20.53400
H  16.02600 51.90700 19.47100
H  19.58200 52.09900 21.94000
H  18.88200 52.86000 20.52400
H  19.28500 49.94500 20.21900
H  20.85200 50.73200 20.73100
H  20.18400 51.27800 19.30700
H  21.68200 49.61100 24.10300
H  21.10800 47.95100 24.39900
H  22.19000 48.73400 25.59600
H  20.32200 50.60500 30.06300
H  19.61100 47.19400 32.20300
H  18.56300 48.25500 33.18800
H  20.25900 48.43400 33.31600

