158

Mg 46.86700 24.71600 29.19500
C  47.65100 27.09700 31.63800
C  46.32000 22.43900 31.75100
C  46.54900 22.26600 26.82300
C  47.54300 27.03700 26.73000
N  46.93600 24.77900 31.44600
C  47.15500 25.91100 32.17100
C  46.81500 25.68200 33.66900
C  46.57900 24.10800 33.69700
C  46.58200 23.74600 32.18000
C  47.56300 23.31300 34.62500
C  45.63100 26.60600 34.12700
C  45.85500 27.34400 35.43700
H  44.71200 27.16400 36.43800
N  46.45200 22.65000 29.20800
C  46.22700 21.92400 30.36300
C  45.68700 20.63600 30.02900
C  46.00900 20.47600 28.65000
C  46.38000 21.80300 28.15500
C  45.23900 19.67900 31.05400
C  45.79300 19.23700 27.67000
O  46.13800 19.28600 26.51700
C  45.19500 17.94600 28.20200
N  47.12400 24.62400 26.98000
C  46.79100 23.56400 26.25900
C  46.93600 23.79800 24.77600
C  47.08400 25.38900 24.79700
C  47.28200 25.74400 26.27600
C  48.18800 23.10500 24.19100
C  45.82200 26.17100 24.17000
C  44.53200 26.24100 25.03400
N  47.51100 26.61400 29.12100
C  47.76200 27.44800 28.07700
C  48.26900 28.72000 28.51500
C  48.27800 28.62900 29.92300
C  47.83300 27.33700 30.21600
C  48.77600 29.88700 27.74500
C  48.53400 29.39800 31.17500
O  48.94300 30.54800 31.29300
C  48.10200 28.44400 32.38000
C  49.19900 28.25300 33.35000
O  50.14200 27.47800 33.16200
O  48.91600 28.96800 34.52200
C  49.53800 28.42200 35.70100
H  46.03000 21.74900 32.54600
H  46.31700 21.53800 26.04200
H  47.80600 27.84100 26.03900
H  47.69100 25.84700 34.29600
H  45.56200 23.88800 34.02200
H  48.19000 22.61200 34.07300
H  46.88100 22.78000 35.28700
H  48.16200 23.86300 35.35200
H  44.70600 26.03200 34.17700
H  45.48400 27.30900 33.30700
H  45.87200 28.41300 35.22400
H  46.74500 27.11700 36.02400
H  45.64400 19.85900 32.05000
H  45.57100 18.69400 30.72600
H  44.15800 19.74500 31.17600
H  44.86700 17.32600 27.36700
H  44.35400 18.16100 28.86100
H  45.95600 17.34100 28.69400
H  46.08300 23.44100 24.19900
H  47.95900 25.78400 24.28300
H  48.42400 22.29000 24.87500
H  49.03800 23.77000 24.03500
H  47.86700 22.67200 23.24400
H  45.64500 25.81600 23.15400
H  46.02900 27.23100 24.02900
H  44.73500 25.77500 25.99900
H  43.88500 25.63000 24.40500
H  44.04400 27.17300 25.31800
H  48.61700 30.82600 28.27700
H  48.13700 30.03300 26.87400
H  49.84000 29.78500 27.53500
H  47.23600 28.87600 32.88100
H  49.33900 27.36900 35.90100
H  49.20500 28.99800 36.56500
H  50.62000 28.34300 35.60400
Mg 30.51700 59.66400 40.47800
C  27.73500 57.89000 39.39600
C  32.44500 56.82500 39.72100
C  33.24500 61.49600 40.92000
C  28.44400 62.30600 41.10000
N  30.16500 57.69400 39.51400
C  28.92100 57.20100 39.14300
C  29.01000 55.81600 38.42400
C  30.46800 55.40300 38.91600
C  31.11600 56.72700 39.35100
C  30.48600 54.22100 39.97900
C  28.87900 55.96800 36.90000
C  27.89000 55.06100 36.19200
H  26.87600 55.72800 35.27600
N  32.62500 59.24600 40.19200
C  33.19000 57.98200 40.10700
C  34.57200 58.09200 40.27600
C  34.86800 59.46600 40.60000
C  33.54700 60.15000 40.62200
C  35.57800 56.96100 39.95200
C  36.30700 59.95600 40.75700
O  37.32700 59.21500 40.71900
C  36.60500 61.41900 40.91900
N  30.83600 61.62800 40.64500
C  32.07700 62.12700 40.93800
C  32.05400 63.58500 41.31400
C  30.49700 63.83100 41.43300
C  29.90400 62.47600 41.04100
C  32.99200 64.10800 42.44400
C  30.05500 65.05300 40.53200
C  29.14200 66.11100 41.11000
N  28.49900 60.03900 40.48200
C  27.78300 61.17200 40.74400
C  26.32100 60.92600 40.63800
C  26.27000 59.66700 40.01100
C  27.61800 59.16800 40.00900
C  25.21500 61.96700 40.87400
C  25.36200 58.63100 39.47200
O  24.14200 58.65900 39.40300
C  26.27100 57.46500 39.08000
C  25.77100 56.35900 39.94700
O  26.16000 56.16700 41.10300
O  24.77700 55.67100 39.28400
C  24.25700 54.51500 39.95600
H  32.99400 55.90100 39.52400
H  34.07200 62.03400 41.39000
H  27.82100 63.15700 41.38200
H  28.20600 55.18600 38.80500
H  31.03200 55.00400 38.07200
H  30.79900 53.26300 39.56500
H  29.47100 54.05100 40.33700
H  31.03400 54.59700 40.84300
H  29.84700 55.61300 36.54600
H  28.79200 57.01000 36.59300
H  27.35400 54.47000 36.93400
H  28.46400 54.35400 35.59300
H  36.08900 56.74800 40.89100
H  36.38200 57.18600 39.25100
H  35.00200 56.06000 39.73900
H  37.62100 61.66300 40.60900
H  36.26200 61.81600 41.87500
H  36.02900 61.94200 40.15600
H  32.42100 64.10500 40.42900
H  30.05000 64.01200 42.41100
H  32.27900 64.68400 43.03400
H  33.75900 64.81000 42.11800
H  33.40000 63.32200 43.07900
H  29.64600 64.71100 39.58100
H  30.98600 65.53800 40.23900
H  28.52700 66.54400 40.32200
H  29.70900 66.97200 41.46400
H  28.49600 65.72800 41.90000
H  24.84100 62.44700 39.96900
H  25.61300 62.78100 41.48100
H  24.35800 61.57000 41.41700
H  26.10500 57.34500 38.01000
H  24.99200 54.17800 40.68800
H  24.10700 53.70700 39.24000
H  23.35900 54.82700 40.48800

