158

Mg 2.10400 -1.69500 44.24100
C  5.33400 -0.81200 43.30200
C  0.98400 0.83100 42.35100
C  -0.84700 -3.04100 44.68700
C  3.55300 -4.86500 45.45700
N  3.10400 -0.20400 42.99600
C  4.37600 -0.06900 42.66100
C  4.53900 0.96700 41.59100
C  3.21200 1.77100 41.56300
C  2.33700 0.69000 42.29400
C  3.30200 3.14600 42.41100
C  5.04500 0.31200 40.19600
C  6.35100 0.90500 39.57600
H  6.18400 1.68300 38.24700
N  0.29800 -1.09500 43.70600
C  0.00900 -0.05200 42.93600
C  -1.43900 0.10600 42.79900
C  -1.97300 -0.94100 43.53300
C  -0.84300 -1.76900 44.00600
C  -2.09200 1.26500 42.00400
C  -3.49400 -1.23500 43.73600
O  -4.38300 -0.42200 43.47200
C  -3.93900 -2.49400 44.40400
N  1.44700 -3.69800 45.10100
C  0.14400 -4.00000 45.11500
C  -0.19300 -5.40700 45.55200
C  1.23100 -5.97800 45.69200
C  2.19100 -4.79100 45.37000
C  -1.03000 -5.41300 46.78700
C  1.43000 -7.18400 44.78100
C  1.92200 -8.49900 45.37200
N  3.92400 -2.67500 44.42800
C  4.37300 -3.85400 45.05600
C  5.82500 -3.82300 45.17900
C  6.18300 -2.66100 44.45800
C  5.03900 -1.98900 44.08000
C  6.58600 -4.88900 45.86200
C  7.38600 -1.92000 44.00200
O  8.58300 -2.21300 44.10800
C  6.85300 -0.70900 43.20100
C  7.43900 0.50100 43.84500
O  8.20400 1.22300 43.27000
O  7.03600 0.62900 45.14100
C  7.35000 1.92700 45.76200
H  0.44400 1.60500 41.80200
H  -1.81900 -3.32600 45.09500
H  3.99300 -5.75800 45.90700
H  5.30000 1.60500 42.04200
H  2.93000 2.01700 40.53900
H  4.08800 3.07800 43.16400
H  2.39400 3.45800 42.92700
H  3.63700 4.02300 41.85700
H  4.28200 0.37800 39.42100
H  5.17500 -0.75300 40.39100
H  6.97000 0.04500 39.31800
H  6.93400 1.41700 40.34100
H  -1.46000 1.70000 41.23000
H  -2.41500 2.03300 42.70700
H  -3.05500 0.95700 41.59800
H  -5.02400 -2.51700 44.30700
H  -3.67000 -2.62600 45.45200
H  -3.39200 -3.34400 43.99600
H  -0.79100 -5.75000 44.70800
H  1.36600 -6.40200 46.68700
H  -0.67400 -4.62400 47.44900
H  -0.80300 -6.38400 47.22700
H  -2.07500 -5.21300 46.54900
H  2.16500 -6.97900 44.00300
H  0.47300 -7.28000 44.26800
H  1.03900 -9.06000 45.68000
H  2.54300 -8.37400 46.25900
H  2.38200 -9.10600 44.59300
H  6.75600 -5.87000 45.41800
H  6.00000 -5.12500 46.75000
H  7.57000 -4.53600 46.16900
H  7.21600 -0.85300 42.18300
H  8.40500 2.08000 45.53700
H  7.09000 2.04500 46.81400
H  6.71800 2.69200 45.31100
Mg 35.27000 2.53600 30.55700
C  32.68500 3.36100 32.72900
C  37.53800 2.95100 33.20200
C  37.84400 2.00200 28.35800
C  33.14400 2.48200 27.84600
N  35.12400 3.13400 32.72700
C  33.94300 3.29500 33.40000
C  34.20800 3.31100 34.94800
C  35.73800 3.74700 34.93900
C  36.16800 3.20600 33.53400
C  36.26300 5.16100 35.14700
C  33.96900 1.97100 35.65500
C  33.77400 1.94200 37.16500
H  34.60500 3.00700 37.92200
N  37.37000 2.39100 30.72800
C  38.13100 2.51700 31.94600
C  39.50100 2.26200 31.65500
C  39.50200 1.81700 30.28700
C  38.21600 2.06700 29.68800
C  40.63300 2.20200 32.66300
C  40.64000 1.27300 29.48900
O  40.48600 0.68800 28.41500
C  42.03300 1.25500 30.08000
N  35.46900 2.30500 28.42500
C  36.58100 2.02900 27.75500
C  36.40100 1.71300 26.28000
C  34.84500 1.66300 26.20100
C  34.45100 2.17900 27.57900
C  37.13100 2.72900 25.41400
C  34.17200 0.31700 25.83000
C  33.25100 0.31100 24.60500
N  33.31100 2.90100 30.25100
C  32.55000 2.90400 29.13100
C  31.21000 3.21100 29.44200
C  31.16000 3.40900 30.86000
C  32.48600 3.11900 31.27700
C  30.15700 3.32100 28.37500
C  30.35500 3.72100 32.04400
O  29.15300 3.91700 32.14600
C  31.30300 3.65800 33.30200
C  31.32000 4.84100 34.14400
O  31.52800 5.95100 33.69200
O  30.94400 4.57300 35.43400
C  30.85400 5.69400 36.43100
H  38.24300 2.99600 34.03500
H  38.62500 1.97300 27.59500
H  32.47700 2.34500 26.99200
H  33.51700 4.04000 35.37100
H  36.13600 3.07800 35.70200
H  37.05400 5.26400 35.89100
H  35.48800 5.91100 35.30400
H  36.71800 5.57800 34.24900
H  34.73700 1.24800 35.37900
H  32.99400 1.67900 35.26500
H  34.17400 0.97900 37.48300
H  32.71900 2.07100 37.40600
H  40.19400 2.72200 33.51400
H  41.44500 2.83900 32.31300
H  40.93300 1.18600 32.92000
H  42.03300 0.63300 30.97600
H  42.37900 2.27100 30.27000
H  42.70500 0.81000 29.34800
H  36.86400 0.72600 26.28100
H  34.65600 2.38100 25.40300
H  36.45600 2.81600 24.56300
H  38.15900 2.50700 25.12700
H  37.21500 3.70400 25.89400
H  33.80400 -0.06300 26.78300
H  34.95500 -0.36800 25.50700
H  33.71500 -0.26900 23.80700
H  32.82100 1.23900 24.22900
H  32.36100 -0.27400 24.83500
H  29.36700 2.60400 28.59600
H  30.48400 2.88700 27.43100
H  29.94400 4.38900 28.31400
H  31.02100 2.83000 33.95300
H  31.50400 5.50100 37.28400
H  29.88500 5.80400 36.91900
H  31.09500 6.67200 36.01400

