158

Mg 35.86800 2.14100 30.76800
C  33.23500 3.30300 32.85500
C  37.73900 1.84100 33.57100
C  38.44200 1.45600 28.75300
C  33.82400 2.52000 28.07800
N  35.47200 2.64900 32.95400
C  34.39200 3.06900 33.58800
C  34.48800 2.90100 35.08100
C  36.01500 2.82300 35.32400
C  36.44800 2.37600 33.85000
C  36.69000 4.18700 35.83300
C  33.69800 1.70300 35.62000
C  32.73800 2.13800 36.74500
H  33.40600 3.11800 37.68900
N  37.86900 1.83600 31.15200
C  38.37000 1.58700 32.37600
C  39.71600 1.02700 32.23500
C  40.01300 0.97800 30.82200
C  38.75500 1.43800 30.13000
C  40.71000 0.67100 33.32000
C  41.24800 0.61900 30.11900
O  41.42800 0.58400 28.94000
C  42.51000 0.24400 30.95700
N  36.16100 2.20100 28.68200
C  37.33000 1.86900 28.05500
C  37.21300 1.90100 26.45400
C  35.61400 1.98800 26.26500
C  35.16800 2.25700 27.72900
C  37.93200 3.07200 25.75400
C  34.96100 0.67800 25.61700
C  34.05600 0.87800 24.38100
N  33.91800 2.78500 30.44000
C  33.20300 2.80800 29.24300
C  31.87100 3.14700 29.53800
C  31.81200 3.37400 30.95900
C  33.09200 3.10100 31.47700
C  30.75900 3.36200 28.58800
C  30.95800 3.82500 32.09300
O  29.80000 4.24000 32.16400
C  31.91400 3.80700 33.34900
C  31.97400 5.16700 34.01000
O  32.37200 6.19500 33.53000
O  31.53800 5.01100 35.32200
C  31.42500 6.33300 36.11400
H  38.27300 1.48600 34.45500
H  39.36700 1.46200 28.17200
H  33.15600 2.53500 27.21300
H  34.21100 3.85800 35.52200
H  36.29200 1.97400 35.94900
H  37.44200 4.45800 35.09200
H  37.19800 4.10500 36.79400
H  35.90300 4.93700 35.90900
H  34.27600 0.83800 35.94400
H  33.03300 1.31400 34.84800
H  32.48800 1.21700 37.27200
H  31.82500 2.52500 36.29200
H  40.77700 -0.41600 33.28200
H  40.29000 0.96800 34.28100
H  41.60400 1.25200 33.09500
H  42.37900 -0.44400 31.79300
H  42.92500 1.11800 31.45700
H  43.29700 -0.19800 30.34600
H  37.65000 0.94800 26.15300
H  35.28000 2.78700 25.60400
H  38.39100 3.68400 26.53100
H  37.25200 3.72400 25.20600
H  38.71700 2.64100 25.13300
H  34.46900 0.16000 26.44000
H  35.76800 -0.00400 25.34900
H  34.43600 1.79600 23.93200
H  33.02100 0.87400 24.72400
H  34.21500 0.00700 23.74600
H  30.87500 2.82700 27.64600
H  30.64900 4.44400 28.51600
H  29.92700 2.95100 29.16000
H  31.47900 3.15500 34.10500
H  30.71300 6.21300 36.93000
H  31.15900 7.18700 35.49100
H  32.32500 6.58200 36.67700
Mg -5.87800 25.83600 26.28300
C  -4.27200 26.99600 29.16200
C  -7.61800 23.60000 28.41700
C  -6.86500 24.01700 23.80100
C  -3.56900 27.42900 24.41200
N  -5.96000 25.39100 28.54800
C  -5.36200 26.11000 29.48900
C  -5.82500 25.67800 30.92500
C  -6.76900 24.44800 30.63000
C  -6.75000 24.43600 29.09200
C  -6.65600 23.13400 31.45000
C  -6.67200 26.81500 31.51100
C  -6.51600 26.99800 32.99900
H  -5.91500 25.90400 33.91600
N  -7.15900 24.08000 26.09800
C  -7.82700 23.39000 27.05900
C  -8.76800 22.48900 26.45200
C  -8.57000 22.56200 25.05300
C  -7.51400 23.61900 24.88900
C  -9.67300 21.60600 27.30400
C  -9.17200 21.77600 23.93600
O  -8.99100 22.12200 22.79100
C  -10.06200 20.51400 24.14300
N  -5.28300 25.80600 24.40100
C  -5.81600 24.92900 23.51100
C  -5.41100 25.13500 22.04400
C  -4.37500 26.35600 22.24900
C  -4.40100 26.58900 23.76900
C  -4.76800 23.83400 21.42900
C  -4.69800 27.65800 21.49200
C  -3.48800 28.52800 21.10900
N  -4.30500 27.08200 26.64300
C  -3.50000 27.73100 25.76700
C  -2.59700 28.63000 26.48200
C  -2.84900 28.27100 27.82700
C  -3.88500 27.38600 27.84200
C  -1.66200 29.63000 25.94500
C  -2.41000 28.60200 29.13000
O  -1.48800 29.22700 29.60900
C  -3.35800 27.75800 30.07500
C  -2.49500 26.88200 31.01400
O  -1.96700 25.81900 30.71000
O  -2.29600 27.48200 32.25300
C  -1.52200 26.54300 33.12400
H  -8.22500 22.92700 29.02600
H  -7.15000 23.52000 22.87200
H  -2.92900 28.05000 23.78300
H  -5.05700 25.23900 31.56200
H  -7.78500 24.78800 30.82900
H  -6.21600 22.43500 30.73900
H  -7.69400 23.01000 31.75800
H  -5.98100 23.12200 32.30600
H  -7.71100 26.70600 31.20000
H  -6.21600 27.71600 31.10100
H  -7.47100 27.33000 33.40600
H  -5.89900 27.88800 33.12500
H  -10.49000 21.18100 26.72000
H  -10.12900 22.17600 28.11400
H  -9.08000 20.81300 27.75900
H  -9.68900 19.98500 25.02000
H  -9.98300 19.83500 23.29400
H  -11.05700 20.94500 24.25400
H  -6.30600 25.42800 21.49500
H  -3.39700 25.97200 21.95800
H  -3.74100 24.07700 21.15500
H  -5.24400 23.47000 20.51800
H  -4.72000 22.99300 22.12000
H  -5.33400 28.40100 21.97200
H  -5.19400 27.31200 20.58400
H  -3.34700 29.33500 21.82800
H  -3.58000 28.82800 20.06500
H  -2.64100 27.85800 21.24800
H  -0.67100 29.66600 26.39700
H  -2.13500 30.59800 26.11000
H  -1.52100 29.60100 24.86500
H  -3.90600 28.42000 30.74500
H  -0.51900 26.41500 32.71700
H  -2.14500 25.65100 33.18800
H  -1.27700 27.09800 34.03000

