158

Mg 48.17400 35.13300 27.56800
C  46.22400 33.27900 29.82900
C  48.54400 37.50200 29.99900
C  49.71700 36.95600 25.21800
C  47.00600 32.94500 25.01600
N  47.48700 35.28900 29.61400
C  46.82200 34.36300 30.36300
C  46.94600 34.59700 31.83100
C  47.31900 36.14500 31.89800
C  47.85600 36.35700 30.40400
C  46.12100 37.13300 32.30000
C  48.06900 33.66500 32.35100
C  48.07800 33.38400 33.85000
H  47.20300 34.29900 34.79900
N  49.08800 36.95500 27.64800
C  49.17700 37.76600 28.75200
C  50.20400 38.76900 28.46000
C  50.63000 38.66000 27.10300
C  49.90200 37.44500 26.62700
C  50.67600 39.82600 29.55900
C  51.57600 39.46300 26.26500
O  51.79100 39.07300 25.09500
C  52.21100 40.66800 26.83800
N  48.24700 35.03500 25.36300
C  49.05200 35.90600 24.70600
C  48.96400 35.61500 23.21900
C  48.41900 34.10700 23.13000
C  47.83100 33.99400 24.59000
C  48.01800 36.58700 22.42700
C  49.39200 32.94300 22.75800
C  50.45400 32.43000 23.64000
N  46.99900 33.42700 27.36400
C  46.57800 32.65300 26.30200
C  45.56400 31.70400 26.67900
C  45.26300 31.99700 28.04700
C  46.24400 32.93800 28.43200
C  44.94500 30.65600 25.73500
C  44.43100 31.63400 29.26500
O  43.53400 30.83800 29.46600
C  45.13400 32.51600 30.48600
C  45.70200 31.34700 31.33700
O  46.45900 30.50000 30.84500
O  45.18200 31.35000 32.58000
C  45.74200 30.39000 33.51600
H  48.79500 38.10900 30.87100
H  50.07800 37.56000 24.38300
H  46.64400 32.20000 24.30500
H  46.06400 34.39000 32.43700
H  48.20300 36.29800 32.51700
H  46.29900 37.68100 33.22500
H  45.14000 36.66400 32.37900
H  46.05200 37.87400 31.50400
H  49.07600 34.03300 32.15500
H  47.84600 32.73400 31.82900
H  49.09700 33.46600 34.22800
H  47.72700 32.36700 34.02600
H  51.66000 39.53400 29.92500
H  49.96800 39.91800 30.38200
H  50.83900 40.78200 29.06100
H  53.02100 40.39700 27.51400
H  51.46500 41.30200 27.31700
H  52.72200 41.32600 26.13500
H  49.94500 35.55500 22.74800
H  47.57500 33.87500 22.48100
H  47.33400 36.95100 23.19400
H  47.59000 36.14600 21.52700
H  48.61400 37.44400 22.11300
H  49.83200 33.21900 21.80100
H  48.90800 32.01700 22.44600
H  51.29500 32.09700 23.03300
H  50.12500 31.56000 24.20800
H  50.72800 33.15200 24.41000
H  44.20800 29.99200 26.18600
H  45.65800 29.95100 25.30600
H  44.44700 31.24600 24.96500
H  44.38900 33.06300 31.06400
H  46.75400 30.11900 33.21600
H  45.05200 29.55300 33.62100
H  45.77900 30.96600 34.44000
Mg 1.46100 42.81000 26.13300
C  2.99300 42.74900 29.28700
C  -1.46600 41.70100 27.59200
C  0.12600 42.45100 23.01800
C  4.50100 43.57000 24.68100
N  0.90800 42.17400 28.22600
C  1.61100 42.43100 29.32700
C  0.76800 42.29000 30.61900
C  -0.61400 41.58900 29.99200
C  -0.44800 41.93700 28.48300
C  -0.76700 40.12200 30.31200
C  0.52300 43.58900 31.34800
C  0.88600 43.50000 32.89000
H  -0.09400 42.80800 33.87500
N  -0.45000 42.27700 25.40900
C  -1.46500 41.81800 26.12800
C  -2.57800 41.54200 25.29900
C  -2.19100 41.86500 23.97300
C  -0.77500 42.22800 24.10900
C  -3.85500 41.01300 25.88100
C  -3.00900 41.85700 22.69200
O  -2.58800 42.34000 21.66200
C  -4.45900 41.54800 22.68600
N  2.18500 43.04700 24.20200
C  1.49200 42.65300 23.06600
C  2.38700 42.75300 21.81200
C  3.75500 43.36900 22.30300
C  3.48600 43.31900 23.80400
C  2.67000 41.46600 21.08300
C  3.92500 44.78500 21.89400
C  2.82600 45.81800 22.15900
N  3.39800 43.16900 26.80600
C  4.54100 43.49200 26.13100
C  5.62400 43.64700 27.02500
C  5.06400 43.25200 28.25300
C  3.71200 43.03900 28.07500
C  6.92000 44.26400 26.74100
C  5.34900 43.14500 29.64800
O  6.42100 43.35900 30.25500
C  4.07700 42.82100 30.40100
C  4.31200 41.60200 31.19900
O  4.43000 40.46400 30.79600
O  4.28000 42.01300 32.51800
C  4.34800 40.84000 33.42400
H  -2.42200 41.38800 28.01800
H  -0.22300 42.21600 22.01000
H  5.44000 43.70900 24.14200
H  1.38400 41.60900 31.20700
H  -1.54400 42.01300 30.37100
H  -0.10100 39.85200 31.13200
H  -0.46300 39.43200 29.52500
H  -1.81800 40.04500 30.58900
H  -0.50900 43.86700 31.13300
H  1.09300 44.39800 30.89300
H  1.12800 44.51500 33.20300
H  1.74100 42.82600 32.94600
H  -4.74400 41.33000 25.33600
H  -4.01100 41.42500 26.87700
H  -3.81100 39.93400 26.02600
H  -4.87400 41.54900 21.67800
H  -5.01300 42.32100 23.22000
H  -4.62900 40.59900 23.19400
H  1.85300 43.38600 21.10400
H  4.60000 42.69700 22.15200
H  1.98500 41.26900 20.25800
H  2.44500 40.59700 21.70200
H  3.69900 41.21800 20.82600
H  4.19600 44.83500 20.84000
H  4.77800 45.24400 22.39500
H  3.06800 46.45500 23.01000
H  1.97200 45.25900 22.54200
H  2.63200 46.40200 21.25900
H  7.67800 43.81100 27.38000
H  7.00900 45.33400 26.93000
H  7.18800 44.22000 25.68500
H  3.81300 43.62400 31.08900
H  5.17900 40.17700 33.18200
H  3.34000 40.47200 33.23300
H  4.53200 41.16700 34.44800

