158

Mg -1.36400 17.90000 27.03300
C  -1.76400 15.49900 29.80000
C  -1.94000 20.45000 29.30500
C  -1.31900 20.03000 24.47500
C  -0.86000 15.17200 24.90600
N  -1.84700 17.89400 29.24200
C  -1.91500 16.85000 30.18500
C  -2.20400 17.49600 31.57800
C  -2.57800 18.95200 31.27200
C  -1.99300 19.14000 29.88100
C  -4.04600 19.43000 31.50600
C  -1.09600 17.32100 32.63100
C  -1.71200 17.01800 33.98500
H  -0.75400 17.00000 35.18100
N  -1.45500 19.89700 26.93700
C  -1.65000 20.82200 27.93200
C  -1.45900 22.17500 27.43500
C  -1.27600 22.09300 26.03900
C  -1.27600 20.64100 25.75600
C  -1.77600 23.42000 28.28200
C  -1.00400 23.20000 25.00800
O  -0.74400 22.94200 23.83500
C  -1.03400 24.55700 25.43400
N  -1.27500 17.57200 25.07600
C  -1.30300 18.63100 24.20800
C  -0.99600 18.21000 22.72800
C  -0.74600 16.67000 22.86600
C  -0.99700 16.44400 24.36300
C  -2.21700 18.66100 21.86200
C  0.66500 16.31200 22.45000
C  1.82000 16.76700 23.40200
N  -1.22800 15.74800 27.31600
C  -0.97200 14.78700 26.31600
C  -1.02100 13.48000 26.93900
C  -1.35400 13.73800 28.28900
C  -1.47800 15.09100 28.47700
C  -0.77300 12.09000 26.33400
C  -1.49200 13.02300 29.56500
O  -1.32900 11.84400 29.88900
C  -1.83200 14.16800 30.67000
C  -0.77400 14.04000 31.67600
O  0.39300 14.32700 31.46900
O  -1.29000 13.57700 32.81200
C  -0.42800 13.28100 33.97600
H  -2.09100 21.28000 29.99800
H  -1.17400 20.57200 23.53800
H  -0.72100 14.39200 24.15500
H  -3.06200 16.91100 31.90800
H  -2.11100 19.62500 31.99100
H  -4.56700 18.74900 32.17900
H  -4.57600 19.46400 30.55400
H  -3.99000 20.33100 32.11600
H  -0.61400 18.28900 32.77000
H  -0.49700 16.50000 32.23900
H  -2.27200 16.08400 33.96900
H  -2.36800 17.86800 34.17500
H  -0.83500 23.81600 28.66300
H  -2.41800 23.11400 29.10700
H  -2.25200 24.10000 27.57500
H  -2.05400 24.78900 25.74000
H  -0.68800 25.12400 24.57000
H  -0.29300 24.50400 26.23200
H  -0.09300 18.78400 22.51800
H  -1.38900 15.96800 22.33400
H  -2.93000 19.24700 22.44100
H  -2.58300 17.78200 21.33000
H  -1.89700 19.30200 21.04000
H  0.90500 16.69700 21.45900
H  0.79100 15.23100 22.38200
H  2.52600 17.27100 22.74300
H  2.33000 15.91500 23.85200
H  1.45900 17.45500 24.16600
H  -0.06300 12.21400 25.51700
H  -1.66800 11.57000 25.99300
H  -0.26800 11.42300 27.03300
H  -2.84500 14.05200 31.05600
H  -0.62700 12.21700 34.10300
H  -0.82000 13.68400 34.91000
H  0.64800 13.45200 33.98600
Mg 41.88400 42.33000 26.41100
C  41.19000 44.56200 28.94100
C  42.70100 39.91100 28.85100
C  42.57700 40.12800 24.01600
C  41.29800 44.86100 24.04100
N  41.77500 42.21400 28.62600
C  41.46800 43.26200 29.40700
C  41.55800 42.78100 30.93600
C  42.28200 41.40300 30.89200
C  42.34900 41.19200 29.40600
C  43.60100 41.19600 31.60900
C  40.09500 42.72400 31.50000
C  39.95500 43.37300 32.86900
H  39.28700 42.58900 33.93700
N  42.56300 40.32500 26.43700
C  42.62900 39.53000 27.54800
C  43.10100 38.16800 27.04900
C  42.99500 38.17500 25.60900
C  42.69800 39.57500 25.29600
C  43.54900 37.06300 27.94900
C  42.99200 37.04900 24.59500
O  42.63100 37.22100 23.46300
C  43.28000 35.64800 25.02500
N  41.97400 42.46400 24.36200
C  42.24100 41.40700 23.61300
C  42.11800 41.79000 22.12500
C  41.44400 43.22400 22.14400
C  41.68300 43.58400 23.61100
C  43.53300 41.62700 21.56200
C  39.91100 43.25500 21.84400
C  39.02700 42.20400 22.47600
N  41.39400 44.29900 26.41500
C  41.09500 45.19100 25.39200
C  40.65400 46.42700 25.96200
C  40.66100 46.19100 27.38000
C  41.13600 44.91700 27.56300
C  40.29400 47.69200 25.19900
C  40.37800 46.81000 28.62300
O  39.95500 47.92900 28.96800
C  40.63700 45.73900 29.69700
C  41.62200 46.30400 30.69700
O  42.69900 46.89200 30.36400
O  41.27200 46.14800 31.99700
C  42.15300 46.86200 32.90600
H  42.80100 39.16700 29.64400
H  42.93600 39.49700 23.20100
H  40.93200 45.63600 23.36500
H  42.12500 43.52000 31.50300
H  41.62700 40.63900 31.31200
H  44.46100 41.12000 30.94400
H  43.51300 40.27000 32.17700
H  43.69800 42.06200 32.26400
H  39.67800 41.71700 31.53300
H  39.54300 43.31500 30.76900
H  39.50500 44.36400 32.81300
H  40.94600 43.52000 33.29900
H  42.91400 36.20600 27.72300
H  43.34700 37.33200 28.98500
H  44.56500 36.74700 27.71100
H  42.42600 35.15700 25.49200
H  44.22900 35.63900 25.56000
H  43.48100 34.87000 24.28900
H  41.46500 41.06300 21.64200
H  41.96900 43.97100 21.54800
H  43.50800 40.90000 20.75000
H  44.25600 41.27100 22.29600
H  43.93800 42.59200 21.25800
H  39.73900 43.07200 20.78400
H  39.49700 44.24800 22.02100
H  38.24200 42.83800 22.88700
H  39.48300 41.70100 23.33000
H  38.59900 41.53800 21.72700
H  39.54600 47.46600 24.44000
H  41.20700 47.81000 24.61500
H  40.04100 48.53900 25.83600
H  39.73700 45.55000 30.28100
H  42.24600 47.89000 32.55500
H  43.12800 46.37600 32.94000
H  41.70200 46.73700 33.89100

