158

Mg 1.11300 7.78600 26.54000
C  1.62900 9.70100 29.45100
C  0.83900 4.93300 28.53000
C  0.62600 5.94400 23.79900
C  1.51700 10.66000 24.56700
N  1.39500 7.40700 28.75500
C  1.44400 8.34100 29.77900
C  1.20300 7.65700 31.18200
C  1.40900 6.21200 30.83800
C  1.18800 6.14600 29.24600
C  2.78100 5.59200 31.28700
C  -0.25300 8.07300 31.65300
C  -0.35700 8.43700 33.14000
H  0.92600 8.31900 33.98400
N  0.76500 5.71200 26.25100
C  0.62800 4.67900 27.17700
C  0.02200 3.53600 26.49400
C  -0.15200 3.87200 25.11500
C  0.44500 5.20600 25.00700
C  -0.51100 2.32100 27.20900
C  -0.65500 2.99500 24.00900
O  -0.50200 3.29600 22.86500
C  -1.43900 1.78300 24.34900
N  1.40900 8.21000 24.42200
C  1.06800 7.25300 23.49900
C  1.16300 7.84600 22.10500
C  1.13700 9.32700 22.33500
C  1.36400 9.44600 23.88500
C  2.34300 7.38300 21.25500
C  -0.24100 10.05900 21.95000
C  -0.04100 11.10600 20.91900
N  1.49600 9.77500 26.84200
C  1.70600 10.81900 25.93400
C  2.02200 12.00100 26.69400
C  2.03000 11.61300 28.04100
C  1.67500 10.29100 28.11000
C  2.44100 13.25800 26.08600
C  2.26900 12.03700 29.38100
O  2.75500 13.08200 29.79100
C  1.89000 10.87300 30.32400
C  3.05600 10.71900 31.19200
O  4.05900 10.11000 30.87300
O  2.86200 11.40200 32.37100
C  4.08500 11.42800 33.16000
H  0.53600 4.05800 29.10900
H  0.35600 5.41600 22.88300
H  1.50700 11.58600 23.98900
H  1.97700 8.00100 31.86900
H  0.60600 5.60300 31.25400
H  2.58300 4.68200 31.85400
H  3.34400 6.39000 31.77200
H  3.39700 5.30300 30.43600
H  -0.96700 7.25000 31.64800
H  -0.71900 8.84400 31.03800
H  -1.10700 7.76100 33.55000
H  -0.74400 9.44200 33.30800
H  -0.21400 1.38100 26.74600
H  -1.59400 2.37100 27.09300
H  -0.07700 2.27200 28.20700
H  -1.83700 1.26000 23.48000
H  -2.20500 1.90000 25.11600
H  -0.58200 1.19600 24.67900
H  0.25800 7.46500 21.63100
H  2.04400 9.81700 21.98000
H  2.25900 6.29700 21.20400
H  3.26800 7.69800 21.73700
H  2.31200 7.79000 20.24400
H  -0.55100 10.52300 22.88600
H  -1.04100 9.42500 21.56700
H  0.95300 10.95400 20.49600
H  -0.00600 12.11600 21.32800
H  -0.73700 11.17400 20.08300
H  3.46000 13.24600 25.69800
H  2.32000 14.02100 26.85500
H  1.67900 13.41600 25.32400
H  1.02700 11.35100 30.78800
H  4.21700 10.43900 33.59800
H  3.96900 12.09500 34.01500
H  4.94500 11.73600 32.56300
Mg 9.24200 49.05200 25.96400
C  7.18500 49.37100 28.83000
C  11.75000 50.40600 27.92900
C  11.21500 48.81900 23.31100
C  6.56000 48.00400 24.06500
N  9.43800 49.77700 28.08200
C  8.47900 49.74500 29.09800
C  9.07800 50.31500 30.43500
C  10.48100 50.84000 29.96700
C  10.55900 50.31900 28.56400
C  10.54500 52.35300 29.84300
C  9.07200 49.32200 31.63800
C  8.21800 49.81300 32.80200
H  8.68100 50.83900 33.92800
N  11.25000 49.51500 25.63400
C  12.11500 50.04500 26.56200
C  13.45400 49.99400 25.98600
C  13.35500 49.54600 24.65600
C  11.89300 49.32800 24.41100
C  14.70400 50.39600 26.69100
C  14.35500 49.34000 23.58000
O  14.11100 48.98400 22.38600
C  15.81500 49.46000 23.99900
N  8.87100 48.62400 23.97500
C  9.88500 48.59900 23.05800
C  9.46300 47.99200 21.69100
C  8.00700 47.45100 22.10400
C  7.75500 48.10800 23.45800
C  9.21900 49.05400 20.55500
C  7.95600 45.92600 21.93800
C  8.78600 45.19600 23.04800
N  7.25000 48.78800 26.33100
C  6.28700 48.36800 25.42100
C  5.06000 48.25000 26.17700
C  5.38400 48.59900 27.50600
C  6.72200 48.93900 27.56500
C  3.73300 47.77700 25.71900
C  4.78400 48.75200 28.86800
O  3.70500 48.54600 29.31500
C  5.93800 49.24600 29.71900
C  6.04300 48.30100 30.83900
O  6.67500 47.26100 30.88100
O  5.26500 48.71000 31.89700
C  4.97800 47.61700 32.85200
H  12.56100 50.75000 28.57500
H  11.88900 48.76600 22.45300
H  5.70900 47.57000 23.53600
H  8.37200 51.09700 30.71400
H  11.34800 50.39100 30.45100
H  10.12000 52.56200 28.86100
H  11.56900 52.72500 29.79400
H  10.02400 52.95200 30.58900
H  10.11700 49.35000 31.94300
H  8.83800 48.26100 31.54700
H  7.84300 48.95800 33.36400
H  7.37300 50.34400 32.36400
H  14.28900 50.93800 27.54000
H  15.34000 51.09200 26.14400
H  15.24700 49.49700 26.98300
H  16.05700 50.49200 24.25200
H  16.47900 49.08100 23.22100
H  15.89900 48.88700 24.92300
H  10.09200 47.14000 21.43500
H  7.35400 47.91800 21.36700
H  10.14600 49.60300 20.38600
H  8.49500 49.82800 20.81000
H  8.87800 48.57000 19.64000
H  8.35900 45.54500 20.99900
H  6.93600 45.60000 22.13900
H  9.09700 45.87600 23.84100
H  9.63100 44.71900 22.55200
H  8.25500 44.32900 23.44000
H  2.99700 48.54600 25.95500
H  3.49400 46.81400 26.17000
H  3.76700 47.72200 24.63100
H  5.59300 50.18900 30.14300
H  4.29300 47.95500 33.63000
H  5.86200 47.12400 33.25500
H  4.42500 46.87100 32.28100

