158

Mg 42.01900 41.63900 27.97300
C  40.89000 44.02200 30.47500
C  43.11800 39.67000 30.44300
C  43.25900 39.69100 25.66000
C  41.41000 44.16600 25.52900
N  41.84600 41.82500 30.15600
C  41.40600 42.83200 30.98300
C  41.54400 42.40000 32.45000
C  42.38600 41.04000 32.46600
C  42.50400 40.85800 30.90700
C  43.75400 41.31400 33.11900
C  40.06900 42.28000 33.05100
C  39.92700 43.15000 34.32700
H  39.26900 42.42300 35.54400
N  42.99800 39.82100 28.03200
C  43.35700 39.18300 29.13400
C  43.99500 37.93400 28.78300
C  43.89300 37.86900 27.33500
C  43.32800 39.14900 26.96500
C  44.49900 36.92600 29.83400
C  44.38100 36.75900 26.36100
O  44.54300 36.96000 25.19200
C  44.66100 35.39400 26.92700
N  42.50500 41.98500 25.92600
C  42.92300 40.94300 25.21500
C  42.96000 41.30100 23.71800
C  42.37600 42.70600 23.65900
C  42.12900 43.03000 25.15800
C  44.36300 41.23400 23.03000
C  41.06500 42.81300 22.87200
C  39.87700 42.11800 23.41600
N  41.26200 43.67500 27.98000
C  41.04300 44.49800 26.89100
C  40.34400 45.63100 27.33900
C  40.25900 45.53100 28.73700
C  40.92600 44.36000 29.08700
C  39.74500 46.75500 26.50100
C  39.81400 46.13700 30.02100
O  39.08800 47.08300 30.22300
C  40.30100 45.22200 31.17800
C  41.33500 45.86800 31.94500
O  42.46100 46.19900 31.54900
O  40.89800 45.97100 33.25100
C  41.69300 46.75100 34.26100
H  43.49900 39.00500 31.22100
H  43.48300 39.01200 24.83500
H  41.25200 44.93100 24.76500
H  42.12900 43.19500 32.91300
H  41.95400 40.11800 32.85700
H  43.95300 40.53000 33.85100
H  43.74200 42.25100 33.67600
H  44.50500 41.16100 32.34500
H  39.88000 41.25400 33.36700
H  39.32700 42.67600 32.35800
H  39.30500 43.99200 34.02300
H  40.90700 43.50000 34.65100
H  45.54900 36.84800 29.55400
H  43.97600 35.97100 29.78900
H  44.46400 37.25700 30.87200
H  43.77000 35.01200 27.42500
H  45.43800 35.45700 27.68800
H  44.98800 34.68600 26.16500
H  42.26100 40.58700 23.28200
H  43.02600 43.52900 23.36000
H  44.72000 42.26300 23.06200
H  44.23300 40.81500 22.03200
H  44.96400 40.55700 23.63800
H  41.17800 42.44200 21.85300
H  40.84700 43.85700 22.64300
H  39.19900 42.95300 23.59500
H  39.98700 41.45700 24.27500
H  39.44800 41.58700 22.56600
H  39.16100 46.29500 25.70300
H  40.56600 47.32100 26.06000
H  39.11000 47.34200 27.16400
H  39.46700 44.81200 31.74800
H  41.10800 47.64900 34.46200
H  42.66300 47.17200 33.99500
H  41.85600 46.07400 35.09900
Mg -5.04900 25.00900 26.81100
C  -3.68400 26.84400 29.30400
C  -6.74600 23.01100 29.08000
C  -6.26200 23.06300 24.22800
C  -2.87000 26.39700 24.57600
N  -4.94700 24.74100 28.88800
C  -4.53500 25.77300 29.73800
C  -4.96800 25.41200 31.15800
C  -5.55000 23.98000 31.06400
C  -5.82300 23.93700 29.58400
C  -4.60800 22.85700 31.46500
C  -6.02600 26.36000 31.70700
C  -6.16800 26.38200 33.25900
H  -5.43300 25.36700 34.13300
N  -6.42200 23.31000 26.66400
C  -7.06400 22.74200 27.75000
C  -8.06500 21.83600 27.19100
C  -7.86200 21.76200 25.78600
C  -6.88300 22.78200 25.48400
C  -9.11100 21.03900 28.00500
C  -8.49800 20.82300 24.70600
O  -8.23100 20.99000 23.50000
C  -9.42400 19.77900 25.08300
N  -4.54900 24.68100 24.69900
C  -5.22200 23.86200 23.84700
C  -4.69500 23.95100 22.38700
C  -3.64600 25.16600 22.46800
C  -3.65600 25.43000 23.99400
C  -4.11400 22.60500 22.04700
C  -3.81500 26.47300 21.59000
C  -3.12200 26.44100 20.20000
N  -3.63000 26.44300 26.84900
C  -2.81500 26.94100 25.86000
C  -2.04200 28.01700 26.39900
C  -2.32100 27.99300 27.81400
C  -3.27600 27.01300 27.98400
C  -1.19700 29.04800 25.59400
C  -2.02500 28.63800 29.04400
O  -1.30000 29.57200 29.34000
C  -2.96800 27.93100 30.09700
C  -2.11300 27.49600 31.17500
O  -1.39300 26.50300 31.12700
O  -2.42500 28.07900 32.31700
C  -1.97200 27.60200 33.63500
H  -7.47400 22.50800 29.72100
H  -6.66000 22.55600 23.34600
H  -2.18300 26.92800 23.91400
H  -4.09500 25.41200 31.81000
H  -6.42700 23.83500 31.69500
H  -4.80100 22.05800 30.74900
H  -4.95000 22.49200 32.43300
H  -3.55600 23.13400 31.40400
H  -7.00600 26.08000 31.32300
H  -5.69300 27.33500 31.35300
H  -7.22800 26.32300 33.50800
H  -5.77100 27.34300 33.58600
H  -8.90000 19.97000 27.96800
H  -10.07900 21.37800 27.63700
H  -9.11600 21.28800 29.06600
H  -9.00700 18.92400 25.61700
H  -9.75400 19.47200 24.09100
H  -10.27000 20.18400 25.63900
H  -5.38300 24.16200 21.56800
H  -2.65800 24.73800 22.29700
H  -4.85600 22.14900 21.39000
H  -3.86100 21.97900 22.90200
H  -3.32300 22.83500 21.33300
H  -3.46100 27.34800 22.13600
H  -4.85400 26.59500 21.28300
H  -2.36200 25.66200 20.26100
H  -2.61000 27.38500 20.01200
H  -3.90200 26.31300 19.44900
H  -1.77300 29.92300 25.29400
H  -0.80800 28.50200 24.73500
H  -0.33800 29.44100 26.13800
H  -3.75200 28.56100 30.51800
H  -2.81000 27.50300 34.32400
H  -1.10300 28.11900 34.04300
H  -1.68700 26.55000 33.63200

