158

Mg 36.28900 48.78900 26.18200
C  36.63100 46.78800 29.05600
C  35.00900 51.24700 28.08200
C  35.79100 50.50500 23.31800
C  37.32100 45.90500 24.22100
N  35.82400 48.95500 28.35800
C  36.12000 48.05600 29.34200
C  36.02600 48.71100 30.73600
C  35.25200 50.03400 30.33300
C  35.40400 50.14300 28.81800
C  33.80900 50.11600 30.76900
C  37.42100 48.93200 31.36100
C  37.54900 49.25200 32.88700
H  36.28400 49.37700 33.81600
N  35.52200 50.68900 25.71900
C  35.06100 51.56500 26.74400
C  34.69300 52.81600 26.00400
C  35.03300 52.59200 24.64600
C  35.42000 51.21400 24.47700
C  34.28800 54.05600 26.67700
C  34.96400 53.57700 23.43100
O  35.30600 53.29600 22.30000
C  34.48300 54.94300 23.54100
N  36.46200 48.26500 24.03500
C  36.29700 49.23700 23.10200
C  36.64100 48.69400 21.74800
C  37.30900 47.28100 22.06200
C  36.99900 47.05900 23.51900
C  35.41300 48.65200 20.74400
C  38.81000 47.27400 21.88700
C  39.43100 46.33100 20.79500
N  36.85200 46.81800 26.54400
C  37.29100 45.78100 25.66900
C  37.51400 44.61800 26.42900
C  37.29100 44.98800 27.80200
C  36.91700 46.34300 27.80300
C  37.92800 43.29800 25.85300
C  37.40700 44.45700 29.05500
O  37.89600 43.40900 29.42900
C  36.96900 45.61000 29.99500
C  35.87800 45.25200 30.98300
O  34.75600 44.89400 30.66500
O  36.25900 45.53500 32.21500
C  35.14200 45.53500 33.18000
H  34.76500 52.16300 28.62400
H  35.96600 51.10100 22.42000
H  37.71700 45.02300 23.71300
H  35.37100 48.05800 31.31400
H  35.75300 50.88600 30.79400
H  33.53200 49.12300 31.12500
H  33.22800 50.40400 29.89300
H  33.64000 50.85600 31.55100
H  37.90900 49.69800 30.75800
H  37.92900 47.97400 31.25300
H  38.05900 50.20400 33.03800
H  38.13100 48.47100 33.37600
H  33.78300 53.97500 27.63900
H  33.49700 54.55400 26.11700
H  35.21000 54.63800 26.68500
H  35.00400 55.43400 24.36300
H  33.44600 54.90600 23.87400
H  34.59700 55.42700 22.57100
H  37.31500 49.42900 21.30800
H  36.82900 46.52800 21.43600
H  35.01400 47.64100 20.82000
H  35.59200 48.98700 19.72200
H  34.62000 49.27900 21.15200
H  39.33500 47.05300 22.81500
H  39.17100 48.26800 21.62300
H  40.05500 46.98700 20.18800
H  38.66500 45.95100 20.11800
H  39.99400 45.46800 21.15000
H  38.91700 43.53600 25.46000
H  37.37800 43.10500 24.93200
H  37.78500 42.47000 26.54700
H  37.75400 45.81500 30.72300
H  35.40400 45.98400 34.13800
H  34.90100 44.49700 33.41000
H  34.36200 46.12100 32.69500
Mg 1.04200 43.38500 26.20200
C  2.60700 43.59400 29.38200
C  -1.84400 42.32200 27.80300
C  -0.18300 42.78900 23.21200
C  4.15600 43.85700 24.73800
N  0.45200 43.12100 28.39600
C  1.23300 43.34600 29.48600
C  0.40900 43.20400 30.72400
C  -0.93200 42.54000 30.24600
C  -0.79800 42.60300 28.68400
C  -1.23900 41.08000 30.70500
C  0.23400 44.61400 31.46300
C  0.58800 44.67100 33.00400
H  -0.26200 43.94100 34.00900
N  -0.77700 42.71700 25.61000
C  -1.81700 42.39600 26.36200
C  -2.90200 42.05700 25.49600
C  -2.47800 42.06700 24.13200
C  -1.08100 42.55000 24.27000
C  -4.27100 41.73700 26.08500
C  -3.20200 41.75800 22.87800
O  -2.71400 41.84600 21.73700
C  -4.54200 41.21300 22.84100
N  1.92400 43.14400 24.23500
C  1.18800 42.96100 23.16500
C  1.89000 43.11500 21.81200
C  3.17500 43.88300 22.36200
C  3.16300 43.59100 23.84500
C  2.13400 41.89600 21.00200
C  3.23100 45.47900 22.02500
C  4.30400 46.00000 21.04800
N  2.93600 43.80200 26.87600
C  4.10900 43.99400 26.15000
C  5.25500 44.10800 27.02000
C  4.68500 43.99300 28.33900
C  3.28400 43.73000 28.19500
C  6.62100 44.54500 26.61900
C  4.96400 43.92500 29.78000
O  5.97500 44.07800 30.46700
C  3.58800 43.76800 30.51800
C  3.64700 42.63000 31.43400
O  3.36900 41.50000 31.11700
O  3.82600 43.13200 32.68800
C  3.68800 42.11600 33.68500
H  -2.78300 42.09300 28.31100
H  -0.60500 42.71700 22.20800
H  5.09100 44.17600 24.27400
H  0.91900 42.50700 31.38900
H  -1.70000 43.25300 30.54600
H  -0.53900 40.92000 31.52500
H  -1.10800 40.29900 29.95600
H  -2.29800 40.99000 30.94800
H  -0.81600 44.87600 31.59200
H  0.75900 45.47700 31.05400
H  0.64900 45.71700 33.30700
H  1.62200 44.33000 33.05800
H  -4.39400 42.35500 26.97400
H  -4.39100 40.71200 26.43400
H  -4.96900 42.01600 25.29600
H  -5.27300 42.01400 22.73500
H  -4.74700 40.57100 23.69800
H  -4.51400 40.57500 21.95800
H  1.33400 43.86100 21.24300
H  4.13300 43.50700 22.00300
H  3.06900 41.44300 21.33200
H  2.34300 42.24300 19.99100
H  1.32500 41.16800 21.05800
H  3.27500 45.98700 22.98900
H  2.27600 45.65400 21.53000
H  4.83200 46.84300 21.49400
H  3.74200 46.32000 20.17000
H  5.00100 45.19000 20.83700
H  7.39900 44.04100 27.19200
H  6.61800 45.49600 27.15000
H  6.73400 44.60300 25.53600
H  3.49200 44.70600 31.06600
H  4.22900 42.66800 34.45300
H  4.20600 41.18300 33.46100
H  2.69700 41.86800 34.06600

