158

Mg 0.89300 8.45700 25.69800
C  1.75000 10.40900 28.46200
C  1.12400 5.70800 27.63900
C  0.50000 6.57000 22.87000
C  1.23200 11.27700 23.71500
N  1.35000 8.05400 27.79300
C  1.56800 9.04500 28.78100
C  1.34700 8.40700 30.16500
C  1.47600 6.87900 29.89100
C  1.28600 6.85700 28.35400
C  2.83800 6.24600 30.20400
C  -0.03800 8.74500 30.85000
C  -0.15200 8.62500 32.40100
H  1.08000 8.25300 33.26400
N  0.78300 6.40600 25.28100
C  0.93400 5.42400 26.28400
C  0.75800 4.11900 25.60800
C  0.52100 4.29800 24.25400
C  0.59700 5.79000 24.03200
C  0.84100 2.84200 26.43900
C  0.34300 3.35500 23.10100
O  0.31100 3.74100 21.95300
C  0.25300 1.87600 23.40900
N  1.04200 8.82300 23.57100
C  0.68900 7.89200 22.66900
C  0.72500 8.42000 21.28900
C  0.83600 9.98700 21.48600
C  1.12500 10.07000 23.00800
C  1.75600 7.82000 20.32000
C  -0.39200 10.86000 21.03000
C  -1.52200 10.96400 21.98400
N  1.39300 10.38500 25.98100
C  1.36100 11.45200 25.09300
C  1.58200 12.72900 25.77100
C  1.73200 12.32000 27.10400
C  1.62100 10.93100 27.15700
C  1.74300 14.06100 25.19100
C  1.97600 12.86300 28.50300
O  2.25000 13.95300 28.90800
C  1.83300 11.54400 29.34500
C  3.01400 11.36700 30.23700
O  4.08000 11.02200 29.87200
O  2.63900 11.61600 31.54000
C  3.77300 11.50600 32.46500
H  1.03800 4.85600 28.31700
H  0.31600 6.06100 21.92100
H  1.13000 12.22000 23.17400
H  2.06900 8.68500 30.93300
H  0.62100 6.37200 30.33900
H  2.54500 5.61700 31.04500
H  3.50500 7.02600 30.57300
H  3.24800 5.53400 29.48800
H  -0.74000 7.96400 30.55900
H  -0.34400 9.70200 30.42700
H  -0.93900 7.92100 32.67100
H  -0.49500 9.60200 32.74000
H  -0.16300 2.45100 26.60400
H  1.38800 2.97700 27.37200
H  1.47800 2.13400 25.91000
H  -0.08900 1.26200 22.57600
H  -0.58300 1.82900 24.10800
H  1.16500 1.44400 23.82000
H  -0.28400 8.11100 21.01800
H  1.73600 10.49300 21.13600
H  2.44100 7.07900 20.73300
H  2.37400 8.69700 20.13000
H  1.28000 7.47500 19.40200
H  -0.60400 10.35100 20.09000
H  -0.04500 11.85800 20.76400
H  -1.53100 10.18500 22.74600
H  -2.40600 10.76700 21.37600
H  -1.59200 11.90700 22.52600
H  2.47200 14.03700 24.38100
H  1.98600 14.75000 26.00000
H  0.76000 14.39000 24.85400
H  1.03300 11.71400 30.06500
H  4.53600 12.27800 32.36200
H  4.11300 10.47300 32.39300
H  3.35400 11.62400 33.46400
Mg 0.77500 43.02600 26.64100
C  3.34000 42.99900 29.09100
C  -1.54300 42.48600 28.97200
C  -1.28700 42.70600 24.02900
C  3.44700 43.40300 24.37900
N  0.96000 42.93900 28.76600
C  2.06900 42.93500 29.63100
C  1.62400 42.97600 31.08100
C  0.12500 42.59400 31.02100
C  -0.20000 42.54000 29.48700
C  -0.33600 41.24300 31.81800
C  1.94600 44.39600 31.67200
C  2.11100 44.54200 33.16900
H  1.63300 43.44400 34.09600
N  -1.11900 42.56600 26.49600
C  -1.93000 42.32900 27.58100
C  -3.27800 42.06100 27.02100
C  -3.28700 42.18600 25.61100
C  -1.86200 42.52300 25.32200
C  -4.48400 41.65900 27.85600
C  -4.44100 42.03500 24.57600
O  -4.24000 41.88700 23.36300
C  -5.75800 41.62400 25.15300
N  0.98000 43.11300 24.52600
C  -0.00500 42.85600 23.64100
C  0.41500 42.87400 22.16100
C  1.94100 43.23200 22.32500
C  2.12300 43.32800 23.83100
C  0.15800 41.60400 21.39400
C  2.31100 44.62700 21.70700
C  2.11300 45.96700 22.59100
N  2.96200 43.30000 26.64600
C  3.88700 43.35700 25.64300
C  5.25800 43.35700 26.17400
C  5.09400 43.09300 27.50800
C  3.70700 43.21700 27.74900
C  6.40500 43.59200 25.40200
C  5.73800 42.77700 28.80400
O  6.94800 42.52900 29.02500
C  4.66900 42.92200 29.86800
C  4.95500 41.83400 30.84000
O  4.74200 40.61200 30.66800
O  5.43000 42.35900 32.02800
C  5.81500 41.40600 33.08900
H  -2.31200 42.14300 29.66800
H  -1.93800 42.57600 23.16300
H  4.24600 43.53700 23.64700
H  2.30700 42.24100 31.50800
H  -0.49600 43.38200 31.44900
H  -1.07200 41.57000 32.55200
H  0.52500 40.84400 32.35400
H  -0.81400 40.54200 31.13200
H  1.01400 44.87800 31.37700
H  2.75600 44.90100 31.14600
H  1.62000 45.41800 33.59300
H  3.19000 44.61600 33.31000
H  -5.17200 42.47100 28.09000
H  -4.15200 41.21600 28.79500
H  -5.10900 40.86000 27.45600
H  -5.71300 40.57500 25.44500
H  -6.41800 41.60700 24.28600
H  -6.11500 42.25000 25.97000
H  -0.03300 43.71200 21.62600
H  2.63400 42.47200 21.96600
H  -0.45200 41.04400 22.10400
H  1.06200 41.04600 21.15100
H  -0.45000 41.83800 20.52000
H  1.85500 44.93100 20.76500
H  3.38300 44.64400 21.51100
H  1.47800 46.62400 21.99700
H  3.09200 46.39100 22.81600
H  1.60500 45.88900 23.55200
H  7.33700 43.49400 25.95700
H  6.34500 44.45300 24.73500
H  6.45100 42.69300 24.78800
H  4.91100 43.88900 30.30900
H  6.75500 40.89100 32.88900
H  5.00400 40.72400 33.34300
H  5.94400 41.96600 34.01500

