158

Mg 2.02200 -1.75400 44.66800
C  5.38900 -0.98200 44.11900
C  1.15900 0.70300 42.37100
C  -1.00200 -3.17900 44.61300
C  3.25500 -4.85300 46.13600
N  3.20600 -0.29700 43.35500
C  4.57500 -0.22200 43.27900
C  4.88100 0.99100 42.27200
C  3.51500 1.64500 42.00400
C  2.57800 0.64000 42.65100
C  3.35300 3.11900 42.40500
C  5.66300 0.43200 41.05100
C  7.07500 1.02200 40.89000
H  7.58400 1.33300 39.41400
N  0.32000 -1.24300 43.71700
C  0.12700 -0.16600 42.87500
C  -1.30100 -0.06900 42.65000
C  -1.97800 -1.20800 43.33500
C  -0.87100 -1.88700 43.96100
C  -1.82600 1.08200 41.78500
C  -3.40700 -1.41400 43.39100
O  -4.21100 -0.70700 42.73900
C  -4.13200 -2.40400 44.34500
N  1.28400 -3.66800 45.38700
C  -0.03600 -3.99100 45.20500
C  -0.40300 -5.41300 45.69000
C  0.99400 -6.01600 46.06500
C  1.91700 -4.78900 45.91100
C  -1.41600 -5.50100 46.91900
C  1.37600 -7.19500 45.14100
C  2.19000 -8.43700 45.76500
N  3.90000 -2.61400 45.35200
C  4.21800 -3.84200 45.92500
C  5.58300 -3.84800 46.20400
C  6.13500 -2.71100 45.57200
C  5.02300 -2.04700 44.99000
C  6.42500 -4.88000 46.89000
C  7.35900 -2.04700 45.25500
O  8.46200 -2.34300 45.56600
C  6.86700 -0.86800 44.26100
C  7.26100 0.43400 44.98400
O  6.92000 0.76100 46.14200
O  8.05600 1.17600 44.14900
C  8.19500 2.53600 44.60900
H  0.84600 1.51600 41.71300
H  -1.95600 -3.67300 44.41600
H  3.63900 -5.78900 46.54600
H  5.52300 1.49900 42.99200
H  3.32400 1.61100 40.93200
H  3.12000 3.70800 41.51800
H  4.32900 3.38900 42.80800
H  2.57700 3.19800 43.16700
H  5.09000 0.74100 40.17700
H  5.65500 -0.65100 41.17200
H  7.71300 0.23300 41.28900
H  7.23800 1.94800 41.44100
H  -1.19800 1.46200 40.98000
H  -2.11000 1.96700 42.35600
H  -2.75500 0.87700 41.25300
H  -4.19000 -3.33000 43.77300
H  -5.07000 -1.88900 44.55300
H  -3.59600 -2.56800 45.28000
H  -0.93800 -5.87400 44.86000
H  1.07700 -6.27300 47.12100
H  -1.01000 -5.68100 47.91500
H  -2.17600 -6.26700 46.76600
H  -2.00600 -4.59200 47.03100
H  1.81900 -6.81300 44.22200
H  0.37700 -7.57700 44.92700
H  2.52200 -8.21400 46.77900
H  3.09100 -8.69300 45.20800
H  1.47100 -9.25700 45.76700
H  6.50400 -5.66500 46.13800
H  5.81700 -5.25900 47.71100
H  7.39500 -4.49200 47.20100
H  7.36600 -0.98300 43.29900
H  7.21900 3.02200 44.58600
H  8.74500 3.16400 43.90700
H  8.75500 2.69500 45.53000
Mg 1.24500 41.86800 24.86100
C  3.29000 41.97100 27.79100
C  -1.46500 41.40500 26.99700
C  -0.73100 41.70000 22.18900
C  4.09700 42.44200 22.94800
N  0.94500 41.77100 27.08500
C  1.91700 41.77600 28.11700
C  1.34900 41.58700 29.55200
C  -0.15900 41.47800 29.20500
C  -0.25300 41.55800 27.65000
C  -0.85900 40.24600 29.93900
C  1.61400 42.83900 30.49200
C  1.83600 42.58500 32.00000
H  0.62200 42.86800 32.88800
N  -0.82900 41.77200 24.58200
C  -1.75500 41.54600 25.56900
C  -3.03400 41.43000 24.98400
C  -2.92000 41.57200 23.60600
C  -1.45400 41.69300 23.35500
C  -4.31400 41.30200 25.84800
C  -3.93900 41.68400 22.59200
O  -3.69900 41.66100 21.36600
C  -5.32000 41.78900 22.90100
N  1.71000 41.85600 22.84200
C  0.68700 41.80400 21.96100
C  1.30000 42.00800 20.54300
C  2.70500 42.60000 20.79300
C  2.91200 42.23400 22.26700
C  1.29800 40.78100 19.55200
C  2.83800 44.13300 20.59100
C  4.28300 44.59100 20.12900
N  3.34100 42.07500 25.20600
C  4.38700 42.27400 24.31000
C  5.59800 42.24200 25.01600
C  5.27600 42.13500 26.37100
C  3.84400 42.08400 26.45500
C  6.95400 42.46600 24.49700
C  5.77000 41.99700 27.75400
O  6.90200 42.06700 28.15500
C  4.51000 42.00400 28.70400
C  4.62300 40.92600 29.71000
O  4.35300 39.75500 29.65200
O  5.21400 41.48100 30.79500
C  5.49000 40.71000 31.98500
H  -2.26700 41.02100 27.63200
H  -1.24600 41.80100 21.23200
H  4.91300 42.72100 22.27800
H  1.68400 40.63500 29.96500
H  -0.76000 42.28100 29.63400
H  -1.75900 40.57700 30.45800
H  -0.30100 39.79100 30.75800
H  -1.02400 39.43500 29.23000
H  0.86600 43.62000 30.35400
H  2.58200 43.18300 30.12800
H  2.49200 43.39800 32.31100
H  2.27000 41.61800 32.25400
H  -4.74500 40.35400 25.52700
H  -5.02500 42.12200 25.74500
H  -4.03300 41.10700 26.88300
H  -5.59000 40.78800 23.23800
H  -5.79400 42.03000 21.95000
H  -5.56500 42.60000 23.58700
H  0.71800 42.83600 20.13800
H  3.46900 42.17600 20.14100
H  0.61300 40.84200 18.70600
H  0.93400 39.92300 20.11600
H  2.28100 40.62000 19.10900
H  2.73900 44.59200 21.57400
H  2.09400 44.44600 19.85800
H  4.66100 45.33700 20.82800
H  4.21700 45.07500 19.15500
H  4.99900 43.78200 20.28000
H  7.66300 41.96700 25.15700
H  7.26900 43.50500 24.39500
H  7.10600 41.95600 23.54600
H  4.62400 42.95900 29.21800
H  6.35500 40.07600 31.79200
H  4.57100 40.22700 32.31900
H  5.86900 41.32900 32.79800

