158

Mg 0.86500 8.38700 26.59000
C  1.38200 10.17200 29.41900
C  0.99000 5.37800 28.16100
C  0.89900 6.71100 23.50600
C  1.68600 11.34600 24.84800
N  1.32100 7.86500 28.51600
C  1.20100 8.75500 29.56600
C  0.92800 8.05700 30.85300
C  1.40200 6.62800 30.54300
C  1.23800 6.57800 28.95800
C  2.82200 6.16200 30.83400
C  -0.46600 8.31000 31.39900
C  -0.65600 8.01700 32.89600
H  0.48900 7.39200 33.66000
N  0.59500 6.42500 25.92200
C  0.76300 5.27600 26.68300
C  0.53300 4.08300 25.92200
C  0.49600 4.45500 24.60900
C  0.63100 5.91500 24.61400
C  0.50900 2.66700 26.51600
C  0.24800 3.62300 23.41200
O  0.04800 4.08500 22.28500
C  0.05500 2.10700 23.59600
N  1.23900 8.90500 24.45500
C  1.30500 8.02400 23.44800
C  1.69100 8.74700 22.20300
C  1.80100 10.26700 22.52300
C  1.56000 10.24000 24.05100
C  2.95200 8.14200 21.58900
C  0.79700 11.22100 21.78400
C  -0.75900 11.01900 22.06300
N  1.25600 10.41200 26.99600
C  1.64400 11.48600 26.23300
C  1.87300 12.68000 26.99500
C  1.80500 12.13500 28.31400
C  1.49000 10.81000 28.26300
C  2.16000 14.07800 26.54600
C  1.96400 12.47600 29.76100
O  2.33700 13.49900 30.30400
C  1.55200 11.18900 30.46600
C  2.69900 10.94800 31.45700
O  3.81800 10.55400 31.22200
O  2.27600 11.46200 32.61800
C  3.21800 11.72400 33.68400
H  1.11500 4.39600 28.62100
H  1.10500 6.31800 22.50800
H  1.87200 12.30200 24.35300
H  1.66800 8.38200 31.58400
H  0.67500 5.95200 30.99300
H  3.27600 5.92200 29.87300
H  2.91100 5.34900 31.55400
H  3.29400 7.05900 31.23600
H  -1.22800 7.71700 30.89400
H  -0.75400 9.36000 31.33700
H  -1.54100 7.40000 33.05200
H  -0.86400 8.95500 33.41200
H  0.64700 2.72300 27.59500
H  1.36000 2.11500 26.11700
H  -0.39300 2.15000 26.18700
H  -0.83700 1.93500 24.19800
H  0.94500 1.69400 24.07000
H  0.00300 1.66400 22.60100
H  0.77300 8.60900 21.63100
H  2.81800 10.65400 22.44900
H  3.64100 7.80600 22.36300
H  3.45500 8.89900 20.98800
H  2.66300 7.25000 21.03200
H  0.99700 11.12100 20.71700
H  1.17900 12.18500 22.12100
H  -1.40300 10.88200 21.19500
H  -0.90000 12.02900 22.45000
H  -0.95300 10.34600 22.89800
H  1.27400 14.56500 26.13900
H  2.90900 14.06200 25.75500
H  2.55700 14.61400 27.40800
H  0.59000 11.34800 30.95300
H  4.03400 11.00600 33.77800
H  2.74400 11.62900 34.66000
H  3.54400 12.76400 33.67900
Mg -2.54900 34.67300 26.61700
C  -4.39100 33.45200 29.19900
C  -1.41500 37.27100 28.62400
C  -0.94200 36.04100 23.96200
C  -4.00100 32.30000 24.43200
N  -2.96300 35.25500 28.61100
C  -3.59700 34.54800 29.53800
C  -3.27300 35.05000 30.92600
C  -2.63000 36.48100 30.63300
C  -2.29800 36.31200 29.21800
C  -3.55800 37.71000 30.89400
C  -2.41000 34.15100 31.86000
C  -3.10000 33.81900 33.20600
H  -2.90700 34.85000 34.32300
N  -1.29600 36.35800 26.31300
C  -0.89800 37.23900 27.28800
C  -0.00100 38.17900 26.74500
C  0.15600 37.93000 25.34600
C  -0.69500 36.73200 25.15300
C  0.58700 39.42800 27.50000
C  0.85700 38.65200 24.28700
O  0.81500 38.34400 23.10400
C  1.78700 39.81200 24.58300
N  -2.52800 34.23200 24.42300
C  -1.76600 34.95100 23.55500
C  -1.85700 34.42600 22.11800
C  -2.59900 33.03100 22.31500
C  -3.08300 33.16900 23.84400
C  -2.40200 35.47700 21.13700
C  -1.83000 31.68200 22.05700
C  -2.74100 30.58700 21.57900
N  -3.88800 33.11800 26.77000
C  -4.35000 32.22000 25.85000
C  -5.23600 31.28700 26.49900
C  -5.35100 31.72500 27.83300
C  -4.41100 32.81800 27.91000
C  -5.95100 30.01900 25.93500
C  -5.95000 31.57800 29.18400
O  -6.85200 30.83100 29.48800
C  -5.17900 32.54100 30.12300
C  -6.09700 33.38800 30.99500
O  -6.76700 34.43000 30.73300
O  -6.33900 32.53900 32.10200
C  -7.34400 32.96600 33.08100
H  -1.03900 37.97800 29.36700
H  -0.29300 36.37400 23.14900
H  -4.36200 31.45000 23.84900
H  -4.21400 35.32100 31.40400
H  -1.71600 36.62700 31.21000
H  -3.89800 38.10500 29.93600
H  -3.04100 38.52300 31.40500
H  -4.49800 37.47600 31.39300
H  -1.40700 34.53500 32.04400
H  -2.32800 33.18900 31.35400
H  -2.77500 32.82000 33.49700
H  -4.13800 33.58700 32.96900
H  0.31200 39.61200 28.53800
H  0.06200 40.21900 26.96400
H  1.67100 39.49700 27.40700
H  1.18300 40.61500 25.00400
H  2.08200 40.07400 23.56700
H  2.65200 39.47700 25.15600
H  -0.78600 34.30600 21.95300
H  -3.49100 33.06400 21.69000
H  -1.56100 35.51800 20.44400
H  -2.73200 36.38000 21.65100
H  -3.27800 35.12800 20.59000
H  -1.40000 31.33400 22.99700
H  -0.99800 31.85800 21.37600
H  -2.37000 30.10000 20.67700
H  -3.78300 30.83800 21.38200
H  -2.85500 29.96400 22.46600
H  -5.19800 29.23300 25.88500
H  -6.20400 30.18100 24.88800
H  -6.74800 29.70800 26.61100
H  -4.47800 31.98400 30.74400
H  -8.13900 32.99200 32.33600
H  -7.09100 33.95800 33.45300
H  -7.64600 32.29500 33.88500

