158

Mg 35.90700 49.62800 25.63400
C  35.76300 47.96400 28.61500
C  34.14100 52.23900 27.07200
C  35.57400 50.91400 22.51400
C  37.02200 46.63700 24.02400
N  35.16500 50.09900 27.65200
C  35.20900 49.29200 28.74200
C  34.76000 50.01200 29.93000
C  34.17100 51.33400 29.46200
C  34.50100 51.17800 27.96900
C  32.70100 51.59900 29.85900
C  35.86800 50.15700 30.97600
C  35.31500 50.37900 32.38400
H  33.82800 50.27900 32.68500
N  35.10200 51.36400 24.92600
C  34.35300 52.29800 25.64300
C  33.97300 53.35400 24.70000
C  34.32100 52.93800 23.40400
C  34.91900 51.57800 23.58300
C  33.17400 54.53400 25.12800
C  34.11300 53.69200 22.11100
O  34.41900 53.27000 20.99700
C  33.38900 55.02000 22.06900
N  36.42100 48.91800 23.54100
C  36.18900 49.67400 22.49200
C  36.68100 49.06800 21.16400
C  37.30100 47.73500 21.66700
C  36.81800 47.71300 23.15700
C  35.52200 48.94600 20.09600
C  38.84200 47.50000 21.60600
C  39.74300 48.63300 22.24400
N  36.33100 47.76300 26.17200
C  36.84100 46.66200 25.48500
C  37.01400 45.55500 26.36100
C  36.66000 46.02600 27.61100
C  36.22900 47.35900 27.43900
C  37.46300 44.18900 25.94000
C  36.49600 45.68600 29.01200
O  36.62600 44.59400 29.55700
C  35.95700 46.93700 29.72200
C  34.72500 46.56700 30.37600
O  33.71100 46.11000 29.90700
O  34.88200 46.64900 31.77200
C  33.83800 45.97700 32.52800
H  33.65200 53.10300 27.52600
H  35.36400 51.27900 21.50700
H  37.36500 45.76700 23.46000
H  33.97400 49.33100 30.25800
H  34.71000 52.17500 29.89800
H  32.61500 52.45100 30.53400
H  32.29700 50.78700 30.46400
H  31.95500 51.77600 29.08500
H  36.52100 50.96200 30.64000
H  36.53900 49.29800 30.96100
H  35.65400 51.36300 32.70900
H  35.80100 49.78100 33.15400
H  33.36100 54.54000 26.20100
H  32.11600 54.31900 24.97900
H  33.45300 55.55700 24.87500
H  33.30600 55.44100 21.06700
H  33.91600 55.76200 22.66900
H  32.34100 54.95000 22.36200
H  37.37600 49.73100 20.64800
H  36.73600 46.93900 21.18400
H  34.60500 49.20700 20.62500
H  35.37500 47.95300 19.67100
H  35.68800 49.61300 19.25000
H  39.04800 47.34300 20.54700
H  39.06600 46.53500 22.06100
H  39.17900 49.36400 22.82400
H  40.43300 49.10100 21.54200
H  40.25700 48.12600 23.06000
H  38.37700 43.85700 26.43200
H  37.84000 44.22500 24.91800
H  36.64900 43.48500 26.11500
H  36.65800 47.10600 30.53900
H  33.78700 46.58900 33.42800
H  33.92100 44.92200 32.78900
H  32.84800 46.17200 32.11600
Mg 26.12700 50.54000 26.41100
C  23.90700 51.38200 29.01600
C  28.48600 49.75100 28.95200
C  28.47800 50.33600 24.14700
C  23.87400 51.74200 24.11800
N  26.08700 50.47600 28.73500
C  25.08100 50.93500 29.56000
C  25.39500 50.75300 31.11000
C  26.97800 50.40400 31.03200
C  27.23200 50.13300 29.45600
C  27.92400 51.53200 31.69700
C  24.49800 49.77800 31.81200
C  23.84300 50.16200 33.15700
H  24.67200 50.66400 34.32300
N  28.17600 50.03200 26.49800
C  28.90700 49.62500 27.59800
C  30.19700 49.25100 27.27500
C  30.34100 49.53500 25.89100
C  28.97200 49.99800 25.40600
C  31.20200 48.64700 28.19000
C  31.49400 49.47000 24.90600
O  31.49700 49.92100 23.76000
C  32.76800 48.90900 25.45600
N  26.15900 50.93000 24.40600
C  27.26600 50.68400 23.59600
C  26.97700 50.96400 22.07000
C  25.45100 51.33300 22.14000
C  25.12700 51.35300 23.59500
C  27.94000 51.88600 21.30800
C  24.54700 50.46900 21.26300
C  24.33900 49.03800 21.85600
N  24.25200 51.28800 26.48300
C  23.46600 51.72600 25.47600
C  22.17300 52.17300 25.95000
C  22.32900 52.10300 27.34000
C  23.57200 51.51400 27.62000
C  21.02600 52.64800 25.12200
C  21.71400 52.46100 28.54000
O  20.61700 53.09500 28.67000
C  22.68200 51.98100 29.71600
C  23.05000 53.10400 30.59100
O  24.09500 53.78700 30.52500
O  22.11700 53.26300 31.50400
C  22.23200 54.39600 32.44200
H  29.18700 49.50300 29.75200
H  29.23100 50.19100 23.36900
H  23.19900 52.01400 23.30400
H  25.27300 51.75500 31.52000
H  27.18900 49.46600 31.54500
H  28.25200 52.24700 30.94200
H  28.73300 50.90400 32.07000
H  27.40100 52.07600 32.48300
H  25.02900 48.86900 32.09300
H  23.72200 49.52500 31.08900
H  23.33500 49.25700 33.48700
H  23.06700 50.92700 33.12200
H  31.52000 47.66400 27.84100
H  30.88100 48.48400 29.21900
H  32.00400 49.37200 28.05300
H  32.62300 47.99000 26.02300
H  33.05700 49.60400 26.24500
H  33.59900 48.79000 24.76000
H  27.01200 49.99900 21.56400
H  25.35700 52.40100 21.94200
H  28.57300 52.48100 21.96500
H  27.33600 52.59000 20.73500
H  28.47900 51.25600 20.60000
H  24.61400 50.42900 20.17500
H  23.65100 51.08800 21.20900
H  25.07000 48.71700 22.59800
H  24.13800 48.29300 21.08600
H  23.35500 49.10200 22.32000
H  20.07600 52.53600 25.64500
H  20.90600 52.05500 24.21400
H  21.03700 53.71400 24.89500
H  22.15200 51.17600 30.22400
H  22.29700 54.08800 33.48500
H  21.27300 54.89500 32.30300
H  22.94100 55.19700 32.23100

