158

Mg 24.30300 -5.47800 45.69800
C  26.52900 -3.25000 44.19100
C  21.88300 -4.52500 43.45200
C  22.46100 -8.13700 46.58400
C  27.10200 -6.74100 47.58400
N  24.18700 -3.98200 44.04400
C  25.30900 -3.29600 43.54000
C  24.87200 -2.46900 42.30700
C  23.32200 -2.78300 42.16600
C  23.07900 -3.85300 43.29200
C  22.36100 -1.63300 42.52000
C  25.68100 -2.82600 40.98000
C  26.27900 -1.57800 40.24500
H  25.79900 -1.19000 38.89500
N  22.35300 -6.06300 45.26600
C  21.52700 -5.60900 44.26900
C  20.25300 -6.40000 44.35400
C  20.40200 -7.29800 45.32100
C  21.74400 -7.16500 45.78200
C  19.10500 -6.20800 43.42100
C  19.32800 -8.29400 45.75600
O  18.22500 -8.29300 45.22300
C  19.49400 -9.39600 46.88500
N  24.76000 -7.20000 46.88700
C  23.83100 -8.23100 47.00500
C  24.46900 -9.48000 47.60600
C  25.78800 -8.90300 48.25300
C  25.96600 -7.58900 47.49700
C  23.64300 -10.16800 48.80500
C  27.04600 -9.86800 48.11200
C  27.65100 -10.40600 49.40700
N  26.36700 -5.06600 46.00000
C  27.33700 -5.51000 46.87000
C  28.58000 -4.86300 46.57200
C  28.26300 -3.98000 45.54400
C  26.91500 -4.11500 45.24600
C  29.86100 -5.22900 47.12200
C  28.84400 -3.00300 44.68900
O  30.06100 -2.69700 44.60100
C  27.68700 -2.44200 43.83900
C  27.69400 -0.94600 44.12000
O  27.20000 -0.42400 45.10400
O  28.38600 -0.25700 43.14200
C  28.80900 1.12900 43.29600
H  21.15400 -4.29900 42.67100
H  21.86700 -9.04400 46.71300
H  28.02500 -7.06000 48.07200
H  25.06000 -1.42300 42.55000
H  23.10600 -3.15200 41.16300
H  22.69400 -0.69500 42.07400
H  22.41500 -1.38400 43.57900
H  21.40000 -1.92300 42.09600
H  25.08900 -3.37800 40.25000
H  26.48700 -3.45400 41.36000
H  27.35900 -1.70400 40.16900
H  26.02500 -0.78600 40.95100
H  18.99500 -7.11900 42.83400
H  19.43500 -5.38400 42.78800
H  18.26500 -5.87000 44.02700
H  18.47500 -9.48000 47.26200
H  20.07700 -8.92800 47.67900
H  19.84900 -10.37300 46.55800
H  24.81200 -10.09200 46.77200
H  25.61600 -8.70600 49.31100
H  23.15800 -11.10700 48.53700
H  22.96200 -9.37900 49.12500
H  24.33700 -10.31400 49.63200
H  27.80900 -9.41500 47.48000
H  26.75200 -10.71900 47.49800
H  27.45300 -9.79000 50.28400
H  28.70200 -10.67500 49.30600
H  27.20800 -11.32300 49.79500
H  29.85700 -4.87300 48.15200
H  30.66800 -4.62400 46.70900
H  30.14100 -6.26700 46.93900
H  28.04900 -2.59000 42.82100
H  27.95900 1.74200 42.99300
H  29.62400 1.43100 42.63900
H  29.17800 1.61100 44.20000
Mg -4.96800 25.94700 26.72900
C  -3.80400 27.52300 29.55900
C  -6.65200 23.83100 28.57200
C  -5.71200 24.32800 23.84200
C  -2.69400 27.97400 24.78900
N  -5.19500 25.75100 28.89600
C  -4.74600 26.53100 29.88400
C  -5.37400 26.18800 31.22000
C  -6.08900 24.78100 30.87300
C  -6.03000 24.78400 29.30800
C  -5.43200 23.50900 31.52500
C  -6.33100 27.27800 31.79200
C  -6.14000 27.67900 33.20400
H  -5.72700 26.66000 34.29600
N  -6.15100 24.39600 26.26700
C  -6.74300 23.64000 27.16300
C  -7.62900 22.65200 26.45300
C  -7.44000 22.84300 25.11900
C  -6.42900 23.97200 24.97500
C  -8.41500 21.56500 27.14400
C  -8.06800 22.10700 23.92200
O  -7.81000 22.53000 22.78900
C  -9.02000 20.93800 24.17200
N  -4.21600 26.12700 24.64200
C  -4.65700 25.25400 23.66900
C  -3.95500 25.42200 22.33500
C  -3.03900 26.62400 22.61800
C  -3.40100 27.01300 24.08400
C  -3.29600 24.18700 21.78700
C  -3.28100 27.79900 21.63300
C  -1.97900 28.12200 20.96300
N  -3.51400 27.51700 27.07700
C  -2.71600 28.22000 26.18600
C  -1.99500 29.17100 26.97900
C  -2.39000 28.97400 28.31500
C  -3.28300 27.93100 28.30300
C  -1.03000 30.23700 26.46200
C  -2.28400 29.38200 29.75000
O  -1.57700 30.26800 30.20800
C  -3.17300 28.43200 30.58400
C  -2.22800 27.68700 31.54000
O  -1.57800 26.67500 31.22900
O  -2.19500 28.29300 32.75300
C  -1.20000 27.71900 33.72900
H  -7.07400 23.01300 29.16000
H  -5.81400 23.71300 22.94600
H  -2.18800 28.74700 24.20700
H  -4.61700 25.99300 31.97900
H  -7.15800 24.73800 31.08400
H  -6.16200 22.89500 32.05300
H  -4.57600 23.84000 32.11300
H  -5.02800 22.88800 30.72600
H  -7.34900 26.91600 31.64300
H  -6.11000 28.18900 31.23500
H  -7.14200 27.98100 33.50900
H  -5.30500 28.37300 33.10600
H  -8.01400 20.58500 26.88300
H  -9.47400 21.73600 26.94700
H  -8.42900 21.72500 28.22200
H  -8.59900 20.26300 24.91600
H  -9.05400 20.45500 23.19500
H  -9.92400 21.48000 24.44900
H  -4.76400 25.69500 21.65800
H  -2.01200 26.26200 22.67000
H  -4.00000 23.74600 21.08100
H  -3.28000 23.47800 22.61400
H  -2.29600 24.32800 21.37700
H  -3.72600 28.63300 22.17400
H  -3.81800 27.46100 20.74600
H  -1.40100 28.73300 21.65600
H  -2.08100 28.35900 19.90400
H  -1.19100 27.37200 21.02800
H  -1.49200 30.97900 25.81000
H  -0.39000 29.78000 25.70700
H  -0.51200 30.67200 27.31700
H  -3.84700 29.06900 31.15600
H  -1.60400 26.74000 33.99000
H  -1.37400 28.25200 34.66400
H  -0.19600 27.69800 33.30700

