158

Mg -10.00500 40.06300 43.15200
C  -8.69300 37.11500 42.12500
C  -7.87800 41.74100 41.02200
C  -11.91500 42.95400 43.40000
C  -12.67400 38.33500 44.61800
N  -8.60500 39.45400 41.56600
C  -8.09600 38.18900 41.41500
C  -6.98400 38.08800 40.42200
C  -6.66600 39.62500 40.15000
C  -7.72900 40.35700 40.97700
C  -5.18400 40.09700 40.56100
C  -7.49500 37.33800 39.16200
C  -6.65600 36.18600 38.58000
H  -5.56400 36.62000 37.58500
N  -9.80100 42.17000 42.48200
C  -8.78100 42.62900 41.63200
C  -9.01000 44.02900 41.40200
C  -10.20300 44.43400 42.07900
C  -10.72100 43.14400 42.74700
C  -8.21200 44.90200 40.41900
C  -10.83700 45.83700 41.93700
O  -10.25300 46.66700 41.22800
C  -12.06600 46.33000 42.66400
N  -12.02800 40.65600 43.85000
C  -12.53400 41.83100 43.92100
C  -14.02000 41.71700 44.46700
C  -14.20100 40.27100 44.81100
C  -12.87600 39.68000 44.41200
C  -14.30300 42.65900 45.70100
C  -15.39100 39.56600 44.08600
C  -16.23800 38.56000 44.91800
N  -10.49100 38.05600 43.54400
C  -11.58000 37.50700 44.13500
C  -11.42300 36.05200 44.20300
C  -10.16200 35.83000 43.40500
C  -9.75000 37.11700 43.00700
C  -12.39500 35.04300 44.76100
C  -9.24800 34.82200 42.82500
O  -9.25100 33.62700 42.85700
C  -8.11100 35.63900 42.16100
C  -6.89200 35.56900 43.04000
O  -6.52600 36.23100 43.99600
O  -6.28600 34.36300 42.78500
C  -4.98100 34.18400 43.40600
H  -7.07200 42.37200 40.64200
H  -12.59300 43.80800 43.34000
H  -13.45800 37.81300 45.17100
H  -6.14400 37.52200 40.82700
H  -6.81000 39.86500 39.09600
H  -5.32100 40.34900 41.61200
H  -4.76200 40.98300 40.08800
H  -4.50600 39.25200 40.44100
H  -7.61100 38.01500 38.31600
H  -8.47700 36.90700 39.35900
H  -7.14900 35.27100 38.25200
H  -5.98000 35.88100 39.37900
H  -8.72400 45.14800 39.48800
H  -7.29900 44.41100 40.08100
H  -7.79800 45.78100 40.91300
H  -12.28900 47.38400 42.49400
H  -11.89700 46.20400 43.73300
H  -12.92700 45.80700 42.24800
H  -14.59600 42.05100 43.60400
H  -14.25400 40.04100 45.87500
H  -14.85100 42.09500 46.45600
H  -14.97300 43.47700 45.43800
H  -13.40200 43.15300 46.06300
H  -14.98700 39.08600 43.19400
H  -16.11800 40.36300 43.93200
H  -15.59600 38.02900 45.62100
H  -16.75200 37.81700 44.30700
H  -17.06400 39.05600 45.42700
H  -12.30000 34.94300 45.84200
H  -12.40200 34.11900 44.18200
H  -13.42700 35.36900 44.63100
H  -7.96400 35.38700 41.11100
H  -5.03400 33.44300 44.20400
H  -4.61300 35.13600 43.78800
H  -4.39000 33.82500 42.56300
Mg -8.81100 18.18200 43.35600
C  -5.35300 17.65100 43.30800
C  -8.28100 21.43100 42.54200
C  -12.03600 18.43200 42.63300
C  -9.17400 14.53000 43.70000
N  -7.01200 19.28400 42.71700
C  -5.69900 18.87000 42.79200
C  -4.72500 20.09400 42.68200
C  -5.72900 21.25800 42.83300
C  -7.09200 20.64500 42.58500
C  -5.68100 22.01000 44.22300
C  -3.94300 20.08600 41.38000
C  -4.31700 19.12500 40.16400
H  -3.79000 19.47600 38.71500
N  -10.02400 19.71400 42.83200
C  -9.62300 20.97600 42.57500
C  -10.77500 21.80900 42.28200
C  -11.84700 20.99900 42.08200
C  -11.37300 19.66100 42.51900
C  -10.66700 23.30700 42.11600
C  -13.18800 21.34900 41.63800
O  -13.41100 22.54700 41.46800
C  -14.33700 20.40900 41.46900
N  -10.44500 16.63100 43.18300
C  -11.69500 17.08400 42.96000
C  -12.60700 15.86900 43.14700
C  -11.74800 14.55400 43.34900
C  -10.36800 15.30200 43.41600
C  -13.64000 16.10400 44.23900
C  -11.72700 13.48000 42.15900
C  -11.85600 12.04900 42.66900
N  -7.54200 16.48300 43.49200
C  -7.84900 15.07700 43.77400
C  -6.59700 14.39800 44.03100
C  -5.57000 15.36700 43.77800
C  -6.20300 16.62800 43.55200
C  -6.48800 12.91700 44.32800
C  -4.16700 15.59300 43.78200
O  -3.24100 14.85400 43.96000
C  -3.94800 17.15900 43.57700
C  -3.20200 17.89100 44.64100
O  -2.02700 18.28500 44.54500
O  -4.00300 18.09100 45.77700
C  -3.65400 19.23600 46.59900
H  -7.96000 22.46600 42.40700
H  -13.08400 18.60700 42.37800
H  -9.25700 13.49300 44.03100
H  -4.02100 20.13600 43.51200
H  -5.63400 21.98200 42.02300
H  -6.53000 22.64400 44.47800
H  -4.82900 22.68600 44.16500
H  -5.56300 21.29200 45.03500
H  -2.92400 19.82700 41.66800
H  -3.74000 21.08200 40.98800
H  -5.39900 19.00200 40.12400
H  -3.88400 18.13700 40.31800
H  -11.12500 23.57300 41.16400
H  -9.61500 23.59400 42.13700
H  -11.32900 23.75300 42.85800
H  -14.65100 20.04600 42.44800
H  -14.17200 19.54800 40.82100
H  -15.19000 20.99900 41.13600
H  -13.16600 15.71900 42.22300
H  -11.89100 14.15900 44.35500
H  -13.16300 16.09400 45.21900
H  -14.34300 15.27200 44.23400
H  -14.34300 16.92100 44.07500
H  -10.82700 13.54300 41.54800
H  -12.56100 13.68100 41.48600
H  -12.84200 11.67800 42.39200
H  -11.84500 11.89000 43.74700
H  -11.10700 11.43300 42.17100
H  -5.58100 12.77200 44.91600
H  -6.28700 12.40500 43.38700
H  -7.35400 12.51500 44.85400
H  -3.41600 17.24100 42.63000
H  -3.35200 20.13700 46.06400
H  -2.78000 18.99000 47.20100
H  -4.52000 19.46700 47.21800

