158

Mg 9.35900 4.19500 28.33900
C  10.66900 2.38300 31.03200
C  7.59600 6.13000 30.45400
C  7.72800 5.45200 25.54100
C  10.71500 1.74600 26.11200
N  9.13600 4.12100 30.53000
C  9.91100 3.44600 31.49300
C  9.68600 3.95800 32.90200
C  8.38300 4.81800 32.66200
C  8.34300 5.11700 31.11400
C  7.14000 4.07800 33.23500
C  10.89900 4.66000 33.46300
C  11.81300 4.10500 34.58900
H  11.98000 4.75700 35.92500
N  7.93300 5.67300 28.07500
C  7.41300 6.36200 29.10800
C  6.67000 7.49000 28.49300
C  6.65800 7.28000 27.13600
C  7.45600 6.03600 26.87600
C  6.05400 8.68900 29.23800
C  6.02500 8.05600 26.05800
O  5.79100 7.52100 24.99100
C  5.43200 9.42200 26.21800
N  9.02000 3.47400 26.10400
C  8.39400 4.27500 25.21300
C  8.70500 3.88100 23.79800
C  9.76500 2.77200 23.93900
C  9.90400 2.67300 25.44100
C  7.44400 3.35100 23.05800
C  11.12300 3.13200 23.26900
C  12.02000 1.88200 22.98000
N  10.47000 2.47200 28.50200
C  10.88200 1.59000 27.53200
C  11.49300 0.45800 28.13900
C  11.50800 0.78400 29.53700
C  10.81900 1.98500 29.70200
C  12.02500 -0.74100 27.43400
C  12.01700 0.36900 30.83600
O  12.69600 -0.59400 31.15800
C  11.47000 1.42400 31.87400
C  10.64600 0.75600 32.82900
O  9.50700 0.38700 32.64300
O  11.34600 0.64900 33.98800
C  10.51000 0.12200 35.06700
H  7.03400 6.79900 31.10900
H  7.27200 5.90600 24.65900
H  11.19300 0.92600 25.57100
H  9.41300 3.10900 33.52900
H  8.48100 5.78000 33.16600
H  7.42000 3.14000 33.71500
H  6.47500 3.77700 32.42600
H  6.67400 4.73200 33.97200
H  10.50800 5.65700 33.66400
H  11.53800 4.85300 32.60100
H  12.78300 4.03600 34.09800
H  11.39200 3.11200 34.74800
H  5.10200 8.99900 28.80700
H  6.55200 9.64500 29.07500
H  5.99000 8.51200 30.31100
H  5.21600 9.90500 25.26500
H  6.20600 10.02300 26.69600
H  4.54200 9.41000 26.84700
H  9.17900 4.75400 23.34900
H  9.47000 1.81700 23.50500
H  6.62500 3.50300 23.76100
H  7.58400 2.35800 22.62900
H  7.30400 3.99000 22.18700
H  11.72800 3.83400 23.84200
H  10.92700 3.54100 22.27700
H  12.57300 1.58000 23.86900
H  12.71800 2.09200 22.16900
H  11.42500 1.01600 22.69200
H  11.46600 -1.03300 26.54500
H  12.01400 -1.59700 28.10800
H  13.07300 -0.60000 27.16700
H  12.31100 2.02800 32.21700
H  9.44400 0.26000 34.88600
H  10.75300 0.50800 36.05700
H  10.76200 -0.93800 35.04900
Mg 48.10800 16.39000 28.87100
C  45.70400 16.07400 31.32100
C  49.99600 18.34800 31.29300
C  50.32000 16.91100 26.61900
C  45.86100 14.88100 26.59900
N  47.81000 17.25800 30.97200
C  46.79500 16.79800 31.77400
C  46.98300 17.22600 33.25700
C  48.09300 18.31300 33.08500
C  48.70900 17.92800 31.68800
C  47.68800 19.78700 33.21800
C  47.35200 16.10500 34.24600
C  47.11700 16.36300 35.77000
H  46.87300 17.89900 36.21300
N  49.97300 17.33900 28.96300
C  50.60400 18.14800 29.98400
C  51.89800 18.46800 29.53300
C  51.99700 18.16600 28.17000
C  50.74200 17.45900 27.85100
C  52.81800 19.23100 30.50000
C  53.21900 18.50700 27.16800
O  53.19600 18.13300 25.99200
C  54.33400 19.38000 27.53800
N  48.03400 15.98300 26.89400
C  49.12800 16.29300 26.16800
C  49.07800 15.56400 24.82600
C  47.71500 14.78200 24.83400
C  47.13800 15.28000 26.19200
C  49.24000 16.48400 23.61900
C  47.76700 13.27000 24.72900
C  47.92100 12.61900 23.32700
N  46.21900 15.57400 28.92100
C  45.40200 15.03900 27.89400
C  44.09200 14.71200 28.43400
C  44.18100 15.08000 29.79000
C  45.50300 15.55800 29.99300
C  42.99900 14.14800 27.69400
C  43.47700 15.06900 31.03300
O  42.35600 14.61100 31.36900
C  44.42400 15.67700 32.05300
C  43.62600 16.80900 32.60500
O  43.36900 17.83400 32.03400
O  43.00900 16.42900 33.80000
C  42.35100 17.49900 34.50600
H  50.54400 18.92000 32.04600
H  51.00400 16.85100 25.77000
H  45.27200 14.38200 25.82700
H  46.04900 17.66000 33.61500
H  48.92600 18.16300 33.77100
H  46.65400 20.05400 33.43500
H  48.18300 20.29100 32.38800
H  48.17200 20.21800 34.09400
H  48.40500 15.85500 34.11700
H  46.78000 15.18600 34.12200
H  47.87900 15.85300 36.35800
H  46.19200 15.81800 35.96100
H  52.78300 20.16700 29.94300
H  53.83700 18.88100 30.66700
H  52.41600 19.61800 31.43700
H  53.90500 20.36100 27.74100
H  55.02600 19.55600 26.71500
H  54.83600 18.91200 28.38500
H  49.84100 14.78700 24.87200
H  47.07500 15.02800 23.98600
H  48.73200 16.08100 22.74200
H  50.30900 16.42700 23.41800
H  48.97100 17.53200 23.75700
H  46.91900 12.73200 25.15200
H  48.66600 13.08300 25.31700
H  48.90600 12.15400 23.28800
H  48.02500 13.43700 22.61500
H  47.21200 11.84800 23.02600
H  42.39300 13.64500 28.44800
H  43.42700 13.41500 27.01000
H  42.37900 14.87100 27.16500
H  44.67500 14.92400 32.80000
H  41.50100 17.97700 34.01800
H  43.10800 18.27100 34.64000
H  42.22200 17.01400 35.47300

