158

Mg 24.64500 -4.99500 45.86000
C  26.63000 -2.72500 44.21200
C  21.97300 -4.02400 43.96400
C  22.88500 -7.86700 46.75200
C  27.28900 -6.09100 47.72100
N  24.36800 -3.55400 44.16000
C  25.33700 -2.67800 43.71900
C  24.71500 -1.76000 42.60400
C  23.16300 -1.93100 42.81000
C  23.16500 -3.22300 43.68900
C  22.41800 -0.65700 43.40700
C  25.12400 -2.06400 41.13700
C  25.48000 -0.88000 40.20700
H  26.46000 -1.11100 39.07700
N  22.71200 -5.82500 45.41100
C  21.70500 -5.22900 44.64600
C  20.48200 -6.05500 44.70300
C  20.74100 -7.22800 45.50500
C  22.16900 -7.01700 45.93700
C  19.21900 -5.60700 44.01800
C  19.70300 -8.16700 45.91700
O  18.57600 -8.03100 45.50100
C  19.97800 -9.26300 46.74300
N  24.99700 -6.79000 47.06700
C  24.17700 -7.80100 47.30800
C  24.82400 -8.82900 48.32500
C  26.09600 -8.07500 48.74000
C  26.15600 -6.88400 47.80400
C  23.92100 -9.26300 49.58000
C  27.35800 -9.05000 48.56700
C  28.44700 -8.97500 49.68400
N  26.57700 -4.51300 46.00500
C  27.55400 -5.07400 46.78100
C  28.76300 -4.37600 46.52500
C  28.49300 -3.45500 45.54100
C  27.11600 -3.57100 45.24100
C  30.05900 -4.81100 47.13800
C  29.04700 -2.42900 44.69700
O  30.20400 -2.05700 44.47300
C  27.83200 -1.94200 43.86600
C  27.64700 -0.52700 44.12600
O  26.74300 -0.03100 44.82100
O  28.40700 0.29000 43.32700
C  28.30200 1.79600 43.38200
H  21.09500 -3.68900 43.40800
H  22.56100 -8.88300 46.98500
H  28.15700 -6.30400 48.34900
H  24.97900 -0.72600 42.82500
H  22.47800 -2.23700 42.01900
H  21.69900 -0.34200 42.65100
H  23.07400 0.20900 43.49600
H  21.89600 -0.75800 44.35800
H  24.38100 -2.69600 40.65100
H  26.04900 -2.63800 41.07100
H  25.74900 -0.09600 40.91500
H  24.59900 -0.48300 39.70100
H  19.04300 -6.09300 43.05800
H  19.04000 -4.53200 44.00500
H  18.32100 -5.96500 44.52300
H  19.11000 -9.58200 47.32100
H  20.71100 -8.94100 47.48200
H  20.43300 -10.07700 46.18000
H  25.02800 -9.76400 47.80400
H  26.10500 -7.79100 49.79300
H  24.46800 -9.17500 50.51900
H  23.41000 -10.21200 49.41600
H  23.13400 -8.51500 49.66600
H  27.77400 -8.79800 47.59100
H  27.06200 -10.09600 48.49200
H  29.43300 -9.19700 49.27700
H  28.25300 -9.52600 50.60400
H  28.56600 -7.95500 50.05100
H  30.87200 -4.18500 46.77100
H  30.22100 -5.84800 46.84500
H  30.10000 -4.70100 48.22200
H  28.17400 -2.05300 42.83700
H  29.34600 2.09300 43.27700
H  27.78100 2.23300 44.23400
H  27.81000 2.15300 42.47800
Mg 44.90000 4.30200 46.64500
C  42.82600 7.07200 46.49500
C  42.11800 2.23300 46.37200
C  46.85900 1.50600 46.30800
C  47.61400 6.42300 46.33700
N  42.71400 4.65100 46.40300
C  42.11800 5.83000 46.47500
C  40.56300 5.72600 46.58700
C  40.32700 4.16100 46.64000
C  41.78300 3.60100 46.48400
C  39.66900 3.67700 47.97300
C  39.80300 6.32300 45.42200
C  40.35700 6.03300 44.00000
H  40.16900 7.08300 42.90900
N  44.53300 2.17100 46.34600
C  43.30500 1.60200 46.25800
C  43.46800 0.12400 46.12000
C  44.83600 -0.14400 46.10700
C  45.48300 1.20500 46.20300
C  42.28100 -0.82100 46.05800
C  45.45200 -1.46100 45.85300
O  44.80800 -2.48300 45.94400
C  46.90200 -1.57000 45.36000
N  46.91000 4.00900 46.14400
C  47.50200 2.76200 46.18700
C  49.03100 2.92800 46.35300
C  49.23600 4.51300 46.35700
C  47.87200 5.06500 46.25200
C  49.60300 2.05000 47.53100
C  50.14700 5.05900 45.18600
C  51.48600 5.58000 45.70800
N  45.26300 6.34800 46.59100
C  46.40500 7.06600 46.40400
C  46.14100 8.44800 46.62400
C  44.73600 8.53000 46.56400
C  44.27400 7.15600 46.55700
C  47.26100 9.43500 46.63400
C  43.60800 9.36800 46.60200
O  43.55700 10.60200 46.55200
C  42.33000 8.44300 46.52500
C  41.48900 8.71300 47.70600
O  41.70100 8.28500 48.83000
O  40.44000 9.47600 47.35400
C  39.37100 9.62800 48.26200
H  41.22500 1.63900 46.58000
H  47.55900 0.67900 46.44400
H  48.43900 7.09300 46.58500
H  40.36500 6.22000 47.53900
H  39.59600 3.81400 45.91000
H  38.76400 3.09700 47.79500
H  39.39400 4.43800 48.70300
H  40.43600 3.14600 48.53600
H  39.82300 7.40600 45.54200
H  38.75300 6.03100 45.39000
H  39.78300 5.16300 43.68400
H  41.36700 5.62500 43.95800
H  42.38700 -1.37500 45.12500
H  41.29900 -0.35200 45.98600
H  42.37100 -1.57700 46.83800
H  47.48600 -1.56100 46.28000
H  47.21400 -0.80800 44.64600
H  47.00700 -2.54000 44.87500
H  49.43400 2.47300 45.44800
H  49.58400 4.88200 47.32200
H  49.88000 1.01700 47.31900
H  48.88400 1.93100 48.34200
H  50.48800 2.57100 47.89500
H  49.71200 5.86200 44.59000
H  50.16600 4.22400 44.48600
H  51.62200 6.61300 45.39000
H  52.35700 5.12500 45.23700
H  51.59400 5.59400 46.79200
H  47.94000 9.28300 47.47300
H  46.81600 10.42800 46.58800
H  47.87400 9.29500 45.74300
H  41.78200 8.77900 45.64500
H  39.06000 10.64800 48.03700
H  39.68600 9.66000 49.30500
H  38.55200 8.94700 48.03200

