158

Mg 44.53500 4.66100 47.49400
C  42.57900 7.49000 47.00500
C  41.70600 2.80700 46.87900
C  46.44600 1.94900 47.40000
C  47.43600 6.69200 47.73900
N  42.40100 5.13300 46.97900
C  41.82900 6.35300 46.93900
C  40.46600 6.16800 46.41200
C  40.09800 4.69600 46.76500
C  41.50500 4.14900 46.86700
C  39.07000 4.48900 47.90600
C  40.28000 6.55100 44.94200
C  38.99700 7.31200 44.58700
H  39.30400 8.39600 43.57600
N  44.13500 2.58600 47.22100
C  42.84600 2.06000 46.92700
C  43.00600 0.61300 46.72600
C  44.43500 0.33100 46.88400
C  45.06100 1.64400 47.21700
C  41.84800 -0.26400 46.27000
C  44.98900 -1.01200 46.53000
O  44.13100 -1.84400 46.14500
C  46.39200 -1.33000 46.55600
N  46.67000 4.40700 47.24100
C  47.20000 3.13300 47.33900
C  48.69700 3.08700 47.38200
C  49.04200 4.60800 47.63900
C  47.66000 5.29100 47.55700
C  49.22800 2.12000 48.48300
C  49.99500 5.18000 46.57700
C  51.38800 5.55900 46.93500
N  44.95200 6.66400 47.36100
C  46.15600 7.35900 47.51200
C  45.90200 8.81700 47.24100
C  44.46900 8.88600 47.29100
C  43.93200 7.54900 47.29400
C  46.98200 9.90400 47.16200
C  43.38200 9.80200 47.07300
O  43.42400 11.02300 46.93300
C  42.10000 8.93700 47.01100
C  41.23700 9.26600 48.17000
O  41.37800 8.75600 49.29000
O  40.20800 10.13900 47.78500
C  39.19300 10.48600 48.76900
H  40.76500 2.30200 46.64900
H  47.01400 1.01800 47.33600
H  48.31600 7.32700 47.85600
H  39.76500 6.71100 47.04600
H  39.57900 4.22800 45.92900
H  38.81700 5.46500 48.32200
H  39.40700 3.90700 48.76300
H  38.18600 3.99300 47.50500
H  40.35500 5.56300 44.48600
H  41.14400 7.07300 44.53200
H  38.50200 7.68000 45.48500
H  38.39000 6.56800 44.07100
H  41.91400 -0.20800 45.18300
H  40.93100 0.12900 46.70700
H  41.86700 -1.32300 46.52900
H  46.81100 -0.70600 45.76700
H  46.50400 -2.39900 46.37100
H  46.69100 -1.12000 47.58300
H  49.01000 2.76600 46.38800
H  49.48200 4.84000 48.60900
H  48.55400 1.34600 48.85100
H  49.63300 2.68900 49.32000
H  50.02200 1.53400 48.02000
H  49.57300 6.06700 46.10400
H  50.16100 4.46900 45.76800
H  51.52000 5.71000 48.00600
H  51.77000 6.48100 46.49700
H  52.11700 4.85400 46.53500
H  47.85500 9.75100 47.79600
H  46.51900 10.84900 47.44700
H  47.18500 9.92600 46.09100
H  41.49900 9.19500 46.13900
H  38.36900 11.00700 48.28200
H  39.44400 11.09500 49.63700
H  38.85600 9.51300 49.12900
Mg 10.06500 47.54600 26.60600
C  8.30300 47.45900 29.53200
C  12.69500 48.93200 28.32700
C  11.70400 47.77300 23.66300
C  7.14200 46.50400 24.88400
N  10.43500 48.07200 28.67800
C  9.58800 47.97400 29.73100
C  10.26000 48.36100 31.04400
C  11.38700 49.30900 30.51800
C  11.49500 48.75100 29.02200
C  11.22000 50.79500 30.51600
C  10.88700 47.18600 31.86400
C  11.06400 47.57900 33.36900
H  11.06300 46.46400 34.40700
N  11.94900 48.27900 26.07200
C  12.96400 48.59300 26.96200
C  14.25800 48.61500 26.31500
C  13.93000 48.28900 24.96200
C  12.49400 48.16100 24.83700
C  15.56700 48.95100 27.00100
C  14.95800 48.06600 23.92700
O  14.71000 47.93100 22.71100
C  16.43600 48.00100 24.25600
N  9.36100 47.58400 24.56200
C  10.32200 47.53300 23.54400
C  9.63700 47.16300 22.24800
C  8.51300 46.24000 22.74100
C  8.29600 46.80800 24.14300
C  9.14600 48.36800 21.52800
C  8.94300 44.70300 22.78800
C  9.06400 43.85300 21.46500
N  8.09500 47.15800 27.01700
C  6.96900 46.74000 26.27100
C  5.86600 46.34700 27.10800
C  6.37300 46.71400 28.42900
C  7.68800 47.16300 28.28500
C  4.46100 45.93600 26.72300
C  5.95600 46.76900 29.78900
O  4.95600 46.37500 30.37200
C  7.27600 47.15300 30.60400
C  7.55300 45.97400 31.46900
O  7.85900 44.93500 31.00600
O  7.44800 46.30600 32.82000
C  7.60800 45.17700 33.72100
H  13.53200 49.44700 28.80300
H  12.38400 47.68300 22.81300
H  6.37400 45.96300 24.32900
H  9.54600 48.95000 31.62000
H  12.28600 49.12400 31.10600
H  10.24200 50.92700 30.97800
H  11.23000 51.08200 29.46500
H  11.93000 51.33800 31.14000
H  11.91500 47.06200 31.52500
H  10.37500 46.22600 31.80000
H  10.56700 48.47700 33.73500
H  12.07700 47.96500 33.48200
H  15.38800 49.09800 28.06600
H  15.96600 49.89100 26.62000
H  16.32600 48.19400 26.79800
H  16.58800 47.09200 24.83900
H  16.85800 48.89400 24.71600
H  17.05200 47.71300 23.40400
H  10.35000 46.68100 21.57900
H  7.70200 46.45600 22.04600
H  9.81400 48.35700 20.66700
H  9.32200 49.32700 22.01500
H  8.10900 48.24100 21.21600
H  8.29500 44.11100 23.43500
H  9.92700 44.77200 23.25200
H  8.89500 44.54300 20.63800
H  8.27500 43.10200 21.45300
H  10.12300 43.59800 21.43000
H  3.79600 45.79900 27.57500
H  4.51700 45.01000 26.15100
H  4.15200 46.67000 25.97900
H  7.10900 48.01400 31.25200
H  7.56200 44.17100 33.30500
H  6.77300 45.25800 34.41700
H  8.54100 45.16700 34.28500

