158

Mg 24.50500 -5.74000 45.75700
C  27.00900 -3.49900 44.27600
C  22.28600 -4.41700 43.60100
C  22.69900 -8.48000 46.14000
C  27.30900 -7.34400 47.20900
N  24.70500 -4.26600 44.02600
C  25.76000 -3.43900 43.64200
C  25.32500 -2.42500 42.53100
C  23.75100 -2.61000 42.56400
C  23.57600 -3.91700 43.36400
C  22.98100 -1.39300 43.12000
C  26.00500 -2.76800 41.18800
C  26.32400 -1.46500 40.36900
H  25.78100 -1.37100 38.95000
N  22.63100 -6.28300 45.17000
C  21.81100 -5.52600 44.31600
C  20.55700 -6.23900 44.08100
C  20.72900 -7.52300 44.71900
C  22.09600 -7.48600 45.34300
C  19.41900 -5.71600 43.26300
C  19.70700 -8.65000 44.67700
O  18.59700 -8.52300 44.18500
C  20.05800 -10.08100 44.93500
N  24.99100 -7.66000 46.57200
C  24.01900 -8.55500 46.69300
C  24.48600 -9.79000 47.55900
C  25.92500 -9.36400 48.02000
C  26.13300 -8.04200 47.24100
C  23.56200 -10.22900 48.70000
C  27.07900 -10.39300 47.72900
C  27.75500 -10.90400 48.95800
N  26.68800 -5.40500 45.98700
C  27.64700 -6.15400 46.63200
C  28.92300 -5.40100 46.68700
C  28.63900 -4.34300 45.74500
C  27.30300 -4.47800 45.26900
C  30.30500 -5.74500 47.28500
C  29.31500 -3.32000 45.05100
O  30.50200 -3.04800 45.11600
C  28.22500 -2.61100 44.08700
C  27.98600 -1.17100 44.58900
O  27.88700 -0.79500 45.75300
O  28.06200 -0.31100 43.50600
C  27.99600 1.12000 43.82700
H  21.48600 -3.95500 43.01800
H  22.01300 -9.28700 46.40300
H  28.15800 -7.68700 47.80300
H  25.48600 -1.38400 42.81400
H  23.41700 -2.94200 41.58200
H  23.59500 -0.50200 42.99300
H  22.77300 -1.57400 44.17500
H  22.05000 -1.11800 42.62400
H  25.36600 -3.41500 40.58800
H  26.87300 -3.41200 41.32900
H  27.39500 -1.27100 40.43400
H  25.94000 -0.60800 40.92300
H  19.64900 -6.14600 42.28800
H  19.41100 -4.62700 43.21400
H  18.45300 -6.05100 43.64200
H  19.44300 -10.74900 44.33100
H  19.89400 -10.31900 45.98600
H  21.08600 -10.21700 44.59900
H  24.57700 -10.62900 46.87000
H  26.03300 -9.02900 49.05100
H  22.86600 -11.03100 48.45400
H  22.88200 -9.38700 48.82600
H  24.16000 -10.43500 49.58700
H  27.75100 -9.93900 47.00100
H  26.69700 -11.24500 47.16800
H  27.57200 -10.30000 49.84700
H  28.80900 -10.94900 48.68200
H  27.47500 -11.88600 49.33800
H  30.14100 -5.95100 48.34300
H  30.99300 -4.91800 47.11000
H  30.68900 -6.65700 46.82800
H  28.60800 -2.56200 43.06800
H  27.98300 1.78800 42.96600
H  28.91200 1.45200 44.31600
H  27.13800 1.46500 44.40400
Mg 16.68300 52.40200 26.54800
C  18.84200 51.29000 29.05200
C  14.53400 53.21700 29.02900
C  14.84400 53.82900 24.29900
C  19.09700 51.64600 24.19600
N  16.62700 52.11900 28.78800
C  17.63700 51.70300 29.55900
C  17.26200 51.99600 31.02600
C  15.72900 52.16000 30.97700
C  15.57300 52.47500 29.47800
C  15.02200 50.85400 31.37700
C  17.98700 53.25500 31.54600
C  18.24100 53.25000 33.06600
H  17.23700 52.53500 33.98300
N  14.95800 53.54400 26.63500
C  14.25200 53.78000 27.77000
C  13.21000 54.77200 27.41300
C  13.20500 54.92500 26.00900
C  14.35200 54.14100 25.55100
C  12.34200 55.51000 28.48200
C  12.32400 55.79200 25.06600
O  12.63600 55.82300 23.86900
C  11.12800 56.65300 25.67700
N  16.93900 52.60500 24.55600
C  15.99600 53.21000 23.85700
C  16.39500 53.24900 22.35900
C  17.76100 52.53000 22.31200
C  17.94200 52.28100 23.80100
C  15.33300 52.78000 21.24300
C  18.84400 53.19700 21.42600
C  19.80500 54.18900 22.01600
N  18.49500 51.48100 26.50100
C  19.37900 51.24600 25.50000
C  20.58600 50.54200 25.93800
C  20.43400 50.56200 27.41500
C  19.14300 51.15200 27.68700
C  21.69800 49.91500 25.20000
C  21.06200 50.27600 28.63700
O  22.16800 49.67900 28.73500
C  20.09300 50.79800 29.84200
C  19.86200 49.61000 30.78500
O  19.46600 48.52700 30.52700
O  20.23500 50.01200 32.09000
C  20.12800 49.06700 33.23400
H  13.78300 53.45600 29.78600
H  14.47300 54.34200 23.41000
H  19.95400 51.33800 23.59300
H  17.61100 51.10400 31.54700
H  15.41600 52.90600 31.70800
H  14.47000 51.11600 32.28000
H  15.74700 50.09500 31.67100
H  14.39400 50.36700 30.63100
H  17.35000 54.09200 31.26400
H  18.99400 53.34500 31.13900
H  18.19300 54.30600 33.33400
H  19.25800 52.91400 33.26900
H  12.78800 55.40100 29.47100
H  11.35500 55.05000 28.51300
H  12.17700 56.57900 28.34400
H  10.53400 56.02300 26.33900
H  10.51900 56.99800 24.84200
H  11.56700 57.53500 26.14300
H  16.67300 54.30300 22.31900
H  17.61700 51.58800 21.78300
H  14.84400 51.90100 21.66300
H  15.92500 52.61700 20.34200
H  14.63100 53.59500 21.06900
H  18.35000 53.85000 20.70700
H  19.43700 52.42500 20.93500
H  20.76300 53.72300 21.78800
H  19.68000 54.27600 23.09600
H  19.85400 55.24500 21.75200
H  21.82000 50.27400 24.17800
H  21.78700 48.83200 25.29000
H  22.52000 50.40400 25.72300
H  20.57300 51.60100 30.40100
H  21.17800 48.93900 33.50000
H  19.68400 48.08500 33.07200
H  19.54100 49.42600 34.07900

