158

Mg -1.95400 16.95400 27.33700
C  -2.76300 14.77500 30.01100
C  -2.00100 19.48600 29.65600
C  -1.38900 19.08000 24.76800
C  -2.32700 14.31200 25.10600
N  -2.26900 17.08700 29.59700
C  -2.50000 16.09900 30.51400
C  -2.35900 16.59400 31.96700
C  -2.21700 18.18000 31.76300
C  -2.20100 18.26700 30.23100
C  -3.40700 18.95600 32.39700
C  -1.10100 15.97200 32.66200
C  -0.61700 16.70800 33.96400
H  -0.38700 15.82400 35.25100
N  -1.77300 19.03000 27.28300
C  -1.83900 19.91600 28.36200
C  -1.74900 21.31900 27.84500
C  -1.61900 21.17000 26.41400
C  -1.54100 19.71500 26.07900
C  -1.70600 22.57900 28.72900
C  -1.62800 22.28000 25.38700
O  -1.62200 22.03100 24.18200
C  -1.70000 23.74900 25.79000
N  -1.84200 16.74600 25.29200
C  -1.56500 17.72100 24.43700
C  -1.58300 17.33800 22.97200
C  -1.60300 15.81400 23.08900
C  -1.96900 15.56600 24.56300
C  -2.78600 17.87200 22.15000
C  -0.40200 15.08800 22.43800
C  0.83700 15.03300 23.31000
N  -2.48600 14.99200 27.46100
C  -2.67100 14.02700 26.46200
C  -3.15000 12.79100 27.04100
C  -3.10200 12.99000 28.40600
C  -2.73400 14.34900 28.66100
C  -3.46700 11.55300 26.11200
C  -3.35800 12.38900 29.71000
O  -3.60700 11.26300 29.97000
C  -3.07000 13.46500 30.79300
C  -1.92100 13.06400 31.54200
O  -0.73100 13.14000 31.17900
O  -2.29500 12.58700 32.77800
C  -1.27900 12.10500 33.68500
H  -1.84200 20.29800 30.36700
H  -1.08800 19.80900 24.01300
H  -2.32900 13.46000 24.42300
H  -3.17900 16.37800 32.65100
H  -1.31300 18.57100 32.23000
H  -3.21800 19.50600 33.31900
H  -4.23700 18.28900 32.63100
H  -3.90600 19.56400 31.64300
H  -0.33100 16.00800 31.89100
H  -1.23700 14.96200 33.04800
H  -1.34100 17.49000 34.19300
H  0.33200 17.07100 33.57000
H  -1.73300 22.35500 29.79500
H  -2.64800 23.08800 28.52200
H  -0.82100 23.14400 28.44000
H  -2.73300 23.89200 26.10700
H  -1.30400 24.45600 25.06200
H  -1.00700 24.02100 26.58600
H  -0.59300 17.58400 22.58700
H  -2.49500 15.41300 22.60900
H  -3.52300 18.31000 22.82300
H  -3.35800 17.15400 21.56300
H  -2.43000 18.65600 21.48000
H  -0.23000 15.53500 21.45900
H  -0.81800 14.08600 22.32800
H  0.73400 15.73600 24.13700
H  1.70800 15.38800 22.75800
H  0.95500 13.97600 23.55000
H  -3.89700 11.92200 25.18000
H  -4.21100 10.91200 26.58500
H  -2.55200 10.97500 25.98400
H  -3.96700 13.57500 31.40200
H  -1.43100 11.03900 33.85700
H  -1.15700 12.58900 34.65400
H  -0.28800 12.11300 33.23000
Mg -10.83300 38.07700 41.51200
C  -8.40000 35.55600 41.24100
C  -8.88200 40.08800 39.60300
C  -13.18100 40.34200 41.65300
C  -12.92900 35.61400 42.82200
N  -8.86500 37.78500 40.44700
C  -8.06600 36.70300 40.53100
C  -6.81300 36.94900 39.67800
C  -6.97700 38.39300 39.13900
C  -8.23600 38.83600 39.80800
C  -5.71700 39.30200 39.19400
C  -6.61000 35.73200 38.69400
C  -5.23800 35.01300 38.69100
H  -4.14300 35.48400 37.71900
N  -10.96600 39.98300 40.76800
C  -10.07700 40.62700 39.93900
C  -10.53700 41.97900 39.71800
C  -11.76400 42.13500 40.36500
C  -12.03000 40.80000 40.99400
C  -9.86000 42.99200 38.79700
C  -12.65800 43.40400 40.40000
O  -12.42100 44.46900 39.77900
C  -13.94800 43.49500 41.28400
N  -12.91500 37.86100 41.90100
C  -13.61800 39.02600 42.08500
C  -14.96400 38.74100 42.74400
C  -15.00800 37.17900 42.91600
C  -13.50300 36.82600 42.55800
C  -15.21400 39.57200 44.05200
C  -15.99600 36.32100 42.10700
C  -16.89400 35.42100 42.87400
N  -10.72300 35.96700 41.95900
C  -11.64100 35.16300 42.58300
C  -11.09200 33.76900 42.80600
C  -9.76400 33.94900 42.31200
C  -9.61600 35.22800 41.84900
C  -11.74400 32.54200 43.38000
C  -8.49500 33.30400 42.22400
O  -8.23200 32.14900 42.55400
C  -7.49100 34.32300 41.53000
C  -6.19200 34.52800 42.27500
O  -5.28200 33.76000 42.27100
O  -6.10000 35.76400 42.87600
C  -4.80000 36.18600 43.46700
H  -8.17400 40.68000 39.01900
H  -13.92400 41.08400 41.95200
H  -13.61500 34.96600 43.37100
H  -5.85900 36.90200 40.20300
H  -7.26700 38.23700 38.10000
H  -5.57300 39.56700 38.14700
H  -4.79800 38.87000 39.59200
H  -5.92500 40.17000 39.82000
H  -6.70200 36.24000 37.73300
H  -7.37100 34.95400 38.63000
H  -5.44200 33.95600 38.51800
H  -4.87000 35.08100 39.71400
H  -9.08300 43.56800 39.30000
H  -10.61300 43.72600 38.50700
H  -9.45900 42.45700 37.93700
H  -13.71000 43.19300 42.30400
H  -14.77300 42.97100 40.80100
H  -14.17000 44.54900 41.44700
H  -15.69500 38.99200 41.97500
H  -15.08500 36.85400 43.95400
H  -16.05900 39.26500 44.66800
H  -15.46100 40.55500 43.64900
H  -14.32600 39.63900 44.68000
H  -15.34100 35.87600 41.35800
H  -16.67700 36.94700 41.53000
H  -16.28300 34.65400 43.35000
H  -17.63700 34.99000 42.20300
H  -17.43800 36.09900 43.53100
H  -11.87800 31.68700 42.71800
H  -12.72600 32.84100 43.74600
H  -11.22900 32.30700 44.31100
H  -7.20900 33.99600 40.52900
H  -4.47600 36.98900 42.80500
H  -4.06600 35.39400 43.61700
H  -5.03100 36.79200 44.34400

