158

Mg 26.85400 50.18200 26.32200
C  24.83800 51.37400 28.94400
C  29.38300 49.95500 28.71500
C  28.99100 49.41400 23.97100
C  24.38000 51.09100 24.08100
N  27.05100 50.53300 28.55800
C  26.07600 50.97900 29.41700
C  26.51200 50.87200 30.86500
C  28.07900 50.89000 30.66400
C  28.22700 50.50000 29.18200
C  28.63000 52.27800 30.95100
C  25.78400 49.66000 31.61700
C  24.92500 50.12600 32.81200
H  24.99300 49.18500 34.01900
N  28.87700 49.67600 26.37800
C  29.68800 49.55700 27.45400
C  30.97500 49.08200 26.93600
C  31.01500 49.00600 25.60500
C  29.60300 49.34200 25.23700
C  32.12100 48.86400 27.83900
C  32.18500 48.77300 24.70000
O  32.06900 48.73500 23.45900
C  33.58200 48.47500 25.15900
N  26.68400 50.30500 24.28000
C  27.69000 49.82300 23.53300
C  27.32200 49.80100 22.05400
C  25.85100 50.20300 22.11000
C  25.58900 50.53600 23.55800
C  28.25900 50.66100 21.10600
C  24.87600 49.09000 21.58800
C  23.56400 49.55000 20.91100
N  25.01200 51.15500 26.39800
C  24.12300 51.44800 25.42200
C  22.89300 51.94800 26.02800
C  23.14300 52.05200 27.41700
C  24.48200 51.49600 27.58100
C  21.62800 52.32200 25.31900
C  22.55100 52.32000 28.71600
O  21.39100 52.57300 29.07700
C  23.62700 51.89500 29.75500
C  23.89800 52.98400 30.67500
O  24.61900 53.96200 30.39900
O  23.17000 52.81600 31.80000
C  23.19100 54.00200 32.67400
H  30.05900 49.76600 29.55200
H  29.61200 48.95700 23.19800
H  23.63200 51.49100 23.39400
H  26.17000 51.79000 31.34200
H  28.57100 50.15700 31.30300
H  29.33400 52.37100 31.77800
H  27.83600 53.01300 31.08600
H  29.33700 52.45800 30.14100
H  26.58200 48.96700 31.88400
H  25.12500 49.12700 30.93200
H  23.91900 50.15400 32.39200
H  25.18100 51.16200 33.03500
H  31.72100 48.80400 28.85200
H  32.80000 49.71700 27.83800
H  32.54000 47.88100 27.62500
H  33.90300 49.37700 25.68000
H  34.26700 48.22300 24.35000
H  33.62500 47.53500 25.70800
H  27.29700 48.75600 21.74400
H  25.78600 51.07900 21.46500
H  28.46300 51.57600 21.66200
H  27.66700 50.86500 20.21300
H  29.11700 50.05300 20.81700
H  24.61700 48.40800 22.39800
H  25.33400 48.50600 20.78900
H  23.46600 49.01500 19.96600
H  23.54200 50.63000 20.77000
H  22.75900 49.42500 21.63600
H  20.74300 52.19200 25.94200
H  21.59300 51.94500 24.29700
H  21.62700 53.40000 25.16200
H  23.20100 51.03300 30.26900
H  23.40500 54.94800 32.17600
H  24.04100 53.94000 33.35300
H  22.46600 54.05500 33.48600
Mg -2.14500 33.84400 26.92200
C  -3.75600 32.05400 29.53900
C  -0.38600 35.51300 29.39000
C  -1.23700 35.90500 24.61300
C  -4.11100 32.01600 24.56000
N  -2.15200 33.81600 29.19800
C  -2.89400 33.03600 30.06500
C  -2.55200 33.31500 31.55000
C  -1.41900 34.44300 31.45700
C  -1.27500 34.63000 29.92600
C  -1.91700 35.79800 32.03900
C  -2.04800 31.97400 32.18500
C  -1.17100 31.94000 33.53400
H  -1.67900 31.07700 34.68500
N  -0.89100 35.45800 26.98300
C  -0.18000 35.93500 28.06700
C  0.77800 36.91200 27.53300
C  0.49300 37.07000 26.14500
C  -0.56900 36.16000 25.84000
C  1.70300 37.73100 28.41100
C  1.24800 37.82700 25.08300
O  1.04100 37.83800 23.90000
C  2.59000 38.45800 25.46800
N  -2.75700 33.98300 24.88500
C  -2.19400 35.01700 24.14000
C  -2.56100 34.87000 22.69400
C  -3.33400 33.47000 22.64600
C  -3.46200 33.11500 24.06900
C  -3.40000 36.06000 22.14900
C  -2.73200 32.38300 21.67500
C  -1.81900 31.27700 22.28400
N  -3.59200 32.27000 26.95800
C  -4.26800 31.64700 25.99400
C  -5.21900 30.68600 26.53800
C  -5.03600 30.80600 27.95000
C  -3.99600 31.74000 28.12400
C  -6.22100 29.80200 25.68200
C  -5.46500 30.33900 29.23700
O  -6.30200 29.57700 29.57800
C  -4.46900 31.08500 30.28000
C  -5.46100 31.65000 31.20900
O  -6.25200 32.55300 30.91000
O  -5.50000 30.99000 32.44000
C  -6.76500 31.16800 33.23200
H  0.29900 35.89600 30.14900
H  -0.78400 36.47200 23.79700
H  -4.69200 31.31700 23.95400
H  -3.46800 33.58500 32.07600
H  -0.58400 34.15300 32.09600
H  -2.55000 35.57700 32.89800
H  -2.52500 36.34200 31.31600
H  -1.12500 36.42200 32.45500
H  -1.48900 31.46400 31.40000
H  -2.96200 31.47900 32.51200
H  -0.99200 32.95700 33.88200
H  -0.17200 31.52500 33.40500
H  1.35700 38.76200 28.48600
H  2.69800 37.78700 27.96800
H  1.81200 37.31000 29.41000
H  2.90900 39.01600 24.58700
H  3.27000 37.61900 25.61400
H  2.72400 39.15100 26.29900
H  -1.69100 34.73900 22.05100
H  -4.34100 33.63400 22.26300
H  -3.47500 36.81900 22.92700
H  -4.41300 35.82700 21.82000
H  -3.00500 36.54600 21.25700
H  -2.13600 32.81300 20.86900
H  -3.62700 31.94100 21.23700
H  -1.39000 31.56000 23.24500
H  -1.11600 31.04400 21.48400
H  -2.44700 30.40800 22.48000
H  -6.30800 29.89900 24.59900
H  -7.25800 29.97400 25.96800
H  -6.19800 28.73600 25.91000
H  -3.92600 30.30400 30.81500
H  -6.80100 31.99600 33.94000
H  -6.89500 30.24200 33.79200
H  -7.62900 31.17300 32.56700

