158

Mg 24.30600 -4.58600 45.51800
C  26.43500 -2.45100 43.64900
C  21.56900 -3.68200 43.35500
C  22.76300 -7.43400 46.24500
C  27.21800 -5.67900 47.24100
N  24.06800 -3.19300 43.75800
C  25.06200 -2.40800 43.23500
C  24.47700 -1.55100 42.07600
C  22.97800 -1.79300 42.22100
C  22.87100 -2.98400 43.14300
C  22.15700 -0.49700 42.75800
C  25.14800 -2.15300 40.73900
C  25.84600 -1.26400 39.72500
H  25.38900 -1.35900 38.25500
N  22.32100 -5.41800 44.94200
C  21.34900 -4.88800 44.11200
C  20.20200 -5.77600 44.15400
C  20.56800 -6.90900 44.88800
C  21.98700 -6.62400 45.40400
C  18.90400 -5.46700 43.49700
C  19.59700 -8.07500 45.13700
O  18.45700 -8.08500 44.64500
C  20.02800 -9.19300 45.94000
N  24.81900 -6.23400 46.65100
C  23.98500 -7.22300 46.87000
C  24.64000 -8.33300 47.76000
C  25.95300 -7.68900 48.25500
C  26.05300 -6.45800 47.37300
C  23.71300 -8.95200 48.83000
C  27.28000 -8.66600 48.07700
C  28.29600 -8.63200 49.18400
N  26.42400 -4.13800 45.59200
C  27.42400 -4.70100 46.32800
C  28.69900 -4.00200 45.98400
C  28.33000 -3.20300 44.87400
C  26.94100 -3.26200 44.71600
C  30.04000 -4.32100 46.53200
C  28.87000 -2.25800 43.93100
O  29.97300 -1.89900 43.83300
C  27.60500 -1.70800 43.09400
C  27.58500 -0.13600 43.32200
O  27.48600 0.41000 44.39900
O  27.67700 0.58800 42.11800
C  27.52300 2.03200 42.10300
H  20.73500 -3.29800 42.76200
H  22.31500 -8.40000 46.48700
H  28.11700 -5.88000 47.82700
H  24.80300 -0.51100 42.10700
H  22.48900 -2.10400 41.29800
H  22.65600 0.41700 42.43900
H  22.22400 -0.50200 43.84600
H  21.13000 -0.50200 42.39300
H  24.43700 -2.81000 40.23900
H  25.86900 -2.93100 40.99200
H  26.87700 -1.61600 39.70200
H  25.95000 -0.20300 39.95000
H  18.46600 -6.24600 42.87300
H  19.07000 -4.51700 42.98900
H  18.18800 -5.27500 44.29700
H  20.80100 -9.70500 45.36700
H  19.20100 -9.89700 46.04000
H  20.44400 -8.77000 46.85400
H  24.91600 -9.18500 47.13900
H  25.91700 -7.34900 49.29000
H  22.67600 -8.61600 48.85700
H  24.18600 -8.79900 49.80000
H  23.60600 -10.03500 48.76900
H  27.67700 -8.31400 47.12500
H  27.01200 -9.70100 47.86600
H  28.36400 -9.64200 49.58800
H  28.06300 -7.99300 50.03600
H  29.15200 -8.47600 48.52700
H  29.90700 -5.40200 46.47400
H  30.26100 -4.15300 47.58600
H  30.86100 -3.85200 45.99000
H  27.79500 -1.83600 42.02900
H  27.46700 2.28000 43.16300
H  26.63400 2.27900 41.52200
H  28.35000 2.59300 41.66900
Mg 41.52800 41.88900 26.84100
C  40.45800 44.23400 29.30900
C  42.22800 39.86600 29.26100
C  42.84900 39.90700 24.51900
C  41.23000 44.44900 24.51600
N  41.31000 42.11900 29.03300
C  40.75000 43.01000 29.87200
C  40.72200 42.63700 31.37500
C  41.61600 41.30800 31.36100
C  41.75000 41.04700 29.80100
C  42.97500 41.34900 32.03200
C  39.27600 42.52600 31.97100
C  39.00300 43.29900 33.28700
H  38.56700 42.46600 34.48000
N  42.34600 40.09800 26.85600
C  42.54500 39.41200 27.98600
C  43.10500 38.12700 27.68400
C  43.27500 38.07900 26.24400
C  42.79400 39.40500 25.80000
C  43.26400 37.02000 28.72000
C  43.75600 37.00000 25.30800
O  43.85100 37.18200 24.12300
C  44.07000 35.65500 25.86600
N  41.73000 42.12500 24.65200
C  42.42600 41.17800 24.00300
C  42.77200 41.68600 22.56000
C  41.97200 43.02800 22.45800
C  41.66500 43.21800 23.97400
C  44.23300 41.74000 22.20100
C  40.66300 42.92100 21.66400
C  40.27800 44.29100 21.27100
N  40.90100 43.85000 26.83400
C  40.87000 44.78900 25.84400
C  40.46300 46.10100 26.36000
C  40.20000 45.87500 27.71100
C  40.54100 44.54300 27.95800
C  40.35800 47.52100 25.72400
C  39.64600 46.52400 28.92900
O  39.23500 47.64500 29.22600
C  39.87200 45.40500 29.98800
C  40.78900 45.97600 30.99200
O  41.98300 46.03900 30.85700
O  40.13500 46.38900 32.10800
C  40.96500 46.62800 33.34000
H  42.45100 39.17700 30.07900
H  43.32600 39.27300 23.76900
H  41.19900 45.24400 23.76900
H  41.30200 43.38900 31.90900
H  41.18000 40.50100 31.95000
H  43.00700 41.92900 32.95400
H  43.67800 41.88400 31.39400
H  43.39800 40.34400 32.03200
H  38.95500 41.48900 32.06200
H  38.64700 43.02400 31.23200
H  38.23400 44.05600 33.13300
H  39.94400 43.79600 33.52500
H  43.57400 37.50500 29.64600
H  44.18700 36.51500 28.43700
H  42.46900 36.27500 28.73000
H  43.20500 35.23900 26.38200
H  44.87900 35.87500 26.56200
H  44.45500 35.02000 25.06800
H  42.40200 40.92000 21.87900
H  42.66100 43.86200 22.32200
H  44.56100 42.69300 22.61700
H  44.42400 41.66300 21.13000
H  44.68800 40.91200 22.74500
H  39.88700 42.47200 22.28400
H  40.77100 42.39700 20.71400
H  39.67600 44.64500 22.10800
H  39.71400 44.37000 20.34200
H  41.08800 45.01800 21.21700
H  40.89700 48.21200 26.37200
H  39.28300 47.62600 25.58000
H  40.86000 47.61000 24.76100
H  38.91900 45.15900 30.45800
H  42.00200 46.29400 33.31800
H  40.55500 46.16500 34.23700
H  40.98500 47.69300 33.56900

