158

Mg 46.86700 24.71600 29.19500
C  47.65100 27.09700 31.63800
C  46.32000 22.43900 31.75100
C  46.54900 22.26600 26.82300
C  47.54300 27.03700 26.73000
N  46.93600 24.77900 31.44600
C  47.15500 25.91100 32.17100
C  46.81500 25.68200 33.66900
C  46.57900 24.10800 33.69700
C  46.58200 23.74600 32.18000
C  47.56300 23.31300 34.62500
C  45.63100 26.60600 34.12700
C  45.85500 27.34400 35.43700
H  44.71200 27.16400 36.43800
N  46.45200 22.65000 29.20800
C  46.22700 21.92400 30.36300
C  45.68700 20.63600 30.02900
C  46.00900 20.47600 28.65000
C  46.38000 21.80300 28.15500
C  45.23900 19.67900 31.05400
C  45.79300 19.23700 27.67000
O  46.13800 19.28600 26.51700
C  45.19500 17.94600 28.20200
N  47.12400 24.62400 26.98000
C  46.79100 23.56400 26.25900
C  46.93600 23.79800 24.77600
C  47.08400 25.38900 24.79700
C  47.28200 25.74400 26.27600
C  48.18800 23.10500 24.19100
C  45.82200 26.17100 24.17000
C  44.53200 26.24100 25.03400
N  47.51100 26.61400 29.12100
C  47.76200 27.44800 28.07700
C  48.26900 28.72000 28.51500
C  48.27800 28.62900 29.92300
C  47.83300 27.33700 30.21600
C  48.77600 29.88700 27.74500
C  48.53400 29.39800 31.17500
O  48.94300 30.54800 31.29300
C  48.10200 28.44400 32.38000
C  49.19900 28.25300 33.35000
O  50.14200 27.47800 33.16200
O  48.91600 28.96800 34.52200
C  49.53800 28.42200 35.70100
H  46.03000 21.74900 32.54600
H  46.31700 21.53800 26.04200
H  47.80600 27.84100 26.03900
H  47.69100 25.84700 34.29600
H  45.56200 23.88800 34.02200
H  48.19000 22.61200 34.07300
H  46.88100 22.78000 35.28700
H  48.16200 23.86300 35.35200
H  44.70600 26.03200 34.17700
H  45.48400 27.30900 33.30700
H  45.87200 28.41300 35.22400
H  46.74500 27.11700 36.02400
H  45.64400 19.85900 32.05000
H  45.57100 18.69400 30.72600
H  44.15800 19.74500 31.17600
H  44.86700 17.32600 27.36700
H  44.35400 18.16100 28.86100
H  45.95600 17.34100 28.69400
H  46.08300 23.44100 24.19900
H  47.95900 25.78400 24.28300
H  48.42400 22.29000 24.87500
H  49.03800 23.77000 24.03500
H  47.86700 22.67200 23.24400
H  45.64500 25.81600 23.15400
H  46.02900 27.23100 24.02900
H  44.73500 25.77500 25.99900
H  43.88500 25.63000 24.40500
H  44.04400 27.17300 25.31800
H  48.61700 30.82600 28.27700
H  48.13700 30.03300 26.87400
H  49.84000 29.78500 27.53500
H  47.23600 28.87600 32.88100
H  49.33900 27.36900 35.90100
H  49.20500 28.99800 36.56500
H  50.62000 28.34300 35.60400
Mg 46.44600 44.49800 43.75500
C  43.06100 44.14700 43.47000
C  46.77500 41.10600 43.21100
C  49.79000 44.87200 43.46900
C  45.97500 47.92100 43.77500
N  45.01900 42.75500 43.69300
C  43.72600 42.95000 43.31500
C  43.04100 41.59000 42.96100
C  44.19800 40.52200 43.05200
C  45.41100 41.45000 43.40300
C  43.98200 39.31200 44.05800
C  42.26100 41.56700 41.62200
C  42.88900 42.22600 40.38100
H  42.84500 41.36600 39.07600
N  48.09200 43.19600 43.43400
C  47.97800 41.85000 43.27100
C  49.30900 41.29100 43.17900
C  50.24200 42.33400 43.24700
C  49.36800 43.53700 43.46500
C  49.59300 39.81000 43.02700
C  51.73400 42.13200 43.22700
O  52.27200 40.98500 43.09600
C  52.72400 43.19500 43.30000
N  47.72300 46.12900 43.63900
C  49.08300 46.06900 43.59700
C  49.73200 47.48500 43.54800
C  48.45200 48.43400 43.59200
C  47.28600 47.43900 43.72900
C  50.74100 47.66700 44.75400
C  48.31500 49.29700 42.31100
C  49.32700 50.48300 42.27400
N  44.81500 45.82100 43.87800
C  44.78700 47.17900 43.82800
C  43.42400 47.64800 43.90100
C  42.71200 46.49900 43.72800
C  43.62200 45.41700 43.66400
C  43.02800 49.09300 44.02400
C  41.38700 45.92200 43.66400
O  40.27100 46.44800 43.81400
C  41.53100 44.38600 43.32000
C  40.71700 43.63800 44.33700
O  39.68000 43.06300 44.03300
O  41.22700 43.74200 45.63900
C  40.33500 43.20200 46.64800
H  46.85200 40.04200 42.97800
H  50.87100 44.96600 43.35100
H  45.90400 49.01100 43.80400
H  42.33600 41.31600 43.74600
H  44.35100 40.02600 42.09300
H  42.99000 39.11000 44.46100
H  44.64200 39.55400 44.89100
H  44.33500 38.39400 43.58700
H  41.29400 42.06100 41.72600
H  41.85600 40.57200 41.44000
H  43.95900 42.35200 40.54800
H  42.46800 43.22300 40.24900
H  50.13800 39.63400 42.10000
H  48.73800 39.13500 43.07000
H  50.15600 39.40700 43.86900
H  52.47000 43.92100 42.52800
H  53.68200 42.67700 43.25600
H  52.60300 43.74600 44.23200
H  50.39400 47.56200 42.68600
H  48.49100 48.96600 44.54200
H  51.77300 47.73600 44.41000
H  50.65300 46.77200 45.37000
H  50.57500 48.54000 45.38400
H  47.34300 49.74200 42.09700
H  48.50300 48.68600 41.42800
H  48.75500 51.41000 42.24800
H  49.95300 50.30000 41.40100
H  50.07000 50.42800 43.07000
H  42.34700 49.16200 44.87200
H  42.62600 49.47400 43.08500
H  43.86500 49.73600 44.29600
H  41.28500 44.13700 42.28800
H  40.25500 42.11600 46.59400
H  39.34800 43.66000 46.58200
H  40.70000 43.58000 47.60300

