158

Mg 1.31300 7.10200 26.01300
C  1.57300 9.27900 28.71700
C  1.95800 4.43300 28.23500
C  0.91400 4.98500 23.47100
C  1.15100 9.85000 23.86000
N  1.38100 6.92000 28.25800
C  1.43200 7.96800 29.13200
C  1.38600 7.56500 30.63000
C  1.81500 5.97300 30.37000
C  1.72300 5.69900 28.82600
C  3.12800 5.59200 30.97500
C  -0.01700 7.84900 31.26800
C  -0.09000 7.78400 32.79500
H  1.17800 7.47200 33.58600
N  1.53700 4.97800 25.85300
C  1.67200 4.07500 26.90000
C  1.43200 2.70400 26.35900
C  1.26500 2.80900 24.93700
C  1.26600 4.31800 24.65000
C  1.28800 1.45300 27.31300
C  1.03200 1.73800 23.92300
O  0.62800 2.02800 22.78500
C  1.19500 0.35400 24.27100
N  0.92200 7.39300 24.03700
C  0.82600 6.37500 23.17500
C  0.52200 6.88000 21.65200
C  0.54200 8.38700 21.87400
C  0.84600 8.56900 23.33200
C  1.49600 6.49900 20.44900
C  -0.65900 9.14600 21.29500
C  -0.40600 10.08300 20.13900
N  1.40200 9.08700 26.15700
C  1.28300 10.12300 25.21700
C  1.61300 11.41400 25.83400
C  1.70900 11.09700 27.20800
C  1.56200 9.73300 27.33700
C  1.73700 12.74000 25.21700
C  1.82100 11.71200 28.47300
O  1.84700 12.89400 28.80900
C  1.79600 10.57800 29.48900
C  3.15200 10.59300 30.11500
O  4.17900 10.04800 29.76400
O  3.04700 11.20300 31.34200
C  4.14800 10.94600 32.30400
H  2.41900 3.64700 28.83700
H  0.72400 4.40100 22.56900
H  1.22300 10.72900 23.21600
H  2.15100 8.13700 31.15700
H  0.99400 5.37900 30.77000
H  2.96200 4.77700 31.67900
H  3.50800 6.50700 31.42800
H  3.75400 5.23400 30.15800
H  -0.71800 7.20100 30.74200
H  -0.32100 8.85800 30.98600
H  -0.81600 7.00100 33.01300
H  -0.44600 8.73100 33.20000
H  1.18200 1.54600 28.39400
H  1.99900 0.64300 27.15000
H  0.41000 0.94200 26.91800
H  0.31900 0.05100 24.84300
H  1.99300 0.32800 25.01400
H  1.36800 -0.27000 23.39400
H  -0.45500 6.48200 21.37700
H  1.43700 8.72100 21.35000
H  2.47700 6.13500 20.75200
H  1.57300 7.26000 19.67200
H  1.12400 5.55700 20.04600
H  -1.05800 9.82100 22.05300
H  -1.51700 8.49300 21.13200
H  -0.84200 9.72100 19.20800
H  0.65400 10.28100 19.97900
H  -0.88200 11.02800 20.40100
H  0.91900 12.75700 24.49700
H  2.71900 12.79600 24.74900
H  1.52600 13.51800 25.95000
H  1.00600 10.71800 30.22700
H  5.12100 10.87400 31.81900
H  3.83900 9.99700 32.74300
H  4.23500 11.83000 32.93600
Mg -10.13800 17.43200 43.04800
C  -6.64000 17.08100 43.00800
C  -9.65100 20.66000 42.04900
C  -13.36000 17.56900 42.23500
C  -10.28800 13.88900 43.01000
N  -8.28700 18.73500 42.62200
C  -6.99600 18.35400 42.61700
C  -6.04800 19.55700 42.43900
C  -7.07900 20.79600 42.39700
C  -8.39800 20.03800 42.26700
C  -6.89100 21.64700 43.63300
C  -5.10900 19.39600 41.12900
C  -5.62700 18.41100 40.02800
H  -5.16000 18.69600 38.59700
N  -11.40400 18.97300 42.49700
C  -11.01700 20.25200 42.12800
C  -12.15900 21.10500 41.99000
C  -13.28200 20.21500 41.93100
C  -12.73000 18.85300 42.18600
C  -12.15100 22.66700 41.75000
C  -14.73800 20.65900 41.61500
O  -14.94500 21.85700 41.30100
C  -15.79300 19.60400 41.50000
N  -11.57700 15.96600 42.44800
C  -12.89000 16.27800 42.33500
C  -13.77600 14.99300 42.30200
C  -12.75100 13.89600 42.64400
C  -11.49600 14.62200 42.78800
C  -15.11200 15.02800 43.07900
C  -12.58600 12.80300 41.58500
C  -12.48700 11.36400 42.24900
N  -8.82500 15.75900 43.14400
C  -9.01400 14.38700 43.07600
C  -7.71700 13.72000 43.27900
C  -6.76400 14.70000 43.27900
C  -7.50900 15.92200 43.15400
C  -7.61400 12.29800 43.34500
C  -5.36900 14.96100 43.34100
O  -4.43300 14.20500 43.57400
C  -5.18600 16.51000 43.17000
C  -4.66300 17.04600 44.42400
O  -3.63100 17.71100 44.50000
O  -5.41900 16.67200 45.53900
C  -4.76400 17.25400 46.78200
H  -9.58300 21.72500 41.81700
H  -14.40500 17.53400 41.92100
H  -10.39700 12.81200 43.15500
H  -5.26100 19.59100 43.19300
H  -6.91500 21.39400 41.50100
H  -5.86000 21.71900 43.97800
H  -7.62200 21.53600 44.43500
H  -6.97400 22.70700 43.39200
H  -4.17700 19.14900 41.63800
H  -4.93600 20.39700 40.73100
H  -6.71600 18.37600 40.04300
H  -5.30500 17.42100 40.35100
H  -12.26200 22.90800 40.69300
H  -11.25500 23.18900 42.08600
H  -12.99400 23.10700 42.28200
H  -15.87100 19.00400 42.40700
H  -15.43200 18.95800 40.70000
H  -16.77300 20.03300 41.29300
H  -14.16600 14.91100 41.28800
H  -13.00700 13.44700 43.60300
H  -16.01400 14.84200 42.49700
H  -15.37500 15.96200 43.57600
H  -15.12300 14.30500 43.89400
H  -11.75900 13.05100 40.91900
H  -13.49700 12.80700 40.98600
H  -13.38400 10.78900 42.01900
H  -12.41800 11.43700 43.33400
H  -11.67600 10.79400 41.79300
H  -7.85900 11.73600 42.44400
H  -8.37400 11.95200 44.04600
H  -6.69700 11.91800 43.79500
H  -4.41200 16.85800 42.48600
H  -3.83900 16.70000 46.93800
H  -5.35700 17.02900 47.66800
H  -4.60200 18.33000 46.84600

