158

Mg 0.07700 7.02800 26.01400
C  0.82900 9.16800 28.63600
C  -0.43200 4.50000 28.23200
C  -0.49300 5.04400 23.47800
C  0.96400 9.64400 23.76000
N  0.11300 6.94800 28.25400
C  0.49100 7.88300 29.15400
C  0.32600 7.44700 30.63200
C  0.32400 5.85400 30.32500
C  -0.02800 5.72800 28.79100
C  1.58900 5.07100 30.62200
C  -0.85500 8.19800 31.35000
C  -0.94500 7.77900 32.83900
H  0.12100 6.91200 33.52900
N  -0.56600 5.10600 25.92300
C  -0.66000 4.23800 26.92300
C  -1.02600 2.90600 26.37000
C  -0.99000 3.06800 24.95300
C  -0.67400 4.47500 24.74600
C  -1.20000 1.64800 27.22300
C  -1.16000 1.97200 23.88200
O  -1.02200 2.21000 22.71300
C  -1.46400 0.56300 24.36700
N  0.30000 7.28200 23.90100
C  -0.01800 6.24400 23.09800
C  0.23400 6.67300 21.63400
C  0.53700 8.24200 21.69000
C  0.59300 8.43900 23.17900
C  1.15400 5.83400 20.84000
C  -0.42500 9.22300 20.89000
C  -1.87200 9.38900 21.39100
N  0.74300 8.96000 26.10300
C  1.00100 9.89200 25.13300
C  1.39200 11.14500 25.72800
C  1.39700 10.91400 27.12400
C  0.98200 9.53700 27.24200
C  1.64600 12.35200 25.00100
C  1.63300 11.48100 28.39400
O  2.01800 12.62900 28.69500
C  1.29800 10.37200 29.42100
C  2.42400 10.20200 30.31600
O  3.57500 9.95900 30.13300
O  1.92500 10.60500 31.56800
C  2.80700 10.92600 32.63900
H  -0.56400 3.65900 28.91500
H  -0.75800 4.45000 22.60000
H  1.27900 10.47300 23.12300
H  1.25600 7.67700 31.15100
H  -0.54900 5.42200 30.81500
H  1.87200 4.42000 29.79500
H  1.32400 4.43000 31.46300
H  2.43100 5.65000 31.00000
H  -1.78100 8.06900 30.79100
H  -0.56000 9.24800 31.37300
H  -1.93800 7.33700 32.91600
H  -0.86300 8.68200 33.44500
H  -0.37200 0.94500 27.31000
H  -2.07300 1.11400 26.84700
H  -1.49100 1.90800 28.24000
H  -0.62200 0.22600 24.97100
H  -1.51900 -0.07100 23.48200
H  -2.39000 0.40200 24.91900
H  -0.72400 6.60100 21.11900
H  1.51500 8.52200 21.29800
H  1.17000 4.84000 21.28900
H  2.13300 6.31300 20.84500
H  0.92400 5.84800 19.77500
H  -0.63000 8.69400 19.95900
H  0.06000 10.18600 20.72800
H  -2.51100 8.64200 20.92100
H  -2.23700 10.40400 21.23400
H  -1.85900 9.21200 22.46600
H  1.94800 13.27600 25.49500
H  0.70400 12.73000 24.60500
H  2.38300 12.25500 24.20300
H  0.38700 10.66900 29.94200
H  2.76000 10.04600 33.28000
H  2.35200 11.79800 33.10900
H  3.79900 11.15900 32.25200
Mg 48.25400 35.47000 28.12900
C  46.19100 33.52700 30.21000
C  48.43700 37.73100 30.79800
C  49.29600 37.96500 26.02100
C  47.34700 33.42800 25.47600
N  47.49900 35.55300 30.22800
C  46.82600 34.59800 30.88300
C  46.73400 34.89600 32.37500
C  47.04200 36.40100 32.39100
C  47.83700 36.58600 31.07200
C  45.77300 37.33000 32.39900
C  47.60700 33.95500 33.26500
C  49.01300 34.47400 33.77700
H  49.10600 34.85600 35.24800
N  49.02000 37.47700 28.33100
C  48.91100 38.22600 29.51200
C  49.49800 39.52200 29.31900
C  49.90500 39.55200 27.95600
C  49.41800 38.28600 27.34500
C  49.56700 40.48400 30.45100
C  50.72100 40.56500 27.16800
O  50.91100 40.42400 25.97000
C  51.37900 41.80300 27.88800
N  48.55100 35.58200 26.09300
C  48.88800 36.77500 25.43600
C  48.58700 36.62500 23.89000
C  48.40700 35.11700 23.75400
C  48.11300 34.66400 25.20300
C  47.29700 37.47400 23.38400
C  49.53500 34.29100 23.03500
C  49.32700 34.00000 21.55000
N  47.20400 33.66900 27.86300
C  46.87500 32.99700 26.73300
C  46.10700 31.81700 27.02900
C  45.71000 32.03800 28.37200
C  46.38900 33.18100 28.78300
C  45.78600 30.67400 26.05100
C  44.83300 31.66700 29.51100
O  43.97200 30.79100 29.56500
C  45.02200 32.62700 30.72200
C  45.29300 31.73900 31.83000
O  46.00800 30.68600 31.90700
O  44.55000 32.20300 32.85100
C  44.54900 31.37300 34.04100
H  48.61600 38.34900 31.68100
H  49.46900 38.75100 25.28200
H  46.87500 32.88500 24.65300
H  45.69500 34.78700 32.68500
H  47.55700 36.79900 33.26500
H  44.91300 36.69400 32.60900
H  45.71100 37.89800 31.47100
H  45.65400 37.96000 33.28100
H  47.72200 33.00400 32.74600
H  47.01900 33.80600 34.17000
H  49.54200 35.22000 33.18200
H  49.62900 33.57800 33.69300
H  50.34400 41.22100 30.25000
H  49.76200 40.02600 31.42100
H  48.67000 41.09800 30.36400
H  50.51100 42.34700 28.26200
H  52.04900 42.26400 27.16300
H  52.10900 41.54400 28.65400
H  49.47200 37.05600 23.42100
H  47.48400 34.83900 23.24500
H  46.76600 38.03700 24.15200
H  46.56900 36.82300 22.90000
H  47.65800 38.19000 22.64500
H  49.76800 33.35600 23.54500
H  50.43000 34.91000 23.09400
H  48.38300 34.39600 21.17500
H  49.29900 32.92400 21.38200
H  50.15800 34.37400 20.95200
H  44.98300 30.94300 25.36500
H  45.51000 29.83800 26.69400
H  46.68000 30.40800 25.48600
H  44.15000 33.26100 30.88400
H  44.97500 30.37700 33.91700
H  43.50600 31.22400 34.32000
H  45.03700 31.83600 34.90000

