158

Mg 34.94000 3.53500 29.97300
C  32.57300 4.57600 32.21100
C  37.34400 3.84700 32.46600
C  37.25600 2.55100 27.74900
C  32.57300 3.60300 27.49200
N  34.94200 4.11500 32.06800
C  33.81700 4.36500 32.79200
C  34.26400 4.48300 34.28700
C  35.74800 4.75400 34.18600
C  36.06200 4.27000 32.79600
C  36.06200 6.20200 34.40600
C  33.72300 3.27900 35.18000
C  34.19200 3.39000 36.60400
H  34.35200 4.71300 37.35100
N  36.98300 3.28500 30.10000
C  37.76900 3.46100 31.16800
C  39.07600 3.12400 30.77900
C  39.14300 2.71200 29.40600
C  37.74000 2.84500 28.96500
C  40.23200 3.31000 31.69300
C  40.34200 2.11900 28.54200
O  40.18700 1.84500 27.36000
C  41.64900 1.96500 29.08400
N  34.96300 3.37300 27.87300
C  36.00400 2.83100 27.17500
C  35.68000 2.49300 25.66600
C  34.16500 2.72500 25.68200
C  33.85600 3.25900 27.06600
C  36.58300 3.26000 24.69600
C  33.51100 1.36700 25.34500
C  33.01900 0.53400 26.53200
N  33.01400 3.99700 29.83300
C  32.15600 3.99900 28.74600
C  30.84200 4.42000 29.13900
C  30.92900 4.64100 30.51600
C  32.28500 4.40300 30.85500
C  29.62200 4.61200 28.32100
C  30.19600 4.89300 31.71200
O  29.03800 5.14300 31.96700
C  31.27200 4.89900 32.92700
C  31.35600 6.17800 33.61400
O  32.20500 7.05100 33.42200
O  30.60000 6.19400 34.78700
C  31.03900 7.06800 35.89400
H  38.09800 3.93300 33.25100
H  37.83800 2.17900 26.90300
H  31.77900 3.55100 26.74400
H  33.63800 5.29200 34.66500
H  36.38400 4.15600 34.83900
H  36.16300 6.41100 35.47100
H  35.22000 6.77000 34.01200
H  36.96900 6.33400 33.81600
H  33.90100 2.28500 34.76900
H  32.65700 3.43300 35.34500
H  35.03200 2.72800 36.81100
H  33.38900 2.96600 37.20700
H  40.49200 2.31000 32.04100
H  40.17700 3.98400 32.54700
H  41.00100 3.73300 31.04600
H  41.74900 1.35100 29.97900
H  41.96800 3.00000 29.21100
H  42.27600 1.63700 28.25500
H  35.93400 1.43900 25.55700
H  33.85800 3.47500 24.95300
H  36.12200 4.02100 24.06700
H  37.01000 2.53600 24.00200
H  37.34600 3.78500 25.27100
H  34.01500 0.76300 24.59100
H  32.56200 1.69000 24.91700
H  31.98500 0.28900 26.29000
H  33.13300 0.97500 27.52200
H  33.63700 -0.36000 26.45600
H  29.69500 4.49000 27.24000
H  29.08100 5.49300 28.66700
H  29.00200 3.77000 28.62900
H  31.01900 4.17300 33.70000
H  30.32400 7.88200 36.01300
H  31.97200 7.61600 35.76400
H  31.05100 6.59400 36.87500
Mg 9.26000 47.85800 26.44700
C  7.37200 47.52100 29.45100
C  11.97200 48.70500 28.29100
C  10.91500 47.88300 23.61000
C  6.18000 47.21300 24.65900
N  9.56700 48.16800 28.58300
C  8.67900 48.01700 29.66200
C  9.34900 48.40000 30.99600
C  10.77700 48.83500 30.57800
C  10.80700 48.58900 29.04700
C  11.14900 50.30900 30.94800
C  9.36300 47.25300 32.10900
C  10.40200 47.14000 33.18200
H  9.93500 47.11400 34.58600
N  11.10800 48.31000 25.99300
C  12.10300 48.62100 26.86800
C  13.34800 48.71200 26.15900
C  13.12900 48.23800 24.81300
C  11.67800 48.13200 24.68200
C  14.68800 48.91500 26.87500
C  14.16300 48.00000 23.74500
O  13.92500 47.57200 22.65200
C  15.64100 48.30900 23.95000
N  8.57400 47.74700 24.33800
C  9.51500 47.69000 23.38400
C  8.95800 47.53800 21.91400
C  7.51900 46.92500 22.30900
C  7.41100 47.28700 23.84700
C  8.61700 48.92000 21.25000
C  7.39900 45.37400 22.02700
C  7.97400 44.34800 23.01900
N  7.22800 47.42900 26.92200
C  6.10800 47.26600 26.04900
C  4.92800 46.94900 26.83600
C  5.41600 47.03300 28.14700
C  6.77800 47.34600 28.19800
C  3.56000 46.61300 26.36200
C  5.12500 46.89100 29.59400
O  4.07300 46.42200 30.09200
C  6.34400 47.19500 30.46300
C  6.64600 45.89500 31.19800
O  7.16800 44.95700 30.63500
O  6.13900 46.00900 32.45600
C  6.77000 45.14100 33.48900
H  12.71900 49.07700 28.99500
H  11.37000 47.85600 22.61800
H  5.32900 46.79000 24.12200
H  8.87800 49.26700 31.46000
H  11.55500 48.19100 30.98900
H  11.92500 50.16000 31.69900
H  10.32500 50.91300 31.32900
H  11.51100 50.80200 30.04600
H  9.54000 46.30800 31.59500
H  8.35700 47.31500 32.52500
H  11.21600 47.86300 33.15800
H  10.93600 46.23900 32.88000
H  15.30800 49.45000 26.15500
H  15.16500 47.97900 27.16600
H  14.53700 49.51700 27.77200
H  16.31100 48.15600 23.10400
H  16.08800 47.73400 24.76100
H  15.78000 49.37100 24.15400
H  9.46200 46.85200 21.23300
H  6.70000 47.30500 21.69900
H  7.79100 48.74300 20.56200
H  9.44900 49.29800 20.65700
H  8.30000 49.64900 21.99500
H  7.77500 45.17300 21.02300
H  6.31800 45.24500 21.97800
H  8.27800 44.75500 23.98400
H  8.85200 43.92500 22.53100
H  7.10200 43.69800 23.09900
H  3.33100 45.54900 26.41800
H  3.31400 46.93000 25.34900
H  2.98200 47.23300 27.04800
H  6.08200 47.99300 31.15800
H  7.58900 45.73600 33.89400
H  7.20000 44.24700 33.03800
H  6.11900 44.83300 34.30700

