158

Mg 36.15600 49.56800 24.97500
C  36.13200 47.98500 28.16200
C  34.66900 52.25200 26.51200
C  35.50100 50.77900 21.93900
C  37.12800 46.52900 23.46100
N  35.25900 49.91400 27.08800
C  35.64100 49.27700 28.20700
C  35.38600 50.18400 29.47300
C  34.60500 51.36900 28.87200
C  34.77400 51.14000 27.36700
C  33.11700 51.45100 29.19400
C  36.75500 50.49800 30.16500
C  36.96000 49.88600 31.57800
H  35.64600 49.79200 32.44800
N  35.36300 51.32300 24.31500
C  34.92000 52.36300 25.11200
C  34.65800 53.51200 24.34200
C  34.90000 53.09400 23.00500
C  35.20300 51.64500 23.02100
C  34.10100 54.86500 24.77700
C  34.78000 53.92800 21.69400
O  34.76700 53.41200 20.60900
C  34.64500 55.41300 21.73500
N  36.24700 48.75100 22.92700
C  35.94000 49.48500 21.88300
C  36.46400 48.92300 20.58600
C  36.97500 47.47300 21.01900
C  36.70100 47.52400 22.58200
C  35.59000 48.87500 19.23400
C  38.44700 47.16800 20.67100
C  39.55400 47.85200 21.50300
N  36.58700 47.69100 25.60400
C  37.01000 46.55400 24.89300
C  37.31000 45.46600 25.85900
C  37.02900 46.01700 27.14500
C  36.58400 47.35700 26.94800
C  37.60400 43.99900 25.56500
C  37.05600 45.70100 28.55200
O  37.61200 44.78300 29.14000
C  36.35100 46.97100 29.29700
C  35.10000 46.45100 29.82700
O  33.93200 46.48400 29.48000
O  35.35700 45.86400 31.10300
C  34.19400 45.27400 31.80400
H  34.28300 53.16700 26.96400
H  35.32900 51.20600 20.94900
H  37.57000 45.60800 23.07600
H  34.78000 49.65800 30.21100
H  35.05000 52.34300 29.08000
H  32.69500 50.52300 29.58000
H  32.59900 51.80400 28.30300
H  33.04100 52.17000 30.00900
H  36.86300 51.57700 30.04900
H  37.54400 50.08500 29.53700
H  37.52700 50.64300 32.12000
H  37.54400 48.97800 31.72700
H  34.81000 55.69100 24.72100
H  33.80000 54.76700 25.82100
H  33.19400 54.95800 24.17900
H  33.60700 55.67400 21.94200
H  34.88500 55.78300 20.73800
H  35.50900 55.80600 22.27300
H  37.29200 49.62200 20.47400
H  36.23600 46.73000 20.71800
H  35.49300 47.87900 18.80300
H  36.13100 49.35900 18.42100
H  34.62800 49.38700 19.26500
H  38.67100 47.51000 19.66100
H  38.62700 46.10200 20.81100
H  39.02600 48.37600 22.30000
H  40.01400 48.60800 20.86600
H  40.29400 47.21000 21.98000
H  38.61800 43.96100 25.16700
H  36.93800 43.66300 24.77100
H  37.41900 43.47100 26.50100
H  36.82500 47.34600 30.20400
H  34.66500 44.87100 32.70100
H  33.76000 44.42200 31.28100
H  33.47000 46.06900 31.98000
Mg -4.39600 25.12200 26.29700
C  -3.23800 26.90500 29.10800
C  -6.25900 23.25400 28.37400
C  -5.47600 23.38600 23.54700
C  -2.76100 27.27600 24.25600
N  -4.74600 25.15700 28.51200
C  -4.13600 25.88000 29.50900
C  -4.77400 25.61800 30.84200
C  -5.49400 24.23600 30.53600
C  -5.60600 24.26800 29.05900
C  -4.65000 23.09200 31.02700
C  -5.68900 26.82600 31.20600
C  -5.76300 27.00500 32.73400
H  -5.39900 25.86700 33.62900
N  -5.63100 23.42900 26.00200
C  -6.34600 22.91300 26.96900
C  -7.28700 21.91000 26.42000
C  -7.04600 21.90900 24.95600
C  -5.95200 22.91600 24.76600
C  -8.27500 21.21200 27.30900
C  -7.67100 21.00000 23.95800
O  -7.30500 20.85900 22.79400
C  -8.90300 20.23200 24.36800
N  -4.14500 25.25800 24.17000
C  -4.63400 24.43000 23.23100
C  -4.26000 24.79200 21.77700
C  -3.57700 26.18000 22.09500
C  -3.49100 26.27500 23.61400
C  -3.31400 23.72400 21.03300
C  -4.28100 27.42400 21.55100
C  -3.68600 28.13400 20.32700
N  -3.10200 26.62700 26.60300
C  -2.48700 27.39600 25.63800
C  -1.63500 28.39200 26.30000
C  -1.95500 28.27100 27.63800
C  -2.79500 27.17700 27.75000
C  -0.78200 29.40900 25.58800
C  -1.76600 28.84800 28.98100
O  -1.10900 29.89100 29.33100
C  -2.40800 27.79100 29.96000
C  -1.27600 27.11800 30.78600
O  -0.51000 26.20000 30.33500
O  -1.43700 27.44300 32.07200
C  -0.79000 26.59900 33.02300
H  -6.83900 22.66200 29.08600
H  -5.87200 22.85200 22.68100
H  -2.19900 27.93700 23.59300
H  -3.93000 25.47300 31.51600
H  -6.51700 24.13900 30.89900
H  -5.21700 22.42300 31.67400
H  -3.67200 23.33500 31.44300
H  -4.41300 22.39300 30.22500
H  -6.72600 26.66000 30.91300
H  -5.33800 27.72700 30.70300
H  -6.77600 27.29300 33.01300
H  -5.14500 27.87900 32.94100
H  -7.95600 21.00500 28.33100
H  -8.34000 20.17400 26.98200
H  -9.12200 21.89400 27.22600
H  -9.59300 20.69400 25.07300
H  -8.51800 19.26700 24.69900
H  -9.52200 19.91100 23.53000
H  -5.17800 24.88000 21.19600
H  -2.59900 26.13700 21.61600
H  -3.28600 22.83400 21.66200
H  -2.29100 24.09600 20.97400
H  -3.87300 23.57100 20.11000
H  -4.39400 28.23500 22.27100
H  -5.25600 27.23000 21.10500
H  -4.38000 28.55100 19.59700
H  -3.02700 27.39500 19.87100
H  -3.01400 28.93700 20.63000
H  0.20200 29.01200 25.83600
H  -0.85900 30.38700 26.06300
H  -1.07300 29.36400 24.53900
H  -2.97600 28.24300 30.77400
H  0.12300 27.07800 33.37800
H  -0.51500 25.61700 32.63700
H  -1.40500 26.46400 33.91200

