158

Mg 53.46200 24.35900 44.82000
C  51.05000 26.71100 43.92200
C  51.35900 21.91300 43.46500
C  56.16900 22.20200 44.76000
C  55.71900 27.03400 45.24800
N  51.55500 24.28300 43.52800
C  50.75800 25.37400 43.40800
C  49.46100 24.96600 42.63300
C  49.41300 23.43600 42.90100
C  50.85700 23.15500 43.25900
C  48.40800 23.06300 43.99200
C  49.52100 25.20500 41.15000
C  50.82000 25.47700 40.46200
H  50.77700 25.98500 39.00700
N  53.73900 22.32800 44.27100
C  52.70400 21.45800 43.84000
C  53.24900 20.09400 43.73300
C  54.58900 20.15200 44.08700
C  54.87400 21.58700 44.40900
C  52.45500 18.95000 43.15300
C  55.49600 19.04700 44.17300
O  55.15000 17.95800 43.91100
C  56.89500 19.16400 44.48900
N  55.69500 24.61900 44.50400
C  56.53800 23.55400 44.74500
C  58.00500 24.00000 45.02600
C  57.76100 25.58600 45.09000
C  56.30600 25.77400 44.92000
C  58.75700 23.33400 46.25600
C  58.65700 26.38000 44.00200
C  58.13600 26.37100 42.56100
N  53.38200 26.43300 44.82500
C  54.32100 27.44200 45.16700
C  53.64000 28.69400 45.27100
C  52.36200 28.49300 44.78300
C  52.24300 27.11100 44.54300
C  54.36800 29.91800 45.68300
C  51.12500 29.11600 44.49300
O  50.81300 30.26100 44.65500
C  50.22800 27.96100 43.95000
C  49.64800 28.43000 42.66700
O  50.26700 28.50800 41.61800
O  48.26900 28.57400 42.67300
C  47.68800 28.60000 41.30500
H  50.58500 21.14900 43.36500
H  57.03800 21.57700 44.97400
H  56.47000 27.77000 45.54500
H  48.56600 25.47200 42.99300
H  49.16200 22.82800 42.03200
H  48.31600 23.88800 44.70000
H  48.58200 22.19600 44.62900
H  47.42700 22.82000 43.58400
H  48.74600 25.95900 41.01000
H  49.15900 24.39300 40.52000
H  51.51000 24.64600 40.60900
H  51.22500 26.40200 40.87300
H  52.96700 18.61200 42.25300
H  51.45500 19.31700 42.92300
H  52.40500 18.05400 43.77200
H  57.15900 18.10600 44.47600
H  56.89100 19.50900 45.52300
H  57.44300 19.82100 43.81400
H  58.60800 23.73800 44.15700
H  58.06600 25.91000 46.08500
H  59.54500 22.66600 45.91000
H  58.05500 22.76600 46.86700
H  59.21300 24.10900 46.87300
H  59.63100 25.89200 43.96500
H  58.82000 27.41900 44.28800
H  57.71800 27.31900 42.22100
H  57.47600 25.52400 42.37400
H  59.01200 26.17000 41.94600
H  55.39500 29.78500 45.34200
H  54.32400 30.07400 46.76100
H  53.99800 30.81800 45.19300
H  49.34400 27.83800 44.57600
H  47.76000 29.62400 40.93800
H  46.66200 28.27200 41.47400
H  48.18200 27.92000 40.61000
Mg -11.57300 38.69700 42.57300
C  -9.96700 35.79200 41.42000
C  -9.12300 40.51200 40.79700
C  -13.56200 41.38400 42.59600
C  -14.20300 36.67900 43.46900
N  -9.90300 38.18100 41.28300
C  -9.46600 36.95400 40.87800
C  -8.19500 37.02400 40.11600
C  -7.76200 38.51600 40.22200
C  -9.01200 39.16200 40.76400
C  -6.42400 38.75900 41.05400
C  -8.41600 36.54500 38.66900
C  -7.26700 35.45400 38.34500
H  -5.99300 35.95300 37.64500
N  -11.35200 40.65800 41.86200
C  -10.23500 41.21400 41.24300
C  -10.42100 42.67900 41.09300
C  -11.68300 42.99600 41.73800
C  -12.23400 41.68200 42.12800
C  -9.38700 43.47700 40.46700
C  -12.26000 44.45500 41.89400
O  -11.65100 45.38100 41.27600
C  -13.48200 44.80500 42.66300
N  -13.63000 39.03700 42.82000
C  -14.14600 40.25300 43.03200
C  -15.48300 40.18600 43.66500
C  -15.82600 38.71900 43.67900
C  -14.41900 38.08400 43.43600
C  -15.50500 40.80700 45.13600
C  -16.75000 38.29600 42.62200
C  -18.17800 38.23200 43.25000
N  -11.92900 36.67500 42.82800
C  -13.00000 36.01200 43.14000
C  -12.80400 34.57100 43.18600
C  -11.47300 34.42300 42.53600
C  -11.07500 35.71500 42.24600
C  -13.84900 33.61100 43.59700
C  -10.45200 33.50700 42.07500
O  -10.32700 32.28600 42.15000
C  -9.52700 34.30800 41.30400
C  -8.28800 34.21200 42.14900
O  -8.20400 34.63100 43.29900
O  -7.32800 33.51800 41.44200
C  -5.95800 33.45500 41.95200
H  -8.27700 41.04400 40.35600
H  -14.12300 42.31800 42.65900
H  -15.03200 36.03100 43.76200
H  -7.55100 36.38900 40.72400
H  -7.57000 38.92400 39.23000
H  -5.86400 37.82900 41.15700
H  -6.55700 39.23000 42.02700
H  -5.80000 39.37900 40.41000
H  -8.37300 37.42300 38.02400
H  -9.39400 36.07900 38.55200
H  -7.87100 34.92300 37.60900
H  -7.02700 34.69400 39.08800
H  -8.39800 43.12800 40.76300
H  -9.41500 44.48600 40.87800
H  -9.44600 43.54100 39.38000
H  -14.31000 44.36000 42.11200
H  -13.64600 45.88300 42.66200
H  -13.37200 44.39700 43.66800
H  -16.12300 40.71900 42.96100
H  -16.15100 38.33000 44.64400
H  -14.53000 41.04700 45.56100
H  -16.05600 40.16800 45.82700
H  -16.06100 41.74000 45.23200
H  -16.55600 37.40900 42.01900
H  -16.75600 39.13400 41.92500
H  -18.57500 37.23900 43.04100
H  -18.64600 39.06000 42.71700
H  -18.29500 38.50300 44.30000
H  -14.46700 33.95900 44.42500
H  -13.36100 32.70700 43.96200
H  -14.45700 33.42300 42.71300
H  -9.43400 33.99500 40.26400
H  -5.30600 33.07000 41.16700
H  -5.93300 32.71400 42.75000
H  -5.56800 34.41500 42.29200

