158

Mg 54.29800 24.31100 44.68800
C  51.58600 26.31500 43.75100
C  52.34000 21.61100 43.61900
C  56.97600 22.39200 44.96900
C  56.03900 27.17700 45.53300
N  52.34100 24.03400 43.57100
C  51.41700 25.00000 43.29300
C  50.18500 24.43000 42.51000
C  50.21400 23.04400 43.24400
C  51.73900 22.86300 43.48600
C  49.28300 22.90100 44.51700
C  50.54900 24.36400 40.97000
C  49.42800 24.34600 39.94600
H  49.74000 24.94100 38.52400
N  54.60600 22.33000 44.26100
C  53.71400 21.38500 43.87300
C  54.36800 20.15900 43.90500
C  55.69100 20.22700 44.43900
C  55.84100 21.67000 44.54900
C  53.80400 18.92800 43.39700
C  56.80300 19.08700 44.64900
O  56.59200 17.97800 44.18200
C  57.95000 19.40900 45.44800
N  56.28100 24.77900 45.02400
C  57.17900 23.81200 45.28000
C  58.50600 24.37100 45.81700
C  58.09300 25.88700 46.13300
C  56.68900 25.97600 45.50500
C  59.05000 23.60000 46.95600
C  59.20600 26.95000 45.75800
C  59.02100 27.71300 44.43900
N  53.88500 26.30100 44.79500
C  54.67400 27.36500 45.21100
C  53.93400 28.61400 45.15000
C  52.71100 28.20800 44.62400
C  52.72200 26.82700 44.39100
C  54.34800 30.01500 45.54500
C  51.40000 28.73200 44.02800
O  50.94700 29.85200 43.88400
C  50.58600 27.45700 43.62700
C  50.05200 27.68700 42.24600
O  50.62700 27.66900 41.23100
O  48.71900 27.89100 42.43000
C  47.98700 28.00600 41.18200
H  51.62500 20.79600 43.48600
H  57.90300 21.92200 45.30200
H  56.64700 28.01300 45.88500
H  49.28700 24.99900 42.75200
H  49.89200 22.38500 42.43700
H  48.50200 22.15400 44.37900
H  48.76800 23.85900 44.59300
H  49.65800 22.71000 45.52200
H  51.08400 23.42800 40.81100
H  51.31200 25.07900 40.66200
H  48.70800 25.06100 40.34500
H  48.96900 23.35700 39.93400
H  54.42400 18.37800 42.68900
H  52.88400 18.99500 42.81500
H  53.50200 18.29100 44.22900
H  57.71700 19.98600 46.34300
H  58.74100 19.88000 44.86400
H  58.47300 18.49100 45.71500
H  59.26300 24.42500 45.03400
H  57.99800 26.01500 47.21200
H  58.38700 22.79000 47.25900
H  59.42300 24.26600 47.73300
H  59.90500 23.04500 46.57000
H  60.21100 26.52700 45.78100
H  59.15500 27.65900 46.58300
H  58.04500 27.46900 44.01900
H  59.83100 27.61600 43.71700
H  58.92900 28.79400 44.54300
H  54.92500 30.43700 44.72300
H  55.04100 29.92900 46.38200
H  53.43000 30.53300 45.82300
H  49.76300 27.27300 44.31800
H  48.59700 28.65500 40.55500
H  47.01000 28.46100 41.34400
H  47.87300 27.06100 40.65100
Mg 17.04100 52.69000 26.86100
C  18.96000 51.08600 29.24900
C  14.76200 53.50000 29.22400
C  15.17300 53.96200 24.47000
C  19.22300 51.27100 24.41000
N  16.84800 52.26500 29.02400
C  17.80300 51.69400 29.84400
C  17.49200 51.84300 31.24000
C  15.99000 52.47000 31.20900
C  15.83200 52.75700 29.71300
C  14.89200 51.55400 31.67600
C  18.49200 52.89400 31.82600
C  18.26000 53.54900 33.17300
H  17.38900 52.78200 34.13700
N  15.22800 53.59400 26.85300
C  14.49500 53.90500 27.95100
C  13.34200 54.74100 27.55300
C  13.33800 54.83400 26.14800
C  14.63800 54.15000 25.78100
C  12.39900 55.27600 28.54000
C  12.26500 55.58400 25.29500
O  12.31500 55.59900 24.04400
C  11.05200 56.25900 25.95300
N  17.12700 52.51600 24.70600
C  16.26400 53.19200 23.96100
C  16.64700 53.19500 22.50100
C  17.91300 52.29600 22.43400
C  18.15300 52.02900 23.93300
C  15.51800 52.54300 21.58900
C  19.10600 52.89000 21.68800
C  19.10400 52.54900 20.17500
N  18.67500 51.37600 26.79400
C  19.46600 50.92700 25.73200
C  20.58000 50.18700 26.20200
C  20.37800 50.11600 27.59800
C  19.22500 50.90300 27.90300
C  21.60100 49.50600 25.36800
C  20.97100 49.68600 28.87200
O  21.90100 48.90200 29.11600
C  20.07100 50.26800 30.03300
C  19.48800 49.19500 30.85700
O  18.91800 48.20100 30.45600
O  19.61100 49.51500 32.19400
C  19.26800 48.44000 33.18400
H  14.01100 53.75000 29.97600
H  14.59100 54.47600 23.70200
H  19.88000 50.83900 23.65200
H  17.54000 50.85200 31.69200
H  15.92200 53.38900 31.79300
H  14.71800 51.85100 32.71100
H  15.34800 50.56900 31.57900
H  14.01400 51.61200 31.03300
H  18.57100 53.69500 31.09200
H  19.42200 52.33900 31.94900
H  17.80900 54.53500 33.06500
H  19.21300 53.83100 33.62100
H  12.48400 56.36200 28.51600
H  12.71300 55.05400 29.56000
H  11.37700 54.98000 28.30200
H  10.47000 55.56500 26.55800
H  10.41400 56.55100 25.11800
H  11.27000 57.13400 26.56400
H  16.84400 54.25600 22.34500
H  17.74600 51.28500 22.06400
H  14.82100 52.03500 22.25600
H  15.89500 51.78000 20.90800
H  14.99600 53.31200 21.01900
H  20.07400 52.51500 22.01800
H  19.13000 53.95500 21.92300
H  19.29900 53.46300 19.61300
H  18.09700 52.27000 19.86400
H  19.85200 51.80500 19.90200
H  21.01400 48.65000 25.03500
H  22.44200 49.06000 25.89800
H  21.89100 50.25600 24.63100
H  20.77300 50.66700 30.76600
H  19.58800 48.89400 34.12100
H  19.72000 47.46500 33.00200
H  18.18200 48.34300 33.19100

