158

Mg 24.06700 -7.16600 45.85200
C  26.35700 -4.87700 44.52600
C  21.81600 -5.99600 43.57700
C  22.32300 -9.81000 46.54900
C  26.86000 -8.65500 47.65400
N  24.19000 -5.78700 44.04300
C  25.23600 -4.94000 43.76000
C  24.98200 -4.15200 42.48500
C  23.41000 -4.24800 42.35300
C  23.09900 -5.42400 43.34100
C  22.58900 -2.93500 42.70300
C  25.79400 -4.77400 41.24200
C  26.44800 -3.62300 40.27900
H  25.85300 -3.36900 38.93800
N  22.23300 -7.76300 45.22000
C  21.43300 -7.13100 44.33200
C  20.15000 -7.77800 44.19200
C  20.21300 -8.92600 45.10100
C  21.60600 -8.93600 45.65300
C  18.95500 -7.43000 43.29000
C  19.09000 -9.86400 45.45100
O  17.97700 -9.72600 44.99000
C  19.24800 -10.93200 46.49500
N  24.61900 -9.06200 46.76600
C  23.60600 -9.87400 47.09900
C  24.03400 -10.99500 48.06300
C  25.44000 -10.57600 48.46400
C  25.65400 -9.34600 47.57500
C  23.02700 -11.30900 49.22300
C  26.48500 -11.68900 48.51500
C  27.63700 -11.64300 49.53100
N  26.16400 -6.76700 46.27600
C  27.19700 -7.48400 46.93300
C  28.40000 -6.64300 47.00400
C  28.11400 -5.68800 45.99300
C  26.74700 -5.75000 45.61100
C  29.65700 -7.01000 47.86500
C  28.74100 -4.58300 45.25000
O  29.83900 -4.03600 45.36900
C  27.62200 -4.05100 44.31200
C  27.35200 -2.60800 44.59600
O  27.24700 -1.99400 45.65300
O  27.31900 -1.90800 43.43100
C  27.04900 -0.47300 43.40700
H  21.04100 -5.65000 42.89000
H  21.73900 -10.70300 46.78000
H  27.65900 -9.07100 48.27100
H  25.21500 -3.09200 42.58900
H  23.19500 -4.57700 41.33600
H  23.26100 -2.09600 42.88500
H  21.98900 -3.02600 43.60800
H  21.95400 -2.66100 41.86100
H  25.09200 -5.34200 40.63100
H  26.57700 -5.43000 41.62000
H  27.51300 -3.84200 40.20200
H  26.33000 -2.65900 40.77400
H  18.64800 -8.35500 42.80300
H  19.27900 -6.73700 42.51400
H  18.05500 -6.98600 43.71500
H  19.46100 -10.40100 47.42200
H  20.03000 -11.64100 46.22300
H  18.37700 -11.57800 46.60900
H  24.06900 -11.90900 47.47000
H  25.37900 -10.23000 49.49600
H  22.46300 -12.19700 48.93800
H  22.26900 -10.54400 49.39300
H  23.42200 -11.62600 50.18800
H  26.86300 -11.91100 47.51700
H  26.03400 -12.63300 48.82000
H  27.75800 -12.56400 50.10000
H  27.41100 -10.83800 50.23000
H  28.50500 -11.64300 48.87200
H  29.41600 -7.19300 48.91200
H  30.30900 -6.14500 47.97500
H  30.16700 -7.90800 47.51700
H  27.87600 -3.99600 43.25300
H  26.27300 -0.22200 44.13000
H  26.75200 -0.22400 42.38800
H  27.96600 0.05500 43.66800
Mg 44.46300 3.69600 48.11800
C  42.39600 6.42400 47.54700
C  41.83700 1.61300 46.97000
C  46.54600 0.96800 48.10100
C  47.15400 5.89500 48.14500
N  42.38300 4.04100 47.18500
C  41.73900 5.22900 47.18500
C  40.22100 5.01700 46.71700
C  40.03400 3.47100 46.75700
C  41.51700 3.02900 46.95700
C  39.15700 2.94800 47.92300
C  39.84700 5.58900 45.38800
C  38.55400 6.45000 45.51000
H  37.62200 6.38600 44.30900
N  44.18600 1.62300 47.76400
C  43.04100 0.97100 47.32600
C  43.26900 -0.47200 47.36400
C  44.63800 -0.69200 47.71100
C  45.17800 0.66900 47.92300
C  42.12600 -1.49700 46.97400
C  45.29000 -2.08800 47.89900
O  44.65900 -3.08900 47.62500
C  46.68600 -2.23300 48.21000
N  46.53200 3.45200 48.04700
C  47.10100 2.23200 48.18200
C  48.64000 2.38500 48.26200
C  48.85400 3.93700 48.15000
C  47.37700 4.46100 48.20400
C  49.44200 1.75800 49.55300
C  49.67900 4.36000 46.94400
C  51.20900 4.35500 47.12500
N  44.72000 5.79100 48.06900
C  45.88800 6.53100 48.06000
C  45.53600 7.89800 47.89000
C  44.13500 7.94200 47.86400
C  43.70900 6.63200 47.86000
C  46.56600 9.02500 47.89500
C  42.90200 8.78800 47.73400
O  42.89300 10.02100 47.58900
C  41.73400 7.80700 47.56400
C  40.68900 7.95800 48.62700
O  40.49300 7.27100 49.60800
O  39.75800 8.90600 48.21000
C  38.79000 9.33600 49.22800
H  41.00100 0.98700 46.65200
H  47.31300 0.20700 48.26300
H  47.99500 6.56200 48.34500
H  39.70000 5.52500 47.52900
H  39.62600 3.06500 45.83200
H  38.69500 3.74100 48.51200
H  39.68100 2.27300 48.60000
H  38.35500 2.33000 47.52000
H  39.68800 4.77700 44.67800
H  40.72900 6.15000 45.07900
H  38.78300 7.51500 45.52300
H  37.92100 6.25700 46.37700
H  42.44700 -2.28200 46.28900
H  41.30300 -1.02700 46.43500
H  41.89100 -2.00800 47.90800
H  47.40200 -1.84400 47.48700
H  46.97800 -3.26900 48.38300
H  46.85400 -1.65200 49.11700
H  49.04600 1.92700 47.36000
H  49.33500 4.24600 49.07800
H  48.96900 0.92300 50.07100
H  49.85400 2.56600 50.15700
H  50.25500 1.27700 49.00900
H  49.46600 5.39600 46.67700
H  49.38500 3.70800 46.12200
H  51.62700 5.27100 46.70800
H  51.59100 3.51300 46.54900
H  51.59500 4.22200 48.13500
H  46.71200 9.50200 48.86500
H  46.23400 9.73600 47.13900
H  47.56000 8.68000 47.61300
H  41.32400 8.00000 46.57200
H  37.85800 9.75700 48.85000
H  39.21200 10.02400 49.96100
H  38.36800 8.48200 49.75900

