158

Mg 41.18900 6.81900 29.50400
C  42.91300 8.44000 32.29000
C  38.92300 5.68400 31.76900
C  39.75100 5.53800 26.92200
C  43.86700 7.91200 27.50100
N  40.99900 7.06800 31.83300
C  41.78500 7.70600 32.72300
C  41.22100 7.48000 34.19200
C  40.05400 6.47500 33.94100
C  39.99100 6.35200 32.42400
C  40.21300 5.02600 34.50100
C  40.78400 8.83600 34.76900
C  40.56700 8.90700 36.23100
H  41.18600 10.07600 37.07200
N  39.48800 5.84700 29.34900
C  38.63200 5.50900 30.41300
C  37.48900 4.84500 29.84800
C  37.64600 4.90600 28.44200
C  39.02200 5.44100 28.17000
C  36.41100 4.29500 30.69700
C  36.55200 4.49100 27.36700
O  36.72900 4.53100 26.15400
C  35.14700 4.22100 27.74900
N  41.73400 6.73700 27.48300
C  40.92200 6.17000 26.57100
C  41.54200 6.20300 25.16900
C  42.73600 7.09100 25.38300
C  42.82400 7.25500 26.88600
C  41.88800 4.73900 24.55300
C  42.69300 8.51400 24.66400
C  41.73800 9.65500 25.18000
N  43.12300 7.82900 29.80500
C  44.02100 8.25800 28.85400
C  45.15900 8.97600 29.51400
C  44.71400 9.07800 30.83000
C  43.47300 8.37900 30.99400
C  46.50100 9.42500 28.88600
C  45.14200 9.55400 32.15100
O  46.15400 10.18600 32.48000
C  43.94700 9.19500 33.12100
C  44.48300 8.43500 34.29300
O  45.26100 7.51300 34.14900
O  43.89200 8.81600 35.52000
C  44.25900 7.99800 36.67100
H  38.16200 5.41000 32.50300
H  39.19100 5.15900 26.06400
H  44.53800 8.19100 26.68600
H  41.99400 7.12700 34.87400
H  39.18500 6.92400 34.42200
H  39.89500 4.18200 33.88900
H  39.59300 4.92700 35.39200
H  41.24000 4.84200 34.81600
H  39.82600 9.12800 34.34100
H  41.41800 9.62900 34.37300
H  40.92200 8.04500 36.79700
H  39.48000 8.93200 36.30900
H  35.54500 4.93500 30.53300
H  36.67400 4.42100 31.74700
H  36.17900 3.23500 30.58600
H  34.60900 5.12200 28.04500
H  35.41400 3.43900 28.46100
H  34.65900 3.82600 26.85900
H  40.76200 6.71800 24.60900
H  43.65300 6.58100 25.08600
H  41.57600 4.66600 23.51200
H  41.32800 3.93800 25.03500
H  42.94800 4.53300 24.70500
H  42.56400 8.46200 23.58300
H  43.73800 8.82100 24.60900
H  42.35700 10.39200 25.69200
H  41.00500 9.29100 25.90100
H  41.16300 10.10000 24.36800
H  46.86500 8.53500 28.37300
H  47.14100 9.58000 29.75500
H  46.46900 10.32700 28.27500
H  43.54900 10.11800 33.54100
H  43.79500 7.04300 36.42700
H  43.73000 8.40500 37.53200
H  45.34400 7.97600 36.77700
Mg 6.77500 53.70900 40.71700
C  6.94800 50.11900 40.56100
C  10.12100 53.71100 39.78800
C  6.44000 56.89300 40.13700
C  3.34600 53.27800 41.57100
N  8.26300 52.07400 40.23700
C  8.11200 50.72600 40.23400
C  9.49000 50.06700 39.69900
C  10.51600 51.18400 39.85300
C  9.58300 52.42800 39.95400
C  11.44500 51.16700 41.10900
C  9.44800 49.45500 38.28500
C  9.10000 50.47200 37.17600
H  7.64000 50.75100 36.72900
N  8.08600 55.11400 39.96900
C  9.46700 54.92200 39.79700
C  10.02800 56.23300 39.70400
C  8.96700 57.14500 39.58300
C  7.75100 56.39900 39.85900
C  11.58900 56.46900 39.54100
C  9.15500 58.62500 39.40300
O  10.25000 59.20600 39.31800
C  7.98100 59.63600 39.10800
N  4.95400 54.81600 40.55500
C  5.24100 56.21800 40.59000
C  3.89300 56.98000 40.83200
C  2.96500 55.90800 41.41800
C  3.76600 54.53700 41.19600
C  4.10500 58.31100 41.72900
C  1.61600 55.84500 40.69400
C  0.44300 56.80800 41.18900
N  5.37900 52.11000 41.00800
C  4.05300 52.07500 41.44900
C  3.68000 50.71300 41.82600
C  4.74300 49.93200 41.39500
C  5.75800 50.79400 40.90600
C  2.43000 50.32500 42.53300
C  5.18500 48.66700 41.32900
O  4.59700 47.62500 41.58700
C  6.48500 48.69700 40.56800
C  6.06900 48.28100 39.21900
O  5.32000 48.92200 38.46600
O  6.50500 47.00000 39.03800
C  5.82800 46.30500 37.91200
H  11.16500 53.72400 39.46700
H  6.31600 57.97800 40.15500
H  2.33800 53.17000 41.97700
H  9.75300 49.28900 40.41500
H  11.04000 51.46100 38.93800
H  11.81300 50.14300 41.04200
H  10.87100 51.31300 42.02400
H  12.34000 51.78700 41.05400
H  8.56500 48.81700 38.27800
H  10.25000 48.83000 37.89100
H  9.63800 50.33800 36.23800
H  9.48800 51.43200 37.51700
H  11.80000 56.39600 38.47500
H  12.08400 55.68600 40.11600
H  11.94700 57.43700 39.89300
H  7.14700 59.23200 38.53400
H  8.38900 60.49500 38.57400
H  7.74700 59.97200 40.11800
H  3.62400 57.21400 39.80200
H  2.71000 56.00700 42.47300
H  5.13800 58.33300 42.07900
H  3.52200 58.21700 42.64500
H  3.83200 59.19900 41.16000
H  1.29100 54.80700 40.63000
H  1.82100 56.15200 39.66900
H  -0.49600 56.40400 41.56800
H  0.19400 57.36800 40.28800
H  0.65900 57.47100 42.02700
H  2.62800 49.53500 43.25800
H  1.67800 49.95500 41.83500
H  2.08100 51.14100 43.16500
H  7.22100 48.04000 41.03100
H  6.55800 45.75000 37.32100
H  5.16100 46.88500 37.27500
H  5.02600 45.70000 38.33600

