158

Mg 2.17400 -1.08700 43.96300
C  5.57600 0.12800 43.49100
C  1.11500 1.65000 42.04400
C  -0.81400 -2.30400 44.07800
C  3.50800 -3.71900 45.71100
N  3.33800 0.63600 42.75700
C  4.65200 0.90600 42.74700
C  4.87200 2.10000 41.85700
C  3.41800 2.68100 41.61500
C  2.52800 1.61400 42.17400
C  3.30200 4.06100 42.33800
C  5.61200 1.46000 40.55600
C  6.85400 2.35500 40.07300
H  7.23800 2.31800 38.57600
N  0.35200 -0.45700 43.07100
C  0.08900 0.72600 42.46700
C  -1.35600 0.95500 42.32900
C  -1.92300 -0.17100 43.03800
C  -0.76600 -1.04900 43.38500
C  -2.06100 2.05800 41.47900
C  -3.43900 -0.42200 43.29200
O  -4.28000 0.30500 42.90900
C  -3.97700 -1.60800 43.99100
N  1.51800 -2.87200 44.56100
C  0.17500 -3.08900 44.63300
C  -0.10800 -4.45200 45.30600
C  1.33300 -5.01000 45.74400
C  2.21400 -3.85400 45.27100
C  -1.14800 -4.58900 46.39500
C  1.78400 -6.38600 45.13400
C  2.58600 -7.37100 46.02900
N  4.10300 -1.73000 44.49000
C  4.52600 -2.78000 45.25400
C  5.94500 -2.76600 45.53800
C  6.34300 -1.63800 44.85400
C  5.22500 -1.05100 44.22000
C  6.67900 -3.80600 46.40100
C  7.53600 -0.91900 44.62400
O  8.68200 -1.14700 44.97500
C  7.10300 0.26900 43.73000
C  7.42700 1.50600 44.40300
O  7.29500 1.74900 45.63600
O  8.06200 2.32500 43.48800
C  8.48900 3.68400 43.98100
H  0.75100 2.60100 41.64800
H  -1.82300 -2.69100 44.23000
H  3.94400 -4.64100 46.10100
H  5.48700 2.86200 42.33400
H  3.24100 2.75200 40.54200
H  4.26000 4.54200 42.53400
H  2.66200 3.88200 43.20200
H  2.72600 4.78000 41.75500
H  4.83500 1.42800 39.79200
H  5.88300 0.40500 40.59100
H  7.61300 2.29700 40.85200
H  6.54900 3.38900 40.23200
H  -2.61400 2.70600 42.15900
H  -2.78900 1.53000 40.86400
H  -1.40400 2.67800 40.86900
H  -4.99500 -1.40300 44.32200
H  -3.46900 -1.70200 44.95100
H  -3.82400 -2.52300 43.41900
H  -0.44600 -4.97800 44.41400
H  1.53300 -4.96200 46.81500
H  -0.79200 -5.14900 47.26000
H  -1.90100 -5.22100 45.92300
H  -1.47400 -3.59600 46.70600
H  2.34200 -6.21000 44.21500
H  0.86600 -6.93000 44.91000
H  2.44600 -7.36100 47.11000
H  3.66100 -7.24800 45.90400
H  2.24500 -8.37100 45.76200
H  7.52100 -3.40900 46.96800
H  7.23600 -4.53100 45.80800
H  6.04700 -4.42900 47.03400
H  7.60100 0.43500 42.77500
H  7.69700 4.34900 43.63500
H  9.45400 3.97000 43.56100
H  8.56400 3.92200 45.04300
Mg 41.47800 41.04000 27.51500
C  41.18400 43.44700 30.14500
C  42.50400 38.79700 29.84900
C  41.93900 38.88700 25.03400
C  40.95800 43.49800 25.32700
N  41.79200 41.12600 29.80900
C  41.53700 42.19100 30.64300
C  41.59900 41.74000 32.05000
C  42.25000 40.31800 31.95000
C  42.23500 40.07000 30.43900
C  43.69700 40.10100 32.48400
C  40.14200 41.68100 32.70400
C  40.13000 42.37400 34.08700
H  39.44700 41.72200 35.39500
N  42.18100 39.12600 27.43700
C  42.50900 38.32000 28.54300
C  42.70400 36.99900 28.15200
C  42.51900 36.95000 26.70300
C  42.17500 38.34300 26.32300
C  43.14800 35.87000 29.07300
C  42.56300 35.83000 25.75300
O  42.04300 35.89500 24.60400
C  43.27100 34.62900 26.15000
N  41.64100 41.28100 25.51700
C  41.71800 40.17400 24.62700
C  41.54400 40.55400 23.15200
C  41.23800 42.03000 23.31300
C  41.20400 42.29300 24.78800
C  42.81800 40.12600 22.34600
C  40.00400 42.54900 22.52300
C  38.64900 41.94100 22.80900
N  41.11900 43.05800 27.66500
C  40.96200 43.97700 26.64800
C  40.75800 45.29800 27.11800
C  40.74000 45.08300 28.49400
C  41.05400 43.76900 28.78400
C  40.33500 46.51700 26.39400
C  40.41400 45.73100 29.77400
O  40.11200 46.88800 30.01500
C  40.78600 44.62700 30.94800
C  41.93800 45.14300 31.74900
O  43.09300 44.95200 31.44200
O  41.54600 45.80100 32.84000
C  42.48000 46.41200 33.68700
H  42.73700 38.00000 30.55900
H  41.76400 38.13200 24.26400
H  40.77300 44.25800 24.56500
H  42.31200 42.41800 32.52000
H  41.62600 39.52400 32.36100
H  43.96500 40.97100 33.08400
H  44.40900 39.94500 31.67300
H  43.71300 39.18100 33.06700
H  39.73200 40.68600 32.87500
H  39.34800 42.14100 32.11500
H  39.61400 43.31700 33.90700
H  41.09500 42.81900 34.33200
H  42.66300 34.94300 28.76500
H  42.95400 35.96000 30.14200
H  44.22700 35.76300 28.96400
H  43.31300 33.95700 25.29300
H  42.69000 34.08400 26.89400
H  44.25400 34.95200 26.49200
H  40.61100 40.07300 22.85700
H  42.07000 42.65600 22.99100
H  43.71300 39.93500 22.93800
H  43.00900 40.93200 21.63800
H  42.59400 39.24200 21.74900
H  40.24300 42.38200 21.47300
H  40.02300 43.63500 22.61300
H  38.57600 41.32800 23.70800
H  38.41700 41.30100 21.95800
H  37.88200 42.70800 22.91300
H  41.19600 47.15100 26.18100
H  39.57500 47.01300 26.99700
H  39.85300 46.33700 25.43300
H  39.97000 44.49400 31.65700
H  43.34000 46.83000 33.16300
H  42.88300 45.84300 34.52500
H  41.88800 47.18000 34.18600

