158

Mg 36.08000 1.13800 30.68000
C  33.53600 2.46500 32.78600
C  38.29100 1.44500 33.10800
C  38.42100 0.37200 28.45100
C  33.63600 1.21900 28.09100
N  35.87700 1.84700 32.73100
C  34.73300 2.14900 33.43600
C  34.98600 2.31200 34.98800
C  36.58400 2.28900 35.03100
C  36.98300 1.89100 33.52500
C  37.18800 3.66800 35.38300
C  34.36900 1.11300 35.81500
C  33.79900 1.45000 37.16900
H  34.29500 2.69800 37.99200
N  38.08400 0.94900 30.76700
C  38.88200 1.03000 31.88600
C  40.18600 0.43300 31.66900
C  40.23200 0.25800 30.23400
C  38.89700 0.56000 29.75000
C  41.28200 0.20300 32.79200
C  41.36400 -0.20600 29.38200
O  41.25200 -0.46700 28.19100
C  42.74800 -0.35100 29.99600
N  36.10000 1.06400 28.49600
C  37.15100 0.56600 27.85900
C  36.81200 0.50700 26.38800
C  35.33000 0.40100 26.34000
C  34.96600 0.87700 27.73700
C  37.46600 1.55200 25.56200
C  34.67000 -1.04700 26.06600
C  33.43800 -0.93000 25.16000
N  33.98500 1.73800 30.38100
C  33.20700 1.73000 29.32200
C  31.91800 2.23800 29.64400
C  31.93300 2.45100 30.98500
C  33.27700 2.25000 31.40600
C  30.75500 2.44800 28.68600
C  31.20700 2.89300 32.14500
O  30.12700 3.39600 32.26300
C  32.17700 2.81900 33.38600
C  32.20800 4.07700 34.10400
O  32.95400 5.01000 33.82900
O  31.28900 4.06300 35.15500
C  31.17300 5.27900 35.97700
H  39.00900 1.47900 33.93000
H  39.06900 -0.04000 27.67500
H  32.91700 1.11300 27.27600
H  34.47800 3.18800 35.39100
H  37.08100 1.53800 35.64500
H  37.99600 3.64700 36.11500
H  36.38200 4.24700 35.83400
H  37.58300 4.19800 34.51700
H  35.15200 0.35500 35.80700
H  33.57100 0.65800 35.22700
H  33.91200 0.63700 37.88600
H  32.75300 1.60700 36.90600
H  42.12200 0.89600 32.76100
H  41.68100 -0.80600 32.68900
H  40.82400 0.12300 33.77800
H  43.45300 -0.58100 29.19700
H  42.83100 -1.06200 30.81800
H  43.04200 0.57000 30.50000
H  37.16200 -0.48200 26.09200
H  34.86000 1.19900 25.76600
H  38.20800 2.09200 26.15100
H  36.78500 2.32700 25.21100
H  37.97600 1.17700 24.67400
H  34.24900 -1.35300 27.02400
H  35.42200 -1.75600 25.72100
H  33.17300 0.09800 24.91600
H  32.61400 -1.35300 25.73600
H  33.57700 -1.43300 24.20300
H  31.03100 2.60500 27.64400
H  30.33400 3.42600 28.91700
H  29.92100 1.75000 28.76700
H  31.88400 1.95000 33.97600
H  32.11700 5.60000 36.41800
H  30.44300 5.10400 36.76700
H  30.82000 6.11800 35.37700
Mg 6.90500 53.90700 41.43000
C  6.53200 50.51500 40.90200
C  10.14100 53.67200 40.08200
C  6.83700 57.21600 40.86800
C  3.57700 54.04700 42.49000
N  8.05900 52.35100 40.47500
C  7.75000 50.96400 40.50300
C  9.00900 50.07700 40.19500
C  10.10600 51.09300 40.30900
C  9.39200 52.50500 40.36200
C  11.03800 50.83600 41.57100
C  8.92500 49.27800 38.85100
C  8.80500 50.22600 37.61600
H  7.37100 50.51400 37.04700
N  8.27600 55.26800 40.56700
C  9.53800 54.99300 40.12100
C  10.21600 56.22700 39.82800
C  9.30000 57.24800 40.16600
C  8.05700 56.59500 40.57400
C  11.61900 56.27200 39.19900
C  9.61200 58.76600 40.24200
O  10.69100 59.13400 39.77900
C  8.66900 59.80200 40.79300
N  5.36800 55.46700 41.71000
C  5.62000 56.79400 41.38000
C  4.35200 57.74300 41.67600
C  3.35200 56.66800 42.17800
C  4.15600 55.32200 42.15900
C  4.53600 58.92500 42.61800
C  2.09500 56.52900 41.21100
C  0.78800 56.86300 41.96500
N  5.38300 52.59000 41.79900
C  4.09900 52.78200 42.26900
C  3.48800 51.50100 42.47800
C  4.40700 50.64000 41.95500
C  5.51700 51.30400 41.48000
C  2.10300 51.17700 42.90400
C  4.66400 49.24400 41.66100
O  3.88600 48.31000 41.81000
C  6.05900 49.09700 40.95900
C  5.75600 48.47700 39.73500
O  5.10600 49.05100 38.85300
O  6.28200 47.15000 39.65700
C  5.96000 46.44500 38.39600
H  11.17700 53.50000 39.78400
H  6.71300 58.20200 40.41400
H  2.51400 54.07300 42.73800
H  9.04300 49.37300 41.02600
H  10.78400 50.86300 39.48700
H  11.49100 51.77400 41.89200
H  11.85400 50.21400 41.20300
H  10.60300 50.22500 42.36300
H  8.11400 48.55000 38.86300
H  9.84400 48.69900 38.76700
H  9.48400 49.92200 36.82000
H  9.22300 51.18600 37.91800
H  11.75800 55.44600 38.50000
H  12.39600 56.17900 39.95800
H  11.72500 57.20300 38.64300
H  7.88700 60.14700 40.11700
H  9.22000 60.72200 40.98600
H  8.13400 59.51800 41.69900
H  4.16900 58.06300 40.65100
H  3.07300 56.82900 43.22000
H  4.74000 59.79700 41.99700
H  5.31000 58.84800 43.38100
H  3.59000 59.03600 43.14800
H  1.88500 55.52100 40.85300
H  2.23800 57.29500 40.44900
H  -0.09600 56.70200 41.34800
H  0.65000 57.89900 42.27300
H  0.59200 56.23900 42.83700
H  2.04700 50.86100 43.94500
H  1.78600 50.34000 42.28200
H  1.43800 52.02300 42.72800
H  6.66200 48.55000 41.68300
H  4.95700 46.01900 38.43800
H  6.65300 45.65300 38.11200
H  6.13300 47.02800 37.49100

