158

Mg 30.12200 58.97000 40.89100
C  27.16300 57.36300 39.76000
C  31.79100 56.22300 39.88300
C  32.99000 60.85100 40.94300
C  28.13700 61.82600 41.49200
N  29.51000 57.09100 39.63700
C  28.24500 56.62300 39.43800
C  28.22600 55.20900 38.90800
C  29.64100 54.74600 39.39800
C  30.42600 56.09300 39.66900
C  29.56000 53.77400 40.68800
C  27.97400 55.14200 37.37500
C  26.69400 54.38200 36.96000
H  25.98900 54.83000 35.67500
N  32.16200 58.55500 40.57300
C  32.70300 57.31500 40.15400
C  34.06400 57.39200 40.23200
C  34.45300 58.67600 40.60800
C  33.17600 59.48300 40.65100
C  34.92500 56.20100 39.96700
C  35.87500 59.02700 40.97400
O  36.74100 58.18700 40.99400
C  36.23400 60.44700 41.40900
N  30.50900 60.97900 41.24300
C  31.75000 61.51100 41.20900
C  31.74100 62.98000 41.75800
C  30.24300 63.21400 42.09900
C  29.59400 61.91700 41.59400
C  32.82100 63.46300 42.80200
C  29.59800 64.53600 41.51600
C  28.46500 65.14400 42.35100
N  28.03800 59.53200 40.90400
C  27.40000 60.70000 41.12600
C  25.94400 60.59400 40.87000
C  25.83700 59.27400 40.35300
C  27.14000 58.70000 40.42500
C  24.88300 61.74300 41.05400
C  24.91800 58.23700 39.95000
O  23.69700 58.27100 39.82000
C  25.67100 56.86000 39.74100
C  25.16700 55.93600 40.85600
O  25.78400 55.57800 41.87300
O  23.91100 55.59900 40.50300
C  23.06700 55.00000 41.58000
H  32.18200 55.22800 39.66100
H  33.87100 61.46700 41.13600
H  27.46400 62.63100 41.79500
H  27.44200 54.62500 39.39000
H  30.26400 54.21800 38.67600
H  28.57100 53.52500 41.07300
H  30.17600 54.24300 41.45500
H  30.02400 52.86500 40.30600
H  28.91900 54.78000 36.96900
H  27.78500 56.16700 37.05800
H  26.02700 54.25600 37.81300
H  27.07700 53.38200 36.75600
H  35.56400 56.25800 39.08500
H  34.35200 55.28300 40.09500
H  35.70200 56.05200 40.71700
H  35.81200 61.08200 40.63100
H  37.30200 60.36900 41.20600
H  35.92800 60.67000 42.43100
H  31.99700 63.57100 40.87900
H  30.07900 63.23500 43.17600
H  32.14600 63.65300 43.63700
H  33.30000 64.37200 42.43800
H  33.50000 62.62700 42.97100
H  29.26200 64.29900 40.50600
H  30.49400 65.15400 41.47600
H  28.55000 66.22500 42.46300
H  28.41000 64.72800 43.35700
H  27.51500 64.97500 41.84400
H  25.07800 62.33400 41.94900
H  23.90400 61.26700 41.12400
H  24.92700 62.31300 40.12600
H  25.54400 56.40500 38.75900
H  23.39800 55.19500 42.60000
H  23.13200 53.91300 41.63500
H  22.05600 55.29700 41.30000
Mg -5.00500 24.63500 27.39700
C  -3.47400 26.49500 29.79300
C  -6.12200 22.36200 29.65100
C  -6.29300 22.78700 24.86700
C  -3.47300 26.82400 24.84500
N  -4.80600 24.47100 29.41100
C  -4.25700 25.39900 30.22100
C  -4.65800 25.15200 31.64100
C  -4.97800 23.61500 31.64100
C  -5.31900 23.43000 30.12000
C  -3.94600 22.58100 32.09200
C  -5.68400 26.15500 32.14800
C  -6.21200 26.03900 33.59300
H  -5.70000 24.97000 34.51300
N  -6.14000 22.86100 27.29300
C  -6.40300 22.05100 28.31500
C  -7.32400 20.97000 27.83300
C  -7.48900 21.13100 26.44500
C  -6.59800 22.25200 26.14000
C  -7.98000 20.01500 28.80800
C  -8.27900 20.32200 25.45100
O  -8.35800 20.62200 24.27800
C  -9.13200 19.24700 25.90600
N  -4.94100 24.83900 25.14400
C  -5.59300 23.93200 24.40900
C  -5.66500 24.35100 22.90300
C  -4.78500 25.69900 22.95600
C  -4.36000 25.77600 24.38000
C  -5.03700 23.29000 22.02500
C  -5.59100 27.01100 22.49200
C  -4.79400 27.87900 21.52700
N  -3.63900 26.26900 27.31300
C  -3.22200 27.05700 26.25700
C  -2.40600 28.13100 26.82800
C  -2.48400 27.95700 28.25600
C  -3.24600 26.85700 28.43000
C  -1.65000 29.05600 26.04100
C  -2.00900 28.48600 29.50900
O  -1.29000 29.44900 29.74300
C  -2.74600 27.59000 30.59100
C  -1.76400 27.04800 31.55400
O  -1.06300 26.16300 31.20600
O  -1.88000 27.59100 32.76700
C  -1.00100 27.02600 33.84200
H  -6.48800 21.80100 30.51300
H  -6.67700 22.26600 23.98800
H  -3.14400 27.48100 24.03700
H  -3.82100 25.26300 32.33000
H  -5.92500 23.46600 32.15800
H  -3.12800 23.16000 32.52100
H  -3.54100 21.96800 31.28700
H  -4.38500 21.93600 32.85400
H  -6.52900 26.21500 31.46100
H  -5.33500 27.18800 32.14200
H  -7.29700 25.95900 33.65800
H  -5.98600 27.02100 34.00900
H  -7.37700 19.15800 29.10800
H  -8.90500 19.71500 28.31500
H  -8.23300 20.47600 29.76300
H  -9.91500 19.55800 26.59900
H  -8.49300 18.56100 26.46100
H  -9.52700 18.72300 25.03600
H  -6.68400 24.43900 22.52500
H  -3.95300 25.52900 22.27200
H  -4.73700 22.45700 22.66100
H  -4.18300 23.61100 21.43000
H  -5.74600 22.85300 21.32100
H  -5.88200 27.63300 23.33800
H  -6.46100 26.68100 21.92300
H  -5.52000 27.96900 20.71900
H  -3.92600 27.40400 21.07100
H  -4.43700 28.80400 21.98000
H  -2.18200 29.45000 25.17500
H  -0.80900 28.57000 25.54500
H  -1.31600 29.88100 26.67100
H  -3.43600 28.20700 31.16700
H  -0.31000 27.81300 34.14600
H  -0.51200 26.12100 33.48000
H  -1.58700 26.66500 34.68700

