158

Mg 40.77500 7.90100 29.70300
C  42.42400 9.40900 32.53300
C  38.43900 6.81400 31.93100
C  39.38900 6.35000 27.06600
C  43.56100 8.89100 27.71600
N  40.56600 8.11400 31.96500
C  41.18800 8.80100 32.88400
C  40.48700 8.84300 34.23100
C  39.28400 7.96300 34.01200
C  39.48300 7.50400 32.57900
C  39.21900 6.69900 34.98400
C  40.05400 10.30000 34.59600
C  39.31200 10.48900 35.87400
H  40.01600 11.25800 36.98900
N  39.11100 6.76200 29.54500
C  38.29100 6.42600 30.55700
C  37.10500 5.68000 29.95700
C  37.40700 5.52300 28.55800
C  38.71300 6.22300 28.33800
C  35.93000 5.23300 30.87600
C  36.64300 4.76300 27.51500
O  37.13100 4.35200 26.50900
C  35.24200 4.35100 27.87700
N  41.45700 7.60800 27.73100
C  40.65900 6.90900 26.80500
C  41.39700 6.81100 25.44800
C  42.62500 7.84500 25.64700
C  42.59200 8.06600 27.17600
C  41.85000 5.32200 25.05500
C  42.63800 9.13900 24.80200
C  41.37400 10.06800 24.81800
N  42.50900 8.93900 29.89700
C  43.53400 9.26500 29.01500
C  44.50900 10.06500 29.67100
C  44.14300 10.17000 31.03800
C  42.89800 9.50000 31.13800
C  45.89500 10.55400 29.08200
C  44.49700 10.69800 32.34800
O  45.38100 11.45000 32.60600
C  43.35400 10.29200 33.34200
C  43.83200 9.73500 34.58000
O  44.28200 8.60600 34.61400
O  43.71300 10.62400 35.65300
C  43.72700 9.99600 36.96800
H  37.71600 6.51200 32.69200
H  38.79700 5.94700 26.24100
H  44.25100 9.41400 27.05000
H  41.17400 8.51200 35.00900
H  38.35000 8.52600 34.02600
H  39.83900 6.92500 35.85200
H  39.68100 5.89500 34.41100
H  38.19100 6.66800 35.34500
H  39.38800 10.68200 33.82200
H  40.89800 10.99000 34.58700
H  38.90200 9.65200 36.43800
H  38.46000 11.15500 35.73500
H  34.95300 5.60100 30.56100
H  36.10200 5.59900 31.88800
H  35.89900 4.14400 30.85200
H  34.69200 5.23300 28.20500
H  35.38400 3.73200 28.76300
H  34.74300 3.88000 27.02900
H  40.79200 7.08400 24.58400
H  43.52400 7.40300 25.21800
H  41.54800 5.20200 24.01500
H  41.38700 4.63400 25.76300
H  42.92700 5.22200 25.18900
H  42.67200 8.85000 23.75100
H  43.61000 9.59500 24.98900
H  40.65700 9.67600 25.53900
H  40.82400 10.04700 23.87700
H  41.78800 11.06300 24.97700
H  46.34300 9.90100 28.33300
H  46.57400 10.62200 29.93200
H  45.82800 11.54600 28.63600
H  42.91800 11.25900 33.59200
H  44.43500 9.18600 37.13900
H  42.72000 9.61700 37.14200
H  43.97600 10.73400 37.73100
Mg 53.10300 23.41100 45.28300
C  50.56300 25.63300 44.19600
C  51.30300 20.81200 44.27200
C  55.93000 21.66000 45.69300
C  54.77800 26.37000 46.37700
N  51.28000 23.25300 44.07200
C  50.29800 24.23800 43.85700
C  49.00000 23.65800 43.26400
C  49.16100 22.23100 43.84600
C  50.67400 22.03400 44.08100
C  48.32600 21.97900 45.09600
C  49.06200 23.79800 41.68000
C  47.73600 24.34000 41.03100
H  47.10300 23.43200 39.88100
N  53.56000 21.49100 44.90000
C  52.66200 20.51900 44.53200
C  53.26600 19.23700 44.43100
C  54.58100 19.36000 44.94500
C  54.75700 20.89000 45.23000
C  52.63100 18.01900 43.89500
C  55.71100 18.31700 45.12600
O  55.46400 17.14400 44.87400
C  57.09400 18.52600 45.60600
N  55.04000 23.94600 45.85300
C  56.04000 23.02600 45.90400
C  57.36800 23.70500 46.32900
C  56.98200 25.13600 46.45100
C  55.46900 25.14300 46.24400
C  58.12100 23.02600 47.51100
C  57.72500 26.17100 45.53300
C  58.77200 26.99900 46.30100
N  52.78400 25.53200 45.40100
C  53.47500 26.56400 45.96200
C  52.67900 27.79000 46.00100
C  51.53200 27.49600 45.22800
C  51.63900 26.12400 44.90400
C  53.05600 29.06600 46.67200
C  50.41500 28.03900 44.59700
O  49.99500 29.17400 44.54600
C  49.73700 26.79400 43.86000
C  49.73600 27.15300 42.34700
O  50.74000 27.41300 41.70000
O  48.48200 27.52700 41.94500
C  48.48800 28.24500 40.63300
H  50.66300 19.94400 44.10100
H  56.88500 21.13800 45.78300
H  55.42400 27.17200 46.73900
H  48.07300 24.12000 43.60200
H  48.79900 21.61100 43.02600
H  48.99200 21.63500 45.88700
H  47.62500 21.19900 44.79900
H  47.81600 22.84600 45.51500
H  49.30800 22.85500 41.19000
H  49.92400 24.38800 41.37000
H  48.04300 25.25200 40.51900
H  46.93300 24.57300 41.73000
H  51.55600 17.99400 44.07500
H  52.97100 17.13700 44.43800
H  52.85600 17.80700 42.85000
H  57.60200 18.82400 44.68900
H  57.51300 17.58500 45.96400
H  57.33300 19.22600 46.40600
H  57.98800 23.49300 45.45800
H  57.19300 25.32200 47.50400
H  57.53600 22.28200 48.05200
H  58.45100 23.73000 48.27600
H  59.10000 22.61600 47.26200
H  57.01800 26.80400 44.99600
H  58.35200 25.75100 44.74600
H  58.34600 28.00100 46.24700
H  59.63300 26.99900 45.63300
H  59.04900 26.68800 47.30800
H  52.17000 29.51100 47.12500
H  53.34600 29.75200 45.87600
H  53.79600 29.00100 47.47000
H  48.68700 26.73700 44.14800
H  47.55400 28.78500 40.78500
H  48.43100 27.54800 39.79700
H  49.30400 28.92000 40.37700

