158

Mg 26.86100 49.50200 27.39800
C  24.86700 50.96800 29.92500
C  29.25200 48.80800 29.77800
C  28.79100 48.46300 24.91200
C  24.54200 50.74700 25.05900
N  26.97000 49.76900 29.56600
C  26.04700 50.35000 30.40900
C  26.55900 50.31400 31.89000
C  27.99600 49.79400 31.78800
C  28.08700 49.46700 30.26800
C  29.16500 50.72800 32.28500
C  25.62100 49.45100 32.90300
C  25.07000 50.32500 34.11200
H  24.99700 49.59300 35.43300
N  28.76000 48.61100 27.35300
C  29.50500 48.35000 28.44500
C  30.66900 47.62900 27.99300
C  30.65800 47.62800 26.60400
C  29.36400 48.23200 26.22900
C  31.66800 46.98100 28.91500
C  31.63800 47.15900 25.54400
O  31.48600 47.27700 24.32700
C  32.95900 46.70800 26.00100
N  26.80500 49.86000 25.24400
C  27.66900 49.24200 24.48600
C  27.27700 49.32200 23.03800
C  25.82300 49.94400 22.97700
C  25.64200 50.12200 24.52300
C  28.31800 49.92700 22.02500
C  24.73100 49.08600 22.24500
C  24.17600 47.82300 23.01700
N  25.13300 50.72200 27.40200
C  24.31700 51.14000 26.40300
C  23.19200 51.93000 26.93000
C  23.34000 51.88600 28.31600
C  24.55600 51.16700 28.57100
C  22.07000 52.66300 26.21400
C  22.73500 52.21600 29.55900
O  21.75900 52.87200 29.88200
C  23.63800 51.58500 30.66100
C  23.97200 52.61200 31.60700
O  24.93400 53.35600 31.61400
O  23.04300 52.56400 32.60800
C  23.31300 53.34600 33.79300
H  30.02300 48.55500 30.50900
H  29.37300 47.96700 24.13300
H  23.66500 51.06400 24.49200
H  26.58700 51.37600 32.13200
H  28.23100 48.90800 32.37900
H  29.60700 51.22000 31.41900
H  29.91200 50.07000 32.72900
H  28.94300 51.46900 33.05200
H  26.07800 48.57600 33.36500
H  24.79400 49.02500 32.33500
H  24.07900 50.65000 33.79600
H  25.63500 51.24200 34.28300
H  31.29800 47.05700 29.93700
H  32.70600 47.28800 28.78200
H  31.61200 45.90600 28.74500
H  33.28900 47.53000 26.63600
H  33.63100 46.59200 25.15100
H  32.88100 45.80500 26.60600
H  27.16400 48.31200 22.64500
H  25.73500 50.93600 22.53500
H  29.02200 50.56100 22.56400
H  27.90700 50.54600 21.22800
H  28.86000 49.11800 21.53600
H  25.11600 48.65700 21.32000
H  23.80400 49.63200 22.07100
H  23.33500 48.09400 23.65500
H  25.05300 47.54700 23.60200
H  23.92200 47.06500 22.27600
H  21.95600 52.07600 25.30200
H  22.37500 53.65900 25.89300
H  21.20400 52.54100 26.86400
H  23.13800 50.78900 31.21300
H  24.37400 53.43700 34.02700
H  22.75300 52.84600 34.58300
H  22.89400 54.35000 33.72300
Mg 17.22000 51.99000 26.46800
C  18.79700 50.45800 29.09700
C  14.71100 53.00600 28.63200
C  15.65200 53.56100 23.79500
C  19.51000 50.58400 24.37900
N  16.74100 51.58000 28.57900
C  17.63800 51.12400 29.46900
C  17.28500 51.46800 30.90100
C  15.80700 51.90100 30.73900
C  15.73000 52.20400 29.24400
C  14.70700 50.92300 31.37900
C  18.26200 52.41100 31.55700
C  18.60900 52.22300 33.04700
H  17.57800 51.60300 33.93500
N  15.50800 53.10800 26.28100
C  14.63200 53.44600 27.33000
C  13.64700 54.42200 26.81400
C  13.85600 54.57600 25.38500
C  15.03300 53.71200 25.09300
C  12.53800 55.08600 27.73400
C  13.13700 55.43200 24.33600
O  13.53000 55.51000 23.15700
C  12.05100 56.36600 24.75000
N  17.42100 51.91500 24.34000
C  16.77100 52.77000 23.47900
C  17.30900 52.61600 21.98700
C  18.40200 51.53400 22.17800
C  18.48500 51.32400 23.68100
C  16.15000 52.43500 20.99200
C  19.74800 51.99400 21.53000
C  20.42700 53.20100 22.16800
N  18.69800 50.72100 26.60700
C  19.58200 50.23000 25.68000
C  20.67600 49.37300 26.25500
C  20.41200 49.50600 27.57100
C  19.19500 50.28000 27.75700
C  21.69400 48.55600 25.58700
C  20.82600 49.17400 28.91100
O  21.82100 48.47200 29.20900
C  19.87100 49.76600 29.99900
C  19.36000 48.73400 30.99300
O  18.67100 47.77500 30.76300
O  19.92000 48.98400 32.26800
C  19.57300 48.08300 33.32700
H  13.95200 53.33600 29.34500
H  15.29100 54.06100 22.89300
H  20.34100 50.22500 23.76800
H  17.41000 50.45800 31.29100
H  15.64800 52.80800 31.32100
H  15.25800 50.01500 31.62400
H  13.93900 50.72800 30.63000
H  14.15000 51.36300 32.20600
H  17.72600 53.36000 31.57000
H  19.18200 52.44700 30.97300
H  18.65200 53.17300 33.57800
H  19.55000 51.69800 33.21000
H  11.52600 55.13600 27.33400
H  12.98000 56.06300 27.93200
H  12.45300 54.47300 28.63100
H  11.64400 56.95900 23.93100
H  12.34100 57.00500 25.58400
H  11.23900 55.69900 25.04000
H  17.72700 53.60000 21.77300
H  18.07200 50.58600 21.75500
H  15.26700 52.04400 21.49800
H  16.38300 51.67700 20.24500
H  15.84800 53.35200 20.48500
H  19.59000 52.18600 20.46900
H  20.57100 51.29100 21.65900
H  19.94100 53.48000 23.10400
H  20.36900 54.11200 21.57200
H  21.50400 53.04600 22.23400
H  21.28700 48.17300 24.65100
H  21.98900 47.66500 26.14100
H  22.63000 49.09200 25.42900
H  20.39000 50.56900 30.52200
H  20.16700 48.35000 34.20000
H  19.83900 47.09200 32.95900
H  18.48900 48.14300 33.42500

