158

Mg -2.54000 17.61200 26.36500
C  -2.81200 14.92600 28.89800
C  -2.85200 19.83100 28.92400
C  -2.30700 19.92400 24.03800
C  -2.94400 15.03900 23.96000
N  -2.82400 17.34400 28.62600
C  -2.91400 16.22400 29.42700
C  -2.94800 16.61300 30.95300
C  -3.23600 18.18100 30.85000
C  -2.94300 18.47400 29.41900
C  -4.72000 18.56900 31.28600
C  -1.67100 16.14000 31.78100
C  -1.10100 16.94200 32.97500
H  -0.69100 16.23200 34.27600
N  -2.61500 19.62700 26.44800
C  -2.74300 20.37000 27.61600
C  -2.67700 21.73400 27.22900
C  -2.40700 21.82100 25.79400
C  -2.39000 20.41900 25.37300
C  -2.69800 22.85300 28.19200
C  -2.24900 23.02700 24.88200
O  -2.15600 22.90100 23.64600
C  -2.00500 24.32300 25.49200
N  -2.58700 17.43200 24.25300
C  -2.47300 18.57000 23.48200
C  -2.32100 18.20700 21.95100
C  -2.68700 16.65300 21.98500
C  -2.73400 16.32500 23.49900
C  -3.08700 19.06100 20.93900
C  -1.97400 15.64800 21.04800
C  -2.82500 14.72700 20.15400
N  -2.84500 15.44000 26.38100
C  -2.97000 14.56500 25.30300
C  -2.97900 13.22000 25.77800
C  -3.01600 13.36200 27.18400
C  -2.84200 14.65900 27.48400
C  -3.00000 11.93700 24.99500
C  -3.09800 12.56200 28.38800
O  -3.19300 11.36300 28.50400
C  -3.01100 13.60500 29.54600
C  -1.92000 13.11800 30.35300
O  -0.74600 13.48700 30.33900
O  -2.44100 12.22900 31.25300
C  -1.40400 11.61900 32.20300
H  -2.85100 20.56700 29.73100
H  -2.30400 20.70900 23.27900
H  -3.07300 14.30200 23.16500
H  -3.75100 16.04300 31.41900
H  -2.51100 18.60800 31.54300
H  -4.71700 18.83400 32.34300
H  -5.43300 17.76500 31.10400
H  -5.11200 19.40700 30.70900
H  -0.85500 15.93300 31.08900
H  -1.98200 15.22200 32.27900
H  -1.80300 17.64400 33.42600
H  -0.27400 17.57700 32.65700
H  -2.99300 22.59000 29.20800
H  -3.43300 23.57100 27.82800
H  -1.74400 23.37800 28.14800
H  -1.68900 25.04800 24.74200
H  -1.13500 24.09000 26.10600
H  -2.85800 24.56800 26.12600
H  -1.24100 18.25100 21.81100
H  -3.72000 16.63200 21.63600
H  -3.75600 19.63200 21.58300
H  -3.75000 18.48400 20.29400
H  -2.45800 19.70500 20.32400
H  -1.37900 15.06600 21.75300
H  -1.32500 16.17200 20.34700
H  -2.46800 14.64900 19.12700
H  -3.88000 14.99600 20.20900
H  -2.76000 13.74600 20.62500
H  -2.19200 11.93200 24.26300
H  -4.01800 11.86300 24.61300
H  -2.81300 11.14400 25.72000
H  -3.97200 13.54800 30.05800
H  -1.83700 10.85300 32.84600
H  -1.10900 12.45500 32.83800
H  -0.50700 11.21200 31.73600
Mg 54.21000 23.46200 44.82000
C  51.71900 25.66600 43.80600
C  52.48600 20.94200 43.40500
C  56.81200 21.39600 45.61200
C  56.12800 26.23800 45.82000
N  52.41300 23.42000 43.58600
C  51.44200 24.32800 43.39200
C  50.35200 23.79500 42.43500
C  50.36200 22.32200 42.90200
C  51.86000 22.16500 43.23400
C  49.28100 21.96700 43.99700
C  50.67700 23.90600 40.89000
C  49.72400 24.60400 39.88200
H  50.42600 25.28600 38.68000
N  54.59300 21.43900 44.46200
C  53.70400 20.59900 43.92200
C  54.23800 19.22000 43.95700
C  55.40200 19.24900 44.77500
C  55.70600 20.74000 44.96800
C  53.52500 17.98800 43.25100
C  56.23000 17.98700 45.20900
O  55.91400 16.91300 44.77900
C  57.55800 18.10200 45.89600
N  56.18300 23.79300 45.49500
C  56.96800 22.74600 45.86400
C  58.22600 23.23000 46.58800
C  58.25700 24.79000 46.34100
C  56.74100 24.98900 45.85300
C  58.25600 22.65800 48.06400
C  59.20600 25.23900 45.17400
C  59.73200 26.65100 45.38700
N  53.98500 25.50500 44.93600
C  54.80900 26.48000 45.44200
C  54.08200 27.71200 45.47100
C  52.92800 27.49800 44.75500
C  52.86000 26.09800 44.50300
C  54.59100 28.90600 46.23300
C  51.62700 27.99800 44.26400
O  51.24300 29.13600 44.27200
C  50.86300 26.88400 43.67200
C  50.40400 27.18200 42.30000
O  51.02700 27.55900 41.37800
O  49.07000 27.02300 42.22600
C  48.45600 28.02700 41.32900
H  52.00100 20.07700 42.94800
H  57.59500 20.72300 45.97100
H  56.65500 27.05500 46.31700
H  49.43700 24.34700 42.64800
H  50.00700 21.70300 42.07800
H  48.51400 22.73200 44.11900
H  49.71300 21.69000 44.95800
H  48.80800 21.04400 43.65900
H  50.92400 22.90900 40.52500
H  51.61500 24.44500 40.76100
H  49.15400 25.32600 40.46700
H  49.04600 23.86800 39.45100
H  52.97800 17.35700 43.95100
H  54.41800 17.47300 42.89600
H  52.98700 18.22400 42.33300
H  57.98100 17.09900 45.96500
H  57.31700 18.44900 46.90100
H  58.24500 18.72700 45.32500
H  59.06300 22.79000 46.04700
H  58.34600 25.28300 47.30800
H  58.65600 21.64400 48.08300
H  57.26200 22.64700 48.51200
H  58.93600 23.30200 48.62200
H  58.59300 25.27700 44.27400
H  60.02700 24.55200 44.96900
H  59.68100 26.93700 46.43800
H  59.23300 27.36500 44.73000
H  60.77500 26.68400 45.07100
H  54.75900 28.62600 47.27300
H  53.87700 29.72400 46.14700
H  55.45800 29.26000 45.67400
H  49.95200 26.72400 44.24700
H  48.86400 29.03000 41.45500
H  47.36900 27.97100 41.38300
H  48.60300 27.69200 40.30200

