158

Mg 1.98200 -0.97000 44.17000
C  5.36000 -0.20100 43.53600
C  1.13200 1.90300 42.47400
C  -1.16300 -2.27900 43.98400
C  3.20700 -4.17000 45.36800
N  3.10600 0.54300 43.01000
C  4.47900 0.68600 43.01100
C  4.89400 2.04200 42.29800
C  3.52800 2.84700 42.39500
C  2.50300 1.72000 42.66600
C  3.52900 3.93300 43.42200
C  5.33700 1.75000 40.85600
C  6.35000 2.79700 40.34200
H  5.82800 3.68000 39.18400
N  0.23500 -0.29400 43.40700
C  0.08600 0.93900 42.77300
C  -1.34300 1.09400 42.47200
C  -2.04600 -0.05200 42.98500
C  -0.96400 -0.95600 43.45900
C  -1.96600 2.31400 41.70300
C  -3.57600 -0.27700 43.07100
O  -4.35200 0.56000 42.57500
C  -4.23900 -1.39700 43.80800
N  1.16200 -2.92600 44.62900
C  -0.24200 -3.15600 44.58100
C  -0.55200 -4.61300 45.09400
C  0.83700 -5.17400 45.51000
C  1.81500 -4.03900 45.10900
C  -1.68200 -4.75700 46.11300
C  1.25900 -6.54000 44.87300
C  2.26800 -7.37000 45.55800
N  3.84400 -1.98500 44.57900
C  4.14800 -3.25600 45.00400
C  5.55600 -3.34900 45.19000
C  6.06500 -2.23300 44.55700
C  5.01000 -1.42500 44.18600
C  6.28300 -4.45200 45.71600
C  7.29400 -1.59400 44.16800
O  8.49900 -1.97900 44.30400
C  6.92500 -0.21300 43.49400
C  7.68200 0.83600 44.23000
O  7.74100 0.94600 45.45500
O  8.25700 1.81100 43.39600
C  8.96600 2.91800 44.03200
H  0.77900 2.83700 42.03200
H  -2.15900 -2.72600 44.02300
H  3.54300 -5.12200 45.78400
H  5.69600 2.49100 42.88400
H  3.34700 3.37200 41.45700
H  4.25900 3.94100 44.23200
H  2.58300 3.91900 43.96300
H  3.64800 4.83000 42.81500
H  4.53900 1.58100 40.13200
H  5.83300 0.78300 40.77400
H  7.29400 2.30800 40.10100
H  6.59000 3.48400 41.15300
H  -1.20300 2.60700 40.98200
H  -1.98900 3.11100 42.44600
H  -2.92700 2.26000 41.19100
H  -5.25600 -1.10400 44.07000
H  -3.66600 -1.70000 44.68400
H  -4.10400 -2.30100 43.21500
H  -0.94500 -5.19700 44.26200
H  0.79500 -5.19200 46.59900
H  -2.15300 -5.71000 45.87100
H  -2.40800 -3.95700 45.96900
H  -1.23300 -4.78100 47.10600
H  1.78400 -6.15400 43.99900
H  0.43700 -7.07300 44.39500
H  2.05800 -8.43600 45.47000
H  2.30100 -7.13300 46.62100
H  3.22300 -7.13700 45.08700
H  5.60100 -4.99700 46.36900
H  7.20800 -4.19400 46.23100
H  6.64500 -5.19600 45.00500
H  7.28100 -0.20000 42.46400
H  10.01800 2.75200 43.80400
H  8.77900 3.06400 45.09600
H  8.70600 3.83300 43.50000
Mg 30.10300 58.41000 40.17300
C  27.27300 56.67500 39.19800
C  31.97700 55.63800 39.37400
C  33.10000 60.39100 39.94000
C  28.31100 61.22100 40.55500
N  29.68500 56.35800 39.25600
C  28.43300 55.87800 39.10200
C  28.53300 54.31100 38.88100
C  30.08700 53.96100 39.15400
C  30.62000 55.38500 39.33300
C  30.37600 52.97600 40.28300
C  28.13800 53.91900 37.34000
C  28.70800 54.70700 36.20200
H  27.81400 55.53000 35.26600
N  32.25300 58.06900 39.88200
C  32.76600 56.79400 39.55200
C  34.19100 56.93300 39.41200
C  34.57900 58.25700 39.69200
C  33.30400 58.97000 39.83400
C  35.05900 55.77100 38.99100
C  36.03600 58.74500 39.59100
O  36.91400 57.96600 39.23200
C  36.50800 60.19800 39.99900
N  30.67000 60.51900 40.08800
C  31.88000 61.10200 40.06700
C  31.86800 62.65400 40.22600
C  30.39600 62.74100 40.77700
C  29.74300 61.43600 40.48300
C  32.93000 63.05200 41.28900
C  29.71800 63.95300 39.96800
C  29.41200 65.27000 40.74500
N  28.18600 58.88600 39.90200
C  27.57600 60.07800 40.18500
C  26.16100 59.89300 40.21800
C  25.96900 58.64400 39.65800
C  27.28600 58.07000 39.51800
C  25.14600 60.95300 40.50900
C  25.03100 57.72000 39.20300
O  23.79400 57.78100 39.13400
C  25.83800 56.34000 38.88600
C  25.28300 55.20600 39.68900
O  25.06400 55.23000 40.84100
O  24.84700 54.19400 38.89100
C  23.92000 53.20500 39.59600
H  32.51500 54.69400 39.26100
H  34.00200 61.00400 39.88000
H  27.73100 62.10700 40.82300
H  27.87600 53.86700 39.62900
H  30.53300 53.67500 38.20100
H  31.06000 53.34800 41.04600
H  30.88300 52.09200 39.89800
H  29.44400 52.62200 40.72400
H  27.07900 54.16900 37.29600
H  28.29400 52.85100 37.19200
H  29.36600 54.09800 35.58100
H  29.31200 55.48600 36.66700
H  35.81100 56.04100 38.24900
H  34.40500 54.98500 38.61400
H  35.42800 55.39000 39.94300
H  36.08500 60.91200 39.29200
H  37.58600 60.27400 39.86000
H  36.45300 60.54700 41.03000
H  32.12000 63.17800 39.30500
H  30.36200 62.77600 41.86600
H  32.64100 63.80200 42.02500
H  33.81300 63.40400 40.75600
H  33.21300 62.23000 41.94600
H  28.78000 63.70600 39.47100
H  30.29500 64.19900 39.07600
H  28.44200 65.68900 40.47600
H  30.13100 66.07700 40.60400
H  29.31700 65.00400 41.79800
H  25.19800 61.71700 39.73200
H  25.28900 61.56200 41.40200
H  24.09800 60.72500 40.70100
H  25.71500 56.11900 37.82600
H  23.84200 52.26400 39.05300
H  22.93700 53.65000 39.75800
H  24.24000 52.93100 40.60100

