158

Mg 0.05100 6.89300 26.79700
C  1.22200 9.35500 29.14800
C  0.05000 4.58100 29.31200
C  -0.60800 4.65400 24.49400
C  0.44300 9.35400 24.25400
N  0.65000 6.97500 28.95000
C  0.89400 8.09000 29.68000
C  0.88800 7.73100 31.15200
C  0.84100 6.15800 31.19300
C  0.49300 5.86100 29.72200
C  2.08200 5.45200 31.67800
C  -0.42300 8.38600 31.78500
C  -0.42800 8.29800 33.34000
H  0.81300 7.91000 34.16400
N  -0.36600 4.83600 26.89700
C  -0.27100 4.12300 28.01100
C  -0.63800 2.78300 27.73200
C  -0.86800 2.71700 26.28500
C  -0.53700 4.11000 25.81900
C  -0.70500 1.73400 28.78400
C  -1.21800 1.58000 25.44500
O  -1.21300 1.63700 24.17200
C  -1.52600 0.20600 26.03300
N  -0.02900 7.02600 24.65600
C  -0.44300 5.95800 23.98400
C  -0.58900 6.30200 22.52800
C  -0.35900 7.80600 22.36100
C  0.04600 8.13500 23.82200
C  0.26100 5.36200 21.63100
C  -1.64400 8.66100 21.94600
C  -1.33400 10.00400 21.28100
N  0.79300 8.83500 26.64300
C  0.88400 9.73500 25.54100
C  1.33400 11.05000 26.02000
C  1.41900 10.93600 27.39700
C  1.11000 9.58700 27.74200
C  1.49900 12.37300 25.20600
C  1.80800 11.64000 28.62400
O  2.27400 12.76900 28.79400
C  1.69200 10.59200 29.76000
C  2.92400 10.65600 30.56100
O  3.94800 10.03600 30.32900
O  2.74300 11.35300 31.79000
C  3.80300 11.36800 32.79700
H  0.06600 3.93300 30.19000
H  -0.90800 3.99200 23.67900
H  0.47400 10.10400 23.46100
H  1.81200 8.10700 31.59300
H  0.01500 5.80600 31.81000
H  1.89000 5.07200 32.68100
H  2.95000 6.11100 31.68600
H  2.20700 4.52400 31.12000
H  -1.26100 7.78000 31.43900
H  -0.65100 9.43200 31.58100
H  -1.20400 7.59900 33.65200
H  -0.76900 9.28300 33.65700
H  -1.68200 1.85800 29.25100
H  -0.01600 2.00100 29.58600
H  -0.45000 0.84200 28.21300
H  -1.85800 -0.44800 25.22700
H  -2.28100 0.22000 26.82000
H  -0.56400 -0.17000 26.38200
H  -1.61500 6.16500 22.18600
H  0.43700 7.99000 21.63900
H  0.80300 4.61300 22.20800
H  0.90600 6.03000 21.06000
H  -0.43300 4.86900 20.95000
H  -2.17900 8.89700 22.86600
H  -2.18700 7.99800 21.27300
H  -1.50100 10.84700 21.95200
H  -1.85800 10.07700 20.32800
H  -0.26600 9.99400 21.06200
H  1.45900 12.25700 24.12300
H  2.46900 12.77700 25.49600
H  0.77000 13.14500 25.45200
H  0.82900 10.97300 30.30700
H  4.48500 12.13900 32.43800
H  4.41300 10.49100 33.01400
H  3.38300 11.71800 33.74000
Mg 17.73300 -0.91500 27.46000
C  16.29200 0.45100 30.40100
C  19.59900 -2.96800 29.43400
C  18.86000 -2.21600 24.71600
C  15.67400 1.29400 25.51300
N  17.99500 -1.12300 29.67100
C  17.30800 -0.47400 30.70400
C  17.74800 -0.90400 32.11500
C  19.00900 -1.81000 31.73200
C  18.92600 -1.99600 30.18800
C  20.37000 -1.23800 32.21900
C  16.60200 -1.59100 32.86300
C  16.49200 -1.22600 34.38100
H  17.82000 -0.64900 35.11600
N  19.12100 -2.40300 27.12700
C  19.67400 -3.21300 28.02800
C  20.36200 -4.32000 27.35400
C  20.08900 -4.16500 25.95800
C  19.33300 -2.88900 25.88300
C  20.99400 -5.44400 28.11200
C  20.57200 -4.98700 24.81400
O  20.14800 -4.87100 23.68100
C  21.46200 -6.06400 25.23000
N  17.16000 -0.52700 25.43900
C  18.01000 -1.10900 24.53600
C  17.78800 -0.54800 23.12400
C  16.77000 0.62800 23.35800
C  16.48000 0.47600 24.81500
C  19.03600 -0.24600 22.22300
C  15.55400 0.59000 22.39000
C  15.90900 0.63900 20.86900
N  16.30400 0.54000 27.80000
C  15.51600 1.29000 26.94600
C  14.46400 1.99600 27.68500
C  14.77600 1.66000 29.07700
C  15.87000 0.79200 29.08800
C  13.40200 2.99300 27.13700
C  14.30400 1.91700 30.43900
O  13.36700 2.55800 30.92500
C  15.34200 1.14200 31.29200
C  16.12600 2.18800 32.03900
O  17.04300 2.83800 31.58400
O  15.57000 2.27000 33.31400
C  16.05400 3.41800 34.08800
H  20.14600 -3.66700 30.07100
H  19.28700 -2.54900 23.76700
H  15.08900 2.09800 25.06100
H  17.97500 -0.00900 32.69400
H  18.84900 -2.76800 32.22800
H  20.87400 -1.99500 32.82000
H  20.23700 -0.29700 32.75300
H  21.02800 -1.17200 31.35300
H  16.72200 -2.65300 32.64800
H  15.68000 -1.23300 32.40600
H  16.10500 -2.03000 35.00700
H  15.72700 -0.47000 34.20800
H  20.29900 -6.27400 28.23700
H  21.24900 -5.20100 29.14300
H  21.97000 -5.79800 27.78200
H  22.34900 -5.60300 25.66500
H  21.78900 -6.47700 24.27600
H  20.90800 -6.79000 25.82600
H  17.28100 -1.40100 22.67200
H  17.27300 1.59400 23.30900
H  18.95200 0.73200 21.75000
H  19.04900 -1.03300 21.46900
H  19.90800 -0.32900 22.87200
H  14.90400 1.43200 22.62800
H  15.00200 -0.32900 22.58600
H  15.11500 1.24600 20.43300
H  15.90200 -0.41500 20.59200
H  16.90700 0.98300 20.59900
H  12.96000 3.52200 27.98200
H  12.67400 2.38500 26.59900
H  13.78400 3.80800 26.52300
H  14.70000 0.49400 31.88900
H  17.08000 3.70100 33.85300
H  16.11700 3.18200 35.15100
H  15.41400 4.29600 34.00500

