158

Mg 26.89100 49.50000 26.39200
C  24.83500 50.59200 29.23500
C  29.01100 48.29000 28.69400
C  28.57800 48.62300 23.85700
C  24.41200 50.94000 24.36000
N  26.88900 49.54400 28.67300
C  25.96500 49.89300 29.61400
C  26.38700 49.54000 31.07100
C  27.84900 49.10300 30.82300
C  27.92600 48.98900 29.31000
C  28.81500 50.15400 31.46100
C  25.45600 48.46800 31.73500
C  24.93400 48.78300 33.17100
H  25.96600 49.42700 34.13700
N  28.56300 48.59400 26.34000
C  29.36700 48.16300 27.33800
C  30.64000 47.68000 26.73600
C  30.53500 47.91700 25.32100
C  29.21100 48.37300 25.11400
C  31.76300 47.12000 27.61700
C  31.54400 47.74400 24.23700
O  31.38200 47.98800 23.03800
C  32.97600 47.44300 24.61100
N  26.53000 49.73400 24.41700
C  27.37500 49.20200 23.56900
C  26.89300 49.29300 22.12100
C  25.51600 50.07500 22.22800
C  25.40400 50.27300 23.77300
C  27.86800 49.68100 20.98100
C  24.33000 49.26100 21.69700
C  23.08500 50.03800 21.38100
N  25.07900 50.74400 26.65300
C  24.13100 51.16000 25.68500
C  23.00200 51.71400 26.35900
C  23.20000 51.61000 27.76900
C  24.51700 50.94200 27.89500
C  21.77300 52.29900 25.74200
C  22.65000 51.69100 29.10000
O  21.63600 52.17400 29.54100
C  23.64900 51.05200 30.09700
C  24.05900 52.07900 30.98400
O  24.94300 52.93000 30.81400
O  23.28800 52.06700 32.14800
C  23.66100 53.11700 33.16800
H  29.75000 47.92200 29.40800
H  29.19900 48.35000 23.00100
H  23.68900 51.36400 23.65900
H  26.33300 50.45900 31.65600
H  28.10000 48.12900 31.24100
H  29.84800 49.87400 31.25900
H  28.67700 50.07300 32.53900
H  28.56500 51.14800 31.08800
H  25.98000 47.53000 31.91800
H  24.52400 48.39300 31.17400
H  24.61000 47.81300 33.54900
H  23.98000 49.31000 33.15900
H  31.64500 47.46000 28.64600
H  32.69800 47.64800 27.42800
H  31.68800 46.03300 27.60300
H  33.65700 47.24500 23.78300
H  32.86300 46.44100 25.02400
H  33.32600 48.16500 25.34800
H  26.50200 48.30300 21.88800
H  25.53600 51.10600 21.87600
H  28.75600 50.19800 21.34300
H  27.29100 50.38200 20.37900
H  28.07500 48.85100 20.30500
H  24.12900 48.59600 22.53700
H  24.61800 48.60100 20.87900
H  22.37700 49.53500 22.04000
H  22.73000 50.10900 20.35300
H  23.26500 51.04800 21.75000
H  21.33400 51.44300 25.22900
H  21.97400 53.09000 25.02000
H  21.07100 52.71800 26.46200
H  23.18500 50.18100 30.55900
H  23.68800 54.01000 32.54400
H  24.62200 52.99600 33.66900
H  22.84600 53.16200 33.89100
Mg 9.79900 47.36900 26.29200
C  7.60700 47.71900 28.92100
C  12.33300 48.35300 28.43000
C  11.86400 47.43500 23.68400
C  7.07000 47.27800 24.03900
N  9.85600 48.16500 28.32600
C  8.87200 48.06700 29.24900
C  9.41800 48.23400 30.70300
C  10.81200 48.87400 30.43600
C  11.04700 48.43700 28.97800
C  10.77200 50.42600 30.57400
C  9.47400 46.93400 31.53600
C  10.47800 46.96200 32.75800
H  10.08400 46.08100 34.00800
N  11.89000 47.64500 26.10000
C  12.75600 47.98500 27.10500
C  14.08300 48.11300 26.58200
C  13.95900 47.71200 25.18700
C  12.53400 47.60700 24.94300
C  15.34400 48.56000 27.35800
C  15.06300 47.47500 24.23200
O  14.87500 47.01300 23.13800
C  16.49300 47.50900 24.69100
N  9.47800 47.40000 24.19200
C  10.51600 47.39700 23.31800
C  10.14500 47.38000 21.87000
C  8.60200 47.12600 21.97500
C  8.35200 47.22000 23.46600
C  10.47000 48.61200 21.06100
C  8.13800 45.79200 21.27300
C  7.48500 45.92600 19.86100
N  7.72300 47.49700 26.35100
C  6.66800 47.51000 25.40300
C  5.41500 47.39800 26.09300
C  5.72200 47.34900 27.47900
C  7.16200 47.51500 27.58400
C  4.18200 47.43300 25.35600
C  5.18700 47.27000 28.76600
O  4.03400 47.24300 29.19800
C  6.37700 47.39400 29.78500
C  6.61700 46.04900 30.42200
O  7.11200 45.10000 29.81300
O  6.18300 46.01100 31.80600
C  6.49700 44.71400 32.51300
H  13.17100 48.54100 29.10400
H  12.57700 47.44200 22.85800
H  6.17300 47.07200 23.45100
H  8.85000 48.96800 31.27500
H  11.60000 48.42200 31.03800
H  10.10200 50.72000 31.38200
H  10.46500 51.00100 29.70000
H  11.76600 50.72600 30.90400
H  9.63400 46.05500 30.91200
H  8.49200 46.67200 31.93100
H  10.47400 47.99600 33.10400
H  11.42200 46.65200 32.31000
H  15.13800 48.82600 28.39500
H  15.75900 49.44000 26.86600
H  16.12100 47.80300 27.25300
H  16.65700 48.51000 25.09000
H  17.01200 47.30000 23.75500
H  16.73000 46.67500 25.35100
H  10.57900 46.46400 21.46900
H  7.97500 47.93400 21.59900
H  9.58000 49.22000 20.89900
H  11.04300 48.46000 20.14600
H  11.05800 49.25200 21.71900
H  7.35300 45.42200 21.93300
H  8.94600 45.06400 21.34800
H  7.44800 46.97600 19.57000
H  6.50700 45.45300 19.76900
H  8.13300 45.49400 19.09900
H  3.75100 46.43300 25.31000
H  4.31900 47.66200 24.29900
H  3.46000 48.01800 25.92600
H  6.14000 48.24700 30.42100
H  6.45300 44.75900 33.60100
H  7.50500 44.31800 32.39100
H  5.72900 43.98800 32.24600

