158

Mg 7.15700 1.68900 28.15700
C  8.96400 0.51200 30.89900
C  5.66300 4.01900 30.22500
C  5.55000 2.96900 25.49100
C  8.40400 -0.85900 26.18000
N  7.36500 2.27600 30.26200
C  8.00500 1.52000 31.26100
C  7.81800 2.11700 32.68700
C  6.51700 3.04800 32.39000
C  6.48800 3.12100 30.88000
C  5.20000 2.39100 33.02600
C  9.04500 2.83400 33.28900
C  9.49100 2.43900 34.70700
H  9.92100 3.57200 35.65900
N  5.81200 3.30600 27.86200
C  5.38300 4.15500 28.86100
C  4.58300 5.18500 28.25700
C  4.65400 5.00700 26.84500
C  5.37800 3.71300 26.67000
C  3.90400 6.35100 28.94200
C  4.08600 5.88800 25.66100
O  4.13800 5.51400 24.54000
C  3.20100 7.20800 25.89100
N  6.93600 1.02100 26.16100
C  6.26400 1.77700 25.24900
C  6.38600 1.11300 23.80800
C  7.45100 -0.06000 24.05300
C  7.49000 -0.05000 25.53900
C  5.06700 0.60800 23.12900
C  8.83100 0.20000 23.43700
C  9.50500 -0.96900 22.65900
N  8.39600 0.17800 28.40500
C  8.83000 -0.77900 27.49600
C  9.90800 -1.56700 28.15300
C  9.96100 -1.14600 29.46800
C  8.99600 -0.10300 29.60500
C  10.77700 -2.56500 27.45800
C  10.64500 -1.28200 30.70000
O  11.55000 -2.04700 30.92600
C  10.01000 -0.29000 31.73100
C  9.52200 -0.99300 32.94800
O  8.60300 -1.84100 32.83400
O  10.19900 -0.58300 34.05900
C  9.42100 -0.90200 35.26800
H  5.20400 4.75100 30.89300
H  5.16000 3.23900 24.50700
H  8.79400 -1.75900 25.70000
H  7.47000 1.24200 33.23700
H  6.52600 4.10100 32.67300
H  4.78000 3.13000 33.70700
H  5.43200 1.44000 33.50600
H  4.55100 2.17800 32.17700
H  8.77100 3.88900 33.31000
H  9.90200 2.62700 32.64900
H  10.39000 1.82500 34.66400
H  8.67500 1.90500 35.19400
H  4.24000 7.30100 28.52600
H  4.21600 6.38300 29.98600
H  2.82300 6.21600 28.92000
H  3.09300 7.77100 24.96400
H  3.58000 7.86200 26.67700
H  2.23300 6.82800 26.21600
H  6.77500 1.95100 23.22900
H  7.22800 -1.04100 23.63400
H  4.55600 0.21800 24.00900
H  5.13500 -0.14000 22.34000
H  4.49400 1.45300 22.74500
H  9.54900 0.40300 24.23200
H  8.88700 1.09800 22.82200
H  10.32800 -1.32200 23.28000
H  9.94800 -0.53300 21.76300
H  8.91900 -1.85700 22.41800
H  11.28000 -2.07800 26.62300
H  10.32900 -3.50900 27.15100
H  11.71800 -2.78700 27.96100
H  10.73500 0.47600 32.00900
H  10.00300 -0.73000 36.17300
H  8.97700 -1.89500 35.19700
H  8.57100 -0.24600 35.45900
Mg 34.71200 3.56800 29.74500
C  32.33400 4.16500 32.36800
C  37.08500 3.57000 32.28500
C  36.79700 3.17600 27.37300
C  32.10500 3.92900 27.51300
N  34.67200 3.81500 32.09800
C  33.59100 4.02600 32.86800
C  33.99200 3.90100 34.37400
C  35.56500 4.22900 34.33000
C  35.84600 3.88400 32.76200
C  36.01200 5.72500 34.64200
C  33.60600 2.55300 35.07700
C  33.06500 2.76800 36.48600
H  33.69800 3.90900 37.36000
N  36.72600 3.43400 29.84300
C  37.50200 3.35600 30.94400
C  38.90100 3.08300 30.50300
C  38.84900 3.02600 29.04900
C  37.47000 3.24600 28.65100
C  40.07700 2.78100 31.43900
C  39.91900 2.68700 28.08300
O  39.70200 2.64300 26.92400
C  41.29800 2.38600 28.70500
N  34.47800 3.65400 27.73300
C  35.50800 3.48400 26.94900
C  35.18400 3.56700 25.40100
C  33.66000 3.61400 25.49500
C  33.35100 3.76200 27.02000
C  35.77000 4.67500 24.58400
C  32.97900 2.28000 24.87100
C  32.63900 1.15100 25.76600
N  32.69400 3.93000 29.92100
C  31.75300 4.02800 28.86700
C  30.43200 4.25100 29.43800
C  30.66400 4.32400 30.85100
C  32.04900 4.15100 31.04900
C  29.16200 4.20500 28.65900
C  29.97800 4.44600 32.07700
O  28.85000 4.78500 32.34500
C  31.11500 4.30200 33.13900
C  31.13700 5.58400 33.93800
O  31.42900 6.73500 33.54800
O  30.67400 5.34100 35.16300
C  30.45700 6.58600 35.98600
H  37.80300 3.55800 33.10800
H  37.50100 3.00800 26.55500
H  31.42900 4.08100 26.66900
H  33.61700 4.68100 35.03800
H  36.04300 3.53200 35.01800
H  36.78600 6.06900 33.95600
H  36.30000 5.83100 35.68800
H  35.16800 6.39200 34.46300
H  34.45100 1.86500 35.06200
H  32.77300 2.19500 34.47200
H  33.25300 1.90000 37.11700
H  32.03000 3.10900 36.51400
H  39.72300 2.84400 32.46800
H  40.91900 3.44800 31.25100
H  40.42200 1.75700 31.29800
H  41.58000 3.27900 29.26400
H  42.05100 2.27000 27.92500
H  41.26600 1.45100 29.26300
H  35.64000 2.69500 24.93200
H  33.32800 4.50900 24.96900
H  35.03400 5.25500 24.02700
H  36.44800 4.22500 23.85900
H  36.30300 5.39700 25.20200
H  33.77500 1.85700 24.25900
H  32.13400 2.64700 24.28900
H  31.58100 1.11900 26.02700
H  33.15200 1.19300 26.72700
H  32.95800 0.16400 25.43100
H  28.62700 5.15400 28.65100
H  28.58400 3.42000 29.14700
H  29.35500 3.83700 27.65200
H  30.90700 3.40700 33.72600
H  29.74800 7.32400 35.61200
H  31.36100 7.11400 36.28700
H  30.14100 5.99000 36.84300

