158

Mg 25.33600 0.94500 29.61700
C  27.46100 0.98400 32.18600
C  22.69100 1.34000 31.69000
C  23.24700 0.57900 26.95100
C  28.10800 0.40400 27.40600
N  25.09800 1.01800 31.73200
C  26.12800 1.13100 32.59900
C  25.55600 1.44900 34.05100
C  24.04400 1.27600 33.86700
C  23.93300 1.21200 32.37400
C  23.47200 0.02800 34.57500
C  26.06400 2.80000 34.70800
C  26.81800 2.77000 36.11800
H  26.66700 3.74700 37.25300
N  23.25500 0.89100 29.37000
C  22.32300 1.16900 30.34500
C  20.96500 1.20200 29.83400
C  21.09100 0.98800 28.44400
C  22.61200 0.84900 28.14600
C  19.68700 1.14000 30.71300
C  20.01000 0.84200 27.37000
O  20.37900 0.60600 26.20700
C  18.54500 1.01300 27.72400
N  25.68800 0.43300 27.43600
C  24.63200 0.46400 26.56900
C  25.08900 0.63000 25.16700
C  26.63000 0.84200 25.24900
C  26.87400 0.56200 26.76800
C  24.72900 -0.56500 24.19900
C  27.11400 2.26800 24.74400
C  27.27100 3.40900 25.73600
N  27.39000 0.63100 29.70100
C  28.33000 0.34700 28.77100
C  29.60400 0.18600 29.41200
C  29.33200 0.46700 30.78000
C  27.94900 0.73600 30.90300
C  30.93200 -0.06400 28.77700
C  29.84000 0.57600 32.16100
O  30.98200 0.51900 32.57700
C  28.65300 1.01600 33.10200
C  28.58600 0.10000 34.32400
O  28.09200 -1.00500 34.32900
O  29.19400 0.62700 35.52500
C  29.31200 -0.24800 36.71800
H  21.81700 1.50900 32.32200
H  22.60600 0.70800 26.07700
H  28.99500 0.45100 26.77100
H  26.00100 0.69200 34.69700
H  23.44400 2.13800 34.15700
H  24.15000 -0.28800 35.36800
H  23.34900 -0.84900 33.94000
H  22.48700 0.24800 34.98600
H  25.16000 3.29300 35.06700
H  26.66500 3.31100 33.95700
H  27.88400 2.77200 35.89400
H  26.77900 1.80000 36.61200
H  19.82000 1.16800 31.79400
H  19.34200 0.12700 30.50300
H  18.94400 1.86100 30.37200
H  18.28900 0.12900 28.30700
H  17.94200 1.07400 26.81800
H  18.25000 1.88700 28.30600
H  24.68300 1.54500 24.73500
H  27.28000 0.13000 24.74100
H  24.27900 -0.02900 23.36300
H  24.08700 -1.36000 24.58000
H  25.61900 -1.04000 23.78500
H  26.38300 2.60200 24.00800
H  28.05000 2.09200 24.21300
H  28.28500 3.71100 25.47500
H  26.96700 3.10400 26.73800
H  26.61000 4.20800 25.40000
H  31.11700 0.15200 27.72500
H  31.24500 -1.09800 28.91900
H  31.64800 0.61700 29.23800
H  28.60700 2.05500 33.42800
H  29.29900 -1.30000 36.43300
H  28.57800 -0.13100 37.51500
H  30.29800 -0.02900 37.12900
Mg 36.14300 50.06500 24.48800
C  36.59100 48.26200 27.59500
C  34.98500 52.71400 26.36000
C  35.57100 51.54100 21.70000
C  37.39200 47.17700 22.86200
N  35.80600 50.40900 26.84800
C  36.07300 49.54700 27.84200
C  35.75300 50.24000 29.20000
C  35.03400 51.52500 28.75000
C  35.32200 51.60400 27.22100
C  33.55000 51.48600 28.98300
C  37.04900 50.42900 30.02400
C  36.98700 50.42300 31.58900
H  35.60700 50.52900 32.26400
N  35.48300 51.90400 24.09100
C  35.09200 52.87000 24.98600
C  34.66300 53.99300 24.23100
C  34.64600 53.66700 22.82000
C  35.18500 52.28700 22.80700
C  34.29300 55.29600 24.94700
C  34.11700 54.44200 21.63100
O  34.08100 53.96400 20.50700
C  33.54300 55.80200 21.86600
N  36.17800 49.32800 22.56400
C  36.05300 50.24200 21.59100
C  36.56400 49.68600 20.21800
C  37.07500 48.25600 20.61300
C  36.87200 48.19900 22.13700
C  35.43300 49.51700 19.17600
C  38.57300 47.95800 20.08200
C  39.72000 48.64500 20.69000
N  36.75900 48.14700 25.01900
C  37.29200 47.10200 24.27800
C  37.57500 46.00200 25.12700
C  37.37900 46.40300 26.41400
C  36.85900 47.74200 26.34100
C  38.16400 44.71800 24.67700
C  37.46300 45.90800 27.77800
O  37.75600 44.83600 28.27600
C  36.89600 47.08300 28.60200
C  35.70100 46.65200 29.25600
O  34.57900 46.60100 28.76900
O  36.04900 46.32300 30.50200
C  35.22300 45.38600 31.34300
H  34.58700 53.55000 26.93900
H  35.44100 52.00300 20.72000
H  37.92700 46.38100 22.33800
H  35.08200 49.60600 29.77800
H  35.52000 52.38300 29.21500
H  33.25200 52.32300 29.61400
H  33.27100 50.69600 29.68100
H  32.96000 51.33200 28.07900
H  37.50200 51.36100 29.68600
H  37.72400 49.60000 29.81300
H  37.66500 51.16500 32.01000
H  37.46800 49.54700 32.02400
H  34.71300 55.37800 25.95000
H  33.21200 55.42700 24.91600
H  34.65500 56.09600 24.30200
H  32.93400 56.27200 21.09400
H  34.33900 56.53700 21.97900
H  32.88200 55.79600 22.73300
H  37.42600 50.27900 19.91200
H  36.33200 47.54200 20.25700
H  34.43600 49.47400 19.61300
H  35.57100 48.65000 18.53100
H  35.57000 50.37100 18.51200
H  38.54900 48.33200 19.05900
H  38.73400 46.88000 20.11700
H  40.04600 49.53300 20.14800
H  40.58200 47.98900 20.57300
H  39.58000 48.99200 21.71400
H  37.42600 44.10800 24.15600
H  38.66600 44.21500 25.50300
H  38.98600 44.86000 23.97500
H  37.65900 47.42400 29.30100
H  34.42100 45.87600 31.89400
H  35.74700 44.95800 32.19800
H  34.76800 44.53600 30.83500

