158

Mg 25.42400 1.05400 29.32800
C  27.46500 1.00600 32.17000
C  22.68700 1.91700 31.30800
C  23.40100 1.31200 26.57200
C  28.06700 0.12600 27.31100
N  25.10700 1.32400 31.50500
C  26.12200 1.35300 32.48100
C  25.60000 1.67700 33.90200
C  24.03900 1.84700 33.61200
C  23.87100 1.64000 32.06600
C  23.11900 0.83200 34.39400
C  26.16800 2.93600 34.67300
C  26.76600 2.74300 36.08000
H  26.61200 3.84000 37.11200
N  23.32000 1.48000 28.94100
C  22.39000 1.84200 29.88500
C  21.10800 2.17600 29.33000
C  21.36000 1.99600 27.88600
C  22.74400 1.57600 27.72400
C  19.79700 2.43600 30.12600
C  20.24500 2.08000 26.70800
O  20.59700 1.88900 25.59700
C  18.91100 2.50500 26.96900
N  25.62500 0.62600 27.24200
C  24.68800 0.85500 26.31400
C  25.31100 0.87200 24.85000
C  26.75900 0.42700 25.11400
C  26.83700 0.38600 26.65000
C  24.45200 0.08600 23.87400
C  27.85200 1.40900 24.57600
C  29.00800 0.73300 23.86700
N  27.41300 0.61900 29.62000
C  28.39100 0.26100 28.70800
C  29.66600 0.05000 29.43500
C  29.34600 0.37300 30.79500
C  27.96100 0.67400 30.89500
C  30.90400 -0.45500 28.95300
C  29.86800 0.39600 32.15300
O  30.97200 0.16200 32.60400
C  28.63500 0.87200 33.07400
C  28.50300 -0.17600 34.15100
O  28.36600 -1.35400 33.88900
O  28.71500 0.34500 35.45200
C  29.02300 -0.65100 36.55300
H  21.89500 2.17000 32.01500
H  22.80800 1.43700 25.66300
H  28.81900 -0.34700 26.67500
H  25.80000 0.83000 34.55800
H  23.65300 2.85800 33.74200
H  22.62200 0.13000 33.72400
H  22.44300 1.36700 35.06100
H  23.65300 0.20600 35.10900
H  25.39100 3.69900 34.72900
H  26.98400 3.41200 34.12900
H  27.83400 2.74800 35.86400
H  26.67200 1.76600 36.55400
H  19.94500 2.52900 31.20200
H  19.06600 1.67200 29.86000
H  19.26000 3.34400 29.85100
H  18.35100 2.73800 26.06300
H  18.82200 3.47800 27.45200
H  18.33100 1.79200 27.55500
H  25.35600 1.94300 24.65200
H  26.98200 -0.60100 24.82900
H  23.61100 -0.44600 24.31800
H  25.23600 -0.55800 23.47800
H  24.09800 0.78600 23.11700
H  28.32000 1.96500 25.38800
H  27.24800 2.09700 23.98600
H  29.99700 1.16500 24.02100
H  28.73900 0.78300 22.81200
H  29.15800 -0.30900 24.14700
H  30.86400 -1.53500 28.80700
H  31.59900 -0.09100 29.71000
H  31.02700 0.03400 27.98700
H  28.72400 1.68400 33.79500
H  28.23300 -0.58200 37.30100
H  29.97600 -0.42100 37.03000
H  29.07500 -1.64000 36.09700
Mg 5.33300 54.42400 41.20600
C  4.98300 50.87200 41.04500
C  8.52400 54.12200 40.29300
C  5.41400 57.79600 41.00700
C  2.01700 54.60800 42.19300
N  6.47400 52.64600 40.46300
C  6.26200 51.31000 40.61600
C  7.50400 50.50900 40.42500
C  8.64100 51.56600 40.42600
C  7.83600 52.85200 40.42800
C  9.71800 51.44400 41.55900
C  7.62500 49.50900 39.32200
C  6.97600 49.94700 38.01900
H  7.91700 50.37100 36.97100
N  6.73300 55.86300 40.65800
C  8.03800 55.48700 40.39200
C  8.75700 56.65900 40.02400
C  7.89700 57.76100 40.22400
C  6.62400 57.18400 40.64200
C  10.18700 56.62600 39.48600
C  8.19000 59.28400 40.08700
O  9.28200 59.81300 39.84100
C  7.04700 60.23400 40.00700
N  3.93300 55.99500 41.63900
C  4.23000 57.29800 41.58000
C  3.06700 58.23200 41.83000
C  1.99000 57.21400 42.35500
C  2.63000 55.86400 42.15400
C  3.40300 59.47200 42.72200
C  0.58300 57.32500 41.70000
C  -0.05300 58.72800 41.84500
N  3.73800 53.10300 41.37900
C  2.45100 53.32800 41.87800
C  1.75400 52.05700 42.12000
C  2.68200 51.05100 41.81500
C  3.87600 51.74500 41.32700
C  0.44900 51.90700 42.89200
C  3.03700 49.72700 41.98200
O  2.38400 48.92500 42.60400
C  4.49300 49.52700 41.36100
C  4.42400 48.55600 40.34600
O  4.06500 48.82600 39.19700
O  4.79100 47.28800 40.78100
C  4.83800 46.24100 39.71500
H  9.56300 54.08800 39.95900
H  5.33800 58.88500 41.01600
H  0.97900 54.68900 42.52300
H  7.63400 49.94300 41.34800
H  9.28200 51.68000 39.55200
H  9.78300 52.34600 42.16600
H  10.62400 51.34100 40.96100
H  9.54900 50.58400 42.20800
H  7.30900 48.52400 39.66400
H  8.69500 49.31700 39.23900
H  6.23300 50.72900 38.17300
H  6.36900 49.11100 37.67200
H  10.12800 56.51400 38.40300
H  10.69200 55.71400 39.80300
H  10.75700 57.50500 39.78800
H  6.21100 59.81700 39.44400
H  7.25100 61.06800 39.33600
H  6.99300 60.57800 41.04000
H  2.63600 58.52600 40.87300
H  1.94900 57.47100 43.41400
H  3.10400 60.36500 42.17300
H  4.45000 59.58000 43.00700
H  2.83200 59.46500 43.65000
H  -0.18100 56.63000 42.04700
H  0.69600 57.27800 40.61700
H  -0.90800 58.65500 42.51700
H  -0.34300 59.13900 40.87800
H  0.55700 59.50600 42.30600
H  -0.22100 52.72500 42.62800
H  0.60100 52.07700 43.95800
H  0.08800 50.88100 42.82000
H  5.15600 49.21400 42.16700
H  5.81100 46.27300 39.22500
H  4.21700 46.55900 38.87800
H  4.51200 45.27900 40.10900

