158

Mg 2.30600 -0.65400 44.35100
C  5.86400 -0.24900 43.64500
C  1.87200 2.21800 42.40600
C  -0.98900 -1.29100 44.35000
C  2.97200 -3.58600 46.05700
N  3.72900 0.94800 43.32000
C  5.10100 0.72900 42.97300
C  5.65100 1.85600 42.07600
C  4.41500 2.85500 42.04200
C  3.23500 2.02000 42.63600
C  4.59200 4.12200 42.81800
C  5.92900 1.29700 40.68300
C  7.29900 1.73000 40.08500
H  7.20600 2.68600 38.92500
N  0.69500 0.33800 43.57200
C  0.75400 1.50800 42.86000
C  -0.63100 2.00600 42.53800
C  -1.52500 0.88900 42.88700
C  -0.62500 -0.09900 43.56900
C  -0.93200 3.30800 41.84600
C  -2.95700 0.89300 42.51600
O  -3.47300 1.86400 42.00800
C  -3.75900 -0.32800 42.81500
N  1.14700 -2.27500 45.02500
C  -0.21200 -2.31600 44.99100
C  -0.82200 -3.53100 45.71400
C  0.49800 -4.12500 46.35600
C  1.66500 -3.28800 45.77900
C  -1.96700 -3.21500 46.70900
C  0.59600 -5.71600 46.03400
C  1.24400 -6.59500 47.24900
N  4.00100 -1.76200 44.79000
C  4.15600 -2.90100 45.57300
C  5.52600 -3.22000 45.73700
C  6.18200 -2.21400 45.04600
C  5.26300 -1.31000 44.42700
C  6.11100 -4.39100 46.50200
C  7.43200 -1.68600 44.74000
O  8.53200 -2.16500 45.05700
C  7.32700 -0.37100 43.75900
C  7.88600 0.75500 44.46800
O  7.60100 1.06800 45.64100
O  8.82000 1.49400 43.71100
C  9.22100 2.76800 44.31200
H  1.67600 3.18800 41.94500
H  -2.07400 -1.41200 44.39200
H  3.15000 -4.47600 46.66500
H  6.51800 2.25200 42.60500
H  4.17800 3.15700 41.02200
H  4.11000 3.99700 43.78700
H  4.19400 5.01000 42.32700
H  5.61300 4.47700 42.96100
H  5.18800 1.77400 40.04100
H  5.87300 0.21400 40.79100
H  7.85600 0.87600 39.70100
H  7.91700 2.09500 40.90600
H  -1.87700 3.64300 42.27300
H  -0.91700 3.19300 40.76200
H  -0.19000 4.08500 42.03000
H  -4.70100 -0.34900 42.26700
H  -3.79400 -0.49400 43.89100
H  -3.07000 -1.10200 42.47700
H  -1.22400 -4.26400 45.01500
H  0.47400 -4.07200 47.44500
H  -1.72200 -3.65600 47.67500
H  -2.78100 -3.85100 46.36100
H  -2.30800 -2.18300 46.79500
H  0.90500 -5.98800 45.02500
H  -0.44600 -6.01700 45.92400
H  2.05700 -7.24900 46.93300
H  0.46000 -7.27200 47.58700
H  1.43100 -5.93700 48.09800
H  5.46300 -5.26400 46.42100
H  6.46000 -4.22200 47.52100
H  6.97200 -4.78700 45.96400
H  7.88900 -0.53700 42.84000
H  10.11200 2.59500 44.91500
H  8.44300 3.13200 44.98400
H  9.44600 3.55300 43.59000
Mg 0.09900 44.09900 25.56900
C  1.89200 43.48400 28.45900
C  -2.63600 42.55100 27.06600
C  -1.59200 44.30700 22.69100
C  3.06700 44.90400 24.04900
N  -0.34100 43.21600 27.43000
C  0.50100 43.27700 28.55400
C  -0.17700 42.91900 29.95700
C  -1.49700 42.24100 29.34500
C  -1.48900 42.57200 27.81900
C  -1.69600 40.72800 29.64100
C  -0.51000 44.21600 30.71400
C  -0.94000 44.05400 32.16300
H  -1.02300 42.59400 32.74100
N  -1.87200 43.69000 24.99900
C  -2.82500 43.02100 25.73900
C  -4.11400 42.95500 24.95000
C  -3.82300 43.56100 23.72000
C  -2.39000 43.86500 23.75200
C  -5.38700 42.38500 25.42600
C  -4.73800 43.89300 22.48700
O  -4.27600 44.25900 21.39000
C  -6.16500 43.45800 22.54600
N  0.64400 44.48400 23.66400
C  -0.18800 44.54900 22.63300
C  0.43500 45.08600 21.41100
C  1.86800 45.53200 21.89700
C  1.89400 44.95000 23.35000
C  0.49800 44.02700 20.28300
C  2.32200 46.99500 21.74000
C  1.38700 48.00000 22.36500
N  2.10700 44.10600 26.09800
C  3.14000 44.62900 25.41600
C  4.29900 44.61900 26.28000
C  3.91800 44.16600 27.50700
C  2.52100 43.85600 27.30400
C  5.75600 45.08000 25.88200
C  4.26500 43.75600 28.94600
O  5.28100 43.80400 29.57800
C  2.90800 43.35800 29.47400
C  2.97000 42.11900 30.23100
O  2.81200 40.99200 29.84700
O  3.26000 42.43700 31.49300
C  3.42300 41.39600 32.51300
H  -3.49800 42.07500 27.53800
H  -1.96900 44.50900 21.68600
H  3.98100 45.29900 23.59900
H  0.35500 42.16900 30.54200
H  -2.45100 42.67800 29.64200
H  -1.55100 40.17700 28.71200
H  -2.71800 40.69400 30.01900
H  -0.96500 40.36200 30.36200
H  -1.26000 44.72700 30.11000
H  0.41300 44.77500 30.55900
H  -1.94000 44.48300 32.22600
H  -0.34400 44.71700 32.79100
H  -6.15600 43.15500 25.36400
H  -5.32600 42.24300 26.50500
H  -5.82500 41.58200 24.83400
H  -6.61400 43.81300 21.61800
H  -6.69900 43.92800 23.37200
H  -6.21100 42.37000 22.58200
H  -0.24000 45.91400 21.19400
H  2.49200 44.95900 21.21100
H  1.39000 44.12500 19.66300
H  -0.35500 44.27600 19.65100
H  0.45500 42.99900 20.64000
H  2.34500 47.16700 20.66400
H  3.27500 47.15500 22.24400
H  1.86900 48.34700 23.27900
H  0.40700 47.58700 22.60500
H  1.20700 48.82300 21.67400
H  5.71300 45.35000 24.82700
H  6.41400 44.22400 26.03400
H  6.17800 45.89800 26.46500
H  2.72200 44.18300 30.16100
H  3.31200 40.41000 32.06200
H  2.63900 41.48100 33.26500
H  4.33100 41.59200 33.08300

