158

Mg 26.55600 50.42200 25.80200
C  24.61000 51.37400 28.70400
C  28.93100 49.44600 28.01900
C  28.64600 50.04600 23.07900
C  24.20700 51.89200 23.68900
N  26.68100 50.38900 28.12300
C  25.75100 50.72300 29.06300
C  26.18800 50.31200 30.46300
C  27.65000 49.88300 30.23700
C  27.77200 49.92900 28.71000
C  28.72500 50.84900 30.80700
C  25.32000 49.16100 30.95000
C  24.99800 49.17100 32.47100
H  26.09300 49.43700 33.53800
N  28.50500 49.95200 25.62100
C  29.32100 49.51100 26.66900
C  30.60300 49.04500 26.07600
C  30.58100 49.30400 24.67700
C  29.15900 49.75100 24.38300
C  31.68700 48.47500 27.02200
C  31.69000 49.04000 23.66800
O  31.50500 49.37000 22.50300
C  32.96500 48.36800 24.06200
N  26.52500 51.01200 23.68800
C  27.42300 50.57700 22.76700
C  26.83600 50.54100 21.32600
C  25.38100 50.96300 21.51900
C  25.32100 51.34200 23.05600
C  27.69700 51.43700 20.41100
C  24.22100 49.92900 21.05700
C  23.49800 50.35000 19.78300
N  24.77000 51.35100 26.01000
C  23.96300 51.97700 25.10500
C  22.77500 52.35400 25.87000
C  23.04800 52.28600 27.22300
C  24.26300 51.58200 27.28700
C  21.66000 53.09500 25.17500
C  22.50500 52.50400 28.54200
O  21.49300 53.09000 28.86800
C  23.57500 52.05600 29.51600
C  24.12400 53.22600 30.25800
O  24.64300 54.26100 29.80400
O  24.10000 53.02400 31.64100
C  24.92400 53.91500 32.45900
H  29.71000 48.94200 28.59500
H  29.13000 49.67800 22.17200
H  23.39400 52.14900 23.00600
H  26.13000 51.16800 31.13600
H  27.88100 48.85300 30.50800
H  29.59200 50.30000 31.17600
H  28.29100 51.60800 31.45800
H  29.19300 51.53200 30.09900
H  25.67300 48.18900 30.60400
H  24.35200 49.09400 30.45400
H  24.60600 48.18800 32.73400
H  24.22800 49.93800 32.55200
H  32.68000 48.83800 26.75500
H  31.64800 47.38700 27.08100
H  31.66000 48.85900 28.04100
H  32.65500 47.42100 24.50500
H  33.54900 48.95500 24.77000
H  33.55800 48.18600 23.16600
H  26.86000 49.48400 21.06000
H  25.17900 51.93300 21.06500
H  27.76100 50.94500 19.44100
H  28.71600 51.47000 20.79600
H  27.34700 52.44700 20.19900
H  23.58700 49.76600 21.92800
H  24.64500 48.95900 20.79500
H  23.62400 49.66800 18.94300
H  23.78600 51.37900 19.56400
H  22.46200 50.43900 20.10900
H  21.62500 52.65600 24.17800
H  21.89300 54.16000 25.19200
H  20.75500 52.96800 25.76800
H  23.10500 51.42100 30.26700
H  25.95300 53.83200 32.10900
H  24.82800 53.53200 33.47500
H  24.57000 54.94600 32.43500
Mg -11.79800 15.95700 42.71500
C  -8.68800 14.34200 42.04900
C  -10.47700 18.76800 41.08700
C  -14.86800 17.25200 42.72300
C  -13.09500 12.86200 43.66000
N  -9.74100 16.47900 41.77100
C  -8.68400 15.67000 41.55500
C  -7.60400 16.41200 40.72700
C  -8.23200 17.77600 40.45500
C  -9.58200 17.66900 41.15500
C  -7.45800 18.97900 41.06900
C  -7.11700 15.68900 39.38700
C  -5.67600 15.79600 39.20300
H  -5.13600 15.40300 37.83800
N  -12.53800 17.79200 42.04500
C  -11.88900 18.82000 41.41800
C  -12.83500 19.89100 41.06900
C  -14.06800 19.47700 41.57500
C  -13.91900 18.06000 42.17200
C  -12.49400 21.05400 40.31500
C  -15.32000 20.20700 41.39600
O  -15.36100 21.35300 40.91100
C  -16.55800 19.65100 41.78200
N  -13.71400 15.15300 43.16800
C  -14.86200 15.92400 43.12600
C  -16.07100 15.09300 43.63500
C  -15.50200 13.68200 43.75200
C  -13.99600 13.91600 43.64200
C  -16.70900 15.64200 44.90100
C  -15.99400 12.74900 42.61000
C  -17.03000 11.69000 42.88800
N  -11.07600 14.00800 42.96700
C  -11.74500 12.87100 43.40400
C  -10.76700 11.85100 43.47700
C  -9.56800 12.40000 42.97800
C  -9.81900 13.68100 42.63600
C  -11.17700 10.34800 43.83000
C  -8.06300 12.18400 42.75200
O  -7.39800 11.19800 43.00300
C  -7.52100 13.41700 42.05000
C  -6.32200 13.93100 42.85900
O  -6.38500 14.85500 43.65200
O  -5.16200 13.25800 42.55700
C  -3.92500 13.79300 43.10000
H  -10.16700 19.62700 40.48800
H  -15.91500 17.55400 42.66000
H  -13.66600 12.00400 44.02000
H  -6.82000 16.50200 41.48000
H  -8.36700 18.04400 39.40800
H  -6.43300 18.66200 40.87700
H  -7.64200 19.06600 42.14000
H  -7.48000 19.90000 40.48700
H  -7.55200 16.18200 38.51700
H  -7.52900 14.68000 39.35700
H  -5.24600 15.18700 39.99800
H  -5.37100 16.82000 39.41900
H  -12.72300 20.89000 39.26200
H  -11.41600 21.21000 40.30500
H  -12.98700 21.94100 40.71500
H  -16.73400 18.74300 41.20600
H  -17.31100 20.40200 41.54200
H  -16.70300 19.43400 42.84100
H  -16.82900 15.07900 42.85200
H  -15.67700 13.22400 44.72500
H  -16.35800 16.63600 45.17600
H  -16.62400 14.98600 45.76700
H  -17.76500 15.88000 44.77600
H  -15.18200 12.10900 42.26500
H  -16.21900 13.34800 41.72800
H  -17.83200 11.94600 43.58100
H  -16.63400 10.71200 43.16000
H  -17.57800 11.67300 41.94600
H  -11.57700 9.88800 42.92700
H  -11.99800 10.39800 44.54600
H  -10.35400 9.74200 44.21000
H  -7.25400 13.30900 40.99800
H  -3.62100 14.79800 42.80600
H  -3.10200 13.25700 42.62700
H  -3.89200 13.61700 44.17500

