158

Mg 2.45600 -0.16900 42.84300
C  6.03400 0.42800 42.43500
C  1.86100 2.61300 41.07500
C  -0.55000 -1.43700 42.30200
C  3.49800 -3.29300 44.31400
N  3.82600 1.28700 41.80900
C  5.16500 1.43200 41.92800
C  5.60800 2.83700 41.40000
C  4.28500 3.54300 41.02400
C  3.22500 2.40500 41.33400
C  3.98700 4.78600 41.93300
C  6.74800 2.90800 40.31200
C  6.53400 2.03500 39.08200
H  6.49100 2.81200 37.71800
N  0.79700 0.53800 41.87200
C  0.76800 1.74200 41.18800
C  -0.54700 1.88700 40.61600
C  -1.24100 0.66900 40.95200
C  -0.35200 -0.18700 41.72400
C  -1.04700 3.12100 39.90500
C  -2.70700 0.50500 40.60300
O  -3.38500 1.35700 40.02400
C  -3.34000 -0.85600 41.05000
N  1.59400 -2.07800 43.27000
C  0.30800 -2.31500 43.01800
C  -0.18900 -3.60400 43.59800
C  1.10700 -4.15400 44.28300
C  2.13300 -3.10600 43.99000
C  -1.35000 -3.47100 44.61700
C  1.53100 -5.65500 43.82300
C  1.23300 -6.67800 44.86900
N  4.35600 -1.27400 43.20600
C  4.53700 -2.47400 43.84500
C  5.93200 -2.74400 43.92600
C  6.56900 -1.59200 43.41600
C  5.50800 -0.73300 42.97500
C  6.58000 -3.98200 44.45800
C  7.85200 -0.96600 43.14000
O  9.01600 -1.41200 43.28900
C  7.58300 0.42300 42.60200
C  8.06300 1.40000 43.63900
O  7.51600 1.63800 44.74100
O  9.07600 2.19400 43.08000
C  9.26500 3.48900 43.80400
H  1.83100 3.54800 40.51200
H  -1.53300 -1.90900 42.35500
H  3.71200 -4.27900 44.73100
H  6.05000 3.37600 42.23800
H  4.23300 3.77200 39.96000
H  3.13700 4.57400 42.58100
H  3.72300 5.55900 41.21100
H  4.84500 5.11200 42.52100
H  7.69300 2.54300 40.71500
H  7.06200 3.90300 39.99600
H  5.61000 1.45600 39.10400
H  7.40000 1.38500 38.96100
H  -0.20900 3.78000 39.67200
H  -1.84300 3.57900 40.49100
H  -1.27400 2.70600 38.92300
H  -2.77200 -1.55200 40.43100
H  -4.37400 -0.83500 40.70600
H  -3.32600 -1.05700 42.12100
H  -0.53800 -4.27500 42.81400
H  1.02800 -4.01000 45.36000
H  -2.31200 -3.86100 44.28500
H  -1.48000 -2.41300 44.84200
H  -1.14700 -4.11100 45.47500
H  2.58100 -5.70400 43.53800
H  0.97900 -6.00600 42.95100
H  0.15300 -6.68200 45.01200
H  1.86300 -6.28700 45.66800
H  1.72000 -7.59800 44.54700
H  7.60500 -3.76500 44.75700
H  6.69000 -4.77700 43.72000
H  6.02000 -4.47800 45.25100
H  8.00700 0.64800 41.62300
H  9.21000 3.34800 44.88400
H  8.39000 4.08600 43.54800
H  10.12300 4.08400 43.49100
Mg 16.88000 -1.76000 27.19800
C  16.26800 0.39500 29.94100
C  18.88500 -3.67000 29.22800
C  17.66400 -3.55200 24.60400
C  15.10000 0.52900 25.14500
N  17.55000 -1.63800 29.29100
C  17.06500 -0.75400 30.21300
C  17.60600 -1.03300 31.63200
C  18.54300 -2.28100 31.33600
C  18.35800 -2.57600 29.87700
C  19.98300 -1.95200 31.75400
C  16.50200 -1.34700 32.71900
C  16.64700 -0.61600 34.00200
H  18.07000 -0.04200 34.47400
N  18.01100 -3.40600 26.94400
C  18.73500 -4.12500 27.93100
C  19.28700 -5.43000 27.34500
C  18.90300 -5.32400 25.96200
C  18.10900 -4.07600 25.77800
C  20.08500 -6.52900 28.03900
C  19.09800 -6.40100 24.87000
O  18.68500 -6.24200 23.73700
C  19.88600 -7.52200 25.05700
N  16.29300 -1.63700 25.17900
C  16.98100 -2.36500 24.31100
C  16.80900 -1.85100 22.86300
C  15.77100 -0.73500 23.04200
C  15.67200 -0.62300 24.49600
C  18.16900 -1.44600 22.10600
C  14.27500 -1.07300 22.49000
C  13.82400 -0.12500 21.41700
N  15.89100 0.10500 27.44300
C  15.16300 0.87800 26.51400
C  14.52400 1.93900 27.19600
C  14.93300 1.82600 28.61400
C  15.79900 0.71000 28.59900
C  13.56200 2.79100 26.54100
C  14.81200 2.38700 29.90600
O  14.13100 3.31100 30.35200
C  15.68200 1.47200 30.81000
C  16.71700 2.33400 31.55800
O  17.84900 2.50900 31.19300
O  16.04700 2.94600 32.60400
C  16.84400 3.99500 33.35300
H  19.37800 -4.43300 29.83300
H  17.98200 -4.09600 23.71200
H  14.74100 1.28600 24.44400
H  18.17500 -0.17400 31.98700
H  18.34500 -3.11900 32.00500
H  20.04900 -1.37400 32.67600
H  20.48500 -1.42600 30.94100
H  20.43500 -2.91900 31.97600
H  16.43700 -2.41200 32.94300
H  15.58600 -1.00500 32.23900
H  16.29800 -1.27600 34.79600
H  15.90600 0.18200 33.95900
H  20.56200 -6.05300 28.89600
H  20.85500 -6.88300 27.35400
H  19.41400 -7.34300 28.31400
H  19.51200 -8.18500 25.83700
H  20.90700 -7.15200 25.15900
H  19.70200 -8.10800 24.15700
H  16.45900 -2.69000 22.26100
H  16.20000 0.18000 22.63200
H  18.16100 -0.43200 21.70600
H  18.41100 -1.95400 21.17300
H  18.97700 -1.59300 22.82300
H  13.54800 -0.98400 23.29700
H  14.31200 -2.05200 22.01100
H  13.25700 0.69000 21.86700
H  13.25200 -0.68200 20.67500
H  14.62800 0.37900 20.88000
H  12.70900 2.20500 26.19900
H  14.07200 3.37600 25.77600
H  13.11900 3.51200 27.22800
H  15.07100 1.10000 31.63300
H  17.61000 4.48900 32.75500
H  17.34400 3.67200 34.26700
H  16.20000 4.81400 33.67000

