158

Mg 8.67200 48.07000 27.62100
C  7.05800 47.44000 30.77100
C  11.62900 48.28600 29.54800
C  10.31800 48.68200 24.81500
C  5.62400 48.03200 26.05400
N  9.14400 47.93600 29.93000
C  8.40200 47.65100 30.98000
C  9.08000 47.75700 32.40000
C  10.56400 48.17600 31.89500
C  10.45700 48.08400 30.37100
C  11.21300 49.48000 32.42200
C  9.11400 46.64900 33.45000
C  8.84300 47.02000 34.93600
H  9.57900 46.12900 36.00500
N  10.63500 48.37300 27.20300
C  11.72600 48.40500 28.14600
C  12.90600 48.63900 27.48400
C  12.59700 48.83800 26.09800
C  11.13800 48.64600 25.96100
C  14.30400 48.71000 28.06400
C  13.56200 49.12800 24.89600
O  13.14100 49.23500 23.77300
C  15.10500 49.18400 25.09300
N  8.05500 48.22700 25.74900
C  8.87900 48.48900 24.76100
C  8.17600 48.58700 23.33600
C  6.66700 48.49600 23.76300
C  6.74600 48.22900 25.25600
C  8.46300 49.85700 22.58500
C  5.87000 47.42300 23.05300
C  5.86100 47.55800 21.53000
N  6.79600 47.77700 28.17800
C  5.66300 47.82700 27.45000
C  4.53800 47.65000 28.24700
C  5.05100 47.47700 29.54300
C  6.42300 47.57400 29.47000
C  3.09800 47.70700 27.87900
C  4.62300 47.21400 30.86700
O  3.52900 47.08700 31.41200
C  5.98700 47.15500 31.70800
C  6.09300 45.81300 32.22000
O  6.48300 44.87300 31.57300
O  5.82500 45.68200 33.61500
C  5.90900 44.28700 34.05900
H  12.53400 48.51200 30.11700
H  10.72000 49.03000 23.86100
H  4.64900 48.11000 25.56800
H  8.62800 48.67600 32.77100
H  11.23600 47.37700 32.20600
H  10.53100 49.88900 33.16700
H  11.32100 50.18400 31.59700
H  12.19700 49.30600 32.85900
H  10.06600 46.13600 33.31700
H  8.41000 45.88100 33.13100
H  7.77700 46.95200 35.15400
H  9.11800 48.05500 35.13900
H  14.75400 47.80400 27.65700
H  14.36600 48.66900 29.15100
H  14.90600 49.58400 27.81800
H  15.48200 50.02400 25.67600
H  15.54500 49.26800 24.09900
H  15.43600 48.20300 25.43600
H  8.52000 47.78400 22.68400
H  6.12300 49.42300 23.58700
H  8.79900 50.71200 23.17100
H  7.58300 50.16700 22.02200
H  9.28400 49.64900 21.89800
H  4.84200 47.46300 23.41500
H  6.23500 46.42200 23.28600
H  6.80800 47.33500 21.03700
H  5.65800 48.61000 21.32800
H  5.06600 46.93900 21.11500
H  2.86800 46.84400 27.25400
H  2.93700 48.70700 27.47700
H  2.50600 47.75300 28.79400
H  5.99800 48.02000 32.37000
H  6.85500 43.81400 33.79500
H  5.05600 43.71300 33.69700
H  5.77000 44.24900 35.14000
Mg -9.60700 39.87800 42.62000
C  -8.44900 36.69100 41.60600
C  -6.76200 41.12800 41.22800
C  -10.84500 42.84100 43.12100
C  -12.59400 38.34700 43.57200
N  -7.82100 38.99400 41.46300
C  -7.53800 37.66700 41.20600
C  -6.23000 37.47100 40.41000
C  -5.73100 38.96400 40.36000
C  -6.78900 39.75500 41.09200
C  -4.30500 39.08600 40.89100
C  -6.39300 36.84000 39.05100
C  -5.27500 35.77900 38.62800
H  -4.31500 36.20500 37.48400
N  -8.86000 41.80000 42.30200
C  -7.62000 42.11500 41.79100
C  -7.40000 43.49900 41.84100
C  -8.60900 44.11000 42.37800
C  -9.50100 42.92800 42.62800
C  -6.14700 44.13300 41.20100
C  -8.86200 45.60600 42.53400
O  -8.00900 46.47500 42.41300
C  -10.21600 46.13500 42.91300
N  -11.42500 40.51300 43.08200
C  -11.65900 41.75400 43.32300
C  -13.07600 41.98800 43.87100
C  -13.73300 40.54500 44.00700
C  -12.54400 39.72300 43.50600
C  -13.12100 42.86100 45.22900
C  -15.07800 40.28600 43.21200
C  -16.30000 40.64100 43.96200
N  -10.35500 37.91100 42.70600
C  -11.58800 37.45000 43.13500
C  -11.58100 36.01900 43.20000
C  -10.37300 35.66600 42.54800
C  -9.71100 36.90900 42.22000
C  -12.59600 35.15700 43.71200
C  -9.47300 34.50700 42.22300
O  -9.57900 33.31800 42.37600
C  -8.22400 35.21000 41.59300
C  -7.06400 34.85600 42.51000
O  -6.70800 35.49300 43.51700
O  -6.45800 33.73100 42.00400
C  -5.30300 33.14700 42.74000
H  -5.83400 41.62800 40.94100
H  -11.23500 43.81700 43.41700
H  -13.43800 37.77400 43.96000
H  -5.60300 36.74300 40.92600
H  -5.77300 39.28100 39.31800
H  -3.67700 39.42400 40.06700
H  -3.92000 38.10500 41.17000
H  -4.17800 39.86400 41.64400
H  -6.29600 37.60000 38.27600
H  -7.28200 36.29800 38.72900
H  -5.67000 34.79700 38.36700
H  -4.55000 35.60200 39.42300
H  -5.93200 43.62200 40.26200
H  -5.37700 44.13000 41.97100
H  -6.29200 45.20000 41.03100
H  -11.00900 45.67700 42.32100
H  -10.21300 47.20600 42.71400
H  -10.31500 45.93700 43.98000
H  -13.58100 42.59600 43.12200
H  -13.92200 40.22900 45.03300
H  -12.42800 43.70000 45.29200
H  -13.14600 42.14100 46.04800
H  -14.07200 43.38700 45.15400
H  -15.08900 39.25000 42.87200
H  -15.12000 40.86400 42.28900
H  -16.03900 40.96900 44.96900
H  -16.78900 39.66800 44.00600
H  -16.93700 41.38500 43.48400
H  -12.90900 35.68000 44.61500
H  -12.18300 34.17600 43.94700
H  -13.46400 35.19900 43.05400
H  -8.00900 34.75200 40.62700
H  -4.37500 33.67000 42.50700
H  -5.17800 32.09000 42.50400
H  -5.30100 33.17000 43.82900

