158

Mg 41.21300 6.57800 28.82300
C  42.77900 7.81700 31.66000
C  38.72300 5.30500 31.03100
C  39.64800 5.17300 26.22500
C  43.87600 7.62000 26.93800
N  40.68700 6.78600 31.12300
C  41.49400 7.30300 32.00800
C  40.97800 7.15400 33.41700
C  39.67700 6.31600 33.21300
C  39.65100 6.16200 31.71900
C  39.77200 4.97900 34.01900
C  40.86800 8.51000 34.15800
C  39.85000 8.55800 35.33200
H  40.22100 9.50200 36.45800
N  39.38000 5.56900 28.65700
C  38.53400 5.08800 29.64300
C  37.39600 4.43900 28.99500
C  37.51400 4.55900 27.64000
C  38.87000 5.17700 27.43400
C  36.27000 3.72400 29.77300
C  36.60900 4.15900 26.44000
O  36.88500 4.35700 25.26700
C  35.39700 3.45300 26.73600
N  41.75000 6.37100 26.86500
C  40.92500 5.65100 25.96800
C  41.45600 5.81200 24.55300
C  42.74000 6.71200 24.76200
C  42.87700 6.89800 26.27200
C  41.57600 4.46500 23.85000
C  42.78000 7.96600 23.87200
C  41.82500 9.15800 24.23300
N  42.93600 7.52500 29.14400
C  43.96100 7.91000 28.31900
C  44.98300 8.53500 29.08100
C  44.53000 8.53200 30.41700
C  43.32600 7.80400 30.43800
C  46.29100 9.07200 28.63700
C  44.93900 9.06300 31.71400
O  45.93100 9.58900 32.15300
C  43.72800 8.62400 32.54200
C  44.20500 7.82600 33.73100
O  44.49500 6.64600 33.69700
O  44.37400 8.63800 34.88000
C  44.75100 7.96500 36.12400
H  38.02000 4.80400 31.69900
H  39.17100 4.63800 25.40100
H  44.73900 7.97800 26.37400
H  41.85800 6.58900 33.72400
H  38.73900 6.84500 33.38700
H  39.15400 5.03300 34.91500
H  40.79900 4.81800 34.34600
H  39.42100 4.15000 33.40400
H  40.61200 9.29100 33.44200
H  41.84500 8.85100 34.50100
H  39.66600 7.54000 35.67700
H  38.86800 8.88600 34.99200
H  36.52300 3.58200 30.82300
H  36.24800 2.73200 29.32200
H  35.27600 4.17200 29.78800
H  34.69200 3.98300 27.37700
H  35.73100 2.54000 27.22800
H  34.85200 3.14900 25.84300
H  40.69200 6.39100 24.03400
H  43.61300 6.09100 24.56000
H  41.23200 3.55000 24.33200
H  42.63400 4.29000 23.65200
H  41.05800 4.46000 22.89100
H  42.41600 7.61100 22.90700
H  43.79900 8.35200 23.86200
H  41.17800 8.77200 25.02100
H  41.36500 9.43000 23.28300
H  42.39200 10.02800 24.56400
H  47.01000 8.90900 29.43900
H  46.19600 10.07000 28.20800
H  46.63700 8.45900 27.80400
H  43.42700 9.61100 32.89600
H  44.75500 6.87900 36.21800
H  44.06200 8.20600 36.93400
H  45.79800 8.18100 36.33400
Mg -10.38200 16.97100 42.41300
C  -6.95200 17.49700 42.78400
C  -10.74600 20.35000 41.62300
C  -13.54500 16.30600 41.73100
C  -9.59000 13.52400 42.36900
N  -8.92600 18.65300 42.00100
C  -7.56100 18.66200 42.34000
C  -7.01800 20.03100 41.99100
C  -8.25000 20.93900 41.94200
C  -9.40100 19.91800 41.75900
C  -8.40900 21.83800 43.26200
C  -6.04000 20.08600 40.76900
C  -4.68200 20.79500 41.01300
H  -4.13600 21.64500 39.86500
N  -11.88300 18.18500 41.82100
C  -11.94300 19.54600 41.63800
C  -13.31600 19.96300 41.34500
C  -14.16000 18.75400 41.31400
C  -13.18400 17.64400 41.62500
C  -13.69800 21.41600 41.09000
C  -15.63800 18.70300 41.08300
O  -16.23000 19.76000 40.92500
C  -16.34600 17.44400 40.71400
N  -11.38100 15.15800 41.97100
C  -12.72700 15.21200 41.90300
C  -13.35800 13.77400 41.97800
C  -12.04000 12.88600 41.85300
C  -10.89300 13.90900 42.04200
C  -14.09900 13.50800 43.32500
C  -11.89600 12.26200 40.45600
C  -12.48000 10.87800 40.25100
N  -8.70700 15.69800 42.73200
C  -8.49900 14.32300 42.75300
C  -7.05600 13.98600 43.02700
C  -6.50500 15.24600 43.19700
C  -7.50400 16.20700 42.85000
C  -6.39700 12.64500 43.15200
C  -5.24900 15.90000 43.42100
O  -4.14000 15.57300 43.82300
C  -5.51900 17.40300 43.25500
C  -5.21000 18.03000 44.53600
O  -5.92800 18.01900 45.54200
O  -4.04400 18.66900 44.51100
C  -3.47400 19.15200 45.77000
H  -10.85600 21.42800 41.48400
H  -14.60600 16.08700 41.59400
H  -9.48000 12.43900 42.42200
H  -6.32500 20.39500 42.75000
H  -8.08000 21.62200 41.11000
H  -8.44100 22.89400 42.99100
H  -7.54300 21.72400 43.91500
H  -9.32900 21.61200 43.80000
H  -6.63500 20.47200 39.94200
H  -5.72000 19.05100 40.65000
H  -3.89900 20.11600 41.35100
H  -4.74600 21.45600 41.87700
H  -14.34200 21.49200 40.21400
H  -12.90300 22.16000 41.14100
H  -14.27200 21.77400 41.94400
H  -17.33900 17.61800 40.30000
H  -16.43000 16.94800 41.68100
H  -15.78700 16.89500 39.95700
H  -14.13100 13.54200 41.24500
H  -11.93700 12.16100 42.66000
H  -15.02900 12.97900 43.11800
H  -14.42600 14.41800 43.82800
H  -13.43000 13.02300 44.03500
H  -10.86800 12.10800 40.13000
H  -12.34200 12.93900 39.72800
H  -11.82000 10.06600 39.94500
H  -13.31300 10.96400 39.55300
H  -13.02100 10.54400 41.13700
H  -6.66700 12.06900 44.03700
H  -5.33600 12.86700 43.04100
H  -6.78100 11.96800 42.38800
H  -4.88800 17.90000 42.51900
H  -2.85300 20.02800 45.58200
H  -2.80000 18.40600 46.19000
H  -4.21000 19.39900 46.53500

