158

Mg 47.73500 44.79900 43.34000
C  44.39300 43.84400 42.69800
C  48.51000 41.43100 42.91700
C  51.05500 45.65200 43.44800
C  46.91600 48.19100 43.11700
N  46.54800 42.89800 42.93900
C  45.21000 42.71800 42.69300
C  44.73400 41.25600 42.48800
C  46.12600 40.58600 42.72500
C  47.13800 41.74800 42.98700
C  46.09300 39.47900 43.83400
C  44.12400 41.00500 41.02200
C  44.76500 41.79800 39.84900
H  44.55400 41.28300 38.46000
N  49.53300 43.63500 43.29600
C  49.64800 42.30500 43.06800
C  51.01800 41.91500 43.00600
C  51.77500 43.09400 43.14000
C  50.82900 44.24600 43.36300
C  51.50100 40.45300 42.77700
C  53.32300 43.25600 43.24400
O  53.91600 42.18100 43.21700
C  54.13300 44.56700 43.37100
N  48.84100 46.59900 43.34300
C  50.17300 46.74100 43.44100
C  50.63800 48.16600 43.23300
C  49.27300 48.98000 43.49700
C  48.31900 47.88300 43.21900
C  51.82500 48.49600 44.16800
C  49.09600 50.19400 42.49000
C  48.47000 51.48400 43.07100
N  46.02300 45.84000 42.94000
C  45.86200 47.24800 43.00700
C  44.43200 47.54100 42.87400
C  43.81800 46.25400 42.73200
C  44.82800 45.24500 42.79000
C  43.74000 48.88600 42.89500
C  42.55000 45.52900 42.63800
O  41.37700 45.90500 42.58000
C  42.88600 43.95300 42.65200
C  42.18800 43.30500 43.81400
O  41.22000 42.54800 43.71800
O  42.58000 43.91500 45.01600
C  41.69900 43.62200 46.14400
H  48.76100 40.37100 42.83100
H  52.12000 45.88700 43.50200
H  46.68200 49.23200 43.34900
H  43.97300 41.02000 43.23100
H  46.46300 40.12900 41.79500
H  46.93200 39.63500 44.51100
H  46.32700 38.52400 43.36200
H  45.17700 39.26700 44.38700
H  43.06700 41.15500 41.24100
H  44.27500 39.98300 40.67300
H  45.82800 41.90700 40.06100
H  44.33300 42.79800 39.89900
H  51.52300 39.87000 43.69800
H  52.51300 40.34100 42.38800
H  50.82800 39.99700 42.05100
H  53.93900 45.22900 42.52700
H  55.19000 44.31900 43.46700
H  53.78300 44.90300 44.34600
H  51.04000 48.33000 42.23300
H  49.08000 49.40000 44.48400
H  51.57700 49.51200 44.47500
H  52.86800 48.42700 43.85800
H  51.75700 47.96100 45.11600
H  48.52600 49.92200 41.60200
H  50.12100 50.38600 42.17400
H  48.19300 51.31500 44.11200
H  47.61100 51.81500 42.48700
H  49.17500 52.31400 43.10200
H  44.27200 49.39000 43.70100
H  42.68100 48.81400 43.14400
H  43.85600 49.48100 41.98900
H  42.47400 43.43300 41.78700
H  41.99900 44.23500 46.99300
H  41.77100 42.56500 46.40000
H  40.63900 43.79900 45.96300
Mg 47.00800 35.00500 28.30800
C  45.49700 32.87000 30.73400
C  47.54000 37.27100 30.86000
C  48.14800 36.97900 26.04200
C  46.25000 32.41300 25.86000
N  46.66000 35.03500 30.56200
C  46.08600 34.05100 31.32400
C  46.12900 34.33500 32.78700
C  46.38000 35.88200 32.78200
C  46.88000 36.10200 31.33100
C  45.22100 36.79400 33.22700
C  47.24100 33.31300 33.38400
C  47.68300 33.57700 34.86600
H  46.90500 34.63200 35.75100
N  47.94900 36.86600 28.45200
C  48.04000 37.63500 29.56700
C  48.84100 38.78000 29.26600
C  49.00500 38.79800 27.79100
C  48.34500 37.52700 27.32000
C  49.24600 39.88700 30.28500
C  49.73100 39.72800 26.87800
O  49.81100 39.59100 25.66800
C  50.18500 41.10500 27.31400
N  47.12900 34.74100 26.26700
C  47.52400 35.80800 25.55600
C  47.16700 35.61000 24.10000
C  46.81700 34.11500 23.99000
C  46.73300 33.68400 25.42300
C  46.11100 36.69200 23.58000
C  47.90900 33.17400 23.30200
C  47.43700 32.01800 22.47700
N  46.06700 33.08500 28.26400
C  45.89300 32.15200 27.23200
C  45.26000 30.97800 27.69400
C  45.05100 31.23700 29.04000
C  45.55500 32.54200 29.34100
C  44.67800 29.90000 27.00500
C  44.55900 30.59100 30.25200
O  44.14400 29.47300 30.51100
C  44.48300 31.77100 31.28000
C  44.55800 31.24800 32.65200
O  45.16000 30.23700 32.91700
O  43.78500 31.99300 33.51100
C  43.82700 31.50500 34.90300
H  47.60900 38.05900 31.61300
H  48.49600 37.61100 25.22200
H  46.01100 31.74200 25.03300
H  45.21300 34.07900 33.32000
H  47.21400 36.05800 33.46100
H  44.41900 36.35100 33.81800
H  44.75100 37.33400 32.40600
H  45.76900 37.43600 33.91700
H  48.12200 33.28600 32.74200
H  46.84900 32.30000 33.47300
H  48.73400 33.86200 34.90900
H  47.54900 32.72700 35.53600
H  48.78400 40.81300 29.94300
H  50.32300 40.02400 30.38300
H  48.81800 39.74300 31.27600
H  51.00100 41.03400 28.03300
H  49.29300 41.61100 27.68200
H  50.69900 41.61200 26.49800
H  47.96100 35.93100 23.42600
H  45.85600 34.07400 23.47700
H  45.23100 36.09400 23.34600
H  46.47600 37.18900 22.68100
H  45.79000 37.29200 24.43200
H  48.44600 32.61800 24.07000
H  48.59400 33.90300 22.86900
H  46.38300 32.08500 22.20900
H  47.73100 31.06000 22.90700
H  48.01900 31.96500 21.55700
H  45.16900 29.73300 26.04700
H  43.60900 29.96700 26.79900
H  44.82100 28.97800 27.56900
H  43.47300 32.17200 31.19300
H  44.36500 32.30800 35.40800
H  44.23900 30.50300 35.01700
H  42.88900 31.70200 35.42200

