158

Mg 27.37800 49.89900 26.33800
C  25.56700 51.23700 29.04000
C  29.50600 48.53200 28.62100
C  29.37300 49.25700 23.71000
C  25.18200 51.55300 24.16000
N  27.52400 49.94800 28.62200
C  26.66500 50.58500 29.49300
C  26.98600 50.25800 31.03600
C  28.42500 49.65500 30.81300
C  28.50900 49.27000 29.22900
C  29.66500 50.62700 31.26400
C  25.96300 49.24700 31.69000
C  25.23600 49.72700 32.94600
H  26.09000 50.25300 34.12200
N  29.15600 48.91400 26.17200
C  29.92600 48.39000 27.25300
C  31.02400 47.65400 26.71700
C  31.00100 47.82900 25.32600
C  29.84800 48.72400 25.00100
C  31.85300 46.72700 27.58600
C  31.90300 47.30200 24.17800
O  31.75300 47.62200 23.01600
C  32.96300 46.33400 24.59300
N  27.31600 50.33800 24.23000
C  28.26900 50.02900 23.34500
C  27.87600 50.39600 21.86900
C  26.44500 51.01100 22.08100
C  26.31300 50.99600 23.61400
C  28.86500 51.30100 21.02700
C  25.24100 50.28200 21.44300
C  24.24300 51.24700 20.81100
N  25.78400 51.11400 26.53700
C  24.91800 51.68300 25.53500
C  23.81000 52.42800 26.19700
C  24.10800 52.17900 27.51400
C  25.21900 51.37500 27.69800
C  22.76600 53.01700 25.51800
C  23.55900 52.49900 28.81900
O  22.59900 53.14600 29.05800
C  24.52100 51.85100 29.90300
C  25.01200 52.94300 30.80500
O  25.78800 53.80900 30.48100
O  24.34900 53.03000 32.01500
C  24.78200 54.12700 32.86600
H  30.30900 48.18700 29.27600
H  30.01100 49.12000 22.83400
H  24.39700 51.95200 23.51500
H  26.97700 51.19900 31.58600
H  28.46800 48.66000 31.25800
H  30.31500 50.72900 30.39500
H  30.11300 50.21200 32.16700
H  29.35300 51.60500 31.63200
H  26.45600 48.31400 31.96300
H  25.16000 49.13400 30.96200
H  24.61200 48.92400 33.33900
H  24.57000 50.50600 32.57600
H  31.65500 46.79200 28.65600
H  32.91400 46.92700 27.43300
H  31.52100 45.73100 27.29500
H  33.80200 46.80900 25.10100
H  33.38300 45.85500 23.70800
H  32.57300 45.42200 25.04500
H  27.84400 49.50600 21.24200
H  26.52800 52.05800 21.78800
H  29.80000 51.45100 21.56700
H  28.54000 52.26200 20.62700
H  28.98000 50.75800 20.08900
H  24.81100 49.56800 22.14500
H  25.71600 49.61800 20.72000
H  23.53500 51.58600 21.56700
H  23.74800 50.74500 19.98000
H  24.64600 52.17100 20.39700
H  22.34500 52.38000 24.74000
H  23.12900 53.92300 25.03200
H  21.92300 53.40400 26.09000
H  23.91600 51.12000 30.43900
H  24.74400 55.05200 32.29000
H  25.73800 53.90300 33.33900
H  24.03000 54.19900 33.65200
Mg 17.68700 52.25700 26.77200
C  19.80600 50.76200 29.25800
C  15.32100 52.51900 29.33100
C  15.67500 53.42000 24.55100
C  19.80400 50.92700 24.29500
N  17.69000 51.75600 29.11700
C  18.66800 51.26200 29.92200
C  18.29900 51.31900 31.38900
C  16.69000 51.44300 31.26900
C  16.54000 51.95700 29.83400
C  15.83800 50.19000 31.66500
C  19.10800 52.38800 32.16500
C  18.91700 52.62100 33.76300
H  17.81100 51.76500 34.44900
N  15.80300 52.92400 26.86500
C  14.99500 53.00100 28.04900
C  13.77400 53.67000 27.73700
C  13.82700 53.90200 26.32300
C  15.17400 53.45700 25.86600
C  12.67000 53.89600 28.70100
C  12.70700 54.41800 25.39600
O  12.86800 54.44400 24.18700
C  11.38700 54.83400 25.83000
N  17.85100 52.28500 24.73800
C  16.87400 52.92000 23.99300
C  17.16600 52.82400 22.44000
C  18.55200 52.07200 22.39000
C  18.79100 51.72300 23.93400
C  15.98100 52.10900 21.74200
C  19.72200 53.01000 21.83500
C  20.26700 54.07800 22.71500
N  19.53400 51.12300 26.72800
C  20.24700 50.60100 25.63300
C  21.33500 49.73800 26.09700
C  21.22600 49.90000 27.54500
C  20.09200 50.66000 27.83400
C  22.22600 48.88700 25.27200
C  21.89100 49.50700 28.80600
O  22.93800 48.94900 28.95200
C  20.95200 50.02000 29.94500
C  20.59100 48.88000 30.79900
O  20.01100 47.93900 30.32100
O  20.87500 49.19000 32.11400
C  20.38500 48.31500 33.11200
H  14.60500 52.49100 30.15500
H  15.02000 53.73600 23.73600
H  20.32800 50.52900 23.42400
H  18.61400 50.34000 31.75100
H  16.26300 52.23700 31.88200
H  15.29600 49.74900 30.82900
H  14.95800 50.58300 32.17300
H  16.30500 49.41200 32.26900
H  19.06300 53.29900 31.56800
H  20.10000 51.96200 32.01700
H  18.76400 53.68900 33.92200
H  19.81800 52.29400 34.28100
H  12.26400 54.90800 28.68500
H  13.04300 53.77400 29.71800
H  11.88600 53.15100 28.56600
H  10.97400 54.04100 26.45400
H  10.71700 54.93600 24.97700
H  11.40000 55.81700 26.30000
H  17.20900 53.80500 21.96700
H  18.58000 51.15700 21.79800
H  15.92900 51.09300 22.13400
H  15.96400 52.15000 20.65300
H  15.09200 52.71300 21.92400
H  19.29300 53.43400 20.92700
H  20.57900 52.36900 21.62500
H  20.39500 54.99200 22.13500
H  21.18700 53.69400 23.15600
H  19.74900 54.22800 23.66200
H  21.78600 48.58600 24.32200
H  22.31900 48.00500 25.90600
H  23.25000 49.25500 25.21900
H  21.50000 50.77700 30.50600
H  19.55800 47.64600 32.87200
H  20.05200 48.95700 33.92700
H  21.17100 47.63300 33.43500

