158

Mg 1.78200 -2.20300 45.27200
C  5.15100 -1.22900 44.90000
C  0.78700 0.68100 43.73900
C  -1.21100 -3.68100 44.90100
C  3.05900 -5.34900 46.63800
N  2.87900 -0.50300 44.25600
C  4.25400 -0.22700 44.32900
C  4.64200 1.02500 43.52800
C  3.20000 1.73600 43.51200
C  2.19600 0.60300 43.87800
C  3.09900 2.85000 44.59100
C  5.15000 0.47700 42.10800
C  6.37200 1.13200 41.54700
H  6.10300 1.98200 40.30200
N  -0.01500 -1.49600 44.59500
C  -0.23400 -0.28400 44.03700
C  -1.66400 -0.24700 43.66000
C  -2.25400 -1.50200 43.78500
C  -1.12700 -2.32500 44.42800
C  -2.28000 1.05300 42.99700
C  -3.71200 -1.92400 43.42400
O  -4.55500 -1.10400 43.04500
C  -4.14200 -3.39300 43.35300
N  1.03000 -4.19900 45.76400
C  -0.28700 -4.49600 45.56200
C  -0.56900 -5.94400 45.73500
C  0.68000 -6.47100 46.41400
C  1.70700 -5.29200 46.25600
C  -1.87400 -6.19500 46.61800
C  1.15200 -7.86000 45.79900
C  1.90100 -8.83900 46.69100
N  3.67000 -3.06700 45.84900
C  4.03100 -4.33300 46.40600
C  5.50600 -4.43000 46.55600
C  5.94100 -3.24700 46.00400
C  4.79900 -2.46900 45.51600
C  6.26700 -5.57600 47.15600
C  7.11500 -2.44900 45.74600
O  8.28700 -2.69500 46.04400
C  6.64500 -1.14100 45.01300
C  7.01000 0.02300 45.82900
O  6.95000 0.11100 47.05200
O  7.49000 1.02800 45.02400
C  7.91300 2.27700 45.56400
H  0.50400 1.60600 43.23300
H  -2.23500 -4.05100 44.81000
H  3.32400 -6.30300 47.09900
H  5.30200 1.70200 44.06900
H  3.01500 2.29500 42.59500
H  3.03600 3.79400 44.05000
H  4.01700 3.01300 45.15500
H  2.21700 2.68800 45.21000
H  4.29400 0.56900 41.43900
H  5.41000 -0.56600 42.29100
H  7.01300 0.30100 41.25100
H  6.84500 1.78000 42.28400
H  -3.01800 0.86000 42.21800
H  -1.44300 1.62300 42.59400
H  -2.87000 1.52900 43.78100
H  -4.39000 -3.66600 44.37900
H  -3.39600 -3.99500 42.83400
H  -5.03500 -3.46100 42.73300
H  -0.53800 -6.51300 44.80600
H  0.60700 -6.53300 47.49900
H  -2.73100 -6.20000 45.94600
H  -2.06200 -5.44200 47.38300
H  -1.79500 -7.13500 47.16400
H  1.84200 -7.65100 44.98100
H  0.36400 -8.41200 45.28800
H  1.47600 -8.96200 47.68700
H  2.97900 -8.68000 46.73500
H  1.94100 -9.79000 46.16100
H  5.63200 -5.92600 47.97000
H  7.24900 -5.23300 47.48400
H  6.40700 -6.29400 46.34800
H  7.27200 -1.17400 44.12200
H  8.81100 2.56400 45.01700
H  8.18500 2.27000 46.61900
H  7.13300 3.00500 45.34100
Mg 46.35800 17.09400 27.94100
C  44.96800 16.24000 30.97000
C  48.99500 18.59500 29.77500
C  47.99500 17.84900 25.00500
C  43.91100 15.49900 26.29300
N  46.91600 17.30900 30.16800
C  46.11000 16.97300 31.22000
C  46.68200 17.37300 32.56800
C  47.88100 18.32600 32.15600
C  47.99100 18.10400 30.61100
C  47.58100 19.79300 32.46500
C  47.11600 16.17400 33.41100
C  46.67300 16.22400 34.88800
H  46.60600 17.63800 35.43200
N  48.12500 18.13100 27.47300
C  49.09600 18.63500 28.35800
C  50.22400 19.12400 27.57700
C  49.84700 19.14800 26.20300
C  48.61400 18.37000 26.17700
C  51.42100 19.84300 28.28000
C  50.53000 19.68200 24.84900
O  50.11800 19.45900 23.69300
C  51.84300 20.45500 24.88000
N  45.99100 16.68400 25.83900
C  46.80000 17.02700 24.85100
C  46.15100 16.66100 23.47300
C  45.05400 15.66600 24.01800
C  45.00600 15.89100 25.47800
C  45.67300 17.91400 22.61400
C  45.27400 14.17700 23.59700
C  45.94800 13.09100 24.53500
N  44.67700 16.22300 28.43400
C  43.77300 15.55500 27.66300
C  42.68200 14.98900 28.48100
C  43.18800 15.20200 29.78200
C  44.37100 15.98300 29.73200
C  41.52800 14.23600 28.06600
C  42.82700 15.09100 31.16700
O  41.70900 14.66000 31.52000
C  43.92500 15.69800 32.00200
C  43.31200 16.81000 32.75500
O  43.08500 17.92700 32.26000
O  42.91200 16.38800 34.07800
C  42.32100 17.36600 35.01400
H  49.82400 19.06500 30.30800
H  48.28900 18.07400 23.97700
H  43.17800 14.89600 25.75300
H  45.95600 17.95200 33.13800
H  48.79900 17.97500 32.62800
H  48.42900 20.16700 33.04000
H  46.68500 20.01600 33.04500
H  47.47900 20.20600 31.46200
H  48.20200 16.11400 33.48300
H  46.73200 15.25400 32.97000
H  47.48200 15.77800 35.46600
H  45.72300 15.70500 35.01700
H  51.03100 20.77700 28.68300
H  52.24600 19.96100 27.57900
H  51.90500 19.25600 29.06100
H  51.61200 21.43100 25.30800
H  52.25700 20.62700 23.88700
H  52.59600 19.97600 25.50600
H  46.87500 16.18600 22.81100
H  44.11600 15.94100 23.53500
H  44.58900 17.83400 22.53900
H  46.15200 17.83100 21.63900
H  46.04600 18.81900 23.09400
H  45.88600 14.17200 22.69500
H  44.33500 13.66500 23.38700
H  47.02700 13.24400 24.58000
H  45.62800 12.08400 24.27000
H  45.57300 13.20700 25.55200
H  40.60200 14.79900 27.94500
H  41.41400 13.45600 28.81800
H  41.66200 13.66200 27.14900
H  44.23000 14.95400 32.73800
H  41.25000 17.40100 34.81300
H  42.73000 18.36800 34.88400
H  42.65000 16.94600 35.96400

