158

Mg 7.01300 54.25200 41.01600
C  6.78700 50.72900 40.69700
C  10.22000 54.11300 39.94400
C  6.96900 57.57500 40.75900
C  3.69300 54.22100 42.08100
N  8.28000 52.55700 40.27800
C  8.07400 51.23200 40.34800
C  9.38400 50.48300 40.18300
C  10.48800 51.61100 40.13900
C  9.58300 52.87300 40.08000
C  11.42600 51.64000 41.38200
C  9.38300 49.47300 39.03500
C  9.20100 50.14100 37.61200
H  8.01600 49.73400 36.77700
N  8.46700 55.70800 40.41300
C  9.71700 55.42300 40.09800
C  10.38400 56.70300 39.84400
C  9.42800 57.72900 39.91100
C  8.24900 57.03400 40.45400
C  11.90500 56.83000 39.56500
C  9.57000 59.26500 39.41500
O  10.68000 59.70300 39.10200
C  8.46500 60.24100 39.44000
N  5.53800 55.69700 41.33100
C  5.77000 57.03200 41.11800
C  4.52900 57.85600 41.32400
C  3.50900 56.80500 41.85400
C  4.22900 55.48000 41.76900
C  4.68600 59.20300 42.18700
C  2.26000 56.68400 40.90000
C  0.85500 56.87800 41.59000
N  5.47100 52.81800 41.34500
C  4.21900 52.94900 41.88600
C  3.71600 51.64900 42.28400
C  4.71100 50.71900 41.81600
C  5.65600 51.51600 41.17700
C  2.42400 51.35100 42.98700
C  5.08300 49.26500 41.79100
O  4.54200 48.27800 42.26100
C  6.39500 49.23700 40.97600
C  5.85300 48.57800 39.79800
O  5.12900 49.09900 38.87100
O  6.22800 47.22800 39.93700
C  5.55200 46.41300 38.95700
H  11.30100 54.13700 39.79400
H  6.85000 58.65700 40.67300
H  2.76500 54.04500 42.63000
H  9.45900 49.90000 41.10100
H  11.08000 51.55600 39.22500
H  12.37000 51.96900 40.94700
H  11.46400 50.64500 41.82400
H  11.29100 52.43900 42.11100
H  8.66400 48.68800 39.27000
H  10.36100 48.99200 39.03000
H  10.08600 49.95100 37.00400
H  9.11800 51.22700 37.65800
H  12.20500 56.97400 38.52700
H  12.48700 56.00500 39.97600
H  12.21700 57.70700 40.13300
H  7.71800 59.59900 38.97500
H  8.54000 61.17300 38.88000
H  8.24200 60.52800 40.46800
H  4.31000 58.21400 40.31800
H  3.19700 56.98400 42.88300
H  3.91000 59.27500 42.95000
H  4.58800 60.02800 41.48200
H  5.68500 59.16300 42.62300
H  2.32600 55.74300 40.35400
H  2.33500 57.49400 40.17400
H  0.55100 57.92000 41.49100
H  0.90100 56.46500 42.59800
H  0.17100 56.26800 41.00000
H  2.63400 51.03500 44.00900
H  1.93400 50.44100 42.64100
H  1.71900 52.17100 42.85200
H  7.11200 48.65600 41.55500
H  6.30100 46.25500 38.18100
H  4.53000 46.66200 38.67000
H  5.55400 45.44200 39.45300
Mg 9.68800 48.37400 26.02300
C  7.82600 48.76400 28.99000
C  12.21400 49.96300 27.55500
C  11.44000 47.97100 23.06400
C  6.68300 47.83100 24.26300
N  9.90900 49.26800 28.06200
C  9.13400 49.11500 29.12100
C  9.84700 49.55200 30.42500
C  11.01000 50.39500 29.85700
C  11.03700 49.94100 28.38900
C  10.75000 51.91400 30.06300
C  10.19100 48.29600 31.30300
C  10.09400 48.37900 32.85000
H  10.14400 47.03600 33.67900
N  11.55300 48.90100 25.32000
C  12.46200 49.52900 26.15200
C  13.78000 49.43400 25.48600
C  13.59200 48.81000 24.26700
C  12.14600 48.49700 24.18600
C  15.11000 49.86700 26.17900
C  14.54600 48.50400 23.09100
O  14.25200 48.09000 21.95900
C  16.03800 48.83200 23.24400
N  9.24100 48.07800 23.94000
C  10.10600 47.89000 22.93100
C  9.39700 47.41100 21.66100
C  7.84600 47.51400 22.07400
C  7.89800 47.81800 23.57500
C  9.78900 48.27100 20.43000
C  7.09000 46.24900 21.57800
C  6.87700 46.01700 20.10100
N  7.67400 48.32900 26.49400
C  6.53400 48.12800 25.63400
C  5.39200 48.01400 26.49000
C  5.84300 48.24500 27.78300
C  7.19500 48.43300 27.73800
C  3.98700 47.62000 26.04100
C  5.46600 48.29000 29.20300
O  4.29800 48.17000 29.66200
C  6.76800 48.58300 29.99200
C  6.88400 47.31000 30.76700
O  7.09900 46.17900 30.35200
O  6.84700 47.54500 32.13400
C  7.08400 46.28100 32.90400
H  13.04900 50.39000 28.11400
H  12.07100 47.70600 22.21400
H  5.72800 47.67100 23.75800
H  9.17000 50.14700 31.03900
H  11.97500 50.07200 30.24700
H  10.02900 52.03100 30.87200
H  10.35800 52.24900 29.10200
H  11.63700 52.48800 30.33100
H  11.25300 48.08800 31.17400
H  9.73100 47.37700 30.94000
H  9.20700 48.95600 33.11400
H  11.00500 48.84000 33.23000
H  15.77600 49.01100 26.28900
H  14.94900 50.42400 27.10200
H  15.55100 50.55900 25.46200
H  16.51300 48.72200 22.26900
H  16.48000 48.10300 23.92300
H  16.23000 49.88500 23.45000
H  9.67500 46.37600 21.46100
H  7.37000 48.43400 21.73400
H  10.58300 48.98000 20.66200
H  8.95400 48.82500 20.00000
H  10.25200 47.65800 19.65700
H  6.11800 46.28400 22.06900
H  7.54900 45.34100 21.96900
H  5.87400 45.61800 19.94800
H  7.61100 45.31600 19.70400
H  6.99300 47.00300 19.65200
H  3.89900 47.08500 25.09500
H  3.44000 48.50200 25.70900
H  3.54900 47.04400 26.85600
H  6.57000 49.42100 30.66100
H  7.42500 46.63800 33.87500
H  7.91100 45.68300 32.52100
H  6.15100 45.72400 32.99500

