158

Mg 36.66800 49.79900 25.06400
C  36.63800 47.79300 28.02600
C  35.73800 52.34200 26.98400
C  36.46900 51.46800 22.33700
C  37.66100 46.87700 23.32900
N  36.02300 49.88900 27.26700
C  36.24400 49.06500 28.32500
C  35.96700 49.69700 29.66500
C  35.48700 51.10700 29.26200
C  35.74900 51.10400 27.70400
C  34.03000 51.49300 29.56800
C  37.16100 49.64300 30.72600
C  36.88000 49.16400 32.14700
H  35.41100 49.22200 32.69400
N  36.15800 51.74000 24.69300
C  35.89600 52.68200 25.60000
C  35.60300 53.89800 25.00600
C  35.78300 53.64400 23.58100
C  36.17200 52.25800 23.42800
C  35.03800 55.10700 25.78600
C  35.69600 54.56500 22.29300
O  35.86100 54.19600 21.16800
C  35.38200 55.98200 22.50600
N  36.72100 49.14200 23.07000
C  36.76900 50.05400 22.11200
C  36.87100 49.34600 20.79200
C  37.39100 47.89600 21.08700
C  37.20000 47.97000 22.60500
C  35.56500 49.42800 20.05200
C  38.87100 47.57900 20.57100
C  40.01700 48.56300 21.03500
N  37.11400 47.75400 25.50800
C  37.53600 46.67000 24.70600
C  37.83500 45.48600 25.50300
C  37.50600 45.90200 26.82800
C  37.06200 47.25500 26.74600
C  38.34700 44.18100 25.02500
C  37.56500 45.56300 28.19500
O  38.07900 44.57000 28.72700
C  36.93700 46.69900 28.97800
C  35.65500 46.22600 29.58400
O  34.59500 46.09600 29.04000
O  35.87000 45.89800 30.92300
C  34.63400 45.38300 31.56000
H  35.58500 53.20300 27.63700
H  36.43000 52.03600 21.40500
H  38.16300 46.12700 22.71400
H  35.09100 49.16400 30.03500
H  36.11600 51.89000 29.68600
H  33.56200 50.89900 30.35200
H  33.44500 51.46200 28.64800
H  34.04000 52.47600 30.03900
H  37.68000 50.59700 30.81800
H  38.01400 49.06600 30.36900
H  37.61300 49.74800 32.70300
H  37.21600 48.12800 32.17400
H  35.68000 55.88900 25.38100
H  35.21200 55.20700 26.85800
H  33.97900 55.30600 25.62200
H  36.25700 56.49800 22.90200
H  34.45900 56.20700 23.04100
H  35.27100 56.38300 21.49800
H  37.61300 49.88500 20.20400
H  36.79200 47.09900 20.64500
H  34.68700 49.36300 20.69500
H  35.53400 48.77900 19.17700
H  35.57000 50.40300 19.56400
H  38.97400 47.56000 19.48600
H  38.87700 46.52300 20.84100
H  40.61900 48.79300 20.15600
H  40.66500 47.88200 21.58500
H  39.68100 49.36500 21.69300
H  39.24800 44.43800 24.46800
H  37.53700 43.70600 24.47000
H  38.64000 43.50900 25.83200
H  37.42300 47.00100 29.90600
H  34.82400 45.27900 32.62900
H  34.33700 44.41900 31.14700
H  33.82100 46.08300 31.37000
Mg 10.65500 48.27500 26.01800
C  8.37200 48.04700 28.86100
C  12.92900 49.53000 28.19900
C  12.42000 48.71000 23.39300
C  7.75300 48.04500 24.02300
N  10.58800 48.63300 28.35200
C  9.57200 48.52700 29.24900
C  10.13300 48.95100 30.65200
C  11.41100 49.79700 30.29700
C  11.67400 49.40700 28.84400
C  11.41400 51.35200 30.62700
C  10.34200 47.71400 31.53900
C  9.55000 47.68800 32.85000
H  9.81000 46.47500 33.63700
N  12.47300 48.98400 25.90300
C  13.38400 49.36200 26.88900
C  14.63700 49.46000 26.21700
C  14.53300 49.23100 24.85300
C  13.06400 48.98200 24.64200
C  15.91600 49.79200 27.00400
C  15.65000 49.03800 23.74500
O  15.37200 48.73600 22.58200
C  17.04500 48.96700 24.13400
N  10.18900 48.37400 23.91100
C  11.13700 48.47700 23.00200
C  10.59300 48.44700 21.49700
C  8.97200 48.31100 21.78500
C  8.93400 48.20600 23.34100
C  10.88300 49.69200 20.65800
C  8.44900 46.91600 21.04300
C  7.58600 47.17700 19.77100
N  8.55200 47.87200 26.29200
C  7.49900 47.83000 25.40400
C  6.29700 47.50600 26.03700
C  6.59000 47.55600 27.42600
C  7.95200 47.80600 27.54100
C  4.97900 47.24100 25.36600
C  5.96400 47.46000 28.73900
O  4.84600 47.16800 29.03500
C  7.10600 47.71000 29.71500
C  7.32800 46.42900 30.42700
O  8.08600 45.52100 30.11300
O  6.51600 46.28700 31.51900
C  6.61800 45.00200 32.27500
H  13.62800 49.92700 28.93800
H  12.96500 48.60400 22.45300
H  6.94700 47.98100 23.29000
H  9.45400 49.63800 31.15700
H  12.21300 49.44400 30.94600
H  10.67700 51.72300 31.33900
H  11.28400 51.77700 29.63200
H  12.35500 51.71100 31.04400
H  11.39900 47.73200 31.80700
H  10.12600 46.77600 31.02700
H  8.47700 47.80000 32.69200
H  9.99200 48.45300 33.48800
H  15.65700 49.64000 28.05200
H  16.27100 50.80700 26.82500
H  16.55100 49.02900 26.55400
H  17.68400 48.76500 23.27400
H  17.15300 48.07700 24.75500
H  17.34500 49.89100 24.62900
H  11.01900 47.49700 21.17600
H  8.58300 49.26200 21.42100
H  11.75100 50.22400 21.04700
H  10.06500 50.40800 20.73300
H  11.14300 49.35100 19.65600
H  7.83500 46.25600 21.65600
H  9.37100 46.41000 20.75700
H  7.22100 48.18900 19.95000
H  6.81800 46.43300 19.56100
H  8.19300 47.13800 18.86600
H  4.56500 48.19300 25.03400
H  4.23600 46.75200 25.99600
H  4.99500 46.59400 24.48900
H  6.85400 48.52000 30.39900
H  6.40600 45.19200 33.32700
H  7.51100 44.39300 32.13700
H  5.72700 44.40300 32.08600

