158

Mg 24.48300 -5.05400 46.32300
C  26.39900 -2.49900 44.61200
C  21.87000 -4.07500 44.36700
C  22.81600 -7.67600 47.44800
C  27.44600 -6.15500 47.76500
N  24.23600 -3.37000 44.76600
C  25.08100 -2.46600 44.23100
C  24.41200 -1.62400 43.14800
C  22.95400 -2.05200 43.26000
C  22.97200 -3.23400 44.24400
C  21.97100 -0.89400 43.70600
C  25.17100 -1.95600 41.77600
C  25.87800 -0.76300 41.06100
H  25.69900 -0.66000 39.54800
N  22.56300 -5.78200 46.00300
C  21.59400 -5.25400 45.11800
C  20.41000 -6.02700 45.17900
C  20.66300 -7.11200 46.09800
C  22.03900 -6.86500 46.63600
C  19.16800 -5.80500 44.27900
C  19.63100 -8.23900 46.43700
O  18.48800 -8.18600 45.96600
C  20.04100 -9.36200 47.41600
N  25.09600 -6.78600 47.38700
C  24.15900 -7.60500 47.91100
C  24.88900 -8.67400 48.82500
C  26.24000 -7.93200 49.09200
C  26.26200 -6.97100 47.93700
C  24.07200 -9.02700 50.07400
C  27.45700 -8.95400 49.21300
C  28.36400 -8.90300 50.39900
N  26.49200 -4.47300 46.28000
C  27.58100 -4.99600 46.95100
C  28.74500 -4.13100 46.71500
C  28.31700 -3.12300 45.82400
C  26.94400 -3.37600 45.58600
C  30.12600 -4.38900 47.20800
C  28.75900 -1.97000 45.06200
O  29.84900 -1.38200 44.92300
C  27.51700 -1.58800 44.17000
C  27.31100 -0.13300 44.35700
O  26.41500 0.38100 45.05200
O  28.23200 0.55900 43.62500
C  28.11000 2.09000 43.74400
H  21.10000 -3.73600 43.67000
H  22.40300 -8.56200 47.93400
H  28.29800 -6.34300 48.42100
H  24.56400 -0.55200 43.27900
H  22.59600 -2.49100 42.32900
H  21.22800 -1.30600 44.38800
H  21.60100 -0.61700 42.71800
H  22.41900 0.03200 44.06600
H  24.36100 -2.34400 41.15900
H  25.91800 -2.73200 41.94500
H  26.94300 -0.89300 41.25300
H  25.52300 0.16700 41.50400
H  19.08200 -6.57300 43.51000
H  19.04600 -4.89400 43.69200
H  18.34800 -5.76000 44.99600
H  19.30200 -10.12800 47.65000
H  20.47400 -9.03500 48.36100
H  20.82000 -9.84300 46.82400
H  24.99600 -9.58300 48.23300
H  26.15000 -7.45500 50.06800
H  24.82500 -9.19200 50.84400
H  23.63100 -9.97800 49.77500
H  23.28500 -8.39900 50.49100
H  28.03500 -8.86000 48.29300
H  27.08900 -9.96900 49.36600
H  29.32400 -8.50900 50.06400
H  28.41000 -9.96600 50.63700
H  28.04600 -8.29200 51.24300
H  30.17000 -4.19100 48.27900
H  30.95000 -4.02900 46.59100
H  30.19800 -5.47600 47.22500
H  27.76600 -1.68500 43.11300
H  27.92100 2.32400 44.79200
H  27.29100 2.53000 43.17600
H  29.02900 2.60900 43.47100
Mg 45.70400 17.34100 29.17700
C  43.65800 16.90400 31.93300
C  47.61100 19.47400 31.23900
C  47.50900 18.45400 26.37800
C  43.39900 15.86600 27.06000
N  45.55700 18.18800 31.35200
C  44.78400 17.57000 32.31000
C  45.18600 17.97400 33.66300
C  46.27100 19.03900 33.34200
C  46.50600 18.87800 31.87200
C  46.05600 20.46500 33.80300
C  45.55100 16.85000 34.65200
C  46.30100 17.19300 35.84600
H  46.07000 18.57900 36.60200
N  47.30800 18.67300 28.91600
C  47.90100 19.47300 29.90200
C  48.95900 20.16900 29.30900
C  48.95000 20.01000 27.86300
C  47.91600 18.99600 27.65100
C  50.00200 21.01900 30.12400
C  49.77600 20.66200 26.82300
O  49.69300 20.44900 25.62800
C  50.78600 21.71900 27.25300
N  45.60200 17.08900 26.91700
C  46.43400 17.61000 26.07000
C  46.08500 17.19400 24.64500
C  44.87200 16.31900 24.87500
C  44.56800 16.41100 26.36600
C  45.89900 18.34000 23.54000
C  45.02000 14.90900 24.46900
C  45.68800 13.95700 25.49200
N  43.93700 16.54000 29.34600
C  43.13700 15.92000 28.43200
C  41.98300 15.50000 29.12800
C  42.17800 15.74300 30.45600
C  43.36300 16.43800 30.58900
C  40.77500 14.81400 28.61400
C  41.49200 15.66000 31.75100
O  40.39900 15.19500 32.05900
C  42.54000 16.33300 32.75600
C  41.88400 17.29900 33.67700
O  41.14600 18.26400 33.38900
O  42.18400 16.94500 34.93900
C  41.58800 17.76300 36.07000
H  48.12600 20.05600 32.00700
H  47.90200 18.83500 25.43300
H  42.57200 15.39300 26.52700
H  44.29200 18.42500 34.09200
H  47.24800 18.75900 33.73400
H  45.85900 21.07800 32.92400
H  46.94000 20.72900 34.38400
H  45.19700 20.46700 34.47300
H  46.02300 16.08600 34.03200
H  44.61000 16.44500 35.02400
H  47.36700 17.02100 35.70300
H  45.99700 16.42100 36.55300
H  49.84000 22.09500 30.05500
H  51.07900 20.97400 29.96500
H  49.82500 20.84100 31.18500
H  51.28000 22.11100 26.36400
H  51.65700 21.37400 27.81000
H  50.26800 22.59200 27.64800
H  46.84200 16.48800 24.30500
H  44.03400 16.71300 24.30000
H  46.00500 19.35500 23.92100
H  44.87800 18.24900 23.16800
H  46.60800 18.24400 22.71700
H  45.42100 14.83500 23.45800
H  44.05000 14.43200 24.33000
H  44.95800 13.28700 25.94400
H  46.28500 14.35400 26.31300
H  46.31700 13.17900 25.05800
H  40.79500 13.74300 28.81300
H  40.70200 15.08600 27.56100
H  39.90100 15.29500 29.05400
H  43.01200 15.52100 33.30900
H  40.86900 17.08900 36.53400
H  41.12200 18.67500 35.69700
H  42.38500 18.00800 36.77300

