158

Mg 48.66200 35.04500 26.29200
C  46.85400 33.42400 28.83900
C  48.81600 37.80000 28.34700
C  50.51700 36.47400 24.04800
C  48.23500 32.29200 24.29900
N  47.88000 35.59900 28.31400
C  47.37400 34.71300 29.24300
C  47.33800 35.30100 30.68900
C  47.63400 36.83300 30.42400
C  48.16600 36.71100 28.94700
C  46.50100 37.87400 30.71900
C  48.49400 34.77000 31.58400
C  47.95200 34.37400 32.96500
H  46.77800 35.20100 33.59800
N  49.46000 36.95600 26.13800
C  49.41400 37.96200 27.03300
C  50.09800 39.12400 26.47300
C  50.63600 38.68300 25.22400
C  50.20500 37.33200 25.05200
C  50.22100 40.41500 27.24300
C  51.56200 39.45900 24.24700
O  52.04900 39.06800 23.17200
C  52.15100 40.66600 24.74300
N  49.13900 34.55400 24.35300
C  50.04300 35.25600 23.64100
C  50.29600 34.55900 22.32500
C  49.63900 33.15100 22.48700
C  49.00400 33.32500 23.81300
C  49.72100 35.44800 21.11700
C  50.55600 31.90900 22.28800
C  50.10300 30.77000 21.36400
N  47.61800 33.18900 26.44900
C  47.53900 32.19200 25.51600
C  46.79600 31.08300 26.12100
C  46.49600 31.52000 27.41500
C  47.04700 32.78700 27.54900
C  46.34900 29.78900 25.34500
C  45.81200 31.13200 28.64600
O  45.23000 30.06300 28.98100
C  45.97200 32.41900 29.61300
C  46.55700 31.82900 30.90000
O  47.73300 31.52700 31.03700
O  45.60100 31.57400 31.89100
C  46.09600 30.88800 33.09700
H  48.90600 38.67500 28.99400
H  51.31900 36.71500 23.34700
H  48.31100 31.40400 23.66800
H  46.33700 35.12700 31.08300
H  48.50800 37.26700 30.91200
H  46.35300 38.27900 29.71800
H  46.93400 38.58200 31.42600
H  45.62700 37.40000 31.16500
H  49.32100 35.47300 31.68900
H  48.97800 33.98300 31.00500
H  48.74100 34.31400 33.71400
H  47.52500 33.37700 33.07700
H  51.26200 40.71400 27.36100
H  49.75400 40.36000 28.22700
H  49.71500 41.25400 26.76400
H  51.34800 41.33600 25.04800
H  52.68100 41.25500 23.99400
H  52.75800 40.37200 25.59900
H  51.38300 34.58100 22.40300
H  48.83900 33.08400 21.74900
H  49.16400 36.30600 21.49300
H  48.94900 35.03400 20.46800
H  50.55600 35.96700 20.64600
H  50.62000 31.38100 23.23900
H  51.57300 32.10600 21.94800
H  50.85500 30.15000 20.87600
H  49.53000 31.26800 20.58200
H  49.33900 30.18600 21.87800
H  46.37400 29.82300 24.25600
H  45.33400 29.51100 25.62600
H  46.99300 28.96700 25.65700
H  44.95700 32.74300 29.84200
H  45.73200 29.86200 33.06100
H  45.51200 31.29400 33.92300
H  47.17600 30.89000 33.24900
Mg 26.83500 51.50300 26.32700
C  24.88400 52.28500 28.98800
C  29.42100 50.64300 28.60300
C  28.89800 50.65200 23.73000
C  24.55200 52.61900 24.13000
N  27.13700 51.56400 28.49800
C  26.12500 51.78400 29.41200
C  26.49200 51.42200 30.85500
C  27.93800 51.07100 30.66300
C  28.20100 51.04600 29.17300
C  28.93800 52.10600 31.40800
C  25.64800 50.32800 31.55700
C  25.04800 50.83000 32.90100
H  25.95100 50.79300 34.15000
N  28.85500 50.80100 26.22400
C  29.75600 50.49200 27.23400
C  31.02500 50.01100 26.77300
C  30.81400 49.81700 25.39700
C  29.45800 50.38800 25.06800
C  32.17600 49.80900 27.71400
C  31.68700 48.99100 24.45900
O  31.44900 48.96300 23.22700
C  32.84600 48.21000 24.83700
N  26.81700 51.73600 24.09700
C  27.77200 51.29300 23.24300
C  27.25700 51.36500 21.80400
C  25.83000 51.95700 21.92300
C  25.73600 52.16500 23.46200
C  28.31900 52.14300 20.92100
C  24.66700 51.24000 21.30000
C  24.22500 49.99800 22.01100
N  25.13400 52.44800 26.48300
C  24.26900 52.77300 25.49500
C  23.02500 53.30100 26.07100
C  23.20300 53.10900 27.43300
C  24.54600 52.59400 27.65700
C  21.80500 53.72900 25.30700
C  22.62700 53.24500 28.69800
O  21.53200 53.65100 28.96700
C  23.64700 52.68800 29.75000
C  23.94800 53.85100 30.61800
O  24.75500 54.70800 30.36100
O  23.20700 53.80300 31.81500
C  23.62500 54.75100 32.91600
H  30.23500 50.23500 29.20600
H  29.49900 50.29700 22.89100
H  23.71400 52.92700 23.50000
H  26.47500 52.29000 31.51300
H  28.15600 50.07400 31.04500
H  29.28800 52.78300 30.62900
H  29.67000 51.54800 31.99200
H  28.54800 52.81300 32.14100
H  26.20100 49.42500 31.81500
H  24.76200 50.10400 30.96200
H  24.05000 50.40400 33.00600
H  24.79200 51.87000 32.69700
H  33.07000 50.10200 27.16500
H  32.15100 48.77200 28.04900
H  32.04200 50.54200 28.50900
H  33.47800 48.81800 25.48500
H  33.37600 48.10800 23.89000
H  32.54000 47.28700 25.32900
H  27.25900 50.34600 21.41800
H  25.67700 52.96500 21.53600
H  28.54100 51.56900 20.02100
H  29.23100 52.30800 21.49500
H  27.89600 53.08900 20.58100
H  24.84700 50.93100 20.27000
H  23.77600 51.86700 21.28000
H  24.43100 49.21500 21.28100
H  23.14800 50.11200 22.13600
H  24.71700 49.75400 22.95200
H  21.00500 53.75000 26.04700
H  21.62300 53.05100 24.47300
H  21.99800 54.74200 24.95400
H  23.04300 51.96300 30.29600
H  23.85900 55.75100 32.55200
H  24.60600 54.49400 33.31400
H  22.85600 54.88400 33.67700

