158

Mg 54.04100 23.58700 44.18700
C  51.71500 26.18900 43.44500
C  51.82600 21.27900 43.11200
C  56.50000 21.50000 44.07500
C  56.34000 26.20000 44.70400
N  52.09100 23.70200 43.33000
C  51.34800 24.86600 43.01500
C  49.97100 24.51400 42.28300
C  49.91000 22.99800 42.57200
C  51.36600 22.62300 43.10600
C  48.76300 22.51400 43.55400
C  49.86300 24.84800 40.75100
C  51.05300 24.58400 39.75800
H  51.30500 25.48000 38.49000
N  54.09900 21.59500 43.67400
C  53.06700 20.77300 43.26600
C  53.58600 19.45200 43.34200
C  54.92600 19.44900 43.82700
C  55.26400 20.87000 43.84800
C  52.82100 18.26000 42.92800
C  55.79600 18.15500 44.01100
O  55.42100 17.12400 43.50100
C  57.18200 18.16200 44.61000
N  56.19800 23.86600 44.38500
C  57.00700 22.75400 44.27600
C  58.50500 23.04200 44.26200
C  58.47900 24.54900 44.66300
C  56.95600 24.91800 44.62600
C  59.56400 22.17300 45.04700
C  59.36200 25.38500 43.66900
C  60.24600 26.48700 44.25100
N  54.02000 25.72900 44.38700
C  54.99700 26.61600 44.58500
C  54.49400 27.99500 44.68700
C  53.16600 27.83100 44.24900
C  52.94400 26.43600 44.03300
C  55.20900 29.32200 45.22600
C  51.85800 28.52300 44.01100
O  51.51700 29.72800 44.13500
C  50.92000 27.56900 43.38100
C  50.77800 28.05100 41.95900
O  51.65600 28.27700 41.13800
O  49.43200 28.22700 41.73700
C  49.15800 29.19200 40.66900
H  51.01400 20.59200 42.86300
H  57.26000 20.74300 43.87100
H  56.97100 27.06900 44.90500
H  49.16400 24.97000 42.85500
H  49.61000 22.48400 41.65900
H  48.58300 23.30400 44.28300
H  49.15400 21.57500 43.94700
H  47.84800 22.27900 43.01000
H  49.58400 25.89100 40.59700
H  49.15200 24.15000 40.30900
H  50.95600 23.58400 39.33500
H  51.99400 24.48400 40.29800
H  53.18000 17.96100 41.94300
H  51.78000 18.58400 42.89600
H  52.92600 17.64600 43.82200
H  57.33700 18.82800 45.45800
H  57.92600 18.54000 43.90900
H  57.37100 17.14900 44.96600
H  58.73500 23.00200 43.19700
H  58.82900 24.72000 45.68100
H  60.37900 21.75300 44.45700
H  58.94300 21.43200 45.55200
H  59.92300 22.76700 45.88700
H  58.64700 25.74800 42.93100
H  60.08500 24.77000 43.13300
H  61.28300 26.60600 43.93600
H  60.33600 26.33800 45.32700
H  59.82300 27.47700 44.08300
H  55.65900 29.97800 44.48000
H  56.00500 28.91400 45.84900
H  54.44200 29.74000 45.87700
H  49.96900 27.44600 43.89900
H  49.29700 28.84600 39.64400
H  49.80300 30.06600 40.74400
H  48.09500 29.43200 40.69100
Mg -6.27700 25.88900 26.25000
C  -5.00200 27.36100 29.08700
C  -8.08900 23.61900 28.35800
C  -7.29700 23.97300 23.58200
C  -4.41100 27.88100 24.29900
N  -6.45100 25.47000 28.46000
C  -5.98700 26.32900 29.43100
C  -6.51300 26.01600 30.77900
C  -7.28600 24.63400 30.47700
C  -7.23700 24.55200 28.98000
C  -6.89800 23.39100 31.22200
C  -7.44600 27.22100 31.41500
C  -7.15000 27.48400 32.87200
H  -6.87200 26.36100 33.91400
N  -7.52800 24.08400 25.99600
C  -8.09800 23.33100 26.96500
C  -8.72600 22.18500 26.44500
C  -8.52800 22.22800 25.01000
C  -7.77500 23.43100 24.80500
C  -9.38100 21.15600 27.34500
C  -9.02200 21.35800 23.83400
O  -8.74100 21.41700 22.66000
C  -10.12700 20.39000 24.18800
N  -5.91300 25.92900 24.19800
C  -6.49200 25.08700 23.20400
C  -5.95700 25.46800 21.82000
C  -5.18900 26.82300 22.09300
C  -5.14600 26.88800 23.61900
C  -5.15200 24.30500 21.10100
C  -5.75600 28.12500 21.52100
C  -4.87000 28.71800 20.49300
N  -4.85500 27.24900 26.56100
C  -4.21000 28.05100 25.70500
C  -3.44500 29.07300 26.42700
C  -3.73300 28.77900 27.74500
C  -4.57300 27.68200 27.75800
C  -2.65800 30.19800 25.83800
C  -3.46800 29.26600 29.08200
O  -2.79200 30.22100 29.45100
C  -4.31200 28.38000 29.98600
C  -3.30900 27.77300 30.85500
O  -2.57400 26.85500 30.44900
O  -3.37700 28.37900 32.03700
C  -2.42200 27.83300 33.00400
H  -8.72900 23.01800 29.00700
H  -7.59600 23.43700 22.67800
H  -3.94800 28.72800 23.78800
H  -5.72600 25.70000 31.46400
H  -8.35500 24.75300 30.65200
H  -6.70200 23.72800 32.24000
H  -6.08200 22.77400 30.84500
H  -7.75600 22.72000 31.21300
H  -8.50000 26.95500 31.32700
H  -7.28200 28.09500 30.78500
H  -8.08000 27.86100 33.29700
H  -6.29600 28.14700 33.00600
H  -10.14400 20.60700 26.79200
H  -9.93500 21.59300 28.17600
H  -8.69000 20.37900 27.67100
H  -10.51300 19.85800 23.31900
H  -10.91000 20.85300 24.79000
H  -9.63400 19.69000 24.86200
H  -6.85400 25.74300 21.26600
H  -4.12700 26.79600 21.85100
H  -4.18000 24.73700 20.86500
H  -5.84200 23.93000 20.34600
H  -5.02700 23.44600 21.76000
H  -5.82400 28.84000 22.34100
H  -6.74500 27.81800 21.18100
H  -4.31100 27.99300 19.90200
H  -4.15900 29.36100 21.01100
H  -5.52800 29.30000 19.84700
H  -1.67100 29.94500 26.22400
H  -3.14600 31.16100 25.99100
H  -2.49700 30.13600 24.76200
H  -4.95000 28.91500 30.68900
H  -1.91800 28.68400 33.46200
H  -1.67100 27.15100 32.60500
H  -2.93300 27.21300 33.74100

