158

Mg 24.37000 -4.95900 45.86400
C  26.58700 -2.50800 44.51400
C  22.00600 -3.74300 43.67500
C  22.62500 -7.81200 46.33800
C  27.24500 -6.44200 47.41900
N  24.34200 -3.31100 44.23400
C  25.34500 -2.46800 43.85500
C  24.93200 -1.60800 42.61200
C  23.37000 -1.76600 42.69200
C  23.20600 -2.99200 43.58800
C  22.56000 -0.57400 43.32500
C  25.46000 -2.18700 41.27500
C  26.17700 -1.18400 40.38600
H  25.66000 -1.05500 38.95200
N  22.51200 -5.62600 45.27600
C  21.63800 -4.92300 44.41600
C  20.36700 -5.64700 44.48300
C  20.59800 -6.82400 45.11100
C  21.99800 -6.85400 45.57300
C  19.13900 -5.12000 43.84800
C  19.43400 -7.88300 45.35700
O  18.26000 -7.65300 45.14600
C  19.73900 -9.29800 45.87200
N  24.92400 -6.84200 46.70700
C  23.91000 -7.80000 46.86700
C  24.53100 -9.05900 47.55400
C  25.90200 -8.46100 48.06000
C  26.08700 -7.19500 47.34900
C  23.71900 -9.78200 48.66000
C  27.15300 -9.41700 47.76100
C  28.28300 -9.63400 48.75700
N  26.53700 -4.53600 46.04800
C  27.52300 -5.21200 46.69500
C  28.74600 -4.45100 46.64800
C  28.43400 -3.38600 45.75900
C  27.08100 -3.50200 45.40100
C  29.99900 -4.78300 47.31000
C  28.92100 -2.26700 45.08300
O  30.05400 -1.81600 45.05300
C  27.83400 -1.63700 44.31500
C  27.57700 -0.17200 44.61200
O  26.98900 0.24900 45.57100
O  28.26000 0.63200 43.67500
C  28.13400 2.09600 43.74100
H  21.20400 -3.38200 43.02900
H  22.21800 -8.82200 46.41800
H  28.08000 -6.80500 48.02300
H  25.29000 -0.60200 42.83300
H  22.86300 -2.04800 41.77000
H  23.26600 0.17300 43.69000
H  22.05500 -0.88600 44.23900
H  21.80400 -0.23700 42.61600
H  24.65900 -2.67800 40.72200
H  26.06400 -3.04500 41.57100
H  27.25500 -1.34100 40.40200
H  26.03900 -0.16500 40.74800
H  18.52400 -5.93100 43.45800
H  19.37700 -4.43400 43.03500
H  18.59200 -4.55600 44.60300
H  20.01000 -9.25900 46.92700
H  20.67700 -9.65300 45.44600
H  18.99400 -10.07900 45.72400
H  24.76100 -9.66000 46.67500
H  25.87500 -8.34300 49.14300
H  22.82300 -10.30900 48.33300
H  23.31000 -9.03300 49.33900
H  24.30000 -10.42600 49.32000
H  27.65100 -9.20300 46.81600
H  26.65000 -10.37400 47.62200
H  29.21000 -9.46200 48.20900
H  28.13800 -10.59700 49.24600
H  28.18600 -8.81100 49.46500
H  30.27300 -5.80200 47.03400
H  29.80800 -4.68100 48.37900
H  30.82200 -4.12400 47.03200
H  28.00800 -1.66200 43.23900
H  28.17600 2.33900 42.67900
H  28.82700 2.62400 44.39600
H  27.17100 2.34000 44.19200
Mg 40.94700 8.88600 29.54700
C  42.91100 9.89400 32.18100
C  38.54800 7.66700 31.73600
C  39.13800 7.63100 26.92300
C  43.71200 9.36500 27.39400
N  40.87400 8.62500 31.70500
C  41.66600 9.40500 32.58300
C  41.00500 9.48200 34.05400
C  39.76400 8.57400 33.85500
C  39.70600 8.24100 32.32500
C  39.53400 7.43700 34.81000
C  40.72000 10.90200 34.54500
C  41.62500 11.39900 35.66300
H  41.03100 12.23400 36.81300
N  39.04800 7.88200 29.36000
C  38.21500 7.46500 30.38400
C  37.00800 7.00500 29.87100
C  37.16400 6.93400 28.44200
C  38.50000 7.44300 28.16500
C  35.85800 6.51300 30.76400
C  36.15400 6.44900 27.36400
O  36.54700 6.10800 26.23500
C  34.68000 6.24700 27.76100
N  41.33700 8.60000 27.50500
C  40.40100 8.14700 26.60500
C  40.90200 8.33300 25.16900
C  42.40500 8.84300 25.37600
C  42.51700 8.86700 26.88200
C  40.85000 7.04000 24.23000
C  42.58000 10.21000 24.60500
C  41.93400 11.41800 25.37100
N  42.98700 9.47800 29.68300
C  43.99000 9.64200 28.72100
C  45.22400 10.12200 29.37400
C  44.81900 10.33400 30.71600
C  43.46300 9.90300 30.85200
C  46.60200 10.29200 28.78000
C  45.20400 10.90500 31.99800
O  46.24600 11.39500 32.33200
C  44.02400 10.56400 32.99900
C  44.52500 9.61200 34.13100
O  44.50400 8.38600 34.13700
O  45.01500 10.43800 35.18700
C  45.44100 9.94600 36.50500
H  37.79700 7.50900 32.51300
H  38.62400 7.31500 26.01200
H  44.49400 9.57600 26.66300
H  41.67600 8.95900 34.73500
H  38.89300 9.20300 34.04000
H  38.64100 7.59600 35.41600
H  40.31700 7.29400 35.55500
H  39.52400 6.48800 34.27500
H  39.73500 10.92200 35.01100
H  40.80200 11.67800 33.78400
H  42.35300 12.14000 35.33100
H  42.31400 10.66400 36.08000
H  36.16500 6.45900 31.80800
H  35.54200 5.52200 30.43900
H  35.15200 7.34400 30.75200
H  34.21300 5.87100 26.85100
H  34.33700 7.26400 27.95300
H  34.55500 5.57200 28.60800
H  40.33700 9.08300 24.61600
H  43.09800 8.07300 25.03700
H  40.21700 7.22500 23.36200
H  40.37300 6.22900 24.78100
H  41.86000 6.67900 24.03700
H  42.02100 10.04000 23.68500
H  43.64600 10.35300 24.42500
H  42.56600 12.29200 25.21600
H  41.77000 11.29900 26.44200
H  40.99700 11.57500 24.83600
H  46.72500 11.34900 28.54300
H  46.50700 9.72500 27.85500
H  47.41400 9.85900 29.36400
H  43.58900 11.47000 33.42100
H  44.89200 9.01900 36.67200
H  45.05900 10.71500 37.17600
H  46.52300 9.87000 36.61100

