158

Mg 47.17300 15.64700 28.44700
C  45.22800 15.53400 31.40900
C  49.36400 17.55000 29.90000
C  48.78500 15.88800 25.43800
C  44.64400 13.86800 26.87000
N  47.18800 16.50700 30.44000
C  46.38900 16.33400 31.51100
C  46.96000 17.05700 32.78600
C  48.08500 17.95300 32.14400
C  48.22900 17.37100 30.72500
C  47.68500 19.51200 32.15000
C  47.40300 16.07800 33.86700
C  47.29500 16.48900 35.36100
H  48.59500 16.28000 36.10700
N  48.95700 16.42600 27.83700
C  49.72700 17.20300 28.60800
C  50.97100 17.55300 27.86600
C  50.79800 17.01700 26.55600
C  49.48800 16.43500 26.58500
C  52.04900 18.39400 28.45400
C  51.80400 16.99100 25.49100
O  51.62100 16.52900 24.38400
C  53.29000 17.55600 25.66900
N  46.61700 15.25100 26.26700
C  47.53800 15.32600 25.23100
C  47.19900 14.43500 24.01800
C  45.72800 13.96000 24.45200
C  45.66200 14.34600 25.98900
C  47.39600 15.11000 22.75900
C  45.30000 12.48800 24.14300
C  45.78500 11.37700 25.03600
N  45.29500 14.97400 28.98100
C  44.40300 14.22500 28.22600
C  43.22600 13.82900 28.94800
C  43.55200 14.28100 30.24200
C  44.79500 14.93200 30.22500
C  42.08700 13.03500 28.45800
C  43.04200 14.36100 31.60100
O  42.09800 13.85200 32.13200
C  44.11500 15.25500 32.42700
C  43.42100 16.49100 32.91500
O  42.95800 17.38800 32.15300
O  43.24200 16.39000 34.23600
C  43.11900 17.70600 34.85800
H  50.01700 18.18600 30.50100
H  49.41400 15.94300 24.54700
H  43.93900 13.24800 26.31400
H  46.17900 17.75300 33.08900
H  49.04100 17.79100 32.64200
H  47.63400 19.81700 31.10500
H  48.52200 19.99600 32.65400
H  46.68900 19.74700 32.52300
H  48.45300 16.00600 33.58300
H  47.03300 15.05700 33.77400
H  46.52700 15.88900 35.84900
H  47.09100 17.55400 35.47100
H  51.85900 18.71400 29.47800
H  52.08500 19.31100 27.86600
H  52.95700 17.79100 28.49700
H  53.79900 17.06900 26.50000
H  53.13200 18.62600 25.80200
H  53.88500 17.40600 24.76700
H  47.84400 13.57500 24.19700
H  44.95900 14.62200 24.05400
H  46.48400 15.08100 22.16300
H  48.22800 14.63500 22.23900
H  47.79400 16.12000 22.85800
H  45.67100 12.36000 23.12600
H  44.21000 12.51400 24.13000
H  46.48400 11.74100 25.78900
H  46.34100 10.67800 24.41200
H  44.95600 10.93800 25.59000
H  41.56600 12.44200 29.20900
H  42.44900 12.35700 27.68500
H  41.29400 13.62900 28.00400
H  44.67500 14.73600 33.20600
H  43.38400 18.54700 34.21600
H  43.75100 17.78200 35.74200
H  42.12000 17.96800 35.20700
Mg -1.82900 33.89300 26.32400
C  -3.00400 32.13400 29.24900
C  0.13600 35.78200 28.41800
C  -1.00400 35.65500 23.64400
C  -3.78300 31.74300 24.39100
N  -1.49900 34.02600 28.60200
C  -2.00700 33.12400 29.52300
C  -1.45600 33.41700 30.92700
C  -0.58500 34.71600 30.68300
C  -0.62600 34.82000 29.19700
C  -1.06800 36.02300 31.36800
C  -0.76000 32.17500 31.56800
C  -1.30500 31.66300 32.93400
H  -0.26400 31.53500 34.07800
N  -0.58500 35.53300 26.03900
C  0.11500 36.21000 27.04500
C  0.90700 37.24700 26.42600
C  0.60300 37.22000 25.00600
C  -0.39000 36.14400 24.84200
C  1.93000 38.17000 27.18300
C  1.24700 37.95000 23.86400
O  0.90200 37.96200 22.71800
C  2.36900 38.98400 24.24700
N  -2.51900 33.92700 24.37400
C  -1.92300 34.66900 23.40400
C  -2.41300 34.26300 21.97100
C  -2.84400 32.77900 22.23800
C  -3.11500 32.78900 23.73600
C  -3.52800 35.18600 21.38200
C  -1.85200 31.62900 21.80300
C  -0.53200 31.62700 22.49800
N  -3.16900 32.35400 26.72400
C  -3.86200 31.58200 25.83600
C  -4.68200 30.61400 26.59100
C  -4.34600 30.85400 27.95600
C  -3.44100 31.86700 27.96900
C  -5.72500 29.65100 26.00400
C  -4.70300 30.40300 29.30500
O  -5.49700 29.52700 29.71700
C  -3.73500 31.19500 30.17700
C  -4.46900 31.75000 31.35700
O  -4.82900 32.93000 31.48200
O  -4.68200 30.79800 32.29100
C  -5.23400 31.34600 33.58000
H  0.96900 36.23200 28.96200
H  -0.68300 36.19400 22.75000
H  -4.14300 30.94500 23.73800
H  -2.27900 33.68500 31.59000
H  0.41700 34.43600 31.01000
H  -2.15400 35.95600 31.43600
H  -0.71000 36.87000 30.78100
H  -0.67400 36.03700 32.38400
H  0.31400 32.35700 31.58500
H  -0.87900 31.33900 30.88000
H  -1.52400 30.60200 32.81600
H  -2.23500 32.08900 33.30900
H  2.90400 37.68900 27.26500
H  1.50700 38.30800 28.17800
H  1.98300 39.19800 26.82600
H  3.07800 39.36000 23.51000
H  3.02600 38.55200 25.00200
H  1.83800 39.85600 24.63000
H  -1.60300 34.27300 21.24200
H  -3.85200 32.53900 21.89800
H  -4.44500 34.60300 21.46700
H  -3.13200 35.47200 20.40800
H  -3.79600 36.03500 22.01100
H  -1.57200 31.81500 20.76600
H  -2.23800 30.61000 21.79000
H  -0.82900 31.98500 23.48400
H  0.08600 32.19800 21.80500
H  -0.14700 30.61000 22.57700
H  -5.87900 30.02300 24.99100
H  -6.63700 29.77100 26.58900
H  -5.41100 28.61100 26.10000
H  -2.98800 30.43200 30.39300
H  -4.49600 31.96400 34.09300
H  -5.45000 30.45000 34.16200
H  -6.13100 31.95600 33.47000

