158

Mg 47.92700 34.32200 27.06700
C  46.21700 33.07100 29.93200
C  48.26100 37.31100 28.75400
C  49.04100 35.72400 24.20900
C  47.04000 31.51500 25.33300
N  47.35000 34.98100 29.11200
C  46.67200 34.31700 30.10600
C  46.92500 35.00100 31.47400
C  47.15100 36.51200 30.99600
C  47.59600 36.34200 29.51900
C  45.97900 37.55200 31.00600
C  48.11100 34.43100 32.34400
C  47.73900 34.38500 33.84900
H  46.56100 35.22100 34.37000
N  48.61100 36.26100 26.59600
C  48.70500 37.35200 27.40200
C  49.32900 38.43100 26.77300
C  49.60100 38.00200 25.40100
C  49.10200 36.55900 25.36300
C  49.71000 39.80000 27.39400
C  50.37800 38.71100 24.23900
O  50.64000 38.13700 23.15300
C  50.85800 40.03600 24.40100
N  47.96800 33.79600 25.05700
C  48.55200 34.50600 24.10200
C  48.45300 33.73600 22.73700
C  47.90600 32.29300 23.09100
C  47.68600 32.52800 24.60700
C  47.52000 34.51100 21.74500
C  48.87000 31.02900 22.92400
C  50.40600 31.26700 23.06700
N  46.93500 32.59200 27.50500
C  46.62100 31.54000 26.64000
C  45.71400 30.63400 27.39700
C  45.52500 31.19700 28.65300
C  46.27100 32.39500 28.64300
C  45.30100 29.34300 26.82500
C  44.85800 31.06300 29.93800
O  44.06600 30.19300 30.35700
C  45.31200 32.25200 30.81800
C  45.97000 31.72700 32.05900
O  47.07500 31.28400 32.13500
O  45.04000 31.56200 33.02400
C  45.33700 30.51800 34.01200
H  48.42200 38.21700 29.34200
H  49.37100 36.27400 23.32600
H  46.72200 30.65700 24.73700
H  45.98700 34.91500 32.02100
H  47.92900 36.98900 31.59200
H  46.09900 38.20600 30.14200
H  45.99800 38.13500 31.92700
H  44.99700 37.08500 30.93800
H  48.97500 35.08000 32.20100
H  48.42900 33.49900 31.87700
H  48.58000 34.84400 34.36800
H  47.53000 33.41200 34.29400
H  49.36600 40.64800 26.80200
H  50.79600 39.71400 27.36200
H  49.30400 39.86300 28.40400
H  49.97000 40.65200 24.53900
H  51.42500 40.20000 23.48400
H  51.52200 39.99400 25.26500
H  49.45200 33.66300 22.30800
H  46.93100 32.15400 22.62300
H  46.49000 34.20900 21.92900
H  47.89500 34.21000 20.76600
H  47.76500 35.53200 22.03700
H  48.72700 30.62900 21.92100
H  48.55600 30.21500 23.57700
H  50.84200 31.21800 22.06900
H  50.86500 30.47800 23.66300
H  50.47000 32.22400 23.58400
H  44.21400 29.41500 26.87500
H  45.36100 28.53300 27.55100
H  45.66000 29.06900 25.83300
H  44.60600 32.93000 31.29800
H  45.34900 29.55200 33.50900
H  44.44100 30.62400 34.62400
H  46.30800 30.80100 34.41900
Mg -5.92000 25.83700 26.44300
C  -4.06100 27.08300 29.19900
C  -7.79400 23.99500 28.67400
C  -7.39500 24.40000 23.79100
C  -3.71800 27.60900 24.21200
N  -5.74300 25.44100 28.54800
C  -5.10400 26.20000 29.49400
C  -5.63800 25.96900 30.97000
C  -6.53400 24.74800 30.78400
C  -6.73400 24.75800 29.22500
C  -6.21800 23.37500 31.39300
C  -6.38500 27.19800 31.55800
C  -6.63400 27.34900 33.05800
H  -6.16300 26.19400 33.97300
N  -7.36100 24.39900 26.25300
C  -8.08000 23.82500 27.33600
C  -8.97400 22.82800 26.75800
C  -8.74100 22.86100 25.32500
C  -7.77600 23.97500 25.08300
C  -10.04300 22.14000 27.61800
C  -9.41600 21.94800 24.30800
O  -9.26200 22.01900 23.10900
C  -10.30800 20.88100 24.78100
N  -5.61900 25.93500 24.31300
C  -6.40800 25.33700 23.42000
C  -5.93900 25.55400 22.00900
C  -5.06400 26.80000 22.17800
C  -4.67400 26.74100 23.65700
C  -5.12700 24.32600 21.61300
C  -5.59400 28.26500 21.80100
C  -4.91900 28.81400 20.61200
N  -4.27100 27.17200 26.60600
C  -3.51000 27.82100 25.63800
C  -2.59900 28.71800 26.30500
C  -2.77500 28.37800 27.65500
C  -3.75200 27.44300 27.82200
C  -1.57800 29.62800 25.69100
C  -2.25100 28.64700 28.90500
O  -1.30900 29.37100 29.20000
C  -3.10700 27.76800 30.01100
C  -2.07800 26.84100 30.63800
O  -1.74600 25.81500 30.19100
O  -1.73000 27.39900 31.82400
C  -1.14200 26.47000 32.77400
H  -8.43200 23.56300 29.44700
H  -7.98900 23.98700 22.97300
H  -3.08900 28.10200 23.46800
H  -4.84400 25.77300 31.69200
H  -7.42500 25.03900 31.33900
H  -5.15800 23.21200 31.59200
H  -6.49400 22.62900 30.64800
H  -6.77300 23.02900 32.26500
H  -7.29900 27.35400 30.98600
H  -5.76300 28.05800 31.31100
H  -7.72300 27.33000 33.01300
H  -6.13200 28.22500 33.46900
H  -11.04000 22.51400 27.38500
H  -9.86500 22.30100 28.68100
H  -9.99500 21.08000 27.36700
H  -11.08000 21.49400 25.24500
H  -9.80500 20.14200 25.40400
H  -10.85700 20.39700 23.97400
H  -6.75400 25.71600 21.30400
H  -4.12000 26.58100 21.67900
H  -4.20900 24.20000 22.18600
H  -4.83700 24.40700 20.56500
H  -5.75000 23.44600 21.77400
H  -5.39000 29.03200 22.54800
H  -6.67000 28.25000 21.63000
H  -5.57200 28.82200 19.74000
H  -3.96600 28.29500 20.50700
H  -4.60000 29.83900 20.80100
H  -1.34800 29.29000 24.68000
H  -0.65800 29.72300 26.26800
H  -2.00800 30.62500 25.59300
H  -3.58200 28.37500 30.78100
H  -0.18500 26.85700 33.12600
H  -0.89400 25.44200 32.51100
H  -1.90300 26.33200 33.54200

