158

Mg 47.75000 16.68200 28.98100
C  45.74800 16.50300 32.01100
C  49.95400 18.63100 30.86800
C  49.41700 17.20100 26.26000
C  45.23700 14.96700 27.28800
N  47.77500 17.60100 31.20800
C  46.93400 17.20500 32.24900
C  47.60300 17.51600 33.65700
C  48.91200 18.33400 33.26400
C  48.98200 18.08900 31.71700
C  48.85100 19.80400 33.70800
C  47.86500 16.18600 34.54900
C  47.36500 16.19900 35.96500
H  47.12300 17.53900 36.70900
N  49.41600 17.80100 28.55100
C  50.21300 18.46400 29.44900
C  51.41600 18.85600 28.78600
C  51.37400 18.41100 27.39100
C  49.98700 17.77700 27.34000
C  52.67400 19.44100 29.48500
C  52.36700 18.57500 26.25200
O  52.29900 18.17700 25.04500
C  53.63900 19.33400 26.58000
N  47.23700 16.34000 27.03100
C  48.17400 16.57500 26.03500
C  47.53300 16.18800 24.71300
C  46.43500 15.13400 25.08800
C  46.21000 15.51200 26.50400
C  47.07100 17.47800 24.01400
C  46.93400 13.61000 24.90000
C  45.95500 12.80700 23.90200
N  45.82700 15.94800 29.52000
C  44.96000 15.25700 28.71200
C  43.88500 14.75900 29.50400
C  44.05400 15.30600 30.79600
C  45.26600 15.97700 30.75300
C  42.69000 14.02300 28.95200
C  43.57100 15.44000 32.08500
O  42.52300 14.96900 32.47500
C  44.66400 16.21000 32.97500
C  43.89800 17.32500 33.54900
O  43.46700 18.27900 32.91800
O  43.64000 17.10700 34.89500
C  42.82000 18.03600 35.67800
H  50.69800 19.13600 31.48800
H  50.16800 17.12200 25.47100
H  44.51500 14.33800 26.76200
H  46.99100 18.19600 34.25000
H  49.79600 17.90100 33.73200
H  47.87300 20.03500 34.13100
H  48.94600 20.57600 32.94400
H  49.60300 19.98600 34.47600
H  48.90500 15.88400 34.41900
H  47.32500 15.35700 34.09300
H  48.04400 15.67000 36.63400
H  46.46300 15.60200 36.10100
H  53.00200 20.38100 29.04100
H  53.47800 18.71800 29.34600
H  52.52700 19.57800 30.55600
H  54.34300 19.24700 25.75200
H  54.23600 18.89700 27.38100
H  53.35300 20.36800 26.76800
H  48.30400 15.76900 24.06600
H  45.62300 15.22800 24.36600
H  45.99700 17.59000 24.16500
H  47.42900 17.61300 22.99400
H  47.43600 18.30000 24.63200
H  46.96500 13.09900 25.86200
H  47.92400 13.63900 24.44400
H  46.30200 12.99600 22.88600
H  44.94100 13.20100 23.97800
H  45.98200 11.73200 24.08300
H  42.82300 13.06800 28.44500
H  42.33500 14.69900 28.17400
H  41.86900 13.87600 29.65400
H  44.87400 15.61700 33.86500
H  42.71800 19.01800 35.21600
H  43.28200 18.13000 36.66000
H  41.77700 17.73300 35.77700
Mg 49.14000 35.98500 27.83700
C  47.10100 34.25700 30.12000
C  49.58100 38.46200 30.39800
C  50.72300 37.96600 25.58800
C  48.49800 33.58600 25.48300
N  48.41900 36.31100 29.94200
C  47.79600 35.35200 30.70100
C  47.82700 35.68300 32.18800
C  48.23400 37.20100 32.22900
C  48.66400 37.44300 30.72100
C  47.06200 38.05600 32.74900
C  48.71800 34.71100 32.93100
C  48.57400 34.49600 34.45400
H  47.79300 35.57900 35.30100
N  50.06000 37.88300 28.00100
C  50.18100 38.72600 29.12000
C  50.96900 39.80100 28.77000
C  51.42700 39.64500 27.45200
C  50.67900 38.42200 26.96100
C  51.19000 40.99400 29.71100
C  52.21000 40.62500 26.56700
O  52.42300 40.24800 25.42200
C  52.66500 42.02500 26.96900
N  49.43300 35.88100 25.73100
C  50.15400 36.76900 25.03600
C  50.31400 36.30100 23.54400
C  49.80800 34.79300 23.56900
C  49.19900 34.70300 24.99100
C  49.58000 37.12900 22.51900
C  50.83500 33.73500 23.24400
C  50.53100 32.81900 22.03400
N  47.99700 34.26300 27.70100
C  47.76500 33.33300 26.62600
C  46.91200 32.19100 27.09300
C  46.58200 32.62600 28.41400
C  47.28400 33.84800 28.73600
C  46.61100 30.91100 26.36700
C  45.76300 32.34300 29.58100
O  45.03700 31.37500 29.76000
C  45.98900 33.36400 30.65300
C  46.15500 32.70300 32.00000
O  46.96000 31.82600 32.30600
O  45.28300 33.21600 32.86400
C  44.98800 32.43900 34.09100
H  49.87200 39.06500 31.26000
H  51.25400 38.42500 24.75100
H  48.53700 32.81900 24.70700
H  46.86200 35.52900 32.66900
H  49.07900 37.36800 32.89800
H  47.36900 38.50900 33.69100
H  46.22700 37.41100 33.02500
H  46.82900 38.81400 32.00100
H  49.76200 35.02300 32.90200
H  48.66200 33.74400 32.43000
H  49.57700 34.43800 34.87700
H  47.98400 33.64100 34.78500
H  52.19600 41.38700 29.56200
H  51.07000 40.84300 30.78400
H  50.47900 41.75500 29.38700
H  51.79400 42.56800 27.33800
H  52.77600 42.46200 25.97700
H  53.60100 42.15400 27.51200
H  51.36400 36.32000 23.25200
H  48.97000 34.70300 22.87800
H  49.40000 38.14500 22.87000
H  48.65500 36.64300 22.20700
H  50.16100 37.24500 21.60400
H  51.02800 33.06000 24.07900
H  51.85000 34.08300 23.05100
H  49.73100 33.20400 21.40200
H  50.33100 31.77300 22.27000
H  51.47600 32.85000 21.49300
H  47.30900 30.13100 26.67300
H  46.67800 31.00800 25.28300
H  45.62400 30.52200 26.61700
H  45.10400 33.99900 30.69400
H  44.22000 31.68500 33.91400
H  44.62400 33.01600 34.94000
H  45.88600 31.92600 34.43400

