158

Mg 16.57300 -1.57300 28.01000
C  15.59200 0.31100 30.67300
C  18.34700 -3.55400 30.10900
C  17.87200 -2.96400 25.24900
C  14.75000 0.54900 25.83600
N  16.89600 -1.65800 30.14800
C  16.38100 -0.83700 31.05300
C  16.93200 -1.11600 32.47900
C  17.79200 -2.38100 32.28800
C  17.66400 -2.59600 30.75500
C  19.27100 -2.13100 32.65600
C  15.97500 -1.34200 33.68300
C  16.36900 -0.85600 35.10300
H  17.83300 -0.99900 35.52000
N  18.00900 -2.96200 27.75400
C  18.56200 -3.76600 28.72100
C  19.28800 -4.79500 28.13300
C  19.18500 -4.60700 26.70000
C  18.31700 -3.44400 26.48200
C  19.87100 -5.97100 28.97800
C  19.75700 -5.48800 25.61100
O  19.62700 -5.28800 24.38800
C  20.73100 -6.53600 26.06300
N  16.39500 -1.21900 25.85200
C  16.94100 -2.02000 24.94100
C  16.53900 -1.74400 23.47600
C  15.70800 -0.39100 23.70900
C  15.55300 -0.38300 25.24300
C  17.67900 -1.40400 22.48600
C  14.42000 -0.39200 22.95200
C  13.31700 -1.40000 23.42900
N  15.29800 0.02000 28.16100
C  14.68500 0.83200 27.24800
C  14.09800 2.00000 27.87400
C  14.41800 1.87200 29.22000
C  15.14200 0.68500 29.32100
C  13.36700 3.09900 27.17700
C  14.35800 2.46500 30.44200
O  13.78200 3.44800 30.82600
C  15.04200 1.52400 31.49100
C  16.21900 2.18800 32.19800
O  17.23600 2.50100 31.57500
O  15.82300 2.41300 33.45600
C  16.70500 3.32400 34.15300
H  18.85100 -4.32800 30.69100
H  18.30800 -3.42900 24.36200
H  14.20400 1.18100 25.13200
H  17.43000 -0.18400 32.74700
H  17.49800 -3.29600 32.80100
H  19.52500 -1.16700 33.09800
H  20.03700 -2.23500 31.88700
H  19.47500 -2.86000 33.44000
H  15.84800 -2.42100 33.77800
H  15.03800 -0.83000 33.46900
H  15.83700 -1.50700 35.79700
H  15.95500 0.11600 35.37100
H  20.92400 -6.10900 28.73100
H  19.39300 -6.94300 28.85200
H  19.90000 -5.68700 30.03000
H  21.61000 -6.12800 26.56300
H  21.01700 -6.97700 25.10800
H  20.30300 -7.40400 26.56500
H  15.85800 -2.47600 23.04400
H  16.30800 0.47400 23.42700
H  17.29300 -1.49900 21.47100
H  18.33200 -2.26400 22.63400
H  18.09100 -0.40300 22.61700
H  14.71800 -0.53400 21.91300
H  14.02500 0.61400 23.09200
H  12.55200 -1.00500 24.09700
H  13.82600 -2.22900 23.92200
H  12.77800 -1.86500 22.60400
H  12.29000 2.97800 27.29700
H  13.51300 3.20400 26.10200
H  13.70700 4.00200 27.68400
H  14.26400 1.25800 32.20700
H  16.06200 4.06000 34.63700
H  17.37400 3.85200 33.47300
H  17.21800 2.76500 34.93500
Mg 46.89700 16.24900 27.89000
C  44.77100 16.24200 30.69400
C  49.01200 18.37700 29.71200
C  48.39400 17.40100 24.98800
C  44.35100 15.04000 25.99600
N  46.81000 17.33900 29.87000
C  45.98300 17.02700 30.89100
C  46.44500 17.56800 32.21700
C  47.71900 18.39700 31.87800
C  47.88900 18.01800 30.40300
C  47.68100 19.87100 32.19400
C  46.87300 16.40600 33.16200
C  46.64700 16.57500 34.67400
H  46.29500 17.97200 35.19300
N  48.56300 17.61300 27.38900
C  49.33000 18.26600 28.34700
C  50.52600 18.71700 27.69800
C  50.42100 18.43200 26.28200
C  49.03500 17.84900 26.15900
C  51.66300 19.27300 28.43600
C  51.39000 18.77700 25.10400
O  51.20000 18.49700 23.92000
C  52.77400 19.33200 25.38900
N  46.50500 16.26200 25.78600
C  47.23600 16.68200 24.81600
C  46.84700 16.14500 23.43600
C  45.57800 15.34300 23.77700
C  45.42300 15.62100 25.32100
C  46.62700 17.29700 22.43500
C  45.70600 13.73600 23.43800
C  44.71600 13.21600 22.34700
N  44.99900 15.56500 28.24800
C  44.15000 14.98400 27.37000
C  42.92800 14.66100 28.09900
C  43.11800 15.09200 29.39900
C  44.36700 15.69100 29.45500
C  41.59800 14.08200 27.60100
C  42.55400 15.19200 30.82300
O  41.45800 14.84600 31.17400
C  43.63300 15.98100 31.68300
C  42.97900 17.17400 32.32700
O  42.73200 18.18800 31.69600
O  42.57500 17.00000 33.63200
C  41.97600 18.04900 34.42000
H  49.71900 18.91300 30.34800
H  48.90400 17.65200 24.05500
H  43.55300 14.61900 25.38000
H  45.70100 18.26700 32.59900
H  48.64400 18.03300 32.32600
H  47.83000 20.49400 31.31200
H  48.48900 20.15600 32.86700
H  46.69600 20.10700 32.59500
H  47.91900 16.14600 33.00200
H  46.31300 15.54300 32.80200
H  47.61300 16.27700 35.08300
H  45.93500 15.85200 35.07200
H  51.62100 19.57900 29.48100
H  51.82200 20.19400 27.87400
H  52.52000 18.64800 28.18400
H  53.32600 19.23800 24.45400
H  53.30400 18.78200 26.16600
H  52.71900 20.40200 25.59400
H  47.64400 15.47300 23.11700
H  44.69800 15.72400 23.25900
H  46.72300 18.20400 23.03200
H  45.65100 17.27600 21.95100
H  47.35000 17.32900 21.62000
H  45.38700 13.26700 24.36900
H  46.77200 13.52400 23.35200
H  45.08600 12.24500 22.01900
H  44.66800 13.90300 21.50200
H  43.71900 13.01400 22.73700
H  41.29200 14.83300 26.87200
H  40.98900 13.89300 28.48500
H  41.81700 13.11100 27.15700
H  43.96800 15.33300 32.49400
H  42.03600 17.88400 35.49500
H  40.91000 18.16600 34.22500
H  42.52900 18.97100 34.23900

