158

Mg 25.93600 51.64200 25.52900
C  23.75800 52.63500 28.02500
C  28.26700 50.80800 27.72900
C  28.12000 51.18500 22.92500
C  23.48300 52.70500 23.13900
N  25.94800 51.76000 27.75500
C  24.98300 52.19100 28.50800
C  25.38200 51.87400 30.00600
C  26.83700 51.28100 29.93600
C  27.06100 51.26600 28.39000
C  27.92600 52.01600 30.71700
C  24.43200 50.81300 30.69100
C  23.49900 51.23200 31.85500
H  23.32300 50.44000 33.12200
N  27.84800 50.99700 25.38100
C  28.67000 50.72000 26.39600
C  29.97200 50.30900 25.95000
C  29.94700 50.39800 24.55800
C  28.59000 50.87400 24.20100
C  31.10900 49.90800 26.89400
C  31.06300 50.18000 23.55600
O  30.88300 50.16800 22.37200
C  32.52100 49.86200 24.04900
N  25.82700 51.93300 23.30400
C  26.85100 51.48900 22.49200
C  26.43900 51.62000 20.99200
C  25.04100 52.28800 21.04100
C  24.68500 52.21400 22.55600
C  27.43800 52.32600 20.04300
C  23.88300 51.44300 20.18800
C  23.77500 52.07700 18.77800
N  24.04200 52.65900 25.47600
C  23.16100 52.86500 24.51100
C  21.92400 53.38500 25.06500
C  22.03600 53.17300 26.47900
C  23.37900 52.75900 26.63200
C  20.80500 53.93000 24.23900
C  21.40500 53.31500 27.77700
O  20.23100 53.52200 28.07700
C  22.48700 52.96400 28.83700
C  22.74600 54.15500 29.78000
O  23.57500 55.01300 29.56400
O  21.95000 54.10800 30.91700
C  22.38000 54.86900 32.10900
H  28.91200 50.36200 28.48900
H  28.73700 51.00900 22.04200
H  22.71100 53.10000 22.47600
H  25.40600 52.74100 30.66600
H  26.85800 50.27700 30.36200
H  28.36300 52.78600 30.08200
H  28.66700 51.29500 31.06200
H  27.53400 52.48100 31.62100
H  24.98600 49.99300 31.14800
H  23.73800 50.43400 29.94200
H  22.47500 51.30600 31.48800
H  23.82300 52.24000 32.11300
H  31.42000 48.89000 26.65900
H  30.78900 49.92700 27.93600
H  31.94700 50.60200 26.82300
H  32.68300 48.83000 24.36000
H  32.88900 50.59900 24.76300
H  33.11300 49.97900 23.14200
H  26.38700 50.60600 20.59600
H  25.11000 53.31600 20.68500
H  27.04300 53.29700 19.74500
H  27.52200 51.62400 19.21300
H  28.38900 52.57100 20.51600
H  22.92400 51.40700 20.70300
H  24.17600 50.41100 19.99400
H  24.23800 51.36600 18.09400
H  24.30000 53.03100 18.72600
H  22.72600 52.31800 18.60500
H  21.16500 54.33200 23.29200
H  20.35200 54.86300 24.57600
H  20.18400 53.13300 23.83100
H  22.03400 52.17600 29.43900
H  23.28000 54.36500 32.46100
H  21.52600 54.96000 32.78000
H  22.82100 55.85800 31.97700
Mg -5.37700 24.88400 26.27200
C  -3.80700 26.64500 28.96700
C  -6.48900 22.57600 28.61500
C  -6.51700 23.07800 23.70800
C  -3.97400 27.13200 24.08300
N  -5.20800 24.70300 28.51600
C  -4.59000 25.54900 29.38300
C  -4.84200 25.24300 30.82700
C  -5.72100 23.91200 30.72400
C  -5.88800 23.73700 29.20700
C  -5.02000 22.72200 31.42400
C  -5.72400 26.35200 31.55700
C  -6.03400 26.32000 33.05700
H  -5.62100 25.05400 33.85500
N  -6.27100 23.12900 26.19000
C  -6.70700 22.36700 27.25300
C  -7.44200 21.18500 26.69800
C  -7.41400 21.23500 25.24800
C  -6.70800 22.50600 25.00000
C  -8.12500 20.13000 27.55900
C  -8.04100 20.28300 24.23600
O  -7.85000 20.41400 23.03400
C  -8.87000 19.09000 24.71600
N  -5.02600 24.94800 24.22600
C  -5.71000 24.17900 23.40800
C  -5.81300 24.71300 21.90100
C  -4.88300 25.94300 22.01100
C  -4.63900 26.04400 23.48100
C  -5.37500 23.70500 20.82700
C  -5.34100 27.16700 21.28800
C  -4.58100 27.65700 20.06000
N  -4.10600 26.56500 26.46900
C  -3.51400 27.29200 25.45100
C  -2.62000 28.24100 26.00000
C  -2.74100 28.07300 27.38800
C  -3.63400 27.03700 27.64000
C  -1.81300 29.23800 25.15700
C  -2.29700 28.60700 28.69500
O  -1.55600 29.53600 28.96300
C  -2.93600 27.68700 29.75600
C  -1.84900 27.02400 30.41400
O  -0.95900 26.41800 29.87300
O  -1.93100 27.30100 31.77200
C  -1.06100 26.43200 32.59100
H  -6.74200 21.70900 29.23000
H  -7.06000 22.65600 22.86000
H  -3.76800 28.02300 23.48800
H  -3.85000 25.12700 31.26300
H  -6.73900 24.09500 31.06700
H  -4.76200 21.94500 30.70300
H  -5.74000 22.29200 32.12000
H  -4.08900 23.00100 31.91700
H  -6.64000 26.38100 30.96700
H  -5.07200 27.22200 31.48000
H  -7.10400 26.46800 33.19900
H  -5.55300 27.16400 33.55200
H  -9.16900 20.15700 27.24600
H  -8.17400 20.42200 28.60900
H  -7.70100 19.13500 27.43100
H  -8.42800 18.44100 25.47100
H  -8.95400 18.61500 23.73800
H  -9.86600 19.40200 25.03200
H  -6.84200 24.99600 21.68200
H  -3.89200 25.66700 21.65200
H  -6.17800 23.11700 20.38400
H  -4.55200 23.08100 21.17700
H  -5.00300 24.27700 19.97700
H  -5.37400 28.05200 21.92200
H  -6.39200 26.99900 21.05200
H  -5.23700 27.60600 19.19000
H  -3.70000 27.04300 19.87200
H  -4.21300 28.68200 20.10400
H  -0.84600 29.47500 25.60200
H  -2.46800 30.10000 25.03200
H  -1.78900 28.88000 24.12700
H  -3.57700 28.31300 30.37700
H  -1.49800 26.22900 33.56900
H  -0.17100 27.00600 32.84900
H  -1.02600 25.44700 32.12800

