158

Mg 36.68100 49.42900 24.97400
C  36.87700 47.62500 27.81900
C  35.30700 52.03400 26.75900
C  36.30600 51.12800 22.07400
C  37.36800 46.50400 23.14300
N  36.34200 49.84300 27.07300
C  36.55200 48.96900 28.07000
C  36.21800 49.52800 29.45900
C  35.65900 50.89200 29.05400
C  35.73100 50.92800 27.54100
C  34.29900 51.17000 29.73900
C  37.38000 49.51400 30.45800
C  37.06600 49.22800 31.92900
H  35.65900 49.26900 32.42300
N  35.92500 51.37800 24.51700
C  35.35900 52.23700 25.36000
C  34.96600 53.43000 24.64900
C  35.36300 53.19600 23.28100
C  35.86800 51.81600 23.25100
C  34.50000 54.63800 25.42300
C  35.22400 54.14700 22.03100
O  35.59800 53.86800 20.90300
C  34.48400 55.44700 22.08200
N  36.79000 48.87300 22.90200
C  36.75100 49.79200 21.94500
C  36.98400 49.23000 20.57900
C  37.52100 47.73800 20.94400
C  37.15400 47.65500 22.38000
C  35.77300 49.29300 19.62400
C  39.05800 47.53800 20.70300
C  40.09800 48.50100 21.36300
N  37.21600 47.48600 25.34800
C  37.48900 46.41100 24.52900
C  37.67400 45.18900 25.33300
C  37.53000 45.65200 26.64900
C  37.17000 47.02700 26.59000
C  37.88600 43.77100 24.88000
C  37.52900 45.34100 28.02800
O  37.80000 44.27200 28.59500
C  37.01200 46.52000 28.84100
C  35.72400 46.11800 29.41300
O  34.65500 46.10400 28.86400
O  35.86000 45.72300 30.73000
C  34.68800 45.15900 31.36600
H  34.85700 52.81500 27.37600
H  36.07300 51.65500 21.14700
H  37.75600 45.59700 22.67500
H  35.37300 48.93600 29.81100
H  36.39300 51.66400 29.28400
H  34.45300 52.08200 30.31500
H  34.01600 50.38600 30.44200
H  33.46000 51.30400 29.05600
H  38.02600 50.37900 30.31400
H  38.04800 48.75300 30.05400
H  37.64000 49.95500 32.50300
H  37.40700 48.19700 32.02900
H  33.75200 55.21200 24.87500
H  35.37500 55.24300 25.66000
H  33.91700 54.44900 26.32400
H  34.55500 55.96600 21.12600
H  34.96000 56.03200 22.87000
H  33.46200 55.20600 22.37500
H  37.73500 49.85900 20.10000
H  36.93400 47.00200 20.39400
H  34.87000 49.24200 20.23200
H  35.77200 48.44700 18.93700
H  35.95000 50.20100 19.04700
H  39.13000 47.38000 19.62700
H  39.31700 46.54000 21.05700
H  40.80600 48.80000 20.59000
H  40.63300 48.18600 22.25900
H  39.63600 49.47000 21.55400
H  37.63400 43.65500 23.82600
H  37.21400 43.09700 25.41000
H  38.90500 43.43800 25.07600
H  37.80800 46.74100 29.55200
H  33.78800 45.77400 31.38400
H  34.96800 45.18800 32.41900
H  34.40600 44.14600 31.07800
Mg 7.54600 53.87400 41.60300
C  6.37700 50.61100 41.43800
C  10.60300 52.86600 40.64100
C  8.47500 57.15300 40.85700
C  4.25900 54.96500 41.73000
N  8.32800 51.97200 40.92000
C  7.74800 50.77500 41.06900
C  8.77100 49.57700 40.82200
C  10.11000 50.37200 40.67200
C  9.65500 51.82900 40.86900
C  11.17600 49.96900 41.74300
C  8.46000 48.72900 39.55900
C  8.42800 49.52400 38.19300
H  7.45800 49.14600 37.14800
N  9.31100 54.86400 41.04000
C  10.48000 54.23700 40.69600
C  11.52200 55.22700 40.47900
C  10.93800 56.51500 40.46700
C  9.55000 56.24800 40.82300
C  12.93600 54.87800 40.23500
C  11.72300 57.82400 40.03400
O  12.92000 57.81100 39.74100
C  11.02700 59.16900 40.12200
N  6.53500 55.72200 41.46900
C  7.10300 56.92600 41.24200
C  6.22800 58.08200 41.69800
C  4.82700 57.41700 41.63800
C  5.22600 55.92300 41.66400
C  6.58900 58.74900 43.05300
C  3.86200 57.80300 40.47500
C  3.94700 59.30900 40.05800
N  5.66900 53.04100 41.74100
C  4.44500 53.61400 41.86800
C  3.42400 52.61700 42.17900
C  4.14600 51.39900 41.97100
C  5.53000 51.72100 41.68700
C  1.90400 52.71500 42.26200
C  4.07200 49.94000 41.93700
O  3.14600 49.19200 42.13000
C  5.44700 49.35900 41.65700
C  5.17700 48.49800 40.45400
O  4.92800 48.86900 39.33300
O  5.23000 47.14900 40.79400
C  5.03700 46.18500 39.72900
H  11.61400 52.45600 40.59800
H  8.61500 58.22700 40.71300
H  3.19600 55.19000 41.83400
H  8.82500 48.81300 41.59800
H  10.51300 50.19700 39.67500
H  11.22900 50.72900 42.52300
H  12.17900 49.90700 41.32100
H  10.99700 49.05000 42.30000
H  7.55700 48.16600 39.79500
H  9.35700 48.11000 39.52800
H  9.43600 49.45600 37.78400
H  8.34800 50.58200 38.44500
H  13.21200 55.34000 39.28700
H  13.05400 53.79500 40.22800
H  13.53000 55.12700 41.11400
H  10.12600 59.23100 39.51200
H  11.76200 59.88800 39.76100
H  10.82600 59.39000 41.17000
H  6.38700 58.96100 41.07300
H  4.32000 57.66300 42.57000
H  7.33400 58.08000 43.48400
H  5.76000 59.02000 43.70600
H  7.10000 59.68500 42.82700
H  2.82900 57.45600 40.51000
H  4.18200 57.24100 39.59800
H  4.38400 59.86800 40.88500
H  2.97000 59.60300 39.67300
H  4.56600 59.42500 39.16900
H  1.42100 52.33100 41.36400
H  1.58700 53.73400 42.48400
H  1.56500 52.17500 43.14600
H  5.70700 48.79500 42.55300
H  5.91800 45.56800 39.55000
H  4.75900 46.50000 38.72200
H  4.30600 45.44200 40.04800

