158

Mg 6.58700 52.10500 40.69200
C  6.08900 48.52700 40.08200
C  9.81300 51.56700 39.97400
C  6.80800 55.35800 40.28000
C  3.13700 52.27500 41.36000
N  7.81200 50.25200 40.19400
C  7.44000 48.99900 39.83600
C  8.61100 48.12700 39.54000
C  9.84400 48.98500 40.02700
C  9.13700 50.39300 40.12500
C  10.58100 48.64800 41.40400
C  8.60500 47.56500 38.11600
C  8.64900 48.61700 36.91300
H  7.60600 48.41000 35.82700
N  8.12900 53.32600 40.16700
C  9.40200 52.92500 39.93100
C  10.24100 54.12000 39.62400
C  9.36300 55.23500 39.59200
C  8.03400 54.69600 40.08700
C  11.79300 53.98500 39.41900
C  9.78500 56.66400 39.20300
O  10.88800 56.91300 38.80500
C  8.88200 57.81400 39.38600
N  5.12000 53.60100 40.69800
C  5.50900 54.93600 40.66800
C  4.37700 55.86000 40.89000
C  3.22900 54.83200 41.24900
C  3.87900 53.45900 41.12900
C  4.65100 56.92400 42.02900
C  2.05400 55.00300 40.20100
C  0.64400 55.28500 40.81400
N  5.00700 50.73700 40.85000
C  3.64800 50.99500 41.17200
C  2.98000 49.75900 41.34600
C  3.89200 48.79800 40.92200
C  5.11000 49.40200 40.66800
C  1.57900 49.58300 41.97500
C  3.94800 47.43700 40.59700
O  3.12500 46.56500 40.54800
C  5.40900 47.14800 40.14200
C  5.22600 46.46400 38.86500
O  4.97700 46.99600 37.78000
O  5.50500 45.13200 39.05700
C  5.67500 44.25400 37.89500
H  10.89800 51.45600 39.91400
H  6.89600 56.44600 40.24600
H  2.08900 52.41100 41.63700
H  8.46000 47.24900 40.16900
H  10.45600 49.05300 39.12800
H  11.62400 48.39700 41.21000
H  10.13900 47.70800 41.73500
H  10.41400 49.53400 42.01600
H  7.91800 46.73200 37.97400
H  9.55400 47.03100 38.07200
H  9.63400 48.51900 36.45600
H  8.60700 49.55200 37.47000
H  12.37800 54.76900 39.90000
H  12.03800 54.03000 38.35800
H  12.26800 53.09400 39.83000
H  8.55400 57.75400 40.42400
H  8.17300 57.80000 38.55900
H  9.38800 58.75000 39.15200
H  4.22500 56.50900 40.02700
H  2.86700 54.96300 42.26800
H  5.71600 56.80700 42.23200
H  3.99300 56.77600 42.88500
H  4.43500 57.94000 41.69900
H  2.11000 54.12600 39.55600
H  2.28100 55.85100 39.55400
H  0.25800 54.33400 41.18100
H  -0.03900 55.69600 40.07100
H  0.65500 55.93700 41.68800
H  1.25800 50.44200 42.56500
H  1.50800 48.67200 42.56900
H  0.88200 49.32800 41.17800
H  5.90900 46.47000 40.83300
H  6.37100 43.42800 38.04500
H  5.82700 44.74900 36.93600
H  4.73100 43.74500 37.69500
Mg -12.95700 15.90900 41.98300
C  -9.82500 14.22000 41.77500
C  -11.40700 18.61400 40.45000
C  -15.95000 17.16900 41.66300
C  -14.24700 12.85800 42.92300
N  -10.83600 16.33400 41.16500
C  -9.77800 15.54400 41.18600
C  -8.57000 16.22900 40.57300
C  -9.03700 17.68900 40.40100
C  -10.53000 17.55900 40.64100
C  -8.42100 18.63400 41.47700
C  -7.96200 15.51400 39.33100
C  -6.46400 15.33800 39.24200
H  -5.71900 16.02500 38.08700
N  -13.59300 17.70000 41.20700
C  -12.82500 18.71500 40.57600
C  -13.69600 19.80700 40.25900
C  -15.03400 19.38200 40.52500
C  -14.92300 18.04000 41.17300
C  -13.12600 21.11500 39.62900
C  -16.31000 20.11700 40.15400
O  -16.19400 21.16700 39.51900
C  -17.69000 19.57300 40.40500
N  -14.81600 15.05500 42.09700
C  -15.92900 15.81800 42.00400
C  -17.24200 15.10400 42.32900
C  -16.72100 13.63900 42.47100
C  -15.14200 13.85900 42.49100
C  -18.03200 15.62700 43.57700
C  -17.13700 12.73300 41.37900
C  -17.08400 11.15600 41.54000
N  -12.26200 13.97200 42.51800
C  -12.88400 12.80400 42.88700
C  -11.94900 11.68600 43.16700
C  -10.73200 12.29500 42.82000
C  -10.97300 13.61100 42.37700
C  -12.17900 10.29400 43.46300
C  -9.28300 11.97300 42.62600
O  -8.59700 11.03000 42.96000
C  -8.73700 13.16600 41.76900
C  -7.58800 13.54700 42.58200
O  -7.67900 13.89800 43.78100
O  -6.46500 13.58700 41.73400
C  -5.19800 13.95400 42.36500
H  -10.96100 19.52700 40.05000
H  -16.93600 17.63200 41.73300
H  -14.70400 11.93500 43.28400
H  -7.90300 16.20300 41.43500
H  -8.73600 18.11700 39.44500
H  -7.73100 19.29200 40.94800
H  -8.02300 18.05900 42.31300
H  -9.17300 19.29500 41.90800
H  -8.10500 16.14000 38.45000
H  -8.52400 14.60500 39.11900
H  -6.24700 14.27000 39.23200
H  -6.08700 15.61900 40.22500
H  -12.52200 20.99800 38.72900
H  -12.60000 21.70700 40.37700
H  -13.83000 21.87200 39.28100
H  -18.45300 20.30600 40.14300
H  -17.85300 19.51900 41.48100
H  -17.88100 18.58800 39.97700
H  -17.87900 15.15700 41.44600
H  -17.04100 13.17300 43.40300
H  -19.05100 15.88600 43.29000
H  -17.53600 16.50300 43.99400
H  -18.02800 14.90400 44.39200
H  -16.41600 13.04400 40.62300
H  -18.13500 13.07400 41.10200
H  -16.21700 10.75700 41.01500
H  -17.95400 10.73000 41.04000
H  -17.05500 10.87300 42.59200
H  -13.11100 10.25400 44.02700
H  -11.43200 9.93800 44.17300
H  -12.32100 9.68500 42.57100
H  -8.39200 12.74700 40.82300
H  -4.52600 14.14500 41.52900
H  -4.79900 13.11000 42.92700
H  -5.36900 14.77800 43.05800

