158

Mg 6.69400 54.32700 41.97800
C  5.89200 50.97600 41.67300
C  9.85600 53.66400 40.71500
C  7.33100 57.65300 41.45500
C  3.40300 55.02300 42.88900
N  7.70000 52.57300 41.12600
C  7.23000 51.27000 41.25800
C  8.32900 50.22900 40.85600
C  9.65500 51.06700 41.01900
C  9.06800 52.52700 40.93700
C  10.55900 50.80000 42.32400
C  8.11400 49.62300 39.40900
C  7.78800 50.56000 38.21900
H  6.60200 50.21500 37.32500
N  8.36000 55.54400 41.12400
C  9.56000 55.03700 40.69700
C  10.44900 56.13000 40.36100
C  9.72700 57.33400 40.49500
C  8.41100 56.85000 41.01900
C  11.80700 55.97300 39.84700
C  10.31100 58.65800 40.09600
O  11.29500 58.76000 39.37700
C  9.57800 59.99800 40.48500
N  5.47000 56.01800 41.94600
C  6.00600 57.30700 41.93900
C  5.11400 58.34100 42.52900
C  3.77300 57.51900 42.71000
C  4.23000 56.06600 42.57100
C  5.62300 58.91600 43.89700
C  2.62100 57.98500 41.76800
C  1.42900 58.69900 42.43900
N  4.92100 53.31000 42.24200
C  3.72500 53.69400 42.61600
C  2.90300 52.49000 42.82500
C  3.69400 51.44100 42.48400
C  4.93900 51.96100 42.10600
C  1.41500 52.58500 43.27000
C  3.73400 50.00900 42.36200
O  2.80600 49.23300 42.42400
C  5.10200 49.64800 41.86900
C  4.89800 48.92300 40.63700
O  4.29700 49.32000 39.68100
O  5.46600 47.69500 40.75100
C  5.24900 46.68700 39.64500
H  10.88200 53.36400 40.49000
H  7.51200 58.71800 41.30000
H  2.38600 55.20400 43.24500
H  8.44500 49.41500 41.57200
H  10.32300 50.88400 40.17800
H  10.53200 51.63300 43.02800
H  11.60700 50.64600 42.06600
H  10.19700 49.92100 42.85700
H  7.38000 48.81800 39.45300
H  9.10600 49.24500 39.16000
H  8.72600 50.56200 37.66500
H  7.73800 51.62300 38.45800
H  11.76700 55.06500 39.24500
H  12.45200 55.77600 40.70300
H  12.42400 56.60300 39.20600
H  8.69900 60.05200 39.84200
H  10.27200 60.80600 40.25800
H  9.36600 59.90800 41.55000
H  5.02500 59.02000 41.68100
H  3.27300 57.62500 43.67300
H  6.51500 58.32900 44.11500
H  4.87200 58.81300 44.67900
H  5.94600 59.95700 43.92800
H  2.13900 57.08000 41.39800
H  3.03600 58.49800 40.90000
H  1.69800 59.02700 43.44300
H  0.53000 58.10600 42.26400
H  1.33000 59.61700 41.86000
H  0.76400 53.01700 42.51100
H  1.22800 52.97600 44.27100
H  1.06400 51.55500 43.34300
H  5.60000 49.05500 42.63600
H  4.21100 46.38600 39.50600
H  5.70400 45.71900 39.85500
H  5.74300 47.18200 38.80900
Mg -2.93400 35.10700 26.22200
C  -4.39400 33.46000 28.80200
C  -1.30700 37.22200 28.44300
C  -1.34900 36.45400 23.60600
C  -4.98700 33.17000 23.97100
N  -2.91700 35.33600 28.27500
C  -3.55900 34.51600 29.18200
C  -3.13400 34.84400 30.61700
C  -2.19300 36.02500 30.50000
C  -2.21200 36.28300 28.98600
C  -2.50200 37.32700 31.33000
C  -2.66500 33.74100 31.51700
C  -3.43500 33.40100 32.75900
H  -2.58300 33.20100 34.06000
N  -1.58100 36.72000 26.07100
C  -1.02000 37.43700 27.08700
C  -0.03100 38.36100 26.46600
C  -0.03800 38.14700 25.09000
C  -1.01800 37.07300 24.84400
C  0.66700 39.44900 27.32700
C  0.85000 38.85300 24.03400
O  0.88500 38.50300 22.87700
C  1.79500 40.01100 24.43200
N  -3.31800 35.03600 24.13800
C  -2.43100 35.63500 23.31800
C  -2.68900 35.17800 21.88100
C  -3.68700 34.01500 22.07900
C  -4.13700 34.16800 23.50500
C  -3.24000 36.39400 20.96300
C  -3.03000 32.58100 21.77400
C  -1.72100 32.25400 22.53800
N  -4.44600 33.58400 26.25300
C  -5.17800 32.93900 25.35900
C  -5.99300 31.98100 25.97700
C  -5.72300 32.10300 27.35600
C  -4.84400 33.15700 27.47000
C  -6.77900 30.95600 25.20100
C  -6.04000 31.62400 28.74000
O  -6.89200 30.76600 29.13000
C  -5.17800 32.53100 29.77400
C  -6.39100 33.11600 30.59700
O  -7.32900 33.78800 30.11500
O  -6.36000 32.51500 31.80800
C  -7.52500 32.56200 32.65100
H  -0.71400 37.73900 29.20100
H  -0.77800 36.86000 22.76900
H  -5.50300 32.58800 23.20400
H  -4.08800 35.16600 31.03500
H  -1.22900 35.70800 30.89800
H  -2.67000 38.27600 30.82000
H  -1.74700 37.52600 32.09100
H  -3.39100 37.19500 31.94600
H  -1.63000 33.89000 31.82500
H  -2.70100 32.83900 30.90700
H  -3.98100 32.48900 32.51600
H  -4.08700 34.20800 33.09200
H  1.72800 39.27400 27.50800
H  0.25400 39.48200 28.33600
H  0.51100 40.49300 27.05700
H  2.35200 39.61100 25.27900
H  1.16600 40.84800 24.73400
H  2.49900 40.25600 23.63600
H  -1.73700 34.87100 21.44800
H  -4.60300 34.07900 21.49100
H  -2.44800 36.89200 20.40400
H  -3.83200 37.22800 21.34000
H  -3.72000 35.85000 20.15000
H  -2.78300 32.65200 20.71500
H  -3.78700 31.81300 21.93400
H  -1.69200 32.81000 23.47500
H  -0.80100 32.52200 22.01900
H  -1.61100 31.19200 22.75600
H  -6.84400 31.18000 24.13600
H  -7.74900 30.74000 25.64700
H  -6.20200 30.03700 25.30900
H  -4.55500 31.93000 30.43600
H  -7.09800 33.08000 33.51000
H  -7.76900 31.55500 32.98900
H  -8.42400 33.03600 32.25700

