158

Mg 36.12400 1.96500 29.53400
C  34.04200 2.85300 32.24400
C  38.73200 1.97000 31.81900
C  38.18200 1.70800 26.97500
C  33.47600 2.53000 27.39000
N  36.34400 2.32200 31.86800
C  35.33700 2.60700 32.72500
C  35.83700 2.67000 34.17800
C  37.42000 2.49500 34.05600
C  37.55100 2.27600 32.46200
C  38.24200 3.68800 34.71000
C  35.15000 1.55700 35.14500
C  34.89300 1.92200 36.61000
H  35.68700 3.06900 37.33600
N  38.17500 1.72700 29.39200
C  39.06500 1.58900 30.45600
C  40.39300 1.28500 30.00400
C  40.22600 1.25700 28.59900
C  38.84300 1.61300 28.23700
C  41.64500 0.96400 30.81800
C  41.25000 0.89400 27.52700
O  40.87500 0.70900 26.34000
C  42.76700 0.69500 27.78800
N  35.82200 2.00100 27.54400
C  36.86600 1.88700 26.64800
C  36.50500 2.17800 25.23900
C  34.91900 2.16700 25.32000
C  34.67300 2.22900 26.85400
C  37.22200 3.45000 24.61700
C  34.25000 0.97900 24.55800
C  34.02100 -0.33800 25.35500
N  34.15700 2.56600 29.73600
C  33.20900 2.75700 28.75700
C  31.92900 3.13200 29.40600
C  32.18200 3.20500 30.81600
C  33.59600 2.87500 30.91500
C  30.61000 3.61100 28.72200
C  31.66300 3.40700 32.08600
O  30.48800 3.67300 32.45100
C  32.75200 3.09600 33.08200
C  32.80900 4.22800 34.05000
O  33.40200 5.27000 33.79100
O  32.12500 3.92600 35.20400
C  32.06300 5.19800 36.05900
H  39.52900 1.91100 32.56200
H  38.79200 1.58700 26.07800
H  32.67800 2.83400 26.71000
H  35.68900 3.60400 34.72000
H  37.69300 1.59400 34.60700
H  39.06800 3.28100 35.29400
H  37.72700 4.33100 35.42300
H  38.63800 4.34400 33.93400
H  35.76200 0.65600 35.11000
H  34.23400 1.27000 34.63000
H  34.94700 0.98100 37.15800
H  33.82700 2.14900 36.64100
H  42.15700 0.12100 30.35400
H  41.31000 0.62000 31.79600
H  42.23700 1.87100 30.94400
H  43.19500 0.61700 26.78800
H  42.73700 -0.27500 28.28400
H  43.16700 1.56400 28.31000
H  36.77700 1.30100 24.65200
H  34.65700 3.12500 24.87200
H  37.79500 3.91800 25.41700
H  36.53300 4.22200 24.27600
H  37.83900 3.15200 23.76900
H  34.93300 0.81500 23.72300
H  33.31600 1.31900 24.11000
H  32.97800 -0.34200 25.66900
H  34.59900 -0.44400 26.27300
H  34.25600 -1.22000 24.76000
H  29.90800 2.79300 28.56300
H  30.71600 4.14700 27.77800
H  30.15300 4.24100 29.48400
H  32.51600 2.16000 33.58800
H  31.37100 5.19200 36.90000
H  31.83400 6.00300 35.36000
H  33.04400 5.51300 36.41300
Mg 48.36800 45.25800 42.42000
C  45.10800 45.82600 40.95300
C  48.33500 42.26300 40.97200
C  51.67800 45.34700 42.44300
C  48.15700 48.61700 43.51400
N  46.92700 44.26600 40.97700
C  45.58800 44.57900 40.58600
C  44.88000 43.43900 39.84500
C  45.81700 42.23700 40.23300
C  47.16200 42.92600 40.78300
C  45.24200 41.27900 41.34900
C  44.70900 43.82500 38.36800
C  43.52700 43.20800 37.68800
H  43.75900 42.70200 36.24800
N  49.81700 43.90400 42.00200
C  49.55300 42.66100 41.34200
C  50.86000 41.94000 41.19300
C  51.84900 42.90400 41.69500
C  51.13800 44.12400 42.01700
C  51.09100 40.66600 40.66400
C  53.30600 42.60100 41.92600
O  53.75200 41.51200 41.58400
C  54.28700 43.48600 42.58900
N  49.66600 46.75800 42.88300
C  50.99300 46.51000 42.92000
C  51.78300 47.77500 43.40400
C  50.67900 48.70000 43.80200
C  49.39500 47.96200 43.48100
C  52.93100 47.60100 44.43300
C  50.73200 50.03500 43.15900
C  50.41300 51.23200 44.14100
N  46.93900 46.90900 42.31500
C  46.98100 48.16800 42.87900
C  45.74500 48.88900 42.63800
C  44.98700 47.92400 41.91600
C  45.79000 46.79500 41.71300
C  45.45300 50.32500 43.00500
C  43.65100 47.69100 41.30000
O  42.67700 48.48000 41.23400
C  43.72600 46.34500 40.62800
C  42.62500 45.62400 41.36600
O  41.72200 45.00300 40.89100
O  42.88300 45.79000 42.75000
C  42.01000 44.94500 43.54700
H  48.25700 41.22500 40.64200
H  52.76900 45.34500 42.39600
H  48.16600 49.62700 43.93100
H  43.91600 43.27200 40.32700
H  45.93100 41.58100 39.37000
H  44.62900 41.89500 42.00600
H  45.98800 40.68000 41.87100
H  44.55500 40.53200 40.95000
H  45.58500 43.39400 37.88300
H  44.79400 44.88200 38.11700
H  42.74900 43.97000 37.63900
H  43.06600 42.39500 38.24800
H  50.10400 40.23900 40.48400
H  51.65300 40.14900 41.44200
H  51.58800 40.76800 39.70000
H  53.84900 43.87200 43.50900
H  54.55600 44.27000 41.88000
H  55.15200 42.86900 42.83200
H  52.22200 48.09300 42.45800
H  50.68500 48.87400 44.87800
H  52.98200 46.56200 44.75700
H  53.01500 48.22400 45.32300
H  53.89500 47.71400 43.93800
H  49.99500 50.11100 42.35900
H  51.74300 50.15100 42.77000
H  49.63700 51.08600 44.89200
H  50.12500 52.07400 43.51200
H  51.30000 51.34800 44.76500
H  45.92700 51.09200 42.39200
H  45.82300 50.44500 44.02300
H  44.38300 50.52900 43.01800
H  43.42700 46.39900 39.58100
H  41.61300 44.07800 43.01700
H  41.20800 45.56900 43.94100
H  42.59000 44.66100 44.42500

