158

Mg 2.15500 -1.73600 44.81500
C  5.50600 -1.01200 44.26900
C  1.44700 1.00300 42.72900
C  -1.16300 -2.55000 44.88100
C  3.02200 -4.89900 45.88700
N  3.36700 -0.13800 43.67100
C  4.69400 -0.24300 43.46400
C  5.17600 0.74000 42.36400
C  3.90800 1.63700 42.18800
C  2.79300 0.73300 42.83100
C  4.06800 3.14600 42.70500
C  5.60400 -0.16600 41.16600
C  7.16800 -0.14600 40.94100
H  7.71200 0.41700 39.63600
N  0.37400 -0.77600 44.05500
C  0.30100 0.30400 43.23900
C  -1.10300 0.61400 43.01100
C  -1.85000 -0.46300 43.54100
C  -0.88500 -1.27600 44.27100
C  -1.62100 1.80700 42.23800
C  -3.40600 -0.72000 43.26000
O  -4.03700 0.07500 42.62700
C  -4.18600 -1.86500 43.82000
N  1.11300 -3.47400 45.12700
C  -0.30000 -3.54600 45.29400
C  -0.68900 -4.82700 45.94400
C  0.63500 -5.68000 45.95000
C  1.68900 -4.62300 45.61900
C  -1.38100 -4.62300 47.34600
C  0.75800 -7.04400 45.16400
C  0.00800 -7.14100 43.76400
N  3.86200 -2.73000 45.18800
C  4.15800 -4.00500 45.70400
C  5.60500 -4.14900 45.85900
C  6.14600 -2.95100 45.39100
C  5.07000 -2.12100 44.95900
C  6.17300 -5.47200 46.28300
C  7.40000 -2.21000 45.19100
O  8.62700 -2.42700 45.37400
C  7.02800 -0.82800 44.51400
C  7.21500 0.30500 45.39300
O  7.02000 0.33600 46.61600
O  7.85300 1.37300 44.71000
C  8.23200 2.46200 45.57700
H  1.20100 1.97600 42.29700
H  -2.13800 -3.04000 44.92200
H  3.22100 -5.92600 46.20000
H  5.97300 1.39600 42.71600
H  3.65600 1.82800 41.14400
H  4.18500 3.90800 41.93400
H  5.00100 3.25000 43.25700
H  3.24200 3.27500 43.40500
H  5.05100 0.13800 40.27700
H  5.22700 -1.18100 41.29200
H  7.50600 -1.18200 40.95300
H  7.76900 0.29800 41.73400
H  -2.12200 1.47400 41.32900
H  -0.84900 2.51100 41.92500
H  -2.37800 2.24600 42.88800
H  -5.18800 -1.88700 43.39000
H  -4.24200 -1.82800 44.90800
H  -3.67900 -2.74000 43.41300
H  -1.54900 -5.20500 45.39000
H  0.84000 -5.91100 46.99500
H  -1.36900 -3.57800 47.65400
H  -0.90800 -5.29000 48.06700
H  -2.41900 -4.85600 47.10800
H  0.18200 -7.69000 45.82600
H  1.75400 -7.42300 44.93300
H  0.66400 -7.36100 42.92100
H  -0.53100 -6.21200 43.57700
H  -0.74800 -7.92600 43.78100
H  6.12900 -6.10400 45.39600
H  5.51100 -5.86000 47.05800
H  7.16900 -5.54700 46.72000
H  7.66100 -0.71700 43.63400
H  8.64200 3.33200 45.06600
H  8.96900 2.07700 46.28200
H  7.33200 2.78100 46.10400
Mg 47.17000 15.98100 28.32000
C  45.40100 15.69000 31.25200
C  49.44200 18.02900 29.97900
C  48.77800 16.63700 25.35800
C  44.80800 14.21100 26.55500
N  47.23800 16.96100 30.37000
C  46.46900 16.57300 31.37700
C  47.10600 17.03500 32.74300
C  48.27100 18.00300 32.33000
C  48.34200 17.63500 30.78700
C  48.09000 19.54100 32.52300
C  47.61800 15.84700 33.52000
C  48.03100 16.06200 34.99800
H  47.59200 17.31700 35.72100
N  48.90800 17.14900 27.83600
C  49.78100 17.76900 28.70400
C  50.90100 18.28500 27.97800
C  50.81600 17.78700 26.58900
C  49.45800 17.18800 26.51900
C  51.99600 19.06100 28.62300
C  51.70700 18.01100 25.37100
O  51.47300 17.40800 24.34100
C  52.98800 18.86800 25.46600
N  46.70100 15.68400 26.15700
C  47.58400 15.95600 25.18600
C  47.04700 15.46100 23.78300
C  45.80100 14.59900 24.16600
C  45.74800 14.85200 25.66200
C  46.78500 16.65300 22.78500
C  45.74000 13.10600 23.73800
C  44.74300 12.71600 22.63900
N  45.39700 15.22200 28.74800
C  44.58100 14.47900 27.95800
C  43.46300 14.07700 28.76500
C  43.69000 14.48500 30.09000
C  44.93100 15.16200 30.03100
C  42.24600 13.32700 28.22500
C  43.27300 14.43100 31.45000
O  42.30500 13.92300 31.91700
C  44.38000 15.16600 32.27600
C  43.67800 16.12700 33.19400
O  43.56500 17.30800 32.95800
O  43.16800 15.48000 34.29700
C  42.73700 16.43600 35.27600
H  50.26900 18.44100 30.56100
H  49.22200 16.79100 24.37200
H  44.08700 13.56000 26.05700
H  46.36400 17.65600 33.24600
H  49.20300 17.65700 32.77600
H  48.84300 20.08100 33.09700
H  47.18600 19.63200 33.12400
H  47.94800 20.04300 31.56500
H  48.50700 15.52600 32.97700
H  46.93900 14.99600 33.47300
H  49.11400 16.03500 34.87300
H  47.78600 15.20300 35.62200
H  52.04000 20.04100 28.14800
H  52.92200 18.56200 28.33800
H  51.93900 19.15000 29.70800
H  53.26600 19.09000 24.43500
H  53.84700 18.27800 25.78700
H  52.71700 19.78800 25.98300
H  47.85400 14.85900 23.36500
H  44.86900 15.02900 23.79800
H  47.18600 16.47800 21.78600
H  47.27800 17.54500 23.17100
H  45.73400 16.89000 22.62100
H  45.40000 12.42400 24.51800
H  46.75000 12.82100 23.44300
H  45.02000 11.81200 22.09500
H  44.79000 13.47800 21.86100
H  43.70300 12.53800 22.91300
H  42.59300 12.31000 28.04100
H  41.96200 13.81200 27.29100
H  41.36400 13.40400 28.86100
H  44.78700 14.36600 32.89500
H  43.59500 17.09100 35.42400
H  42.55700 15.98600 36.25200
H  41.86600 17.03700 35.01500

