158

Mg 54.14600 23.12900 44.92200
C  51.70300 25.41100 43.61200
C  52.26000 20.55000 43.74200
C  56.66600 21.09700 45.36400
C  56.04700 25.89900 45.84600
N  52.16000 23.06900 43.76700
C  51.29400 24.09900 43.39600
C  50.24900 23.51500 42.50000
C  50.22500 22.03200 43.07500
C  51.65300 21.82900 43.47800
C  49.22600 21.91000 44.31800
C  50.46000 23.62400 40.93900
C  49.28100 24.10300 40.05900
H  49.02700 23.44900 38.62800
N  54.47000 21.05900 44.57000
C  53.52900 20.12700 44.16300
C  54.06900 18.78700 44.19800
C  55.44100 18.91000 44.53600
C  55.61200 20.37500 44.87400
C  53.32000 17.50500 43.84800
C  56.43600 17.85000 44.58000
O  56.18800 16.66400 44.35300
C  57.81800 18.11700 44.84400
N  56.16200 23.48900 45.32900
C  56.94800 22.43800 45.59600
C  58.31400 22.83400 46.16600
C  58.21000 24.38900 46.22600
C  56.69700 24.63100 45.83900
C  58.68700 22.23600 47.51900
C  59.25200 25.06500 45.28300
C  60.65400 25.34200 45.92400
N  53.92900 25.15000 44.91500
C  54.73600 26.16600 45.41400
C  54.08900 27.47600 45.29900
C  52.91400 27.19200 44.55000
C  52.84600 25.77700 44.36500
C  54.74100 28.83700 45.70000
C  51.75400 27.75400 43.88600
O  51.38200 28.95800 43.81100
C  50.92400 26.59700 43.26100
C  51.00900 26.93400 41.79400
O  52.01500 26.90000 41.05500
O  49.83400 27.47800 41.35200
C  49.81300 28.26700 40.12800
H  51.60100 19.74000 43.42200
H  57.58400 20.52800 45.52500
H  56.68600 26.74200 46.11500
H  49.29900 24.03100 42.63900
H  50.01800 21.24500 42.35000
H  48.75600 22.86700 44.54500
H  49.65400 21.56900 45.26000
H  48.40800 21.33100 43.89100
H  50.81000 22.66300 40.56300
H  51.27500 24.32100 40.74100
H  49.32100 25.17300 39.85300
H  48.41300 23.97200 40.70500
H  53.58400 17.25600 42.82000
H  52.25100 17.69000 43.95200
H  53.52600 16.65200 44.49600
H  58.10600 18.98300 44.24800
H  58.30100 17.19700 44.51400
H  57.94700 18.27000 45.91500
H  59.08800 22.46800 45.49200
H  58.30200 24.74900 47.25000
H  58.06000 21.41900 47.87600
H  58.55600 22.90300 48.37200
H  59.69000 21.81500 47.45700
H  58.74500 25.98100 44.98200
H  59.37600 24.48300 44.36900
H  61.46500 25.05400 45.25600
H  60.70200 24.80300 46.87000
H  60.76100 26.41600 46.08100
H  55.82600 28.83400 45.60100
H  54.37600 29.14200 46.68000
H  54.33200 29.59400 45.03100
H  49.90000 26.69600 43.62000
H  49.15100 29.13300 40.14800
H  49.36600 27.68600 39.32100
H  50.79600 28.64200 39.84300
Mg 10.11500 48.24100 25.38000
C  7.94200 48.64600 27.92500
C  12.73300 49.14400 27.44800
C  12.22400 47.65400 22.76900
C  7.45300 47.76600 23.05000
N  10.28300 48.66900 27.45400
C  9.25300 48.62400 28.38500
C  9.78800 48.63900 29.84100
C  11.26100 49.22900 29.56600
C  11.50800 49.02300 28.08600
C  11.57400 50.67400 30.00900
C  9.64000 47.23000 30.53900
C  10.40000 47.10300 31.83600
H  9.59600 46.61500 33.04600
N  12.18700 48.38100 25.14100
C  13.03400 48.71700 26.13300
C  14.42300 48.67600 25.61500
C  14.28800 48.12800 24.29100
C  12.85900 48.01900 24.01900
C  15.72000 48.96000 26.39300
C  15.36100 47.56700 23.36200
O  15.21300 46.95300 22.31600
C  16.74900 47.76200 23.71500
N  9.86600 47.83400 23.16300
C  10.90300 47.67000 22.31400
C  10.44800 47.10200 20.97500
C  8.94500 46.90100 21.22300
C  8.70400 47.55400 22.55600
C  10.74000 47.90200 19.72600
C  8.38900 45.47200 21.11700
C  8.82700 44.46400 22.26100
N  8.12100 48.46100 25.41300
C  7.14800 48.22100 24.45200
C  5.80900 48.36200 24.97300
C  6.07900 48.61600 26.36100
C  7.48500 48.60300 26.55300
C  4.47000 48.23000 24.27400
C  5.53300 48.76300 27.65700
O  4.37800 48.88100 28.01000
C  6.65100 48.72100 28.73100
C  6.24200 47.51700 29.61500
O  6.18600 46.37300 29.19400
O  5.96300 47.91700 30.93900
C  5.69200 46.83600 31.85800
H  13.51000 49.43200 28.16000
H  12.90900 47.42700 21.95000
H  6.66200 47.55900 22.32600
H  9.14700 49.29000 30.43600
H  11.96500 48.67000 30.18300
H  11.92400 51.33700 29.21800
H  12.22300 50.66100 30.88500
H  10.65000 51.19000 30.27100
H  10.05300 46.48000 29.86500
H  8.56800 47.06400 30.64500
H  10.76300 48.10300 32.07100
H  11.19600 46.40000 31.59000
H  15.58300 49.29600 27.42100
H  16.30200 49.77400 25.96200
H  16.33000 48.05700 26.40500
H  16.82700 48.78600 24.07900
H  17.39700 47.73600 22.84000
H  17.06000 47.05800 24.48700
H  10.90900 46.13200 20.78900
H  8.32500 47.46600 20.52700
H  11.36900 48.68500 20.15000
H  9.87300 48.47300 19.39300
H  11.31500 47.38200 18.95900
H  8.59800 45.27600 20.06500
H  7.30700 45.57200 21.20600
H  7.90100 43.98200 22.57600
H  9.39300 45.00600 23.01800
H  9.43500 43.72400 21.74000
H  4.12600 47.19800 24.21200
H  4.56300 48.72800 23.30900
H  3.64800 48.75600 24.75800
H  6.64600 49.61900 29.34900
H  6.06800 47.09800 32.84700
H  6.11500 45.87800 31.55500
H  4.61300 46.68600 31.88300

