158

Mg 24.41900 -4.41200 45.99200
C  25.63200 -1.60000 44.26300
C  21.28200 -3.63900 44.70400
C  23.35200 -7.57400 46.78500
C  27.63800 -5.08900 46.99500
N  23.64400 -2.83400 44.62300
C  24.27500 -1.79700 44.06100
C  23.30400 -0.99000 43.14700
C  21.94700 -1.25900 43.90700
C  22.31400 -2.67400 44.45400
C  21.47400 -0.18900 44.95400
C  23.32500 -1.46400 41.69100
C  23.74800 -0.54000 40.54800
H  24.95300 -0.93900 39.76800
N  22.66400 -5.47700 45.59500
C  21.48300 -4.93300 45.15700
C  20.46100 -5.92200 45.14600
C  21.07200 -7.15500 45.68100
C  22.38000 -6.72000 46.11000
C  18.98200 -5.61900 44.66700
C  20.37000 -8.56100 45.79200
O  19.20300 -8.65000 45.45200
C  21.00600 -9.80200 46.34900
N  25.37700 -6.09600 46.76500
C  24.66800 -7.26700 47.08900
C  25.68800 -8.36800 47.58900
C  27.02400 -7.54500 47.76100
C  26.66000 -6.15800 47.15000
C  25.26600 -9.25100 48.76700
C  28.32700 -8.23100 47.29200
C  28.59600 -8.18200 45.87000
N  26.28900 -3.46200 45.86100
C  27.51400 -3.89100 46.28200
C  28.43800 -2.84800 45.96200
C  27.80900 -1.98200 45.06600
C  26.48000 -2.36200 45.13000
C  29.87000 -2.98100 46.35000
C  27.95000 -0.83100 44.19900
O  28.94600 -0.28300 43.84800
C  26.53300 -0.47100 43.67400
C  26.16600 0.90700 44.17300
O  25.30200 1.14700 44.98600
O  26.90000 1.91100 43.63500
C  26.76000 3.28600 44.16100
H  20.28500 -3.22100 44.55000
H  23.20000 -8.64200 46.95700
H  28.58900 -5.32700 47.47700
H  23.40700 0.09400 43.09100
H  21.15400 -1.37800 43.16800
H  21.35900 -0.62900 45.94500
H  20.54100 0.25500 44.60700
H  22.29000 0.51900 45.09800
H  22.31900 -1.80900 41.45300
H  24.00300 -2.31400 41.62100
H  23.81600 0.48600 40.90900
H  22.94000 -0.51600 39.81600
H  18.57100 -6.60000 44.42600
H  19.10700 -4.93800 43.82500
H  18.46300 -5.01700 45.41200
H  20.23500 -10.57200 46.34400
H  21.19700 -9.67200 47.41500
H  21.84500 -10.15800 45.75100
H  25.86400 -9.01300 46.72800
H  27.20700 -7.37800 48.82200
H  25.76600 -10.20700 48.60600
H  24.20200 -9.38400 48.57000
H  25.52400 -8.84300 49.74400
H  28.30200 -9.24000 47.70300
H  29.12800 -7.70900 47.81500
H  29.61600 -7.80100 45.82000
H  27.95200 -7.70900 45.12900
H  28.69400 -9.19700 45.48600
H  30.52300 -2.11100 46.28200
H  30.29400 -3.83200 45.81600
H  29.84100 -3.18000 47.42100
H  26.47200 -0.37800 42.58900
H  27.36500 3.51000 45.04000
H  25.76900 3.59800 44.49000
H  27.09300 3.99100 43.39900
Mg 47.08800 15.56500 28.13300
C  44.98600 15.67200 30.94800
C  49.39000 17.44700 29.79400
C  48.64600 16.16300 25.23400
C  44.39100 14.26900 26.31000
N  47.07900 16.51300 30.08200
C  46.22200 16.30400 31.16100
C  46.78400 16.84600 32.49000
C  48.06300 17.67600 32.01700
C  48.25700 17.08700 30.53700
C  47.89400 19.18800 32.02000
C  46.93200 15.70300 33.49100
C  46.21500 16.13700 34.83000
H  46.09300 17.59100 35.31600
N  48.85400 16.61400 27.56700
C  49.71500 17.24600 28.43200
C  50.87700 17.67800 27.63400
C  50.67000 17.31200 26.28400
C  49.32600 16.70100 26.30800
C  51.98300 18.40400 28.33500
C  51.57500 17.43300 25.04800
O  51.26500 17.01100 23.95300
C  52.92800 18.05500 25.26600
N  46.61300 15.21500 26.10200
C  47.42700 15.51100 25.09100
C  46.87200 15.08300 23.71700
C  45.59300 14.34100 24.09100
C  45.58100 14.48900 25.59800
C  46.68700 16.23800 22.78600
C  45.51300 12.87100 23.65000
C  44.45500 12.54400 22.58000
N  45.12800 14.96400 28.54200
C  44.14400 14.53600 27.65600
C  42.93800 14.25000 28.34400
C  43.15400 14.75000 29.64500
C  44.53900 15.12300 29.71100
C  41.66200 13.75600 27.77300
C  42.60200 14.88700 30.98600
O  41.49100 14.61500 31.45500
C  43.77300 15.40500 31.90000
C  43.19100 16.63600 32.45400
O  43.32200 17.73500 31.95100
O  42.49300 16.49600 33.67200
C  41.93600 17.68900 34.24900
H  50.14800 17.92500 30.41700
H  49.00300 16.07700 24.20500
H  43.56700 13.87700 25.71000
H  46.07000 17.56900 32.88400
H  48.92900 17.47700 32.64800
H  48.37500 19.63100 32.89300
H  46.85300 19.47700 32.16100
H  48.23500 19.63000 31.08400
H  47.97600 15.53600 33.75600
H  46.51400 14.81200 33.02300
H  46.62300 15.49500 35.61100
H  45.17000 15.86300 34.68200
H  52.87200 17.87300 27.99500
H  51.90300 18.29800 29.41700
H  52.15600 19.45500 28.10300
H  52.73300 19.06500 25.62800
H  53.45600 18.13600 24.31600
H  53.52900 17.49000 25.97800
H  47.50600 14.38900 23.16600
H  44.75200 14.91900 23.70800
H  45.71600 16.28200 22.29500
H  47.45800 16.19500 22.01700
H  46.77100 17.18700 23.31600
H  45.38200 12.21300 24.50900
H  46.47100 12.63100 23.18900
H  43.99400 11.62200 22.93500
H  44.95400 12.55400 21.61100
H  43.66700 13.29100 22.47600
H  41.69800 12.75700 27.33900
H  41.40600 14.45400 26.97600
H  40.83700 13.75900 28.48600
H  44.04300 14.79600 32.76300
H  41.31200 18.11900 33.46600
H  42.67700 18.47300 34.40200
H  41.34700 17.45000 35.13500

