158

Mg 46.67700 44.59700 43.36200
C  43.05700 44.32600 43.21700
C  46.81500 41.30400 42.32200
C  49.80000 45.12600 42.81400
C  46.00400 48.18500 43.47900
N  45.07500 43.11900 42.74400
C  43.69600 43.14500 42.74800
C  43.02400 41.83900 42.25000
C  44.26700 40.92000 42.09900
C  45.49800 41.82300 42.45300
C  44.12000 39.56200 42.98000
C  42.00300 41.90900 41.07000
C  42.72800 42.39900 39.80300
H  42.64800 41.52200 38.58400
N  48.19500 43.33400 42.67600
C  48.09400 42.02600 42.39300
C  49.42800 41.51100 42.20500
C  50.33000 42.57200 42.35900
C  49.49800 43.76000 42.62600
C  49.84400 40.06200 41.86400
C  51.90500 42.55700 42.23500
O  52.47000 41.48900 42.02400
C  52.66800 43.79000 42.47300
N  47.67300 46.47300 42.82700
C  49.06800 46.31800 42.99000
C  49.74700 47.69500 43.30500
C  48.51200 48.63800 43.03900
C  47.29400 47.68900 43.23000
C  50.29800 47.71400 44.72500
C  48.47200 49.45200 41.68400
C  48.35900 50.98900 41.83100
N  44.93900 46.01300 43.44400
C  44.91500 47.40500 43.57000
C  43.55300 47.84700 43.78600
C  42.75600 46.65400 43.62100
C  43.68900 45.54300 43.47700
C  43.13900 49.24000 43.94800
C  41.39700 46.18100 43.59100
O  40.34300 46.74700 43.82100
C  41.60700 44.61600 43.33900
C  40.82800 43.89600 44.39600
O  39.70800 43.41000 44.16600
O  41.48800 43.79400 45.59200
C  40.74400 42.95400 46.55600
H  46.75000 40.24600 42.05800
H  50.86400 45.35900 42.72700
H  45.90200 49.27200 43.51200
H  42.38500 41.46600 43.05000
H  44.26400 40.67100 41.03800
H  44.89100 39.35900 43.72300
H  43.99800 38.68800 42.34100
H  43.23800 39.54600 43.62100
H  41.14000 42.51300 41.35100
H  41.58300 40.91100 40.94300
H  43.80500 42.52700 39.90400
H  42.25200 43.34700 39.55300
H  50.60400 40.19700 41.09400
H  48.95400 39.59100 41.44700
H  50.24300 39.46600 42.68500
H  52.50200 44.20700 43.46600
H  52.40800 44.42000 41.62200
H  53.69600 43.48100 42.28800
H  50.50900 47.84700 42.54100
H  48.38200 49.30500 43.89200
H  51.21000 48.30600 44.80200
H  50.53000 46.72300 45.11600
H  49.48400 48.02200 45.38300
H  47.57700 49.23000 41.10300
H  49.32400 49.14700 41.07600
H  47.62300 51.40800 41.14400
H  49.35700 51.32700 41.55400
H  48.14300 51.23800 42.87000
H  42.06200 49.37800 44.04200
H  43.51300 49.88700 43.15400
H  43.65400 49.56900 44.85100
H  41.08200 44.41500 42.40500
H  40.20500 43.70600 47.13100
H  41.54800 42.56100 47.17900
H  39.93000 42.28700 46.27100
Mg 5.94100 55.92800 41.64000
C  5.91300 52.33200 41.61500
C  9.08500 55.82100 40.40600
C  5.90300 59.24700 41.70400
C  2.78200 55.85700 43.09000
N  7.21000 54.25400 40.92700
C  7.03200 52.86800 40.84600
C  8.13900 52.10600 40.12000
C  9.24000 53.19800 40.14400
C  8.49000 54.52800 40.52200
C  10.40300 52.88000 41.11600
C  7.55000 51.68500 38.70500
C  8.03000 50.39700 38.00100
H  7.15700 49.90600 36.87600
N  7.27300 57.35400 40.99700
C  8.55800 57.07100 40.64400
C  9.29000 58.36200 40.54800
C  8.31800 59.40300 40.61300
C  7.07100 58.67000 41.19400
C  10.77300 58.52800 40.35000
C  8.45800 60.91700 40.32800
O  9.56100 61.33300 39.95200
C  7.32300 61.93400 40.37800
N  4.40900 57.36600 41.94900
C  4.69000 58.66600 42.03300
C  3.39000 59.47300 42.33600
C  2.45800 58.31000 42.91200
C  3.26400 57.07800 42.66100
C  3.64600 60.65300 43.28700
C  1.02300 58.21900 42.21900
C  -0.15100 58.13700 43.18200
N  4.45100 54.44700 42.08100
C  3.31000 54.56500 42.84400
C  2.88400 53.28900 43.24400
C  3.83100 52.35500 42.76200
C  4.82700 53.09300 42.07600
C  1.66500 52.96900 44.08900
C  4.24600 50.92100 42.72300
O  3.68800 49.96400 43.27200
C  5.61400 50.90700 42.00900
C  5.46700 49.87500 40.97000
O  4.64700 49.91100 40.06700
O  6.35400 48.86600 41.20100
C  6.18900 47.77900 40.22800
H  10.14700 55.81500 40.14900
H  6.04500 60.32700 41.78300
H  1.80800 55.89500 43.58200
H  8.47300 51.30600 40.78100
H  9.69700 53.26700 39.15800
H  10.43800 51.80300 41.27800
H  10.23800 53.50100 41.99600
H  11.35300 53.20700 40.69100
H  7.77000 52.55300 38.08300
H  6.46600 51.60100 38.62900
H  8.22000 49.65200 38.77300
H  8.97800 50.63300 37.51800
H  11.15300 59.30300 41.01500
H  10.94400 59.02600 39.39500
H  11.42100 57.68200 40.57800
H  7.25600 62.26600 41.41400
H  6.35500 61.48400 40.15700
H  7.50200 62.76500 39.69500
H  2.98900 59.91900 41.42600
H  2.48200 58.49900 43.98500
H  2.74700 60.80500 43.88400
H  3.83600 61.51800 42.65100
H  4.53300 60.58400 43.91500
H  1.07300 57.36100 41.54800
H  0.79800 59.10000 41.61800
H  -0.83100 58.98400 43.08700
H  0.15700 58.09100 44.22700
H  -0.65800 57.20200 42.94500
H  0.88700 52.60400 43.41900
H  1.10800 53.75900 44.59400
H  1.89000 52.11400 44.72700
H  6.28400 50.46100 42.74400
H  6.94400 47.98600 39.47000
H  5.25400 47.74600 39.67000
H  6.40700 46.76300 40.55600

