158

Mg 1.64100 8.18500 25.52600
C  2.33500 10.29200 28.41000
C  1.54300 5.56800 27.56700
C  0.81100 6.33100 22.82500
C  1.82900 11.05700 23.53600
N  2.16000 7.94500 27.65800
C  2.20500 8.92200 28.71800
C  2.24700 8.25300 30.07900
C  2.30000 6.72000 29.66200
C  1.98700 6.73000 28.18700
C  3.60700 5.92900 30.01500
C  1.11700 8.72500 30.98900
C  1.33000 8.81400 32.42900
H  2.38000 7.91000 33.12500
N  1.07300 6.22900 25.24800
C  1.16400 5.33000 26.26700
C  0.69600 4.03700 25.70300
C  0.35300 4.30100 24.32500
C  0.77900 5.65700 24.08200
C  0.51500 2.69100 26.57400
C  -0.23400 3.33400 23.31600
O  -0.52600 3.73400 22.22900
C  -0.67300 1.88800 23.69800
N  1.53500 8.65300 23.53600
C  1.10900 7.67600 22.62200
C  0.84000 8.34500 21.21100
C  0.75700 9.84400 21.60100
C  1.49100 9.84900 22.98900
C  1.90800 8.10300 20.15200
C  -0.62600 10.35600 21.65700
C  -1.04900 10.98700 20.28300
N  2.01000 10.21200 25.89000
C  2.07200 11.24800 24.94000
C  2.36900 12.49800 25.63900
C  2.39300 12.17000 26.99600
C  2.29100 10.76400 27.09300
C  2.40300 13.89900 25.00900
C  2.64400 12.72000 28.29300
O  2.95200 13.85100 28.59100
C  2.52800 11.52600 29.28600
C  3.66700 11.50700 30.25600
O  4.72600 10.95500 29.96000
O  3.41700 12.17000 31.40300
C  4.39000 11.97700 32.46100
H  1.56300 4.65800 28.17000
H  0.58800 5.83100 21.88100
H  1.70000 11.95200 22.92400
H  3.26700 8.51900 30.35300
H  1.44800 6.18800 30.08700
H  4.40500 6.51200 30.47400
H  3.95300 5.34300 29.16300
H  3.33900 5.22300 30.80100
H  0.45600 7.86000 30.93900
H  0.68800 9.65200 30.60800
H  0.36300 8.71000 32.92000
H  1.68700 9.81000 32.68900
H  1.47100 2.18500 26.70200
H  -0.29900 2.07100 26.19700
H  0.28200 3.02200 27.58700
H  -1.61100 2.04100 24.23200
H  0.05300 1.29700 24.25600
H  -0.79000 1.35800 22.75300
H  -0.14400 7.95500 20.94800
H  1.45200 10.40000 20.97200
H  2.86800 8.20400 20.65800
H  1.68000 8.90100 19.44500
H  1.79900 7.13100 19.67000
H  -0.64300 11.03300 22.51100
H  -1.31600 9.57500 21.97600
H  -0.23400 10.86300 19.57000
H  -1.14900 12.06900 20.36500
H  -1.92700 10.50000 19.85700
H  1.36800 14.15700 24.78300
H  2.99200 13.80600 24.09700
H  2.73800 14.65900 25.71500
H  1.67400 11.68300 29.94600
H  5.42900 12.17900 32.19700
H  4.42000 10.96600 32.86600
H  4.08600 12.61100 33.29400
Mg 30.47000 59.62100 39.13700
C  27.27800 58.23100 38.26400
C  31.92600 56.62500 38.13000
C  33.34200 61.22000 39.17700
C  28.69000 62.52200 39.88200
N  29.71600 57.72500 38.21500
C  28.43000 57.37800 37.98700
C  28.36500 55.98800 37.34600
C  29.79900 55.42100 37.58600
C  30.55300 56.65900 37.95300
C  29.92000 54.29900 38.66100
C  27.94300 56.13400 35.90800
C  27.88400 54.83900 35.10700
H  27.25100 54.85300 33.67500
N  32.42700 59.01600 38.83900
C  32.77700 57.72800 38.48800
C  34.19500 57.64100 38.42300
C  34.71900 58.97400 38.68300
C  33.53400 59.81700 38.91000
C  34.89300 56.35200 38.01600
C  36.22100 59.28300 38.84900
O  37.09900 58.48400 38.56300
C  36.56500 60.59600 39.35100
N  30.98800 61.55500 39.51100
C  32.25300 62.01300 39.49700
C  32.34200 63.46200 39.77800
C  30.85000 63.86600 40.00100
C  30.12800 62.52500 39.81000
C  33.34000 63.81800 40.94500
C  30.29800 64.97900 39.04300
C  29.56800 66.06800 39.77600
N  28.29000 60.29900 39.20900
C  27.82200 61.50700 39.53400
C  26.39300 61.44000 39.53400
C  26.07300 60.13600 39.08300
C  27.28900 59.53000 38.86500
C  25.32000 62.46000 39.89300
C  25.03500 59.18700 38.78600
O  23.80500 59.30400 38.78900
C  25.75000 57.89000 38.19100
C  25.34300 56.82900 39.07500
O  25.46100 56.88400 40.26700
O  24.75800 55.84400 38.28900
C  24.15300 54.71500 39.02100
H  32.39600 55.64700 38.00500
H  34.27500 61.77700 39.28000
H  28.11100 63.38100 40.22700
H  27.66800 55.37700 37.92000
H  30.17100 55.01700 36.64400
H  28.94700 54.03300 39.07400
H  30.62000 54.61400 39.43400
H  30.28100 53.41900 38.12700
H  28.55100 56.87500 35.38900
H  26.90900 56.47600 35.93900
H  27.32200 54.09400 35.67000
H  28.88100 54.40900 35.00700
H  34.51000 55.47800 38.54400
H  35.96300 56.55300 38.06100
H  34.64600 56.10400 36.98400
H  37.61700 60.51900 39.62500
H  35.92700 60.65400 40.23300
H  36.27400 61.31900 38.58900
H  32.78900 63.92100 38.89600
H  30.62000 63.94900 41.06300
H  33.70800 62.83200 41.22500
H  32.93800 64.20400 41.88200
H  34.19700 64.43400 40.67200
H  29.59000 64.63700 38.28800
H  31.14100 65.39600 38.49100
H  29.93600 66.14500 40.79900
H  28.53700 65.71800 39.74400
H  29.82200 67.09800 39.52400
H  24.97700 62.29700 40.91500
H  24.48700 62.26900 39.21700
H  25.77900 63.44700 39.84100
H  25.34500 57.78800 37.18400
H  24.83600 54.37500 39.80000
H  23.72400 53.87000 38.48200
H  23.22600 55.13900 39.40600

