158

Mg 36.11400 48.49300 25.16400
C  36.64300 46.70600 28.14800
C  34.60300 50.96500 26.77500
C  35.48700 50.07800 22.14300
C  37.74100 45.90100 23.36100
N  35.52700 48.67800 27.20200
C  35.87800 47.87600 28.25400
C  35.60400 48.61700 29.56000
C  34.77400 49.85100 29.13800
C  34.91000 49.80300 27.57900
C  33.26400 49.86800 29.64200
C  36.93800 48.99800 30.32200
C  36.82900 49.12100 31.85000
H  35.47600 49.10200 32.54600
N  35.23000 50.31300 24.55100
C  34.67000 51.15900 25.43200
C  34.22700 52.34400 24.74400
C  34.47200 52.13200 23.36900
C  35.04700 50.80900 23.26100
C  33.68300 53.54900 25.49000
C  34.24000 53.06600 22.19000
O  34.64200 52.88100 21.02300
C  33.34200 54.27300 22.38100
N  36.55300 48.07300 23.05500
C  36.07600 48.79000 22.06700
C  36.44800 48.11300 20.71600
C  37.52100 47.09200 21.07600
C  37.38200 47.06300 22.62800
C  35.15500 47.75200 19.96000
C  39.00200 47.43400 20.58300
C  39.59100 46.43200 19.56800
N  36.90700 46.59700 25.60900
C  37.60000 45.70400 24.79000
C  37.97100 44.59900 25.55400
C  37.59900 44.88200 26.89400
C  36.95800 46.16400 26.83100
C  38.60000 43.25500 24.98600
C  37.65800 44.42600 28.34400
O  37.94000 43.30200 28.84800
C  37.06800 45.61200 29.18300
C  35.85200 45.05800 29.83400
O  34.83900 44.73000 29.19200
O  36.02700 44.99400 31.22000
C  34.76100 44.86700 31.95000
H  34.14100 51.77800 27.33900
H  35.21900 50.55100 21.19600
H  38.21300 45.00600 22.95000
H  34.95700 47.93400 30.11100
H  35.23000 50.73300 29.58700
H  33.02800 48.93900 30.16000
H  32.56800 49.85700 28.80200
H  33.09600 50.74600 30.26600
H  37.22600 49.99300 29.98400
H  37.65600 48.24200 30.00500
H  37.38600 49.94600 32.29300
H  37.26100 48.16900 32.15900
H  33.46900 54.46300 24.93700
H  34.31600 53.85400 26.32300
H  32.71600 53.35900 25.95500
H  32.39200 54.11300 22.89000
H  33.14200 54.80200 21.44900
H  33.83100 55.07700 22.93100
H  36.86000 48.91000 20.09600
H  37.27600 46.08400 20.74300
H  34.45700 47.24300 20.62400
H  35.43800 47.13600 19.10600
H  34.60000 48.62300 19.61300
H  39.56700 47.63800 21.49300
H  39.10200 48.44600 20.19000
H  39.89800 46.98800 18.68200
H  39.01600 45.53800 19.32700
H  40.40300 45.91500 20.07900
H  39.37400 43.45400 24.24500
H  37.79800 42.59100 24.66400
H  39.08800 42.81600 25.85600
H  37.73100 45.94600 29.98100
H  35.04700 44.64300 32.97800
H  34.06600 44.07200 31.68000
H  34.21300 45.79000 31.75900
Mg -5.92900 25.40600 25.40700
C  -4.65500 26.36900 28.63000
C  -7.95100 23.15800 27.22200
C  -6.98200 24.20000 22.41700
C  -3.57300 27.23200 23.94500
N  -6.27900 24.78800 27.68700
C  -5.76500 25.46800 28.76500
C  -6.39500 25.01500 30.03200
C  -7.12600 23.66800 29.60200
C  -7.18300 23.88400 28.10400
C  -6.40700 22.39400 30.01500
C  -7.34800 26.09500 30.56800
C  -7.31800 26.38400 32.09700
H  -6.68200 25.27700 33.00400
N  -7.27300 23.91300 24.87700
C  -8.03800 23.14600 25.76800
C  -8.94000 22.32100 24.99700
C  -8.71400 22.60600 23.56900
C  -7.57000 23.56900 23.57000
C  -9.93900 21.35000 25.67600
C  -9.40400 21.98900 22.23100
O  -9.06800 22.26300 21.06000
C  -10.65900 21.01000 22.33500
N  -5.45000 25.75500 23.53900
C  -6.00100 25.14400 22.39500
C  -5.32500 25.62300 21.12200
C  -4.48200 26.78700 21.64500
C  -4.49800 26.58600 23.16000
C  -4.53100 24.52400 20.32000
C  -5.05800 28.20100 21.29000
C  -5.07300 28.53500 19.81100
N  -4.49500 26.63000 26.14300
C  -3.54300 27.26100 25.33700
C  -2.62800 28.00500 26.22900
C  -3.02500 27.66400 27.53100
C  -4.15200 26.83200 27.37900
C  -1.49000 28.90400 25.86100
C  -2.73900 27.85800 29.00000
O  -1.85500 28.49000 29.53400
C  -3.85700 27.05600 29.74400
C  -3.15600 26.22200 30.60800
O  -2.67100 25.16200 30.35000
O  -3.11500 26.86900 31.81000
C  -2.39400 26.24400 32.88900
H  -8.44900 22.27300 27.62400
H  -7.37700 23.79400 21.48300
H  -2.93100 28.00200 23.51100
H  -5.57800 24.91400 30.74700
H  -8.13000 23.74700 30.01800
H  -6.30600 21.66400 29.21200
H  -7.02600 21.99900 30.82000
H  -5.39700 22.52200 30.40600
H  -8.35500 25.76300 30.31600
H  -7.33800 27.05100 30.04500
H  -8.31600 26.60900 32.47500
H  -6.72800 27.29000 32.23700
H  -9.44600 20.37800 25.70900
H  -10.87300 21.25200 25.12200
H  -10.24600 21.63400 26.68200
H  -11.17500 20.90200 21.38200
H  -11.41800 21.39500 23.01700
H  -10.39700 19.99800 22.64600
H  -6.12500 25.90700 20.43700
H  -3.43000 26.66000 21.39000
H  -5.12200 24.04700 19.53800
H  -4.03200 23.75100 20.90500
H  -3.86900 25.17000 19.74400
H  -4.40700 28.88800 21.83000
H  -6.05300 28.37500 21.69900
H  -4.53000 29.46600 19.64600
H  -6.11300 28.76100 19.57900
H  -4.66000 27.71400 19.22500
H  -1.82500 29.93400 25.98100
H  -1.21700 28.63900 24.84000
H  -0.62500 28.56700 26.43300
H  -4.44700 27.78700 30.29800
H  -2.95200 26.21500 33.82500
H  -1.48500 26.82700 33.03400
H  -2.15300 25.23200 32.56600

