158

Mg 8.99200 3.00000 27.09200
C  10.36000 1.49200 30.00600
C  7.01700 4.96600 29.35100
C  7.23900 4.20000 24.49200
C  10.02100 0.26100 25.19300
N  8.70900 3.13100 29.43600
C  9.51500 2.56200 30.35900
C  9.27100 3.10400 31.73300
C  8.01600 4.04900 31.51100
C  7.81000 4.05200 30.00900
C  6.68500 3.64500 32.13900
C  10.50000 3.84100 32.45500
C  10.93200 3.36700 33.86000
H  11.22100 4.46700 34.93400
N  7.48900 4.47000 26.96500
C  6.86800 5.16400 27.93500
C  6.02300 6.12700 27.27000
C  6.20200 6.05700 25.84800
C  6.96700 4.86400 25.73200
C  5.07400 7.07500 28.06200
C  5.80300 6.92400 24.69900
O  5.98700 6.63900 23.53200
C  5.07900 8.17300 25.01000
N  8.79600 2.43000 25.14300
C  8.06400 3.12200 24.22800
C  8.21200 2.53400 22.86200
C  9.07800 1.30300 23.05900
C  9.34800 1.32600 24.57300
C  6.89900 2.24600 22.16500
C  10.35100 1.31200 22.25600
C  10.46900 0.13800 21.26000
N  10.03000 1.26200 27.47700
C  10.46400 0.31300 26.58200
C  11.32500 -0.57300 27.26500
C  11.29500 -0.16500 28.65200
C  10.53000 0.96200 28.71200
C  11.83700 -1.97400 26.64200
C  11.64800 -0.61900 29.93400
O  12.33100 -1.58100 30.22300
C  11.06900 0.49900 30.89800
C  10.17300 -0.11400 31.88800
O  8.95100 -0.29300 31.78500
O  10.98200 -0.28500 33.06000
C  10.24200 -0.56300 34.28000
H  6.42800 5.60700 30.01100
H  6.84100 4.50800 23.52300
H  10.36600 -0.56500 24.56600
H  9.08200 2.22000 32.34300
H  8.30600 5.00600 31.94400
H  6.60700 4.42100 32.90100
H  6.65500 2.70100 32.68400
H  5.88000 3.69200 31.40700
H  10.28400 4.90900 32.44700
H  11.39200 3.73100 31.83700
H  11.82900 2.75900 33.74500
H  10.06600 2.82200 34.23800
H  5.48900 8.08000 27.99100
H  4.95200 6.81800 29.11500
H  4.12400 7.13200 27.53200
H  5.69000 8.66100 25.76900
H  4.08900 7.96600 25.41600
H  4.99800 8.82200 24.13800
H  8.80600 3.30200 22.36600
H  8.57100 0.34000 23.00700
H  6.04300 2.59600 22.74400
H  6.71700 1.17300 22.10500
H  6.84200 2.79900 21.22700
H  11.19800 1.13100 22.91800
H  10.61600 2.26100 21.79100
H  9.50900 -0.18700 20.85800
H  11.00100 -0.73000 21.65000
H  11.00800 0.55700 20.41100
H  12.92400 -2.02900 26.70800
H  11.63800 -1.91600 25.57200
H  11.37200 -2.84600 27.10100
H  11.89700 1.02800 31.36900
H  9.17200 -0.66800 34.09900
H  10.53300 0.11300 35.08300
H  10.60300 -1.51900 34.66000
Mg 36.53200 49.28900 24.80600
C  36.48900 47.80500 27.88800
C  35.20000 52.12000 26.16200
C  36.47900 50.69100 21.75100
C  37.89500 46.36700 23.50300
N  35.88300 49.84100 26.78200
C  36.01200 49.12800 27.92600
C  35.73400 49.92000 29.18400
C  35.21400 51.27000 28.57100
C  35.45200 51.08400 27.10100
C  33.77500 51.64200 28.94900
C  36.93700 50.06500 30.14200
C  36.74800 49.77900 31.71200
H  35.42900 50.24400 32.31500
N  35.92000 51.11500 24.06300
C  35.45300 52.14500 24.76800
C  35.08900 53.22000 23.84900
C  35.31100 52.80800 22.57100
C  35.98800 51.47100 22.75200
C  34.67500 54.55400 24.48600
C  35.11500 53.47500 21.31500
O  35.24800 53.00000 20.21100
C  34.49100 54.98600 21.28400
N  36.88500 48.43300 22.88000
C  36.75900 49.25800 21.78100
C  37.37600 48.57800 20.59000
C  38.20900 47.43700 21.23600
C  37.59500 47.39400 22.64800
C  36.40600 48.32600 19.38900
C  39.64500 47.72000 21.37000
C  40.57900 46.66500 20.72800
N  37.14400 47.39000 25.54500
C  37.59200 46.26900 24.89300
C  37.70100 45.17500 25.82600
C  37.18300 45.78200 26.99700
C  36.88900 47.11300 26.74700
C  38.28500 43.81800 25.54100
C  36.88400 45.44300 28.32100
O  37.09500 44.41000 28.98600
C  36.43500 46.76800 29.00100
C  35.13500 46.49400 29.59500
O  34.09600 46.51900 29.00400
O  35.22000 46.25500 30.93200
C  33.95700 45.92500 31.60700
H  34.53800 52.95700 26.39600
H  36.46500 51.15200 20.76100
H  38.45500 45.56100 23.02300
H  34.86300 49.44500 29.63500
H  35.84100 52.12800 28.81500
H  33.42400 51.04200 29.78800
H  33.14600 51.59400 28.06000
H  33.84400 52.61600 29.43300
H  37.30000 51.08100 29.98700
H  37.79900 49.48100 29.81900
H  37.64100 50.20000 32.17400
H  36.76400 48.70000 31.86500
H  33.66000 54.46800 24.87600
H  34.57900 55.44500 23.86600
H  35.46800 54.80700 25.19000
H  33.55400 54.87700 21.83000
H  34.26700 55.27500 20.25700
H  35.13600 55.72700 21.75700
H  38.03900 49.32200 20.14900
H  37.98700 46.46500 20.79600
H  35.39400 48.70400 19.53700
H  36.18900 47.26800 19.24300
H  36.81700 48.63300 18.42800
H  40.07800 47.80900 22.36600
H  39.87100 48.66300 20.87300
H  40.08800 45.93100 20.08900
H  41.17100 46.20000 21.51700
H  41.27400 47.22300 20.10100
H  37.78700 43.10000 26.19200
H  39.35100 43.71100 25.74100
H  38.03200 43.63300 24.49700
H  37.14300 47.02700 29.78800
H  33.41300 46.86200 31.72200
H  34.07600 45.38400 32.54600
H  33.24600 45.25500 31.12200

