158

Mg 16.77100 -2.14500 27.77400
C  16.07000 0.07000 30.64900
C  18.45300 -4.16200 29.98700
C  17.84400 -3.53500 25.13000
C  15.23300 0.47900 25.80100
N  17.19700 -1.98800 30.10300
C  16.77900 -1.07500 30.99700
C  17.29800 -1.47700 32.39400
C  18.18400 -2.78900 32.11700
C  17.92300 -3.03800 30.64700
C  19.68900 -2.66700 32.51800
C  16.11000 -1.81200 33.40700
C  16.42400 -1.58500 34.87300
H  17.73700 -0.95800 35.31100
N  17.89100 -3.74800 27.59000
C  18.47900 -4.48300 28.58700
C  19.12100 -5.59600 27.95400
C  18.94100 -5.41500 26.57700
C  18.21200 -4.17900 26.38500
C  19.84200 -6.68300 28.66500
C  19.33300 -6.35000 25.50100
O  19.20900 -6.00500 24.33200
C  19.91000 -7.73700 25.76000
N  16.50800 -1.58800 25.74200
C  17.20100 -2.31300 24.84700
C  17.00300 -1.72600 23.34400
C  16.02500 -0.55600 23.64200
C  15.89700 -0.56300 25.14000
C  18.39400 -1.53700 22.78100
C  14.64200 -0.59600 22.80100
C  13.32400 -0.60300 23.61000
N  15.80300 -0.20200 28.09400
C  15.16700 0.66500 27.19400
C  14.55400 1.82600 27.87000
C  14.95500 1.59400 29.22100
C  15.68700 0.35700 29.29100
C  13.94300 3.13700 27.19500
C  14.98200 2.24000 30.45100
O  14.60800 3.38400 30.76600
C  15.69100 1.26400 31.51400
C  16.90000 1.91900 32.00700
O  18.00600 1.95200 31.61500
O  16.40500 2.65900 33.09500
C  17.47200 3.25800 33.95100
H  19.05900 -4.87500 30.55000
H  18.22100 -3.98100 24.20800
H  14.72500 1.28100 25.26200
H  17.84900 -0.60000 32.73500
H  17.79000 -3.57000 32.76700
H  19.94700 -3.41300 33.27100
H  19.84900 -1.74900 33.08400
H  20.36100 -2.72800 31.66200
H  15.83300 -2.86500 33.36600
H  15.11200 -1.41000 33.23200
H  16.32400 -2.49500 35.46400
H  15.54200 -0.99900 35.13400
H  20.93000 -6.63100 28.64600
H  19.51200 -7.68800 28.40000
H  19.76200 -6.63800 29.75100
H  20.79800 -7.77200 26.39100
H  20.17300 -8.07800 24.75800
H  19.13300 -8.42900 26.08400
H  16.40200 -2.41400 22.74900
H  16.48400 0.38500 23.33900
H  19.22800 -1.88300 23.39200
H  18.59700 -0.47200 22.67300
H  18.43300 -2.16000 21.88800
H  14.68800 -1.40400 22.07100
H  14.69800 0.28100 22.15600
H  12.54300 -0.90900 22.91500
H  12.96000 0.37000 23.94100
H  13.36400 -1.38300 24.37100
H  14.31500 3.06000 26.17300
H  14.29600 4.09600 27.57300
H  12.86100 3.00900 27.17700
H  14.93900 1.03800 32.27000
H  18.48400 3.03700 33.61000
H  17.35200 2.97800 34.99800
H  17.25400 4.32100 33.85700
Mg -8.96300 41.38800 42.62100
C  -8.56400 38.12900 41.48100
C  -6.39400 42.39300 40.59000
C  -9.97200 44.62100 42.99100
C  -12.05200 40.32400 44.08900
N  -7.53000 40.35500 41.31000
C  -7.58100 39.04600 41.00600
C  -6.48200 38.65300 39.98600
C  -5.64900 39.92400 39.97400
C  -6.58600 40.98600 40.67000
C  -4.25900 39.84700 40.60800
C  -7.13700 38.21100 38.60900
C  -6.76000 36.77100 38.16600
H  -5.67100 36.69000 37.09700
N  -8.16700 43.29400 42.03000
C  -7.11400 43.45200 41.18300
C  -6.90500 44.82000 40.99800
C  -7.97900 45.56700 41.62700
C  -8.75900 44.43200 42.31600
C  -5.69900 45.42300 40.10700
C  -8.05800 47.04800 41.77600
O  -7.28500 47.84100 41.26200
C  -9.27300 47.68600 42.45600
N  -10.62700 42.40200 43.62700
C  -10.76800 43.71900 43.73200
C  -12.13100 44.14900 44.41200
C  -12.81200 42.73000 44.69200
C  -11.75600 41.69700 44.18400
C  -12.08300 45.07100 45.69300
C  -14.22200 42.69400 43.90400
C  -15.42300 42.14500 44.73800
N  -10.10900 39.61700 42.81000
C  -11.32000 39.28600 43.47600
C  -11.61800 37.90900 43.25200
C  -10.50400 37.42200 42.50800
C  -9.63900 38.46700 42.32300
C  -12.76200 37.14000 43.82900
C  -9.89800 36.14800 42.08700
O  -10.34400 34.99000 42.19100
C  -8.56200 36.57500 41.31700
C  -7.39700 35.90700 41.89800
O  -6.90600 36.14100 43.01700
O  -6.85900 34.93100 41.06600
C  -5.61300 34.27600 41.60200
H  -5.57200 42.60800 39.90400
H  -10.47700 45.58800 43.02500
H  -12.97900 40.03700 44.58900
H  -5.88200 37.80000 40.30200
H  -5.39900 40.28600 38.97700
H  -3.45600 40.29700 40.02400
H  -4.08700 38.77800 40.73300
H  -4.23500 40.33500 41.58200
H  -6.86800 38.94600 37.85000
H  -8.22500 38.23600 38.66400
H  -7.57300 36.16800 37.76100
H  -6.31200 36.14100 38.93500
H  -5.42200 44.71100 39.32900
H  -4.78000 45.46000 40.69200
H  -5.94000 46.43500 39.78200
H  -9.22300 47.35200 43.49200
H  -10.22100 47.43700 41.97900
H  -9.19100 48.77300 42.43400
H  -12.59200 44.83800 43.70500
H  -13.03600 42.58300 45.74900
H  -11.08800 45.46200 45.90300
H  -12.45300 44.54900 46.57600
H  -12.70100 45.94900 45.50300
H  -14.08900 42.15800 42.96400
H  -14.41100 43.67800 43.47500
H  -16.27300 42.82000 44.83300
H  -15.19800 41.88800 45.77400
H  -15.84400 41.26400 44.25400
H  -12.91700 36.12100 43.47500
H  -13.66800 37.71000 43.62000
H  -12.82600 37.15900 44.91700
H  -8.73300 36.34700 40.26500
H  -5.43200 33.42600 40.94400
H  -5.64100 33.99200 42.65300
H  -4.74200 34.93000 41.55200

