158

Mg 47.94000 34.71500 26.75600
C  46.09000 33.49400 29.39800
C  48.62800 37.51300 28.69600
C  49.57200 36.04200 24.13800
C  47.03300 31.92600 24.82300
N  47.29500 35.39900 28.79700
C  46.70500 34.64100 29.73100
C  46.87600 35.20900 31.18200
C  47.38600 36.62700 30.86300
C  47.79300 36.55500 29.32400
C  46.45600 37.79200 31.15200
C  47.96600 34.37000 31.86500
C  48.23200 34.61000 33.31300
H  47.35600 35.56000 34.12600
N  49.00900 36.54200 26.42500
C  49.23800 37.53200 27.35000
C  50.11500 38.57600 26.77900
C  50.28500 38.12900 25.41200
C  49.62000 36.84300 25.24800
C  50.52400 39.74400 27.62400
C  51.09000 38.74500 24.38200
O  51.33500 38.30500 23.24900
C  51.66300 40.10400 24.69600
N  48.23200 34.13100 24.76500
C  48.99000 34.78500 23.89500
C  49.18500 34.09700 22.49800
C  48.66200 32.62300 22.89700
C  47.95500 32.89700 24.30300
C  48.34100 34.84900 21.33900
C  49.78500 31.56900 23.07800
C  49.95900 30.49900 22.04100
N  46.81200 33.03500 26.96100
C  46.41100 32.04500 26.10400
C  45.51100 31.12600 26.69700
C  45.34900 31.63400 27.98200
C  46.22100 32.77400 28.13100
C  44.97300 29.88400 26.10800
C  44.71300 31.41400 29.17600
O  44.01400 30.47000 29.59400
C  45.13000 32.55600 30.19800
C  45.58500 31.82900 31.49500
O  46.41700 30.97200 31.66500
O  44.73900 32.27100 32.52700
C  44.97900 31.85600 33.97000
H  48.80700 38.39300 29.31800
H  50.22700 36.29600 23.30200
H  46.88500 31.06000 24.17500
H  45.98000 35.19000 31.80200
H  48.29800 36.86400 31.41100
H  45.99100 38.10000 30.21600
H  46.90400 38.66700 31.62300
H  45.68000 37.40500 31.81200
H  48.86400 34.52400 31.26700
H  47.77100 33.31100 31.69700
H  49.21900 35.06300 33.41500
H  48.22700 33.61800 33.76500
H  49.86000 40.54200 27.29300
H  51.49000 40.16400 27.34400
H  50.58500 39.59500 28.70200
H  51.95500 40.59300 23.76700
H  52.44900 40.05100 25.45000
H  50.78200 40.66700 25.00600
H  50.22600 34.08800 22.17200
H  47.92000 32.32600 22.15600
H  47.35100 34.46600 21.58600
H  48.69900 34.49100 20.37400
H  48.57500 35.89200 21.55700
H  49.58700 30.93300 23.94100
H  50.74300 32.05300 23.26700
H  49.81200 29.56400 22.58200
H  50.96700 30.47700 21.62600
H  49.25600 30.63600 21.22000
H  45.63900 29.02200 26.13800
H  44.76000 30.09500 25.06000
H  44.05100 29.60500 26.61700
H  44.26500 33.15600 30.48000
H  45.96300 31.43500 34.17600
H  44.15200 31.26600 34.36600
H  45.00200 32.85700 34.40000
Mg 36.49100 49.59800 25.93600
C  36.56900 47.57800 28.78000
C  35.42600 52.16800 27.93400
C  36.11500 51.48300 23.15200
C  37.26800 46.84000 23.98900
N  35.90800 49.77200 28.21900
C  36.21300 48.86300 29.17200
C  36.08700 49.50600 30.59000
C  35.49600 50.98300 30.27900
C  35.58500 51.00200 28.70700
C  33.95100 51.17100 30.64200
C  37.42400 49.38100 31.32300
C  37.36600 49.15600 32.83600
H  36.15400 49.66300 33.58200
N  35.92700 51.53100 25.63000
C  35.64400 52.49700 26.57900
C  35.57600 53.79900 25.91800
C  35.67600 53.58800 24.52100
C  36.00000 52.18900 24.36400
C  35.41800 55.00000 26.79300
C  35.57400 54.60900 23.41500
O  35.88500 54.35500 22.24000
C  35.13000 55.98100 23.86400
N  36.53000 49.19200 23.81800
C  36.33900 50.09200 22.88300
C  36.68600 49.58800 21.42600
C  37.17400 48.13700 21.74500
C  36.98000 48.01500 23.28900
C  35.60900 49.67500 20.32900
C  38.62800 47.90500 21.32700
C  38.60700 46.90300 20.21300
N  36.71200 47.59400 26.27100
C  37.06400 46.61000 25.34700
C  37.14600 45.35400 26.05200
C  36.98700 45.68200 27.40400
C  36.77300 47.10400 27.48400
C  37.53800 44.10900 25.39800
C  36.99200 45.14300 28.73800
O  37.14500 43.99400 29.13800
C  36.74300 46.35200 29.70500
C  35.39800 46.09500 30.32300
O  34.36200 46.07800 29.68900
O  35.54100 45.69000 31.66300
C  34.34400 45.45600 32.34300
H  35.12500 53.05600 28.49300
H  36.16200 52.11000 22.25900
H  37.57500 46.05200 23.29800
H  35.28300 48.87600 30.97100
H  36.10900 51.79800 30.66400
H  33.90100 50.47200 31.47700
H  33.34000 50.75000 29.84400
H  33.39500 52.06600 30.92300
H  37.84600 50.38600 31.28300
H  38.16000 48.69900 30.89900
H  38.29400 49.57500 33.22300
H  37.55400 48.10900 33.07500
H  34.48100 55.55700 26.77300
H  36.17900 55.65700 26.37300
H  35.78800 54.87400 27.81100
H  34.81700 56.69200 23.09900
H  35.99100 56.47100 24.31900
H  34.23500 55.83900 24.47100
H  37.55300 50.16600 21.10500
H  36.52900 47.42700 21.22700
H  35.53200 48.72500 19.79900
H  35.74800 50.46900 19.59500
H  34.67400 49.96100 20.81100
H  39.27700 47.48500 22.09600
H  39.13000 48.82000 21.01200
H  37.96400 47.13200 19.36400
H  38.49100 45.91300 20.65400
H  39.61700 46.83000 19.81100
H  37.45600 43.20400 25.99900
H  38.50200 44.22000 24.90200
H  36.87000 43.91400 24.55900
H  37.58400 46.47800 30.38700
H  34.00000 44.44300 32.13400
H  33.55200 46.18800 32.18900
H  34.46500 45.46900 33.42600

