158

Mg 43.52100 3.51400 48.60600
C  41.50800 6.41100 48.10600
C  40.57100 1.65700 48.24100
C  45.37400 0.80200 48.32900
C  46.42900 5.61800 48.33100
N  41.34700 4.01300 48.30900
C  40.75100 5.26700 48.21000
C  39.30000 5.14000 47.85200
C  38.97700 3.63500 48.08300
C  40.40600 3.03300 48.26900
C  37.99000 3.28700 49.19800
C  38.80500 5.66800 46.44200
C  39.83300 5.69500 45.24800
H  39.52300 6.81300 44.27500
N  43.01300 1.51200 48.44100
C  41.78500 0.91900 48.28900
C  41.94100 -0.52800 48.12700
C  43.30800 -0.82400 48.36000
C  43.93400 0.53000 48.37800
C  40.85900 -1.52200 47.90200
C  43.97500 -2.29200 48.49400
O  43.33300 -3.32300 48.32400
C  45.44200 -2.40500 48.86800
N  45.67900 3.25400 48.39300
C  46.16600 1.98300 48.37300
C  47.64300 2.01800 48.42300
C  47.95700 3.51000 48.48800
C  46.64000 4.19300 48.39900
C  48.26600 1.07500 49.46400
C  48.99500 4.06900 47.46700
C  50.22700 4.71900 48.10600
N  43.96700 5.54900 48.27200
C  45.18100 6.25800 48.18900
C  44.83200 7.69900 48.02400
C  43.37600 7.71500 48.00800
C  42.93600 6.43700 48.19900
C  45.70600 8.93500 48.07800
C  42.23400 8.59500 47.79700
O  42.30100 9.80700 47.45700
C  40.98800 7.79600 47.78400
C  39.98500 8.17200 48.82700
O  40.03600 7.93600 50.00400
O  39.02000 8.91400 48.24500
C  38.03800 9.45000 49.15800
H  39.65600 1.11800 47.98500
H  46.04700 -0.05700 48.37100
H  47.36500 6.17200 48.23200
H  38.78100 5.69500 48.63300
H  38.75200 3.26600 47.08200
H  37.51700 4.20900 49.53800
H  38.47600 2.63700 49.92500
H  37.27400 2.69500 48.62800
H  38.55700 6.72100 46.57800
H  37.87000 5.25900 46.05800
H  39.81300 4.80500 44.61900
H  40.80400 5.84300 45.72100
H  41.03200 -2.37300 48.55900
H  40.90600 -1.92800 46.89100
H  39.90800 -1.02400 48.09300
H  45.57700 -1.66800 49.66000
H  46.00600 -2.04600 48.00700
H  45.93900 -3.35300 49.07300
H  47.89200 1.65900 47.42400
H  48.31500 3.69000 49.50100
H  47.46600 0.78100 50.14300
H  49.00500 1.58900 50.07800
H  48.77800 0.19300 49.07800
H  48.50700 4.78300 46.80300
H  49.41700 3.29800 46.82100
H  50.17800 4.84100 49.18800
H  50.28600 5.71600 47.66700
H  51.14900 4.18800 47.87100
H  45.69300 9.56700 47.19000
H  46.72000 8.54600 48.16400
H  45.60500 9.48500 49.01300
H  40.53100 7.85900 46.79700
H  37.30300 8.67800 49.38700
H  37.54400 10.27200 48.64000
H  38.50300 9.90000 50.03500
Mg 0.28300 43.70600 26.06900
C  2.35500 43.66300 28.97000
C  -2.40600 42.82100 28.01900
C  -1.38200 42.81000 23.38000
C  3.22500 44.16000 24.18100
N  0.04700 43.14600 28.27600
C  0.93000 43.43000 29.25800
C  0.20000 43.41900 30.60400
C  -1.21000 42.90900 30.30900
C  -1.21300 42.96200 28.76100
C  -1.52200 41.46600 30.80700
C  0.27100 44.82600 31.29800
C  1.01600 44.87000 32.67900
H  0.87300 43.72400 33.67900
N  -1.71600 43.27800 25.70200
C  -2.67700 42.86700 26.60400
C  -3.95400 42.63500 25.94500
C  -3.57300 42.57700 24.54100
C  -2.16300 42.86700 24.54200
C  -5.29500 42.54500 26.73700
C  -4.46300 42.14000 23.34100
O  -4.01200 42.11100 22.19100
C  -5.97800 41.82700 23.62400
N  0.82200 43.63600 23.98400
C  -0.10300 43.25800 23.16600
C  0.52000 43.07200 21.81200
C  1.95500 43.77600 21.93400
C  2.04500 43.87700 23.41200
C  0.63300 41.53600 21.36600
C  1.97300 45.16800 21.24700
C  1.67300 46.47700 22.03000
N  2.41300 43.88300 26.43400
C  3.43100 44.06000 25.57100
C  4.64300 44.37000 26.35400
C  4.25600 44.13800 27.66400
C  2.90100 43.86700 27.67400
C  5.91600 44.97100 25.84700
C  4.76700 44.10300 29.01700
O  5.89200 44.31800 29.46500
C  3.49500 44.03400 29.99800
C  3.77600 42.89400 30.89400
O  3.55400 41.68600 30.64600
O  4.42800 43.27900 32.08700
C  4.84200 42.14700 33.03200
H  -3.33300 42.53200 28.51800
H  -1.83900 42.41700 22.46900
H  4.17700 44.22400 23.65000
H  0.58000 42.72000 31.34900
H  -2.02400 43.55300 30.64200
H  -2.33500 41.44300 31.53200
H  -0.62100 41.04900 31.25700
H  -1.97700 40.92100 29.98000
H  -0.67800 45.32700 31.48900
H  0.83000 45.45800 30.60700
H  0.78300 45.75400 33.27100
H  2.08500 44.92700 32.47500
H  -6.15400 42.94000 26.19400
H  -5.15400 42.84400 27.77600
H  -5.41300 41.46900 26.86200
H  -6.13300 41.10300 24.42400
H  -6.43000 41.53100 22.67700
H  -6.47400 42.73400 23.96700
H  -0.15200 43.52300 21.08200
H  2.71300 43.08200 21.57200
H  0.23800 40.87100 22.13400
H  1.67400 41.26400 21.19000
H  0.15700 41.25300 20.42800
H  1.23800 45.21600 20.44300
H  3.00400 45.22800 20.90000
H  1.02000 46.39100 22.89900
H  1.32100 47.14900 21.24800
H  2.53000 46.96900 22.49100
H  6.51300 45.51700 26.57700
H  5.71800 45.64900 25.01700
H  6.50300 44.16500 25.40600
H  3.36900 44.92900 30.60800
H  5.92600 42.13000 33.14400
H  4.48400 41.16900 32.70800
H  4.40600 42.39800 33.99900

