158

Mg 46.93000 16.33100 28.92500
C  44.78600 15.69500 31.56600
C  49.09600 17.62200 31.25700
C  49.01700 17.06600 26.43500
C  44.61300 15.02700 26.74300
N  46.71600 16.90800 31.06400
C  45.90700 16.33500 31.91900
C  46.18300 16.77100 33.37600
C  47.43000 17.73000 33.19400
C  47.82800 17.41900 31.73700
C  47.19600 19.25800 33.37700
C  46.53600 15.48700 34.19800
C  46.02100 15.50400 35.66400
H  46.04100 16.85300 36.36300
N  48.78700 17.22100 28.84300
C  49.56200 17.55900 29.91700
C  50.90300 17.74500 29.47900
C  50.95100 17.55300 28.01200
C  49.55800 17.23800 27.66700
C  52.06900 17.99400 30.39100
C  52.12800 17.73400 27.05700
O  51.98100 17.56500 25.86000
C  53.42500 18.31300 27.48100
N  46.82300 15.91000 26.82800
C  47.74400 16.49300 25.98800
C  47.26500 16.48900 24.53700
C  45.93200 15.62200 24.68100
C  45.74900 15.47500 26.14600
C  47.04100 17.94500 24.07600
C  46.08000 14.25100 23.93700
C  44.81400 13.80700 23.24700
N  45.04400 15.48900 29.04200
C  44.28700 14.94500 28.11100
C  43.11600 14.35900 28.74900
C  43.22000 14.63900 30.11700
C  44.45300 15.31800 30.24000
C  41.87800 13.75800 28.10000
C  42.61600 14.53400 31.45200
O  41.56700 14.05400 31.74700
C  43.63100 15.15200 32.43000
C  42.99900 16.12600 33.39700
O  42.86100 17.33800 33.12400
O  42.52500 15.48600 34.52100
C  41.78300 16.35800 35.44200
H  49.83200 17.92800 32.00400
H  49.70500 17.48500 25.69700
H  43.93800 14.59600 26.00000
H  45.37500 17.41300 33.72700
H  48.22500 17.48100 33.89700
H  46.17500 19.49100 33.68100
H  47.39100 19.88400 32.50600
H  47.83000 19.58700 34.20100
H  47.59700 15.24500 34.13500
H  46.06800 14.61600 33.74000
H  46.71500 14.85800 36.20000
H  45.04400 15.02500 35.59500
H  53.04400 18.23500 29.96700
H  52.21200 17.13400 31.04500
H  51.69000 18.85600 30.94000
H  54.02500 18.44100 26.58000
H  54.00500 17.74600 28.20900
H  53.22200 19.31200 27.86600
H  48.04700 16.03400 23.92900
H  45.08900 16.15600 24.24400
H  46.31800 17.96000 23.26000
H  48.02900 18.25400 23.73300
H  46.82600 18.64000 24.88800
H  46.54100 13.57100 24.65300
H  46.80200 14.48300 23.15400
H  44.77500 14.18400 22.22500
H  43.85600 14.02100 23.72000
H  44.82000 12.72500 23.11600
H  41.50500 14.28800 27.22400
H  41.08800 13.76900 28.85000
H  42.18400 12.73800 27.86700
H  44.02600 14.44200 33.15600
H  40.91800 16.73900 34.89800
H  42.46600 16.99700 36.00200
H  41.35600 15.64700 36.14900
Mg 8.73100 48.06900 26.54200
C  6.82200 47.75400 29.38900
C  11.49200 48.93200 28.53100
C  10.70800 48.43300 23.75200
C  5.98200 47.81400 24.52400
N  8.95900 48.64600 28.72100
C  8.12700 48.25800 29.69100
C  8.77800 48.45000 31.05200
C  10.15200 49.18700 30.74900
C  10.26700 48.84100 29.26900
C  10.04900 50.70000 30.98500
C  8.94100 47.19600 31.99600
C  8.54400 47.52100 33.45900
H  8.78900 46.38300 34.50400
N  10.91000 48.49000 26.23900
C  11.83400 48.79400 27.22400
C  13.09400 48.81200 26.59700
C  12.88500 48.61900 25.20000
C  11.44600 48.56900 24.98500
C  14.38500 48.93100 27.32100
C  13.89400 48.57900 24.12000
O  13.60100 48.55600 22.94700
C  15.39600 48.46600 24.47900
N  8.40600 48.26200 24.39800
C  9.32700 48.36900 23.43300
C  8.70700 47.91900 22.03300
C  7.20800 47.80600 22.34600
C  7.18100 47.97200 23.83600
C  9.06200 48.90700 20.92000
C  6.62100 46.44100 21.85100
C  5.49700 46.47800 20.79900
N  6.82900 47.88600 26.87900
C  5.83700 47.68200 25.93400
C  4.56800 47.31300 26.63100
C  4.95200 47.28000 27.95500
C  6.31100 47.67200 28.09200
C  3.23600 47.10600 25.97200
C  4.47300 46.99100 29.33400
O  3.40000 46.53000 29.66800
C  5.72800 47.22700 30.27300
C  5.97300 45.98800 30.99500
O  6.47000 44.97500 30.50500
O  5.50600 46.13300 32.29100
C  5.66000 44.94400 33.13900
H  12.37200 49.06500 29.16400
H  11.30100 48.41600 22.83500
H  5.12700 47.63500 23.87000
H  8.17800 49.16200 31.61800
H  11.00100 48.80500 31.31600
H  9.03000 51.07700 31.07300
H  10.54800 51.34500 30.26200
H  10.55300 50.81500 31.94500
H  10.01500 47.00800 32.02600
H  8.52800 46.21500 31.76200
H  7.45900 47.59100 33.38000
H  8.91300 48.46900 33.85100
H  15.05800 48.08700 27.17200
H  14.24900 49.10500 28.38900
H  15.04900 49.70200 26.92900
H  15.48300 47.60400 25.14000
H  15.81000 49.29400 25.05400
H  15.96100 48.33300 23.55600
H  9.13400 46.95400 21.76100
H  6.62500 48.61500 21.90400
H  8.17300 49.14200 20.33400
H  9.71800 48.44400 20.18300
H  9.52000 49.77600 21.39100
H  6.11000 45.98600 22.70000
H  7.37000 45.70600 21.55600
H  4.61400 45.99500 21.21800
H  5.83200 45.80500 20.00900
H  5.17600 47.42400 20.36400
H  3.22100 46.73700 24.94600
H  2.87800 48.12900 25.86400
H  2.55700 46.55100 26.62000
H  5.54600 48.00600 31.01300
H  6.61400 44.65400 33.57900
H  5.32200 44.08900 32.55300
H  4.97700 44.99900 33.98800

