158

Mg 1.22100 -1.33900 45.20400
C  4.38000 -0.28800 44.19900
C  -0.10800 1.49100 43.49500
C  -1.83700 -2.61800 45.42200
C  2.70100 -4.42700 46.26700
N  1.93900 0.41400 44.09300
C  3.34900 0.61800 43.86800
C  3.61400 2.02000 43.09800
C  2.17200 2.73500 43.15000
C  1.26100 1.50800 43.56500
C  2.10700 3.95000 43.98300
C  4.16300 1.71600 41.58600
C  5.44100 2.46500 41.06800
H  6.80400 1.77700 40.64200
N  -0.74600 -0.67300 44.57600
C  -1.07300 0.50900 43.91200
C  -2.44900 0.62100 43.93800
C  -3.03500 -0.58900 44.36900
C  -1.85100 -1.33000 44.88900
C  -2.95900 1.88700 43.25900
C  -4.49000 -0.90700 44.42600
O  -5.32100 -0.04300 44.07400
C  -5.02700 -2.29400 44.68600
N  0.53300 -3.27100 45.57300
C  -0.81700 -3.49200 45.75400
C  -1.07500 -4.90000 46.41400
C  0.35900 -5.26400 46.83600
C  1.29300 -4.27700 46.12600
C  -2.21000 -5.20000 47.46200
C  0.78300 -6.81300 46.58900
C  0.84000 -7.77300 47.81800
N  3.19400 -2.18800 45.30200
C  3.63100 -3.45200 45.77300
C  5.03200 -3.45900 45.75600
C  5.40800 -2.26400 45.12000
C  4.22100 -1.55500 44.82500
C  5.94200 -4.44000 46.39100
C  6.49100 -1.42600 44.71400
O  7.69000 -1.52700 44.74200
C  5.91900 -0.10100 44.13000
C  6.29400 1.09800 44.96700
O  6.21500 1.18900 46.19300
O  6.76400 2.07700 44.15900
C  7.40700 3.27500 44.77000
H  -0.47700 2.41000 43.03400
H  -2.83800 -3.05200 45.47400
H  3.12400 -5.31700 46.73800
H  4.22400 2.71900 43.66900
H  1.81400 3.03500 42.16500
H  3.04500 4.48400 44.13300
H  1.77600 3.71400 44.99500
H  1.31400 4.57000 43.56600
H  3.35700 1.99100 40.90700
H  4.33400 0.64200 41.51600
H  5.70500 3.26700 41.75700
H  5.15100 2.90000 40.11100
H  -4.02700 1.96800 43.46100
H  -3.04600 1.82900 42.17400
H  -2.40500 2.77100 43.57500
H  -4.33200 -3.02200 44.26800
H  -5.93400 -2.41800 44.09400
H  -5.25700 -2.48600 45.73500
H  -1.27100 -5.47200 45.50700
H  0.51300 -5.15300 47.91000
H  -3.12200 -5.66000 47.08200
H  -2.52600 -4.24000 47.86900
H  -1.84500 -5.87100 48.24000
H  1.74000 -6.98400 46.09600
H  0.02800 -7.18300 45.89500
H  1.33200 -8.72600 47.62300
H  -0.15800 -8.12300 48.08000
H  1.30300 -7.30500 48.68700
H  5.53000 -5.41300 46.12300
H  5.90900 -4.34200 47.47600
H  6.93700 -4.37200 45.95000
H  6.35400 -0.13200 43.13100
H  6.87200 4.22500 44.74700
H  8.33000 3.46700 44.22400
H  7.66300 3.18200 45.82600
Mg 0.76900 8.06300 26.63000
C  1.09300 10.04600 29.45200
C  0.56300 5.25100 28.43500
C  0.24500 6.35700 23.72900
C  0.68900 11.05400 24.69400
N  0.97500 7.69400 28.73600
C  0.91100 8.65500 29.70400
C  0.66200 7.99200 31.01000
C  0.83500 6.46400 30.67900
C  0.82500 6.43400 29.15100
C  2.10600 5.76400 31.22400
C  -0.76000 8.33500 31.62700
C  -0.76500 8.82100 33.18300
H  0.37100 8.31800 34.11000
N  0.55700 6.05900 26.12700
C  0.55800 5.04900 27.05200
C  0.35000 3.84200 26.42000
C  0.01800 4.15200 25.00400
C  0.27000 5.57400 24.89700
C  0.22500 2.47500 27.10900
C  -0.43700 3.20000 23.85500
O  -0.66500 3.54600 22.70000
C  -0.57000 1.68200 24.09200
N  0.64100 8.66200 24.58400
C  0.51400 7.69400 23.59800
C  0.65100 8.33700 22.21700
C  0.30400 9.77000 22.53800
C  0.52200 9.88300 24.01700
C  2.03000 8.08500 21.52600
C  -1.23400 10.03000 22.28500
C  -1.56200 10.90300 21.12100
N  1.10300 10.08500 26.95500
C  1.04700 11.19500 26.08300
C  1.35800 12.41800 26.82600
C  1.41700 11.99600 28.15200
C  1.22200 10.63900 28.15900
C  1.36200 13.83400 26.26700
C  1.55400 12.44100 29.43600
O  1.85300 13.56900 29.87500
C  1.24900 11.24100 30.37800
C  2.27700 11.14700 31.44000
O  3.41400 10.80100 31.23100
O  1.70700 11.61700 32.64000
C  2.76800 11.93600 33.59700
H  0.35800 4.38900 29.07300
H  -0.10700 5.77700 22.87400
H  0.63500 11.98300 24.12200
H  1.35500 8.35000 31.77200
H  -0.00900 5.86000 31.01400
H  2.67700 6.39100 31.90800
H  2.82200 5.42300 30.47600
H  1.93800 4.91700 31.88900
H  -1.39800 7.45300 31.67800
H  -1.11500 9.19000 31.05000
H  -1.70100 8.51300 33.64900
H  -0.78000 9.91100 33.20700
H  0.68700 2.42300 28.09500
H  0.74200 1.65400 26.61300
H  -0.79100 2.10800 27.25500
H  0.37100 1.13300 24.11000
H  -1.22900 1.30800 23.30800
H  -1.07900 1.37900 25.00700
H  -0.08400 7.92700 21.52600
H  0.93900 10.47100 21.99600
H  2.65800 7.41100 22.10900
H  2.61300 8.99200 21.36500
H  1.80800 7.66100 20.54600
H  -1.81600 10.48100 23.08900
H  -1.80600 9.10200 22.27000
H  -1.06900 10.48900 20.24100
H  -1.21400 11.92200 21.29600
H  -2.63800 11.06800 21.07400
H  1.74900 13.86300 25.24800
H  2.06500 14.33000 26.93700
H  0.36800 14.27700 26.20800
H  0.29300 11.47600 30.84600
H  3.44400 12.69500 33.20300
H  3.31700 11.04100 33.89000
H  2.40700 12.29200 34.56200

