158

Mg 35.16800 2.81700 30.41200
C  32.73400 3.81200 32.74700
C  37.51700 3.29100 32.91400
C  37.63800 2.48400 28.12600
C  32.87900 3.10000 27.88800
N  35.13200 3.49900 32.53900
C  33.99200 3.62600 33.30600
C  34.34900 3.78100 34.77000
C  35.94800 3.98200 34.85700
C  36.22600 3.51000 33.35500
C  36.56900 5.39900 35.20500
C  33.79600 2.69000 35.66100
C  33.88600 2.79700 37.19600
H  34.19300 4.10700 37.92600
N  37.27300 2.78400 30.54800
C  38.02200 2.95000 31.68300
C  39.43600 2.77900 31.30700
C  39.49800 2.39500 29.95700
C  38.07100 2.56100 29.46000
C  40.52400 2.89900 32.38500
C  40.65000 1.91800 29.08400
O  40.46700 1.42300 28.00800
C  42.05400 2.09400 29.60500
N  35.27000 2.74200 28.26900
C  36.35500 2.62700 27.56800
C  36.08200 2.38800 26.05700
C  34.54400 2.50400 26.04400
C  34.22100 2.87500 27.46700
C  36.76600 3.39000 25.08200
C  33.93600 1.14900 25.59500
C  32.58500 1.30600 24.88600
N  33.16300 3.30100 30.34200
C  32.41000 3.40600 29.17000
C  31.07500 3.81700 29.56900
C  31.09300 4.02100 30.96100
C  32.44000 3.77100 31.36900
C  29.84700 3.91300 28.71200
C  30.33400 4.37500 32.23100
O  29.26400 4.90200 32.37700
C  31.34100 4.13000 33.43000
C  31.40700 5.38200 34.13500
O  32.13000 6.34900 33.84000
O  30.60500 5.37300 35.24600
C  30.61200 6.46600 36.13600
H  38.28000 3.44500 33.68000
H  38.37900 2.35900 27.33400
H  32.06700 3.16700 27.16100
H  33.91900 4.72800 35.09500
H  36.38400 3.30500 35.59100
H  35.89700 5.85400 35.93200
H  36.53000 6.07700 34.35200
H  37.58700 5.27600 35.57500
H  34.32300 1.74900 35.50300
H  32.77000 2.54700 35.32100
H  34.51400 2.02500 37.64000
H  32.85700 2.55400 37.46100
H  40.31900 2.50500 33.38100
H  40.55400 3.97300 32.56900
H  41.58100 2.78600 32.14200
H  42.65300 1.96700 28.70400
H  42.32000 1.30000 30.30200
H  42.18700 3.06600 30.08000
H  36.46400 1.42300 25.72300
H  34.12500 3.29800 25.42500
H  36.80100 4.42700 25.41800
H  36.46900 3.40100 24.03300
H  37.80700 3.06700 25.09800
H  33.80200 0.49000 26.45300
H  34.55200 0.65900 24.84100
H  32.36800 2.31700 24.54200
H  31.74900 0.99100 25.51100
H  32.55700 0.56200 24.08900
H  29.05300 3.52800 29.35200
H  29.98700 3.23600 27.86900
H  29.64600 4.89400 28.28300
H  30.94600 3.32700 34.05200
H  30.24000 7.35900 35.63300
H  31.59500 6.64700 36.57200
H  29.99500 6.10000 36.95600
Mg 17.50000 51.88300 26.09800
C  19.34100 50.57400 28.77200
C  14.87200 52.54200 28.37100
C  15.68000 53.16400 23.57800
C  19.86800 50.80600 23.94000
N  17.20900 51.62600 28.30000
C  18.14700 51.21900 29.21300
C  17.64600 51.42000 30.65300
C  16.18100 51.79400 30.49100
C  16.09500 52.12000 28.97600
C  15.29100 50.56600 30.77300
C  18.48900 52.57500 31.35600
C  18.76800 52.44400 32.87500
H  17.76600 51.72300 33.74500
N  15.60500 52.88400 26.03100
C  14.66800 52.96100 27.01800
C  13.44700 53.52500 26.43300
C  13.75300 53.97100 25.15300
C  15.08500 53.34000 24.83200
C  12.25800 53.96600 27.40400
C  12.89500 54.83900 24.26600
O  13.32900 55.25400 23.20500
C  11.51700 55.32200 24.65200
N  17.76400 52.04100 24.00800
C  16.87300 52.62500 23.14300
C  17.40100 52.53100 21.69700
C  18.84100 51.97500 21.92400
C  18.80000 51.57400 23.38400
C  16.45900 51.66300 20.74100
C  19.96900 52.91100 21.63100
C  21.13100 52.29500 20.76600
N  19.21900 50.80000 26.22600
C  20.10900 50.40600 25.25400
C  21.18000 49.69800 25.87400
C  20.95100 49.71700 27.23900
C  19.74100 50.44200 27.45500
C  22.34800 49.00600 25.20800
C  21.52700 49.41800 28.57900
O  22.54600 48.75800 28.78100
C  20.47600 49.91900 29.63900
C  19.92200 48.77200 30.40600
O  19.25800 47.86100 29.93100
O  20.15300 48.98200 31.74500
C  19.62400 47.95300 32.63400
H  14.09700 52.80700 29.09300
H  14.94100 53.54900 22.87200
H  20.65500 50.45400 23.26900
H  17.72400 50.45500 31.15400
H  15.84000 52.68000 31.02800
H  15.88600 49.65500 30.83600
H  14.47100 50.48800 30.05900
H  14.85400 50.76300 31.75200
H  17.98200 53.53600 31.28100
H  19.45500 52.65600 30.85700
H  18.95700 53.44300 33.26700
H  19.70200 51.88300 32.88800
H  12.51700 54.98700 27.68400
H  12.25800 53.36500 28.31400
H  11.28000 53.87900 26.93200
H  11.38400 55.69500 25.66800
H  10.77100 54.57100 24.39200
H  11.34100 56.19300 24.02100
H  17.49600 53.51600 21.23900
H  18.86600 51.03200 21.37700
H  16.21800 52.33900 19.92100
H  15.59600 51.42300 21.36200
H  16.97700 50.75200 20.44000
H  20.42600 53.33700 22.52300
H  19.54300 53.78900 21.14600
H  21.16500 52.64900 19.73500
H  21.02600 51.21300 20.69000
H  22.05300 52.49700 21.31200
H  22.33200 47.94000 25.43200
H  23.18000 49.49400 25.71500
H  22.32500 49.15700 24.12800
H  20.88800 50.67800 30.30400
H  20.56000 47.39600 32.66900
H  18.83800 47.37400 32.14900
H  19.47300 48.31000 33.65300

