158

Mg 35.17400 1.49200 29.50000
C  33.16300 3.00500 31.89900
C  37.78200 1.92900 31.55300
C  37.09800 0.81700 26.82100
C  32.48300 1.90500 27.19400
N  35.50400 2.42400 31.46800
C  34.47100 2.75800 32.30500
C  35.01700 2.78900 33.73800
C  36.53600 2.54800 33.60800
C  36.63000 2.24200 32.12100
C  37.38800 3.68200 34.05700
C  34.34100 1.77100 34.67400
C  33.87800 2.26500 36.06400
H  34.73000 3.13500 36.88800
N  37.23300 1.22300 29.28100
C  38.14900 1.47600 30.24200
C  39.47300 1.05000 29.72400
C  39.23300 0.83000 28.33900
C  37.78900 0.95800 28.08500
C  40.72800 1.00300 30.59900
C  40.26500 0.41300 27.23800
O  39.96400 0.25000 26.03900
C  41.73400 0.25400 27.52600
N  34.76200 1.22300 27.27300
C  35.70700 0.87500 26.44400
C  35.16400 0.54900 24.95400
C  33.64800 0.76600 25.06900
C  33.53200 1.19900 26.63000
C  35.85200 1.39200 23.82200
C  32.74000 -0.42000 24.78600
C  32.86000 -1.09800 23.43300
N  33.18800 2.13000 29.49000
C  32.31400 2.32500 28.50400
C  31.18200 3.08700 29.06300
C  31.43800 3.19600 30.42500
C  32.69600 2.69100 30.61900
C  30.00500 3.49300 28.30600
C  30.81700 3.65500 31.65900
O  29.72100 4.12200 31.80300
C  31.92100 3.33400 32.72400
C  32.06900 4.54000 33.59100
O  32.64900 5.54600 33.28800
O  31.30500 4.35700 34.71800
C  31.03500 5.60500 35.52800
H  38.60100 1.96100 32.27400
H  37.71500 0.34000 26.05500
H  31.77600 1.96000 26.36400
H  34.75000 3.78300 34.09800
H  36.91100 1.59600 33.98300
H  37.65000 4.23300 33.15400
H  38.19600 3.22800 34.63000
H  37.00300 4.28400 34.88000
H  34.97100 0.88800 34.78100
H  33.42800 1.39300 34.21500
H  33.77900 1.42700 36.75400
H  32.84400 2.60500 35.99800
H  41.38400 1.86600 30.47800
H  41.19500 0.02300 30.49700
H  40.43000 1.05400 31.64600
H  42.21200 -0.02500 26.58800
H  41.82700 -0.47200 28.33400
H  42.04800 1.20400 27.95800
H  35.34000 -0.48300 24.65100
H  33.38800 1.66600 24.51100
H  36.75700 0.85600 23.53800
H  36.17600 2.31600 24.30100
H  35.18300 1.63600 22.99700
H  31.76600 -0.05500 25.11200
H  33.04800 -1.14000 25.54500
H  31.93800 -1.54600 23.06100
H  33.50500 -1.97700 23.45200
H  33.24200 -0.43000 22.66200
H  30.37600 3.96600 27.39700
H  29.48700 4.29700 28.82800
H  29.32200 2.66700 28.10800
H  31.56500 2.42700 33.21200
H  31.19900 6.51100 34.94600
H  31.77600 5.70900 36.32000
H  30.08700 5.62500 36.06600
Mg -12.84000 37.94800 41.50700
C  -10.41000 35.48800 40.81700
C  -10.62700 40.41700 40.40100
C  -15.21200 40.27500 42.00200
C  -15.03200 35.38500 42.39500
N  -10.81600 38.00700 40.53700
C  -10.01900 36.86200 40.47000
C  -8.60800 37.22100 39.95900
C  -8.69600 38.78500 39.76400
C  -10.14600 39.11700 40.17700
C  -7.61800 39.53000 40.68000
C  -8.35400 36.46700 38.58800
C  -6.95200 35.91700 38.35500
H  -6.06000 36.48700 37.25100
N  -12.87700 40.09100 41.24700
C  -11.87900 40.90300 40.90700
C  -12.28100 42.25500 40.85400
C  -13.63200 42.23400 41.30000
C  -14.02500 40.83100 41.54400
C  -11.33000 43.37300 40.62100
C  -14.54900 43.47000 41.46600
O  -14.01000 44.60200 41.23500
C  -16.02000 43.38100 41.78600
N  -14.78800 37.84200 42.07700
C  -15.62100 38.89900 42.13500
C  -16.99600 38.58600 42.71700
C  -16.99300 37.01300 42.50800
C  -15.48700 36.69300 42.33900
C  -17.24300 38.98100 44.21500
C  -17.83300 36.60000 41.22500
C  -17.13200 36.22100 39.89200
N  -12.75800 35.83600 41.63500
C  -13.71300 34.94000 42.12400
C  -13.07700 33.59400 42.23500
C  -11.81800 33.73000 41.68200
C  -11.68600 35.17100 41.35900
C  -13.76200 32.30100 42.64000
C  -10.57300 33.07900 41.32600
O  -10.16100 31.93700 41.29000
C  -9.60600 34.21200 40.74100
C  -8.34400 34.26800 41.57500
O  -8.24000 34.68100 42.71400
O  -7.23800 33.73600 40.87200
C  -5.91800 33.91700 41.44800
H  -9.81900 41.10900 40.15700
H  -16.03400 40.93200 42.29500
H  -15.67800 34.55100 42.68000
H  -7.76200 36.95600 40.59300
H  -8.44100 39.04600 38.73600
H  -6.88100 38.85500 41.11500
H  -8.19000 39.85700 41.54800
H  -7.23100 40.40900 40.16500
H  -8.53200 37.21600 37.81600
H  -9.02400 35.63600 38.36700
H  -6.96100 34.84200 38.17400
H  -6.37300 36.03400 39.27100
H  -11.84300 44.02800 39.91700
H  -10.37400 43.02900 40.22500
H  -11.20400 43.89900 41.56800
H  -16.47700 42.64400 41.12600
H  -16.34800 44.36100 41.43900
H  -16.32500 43.24700 42.82400
H  -17.77800 39.06400 42.12700
H  -17.40200 36.41100 43.31900
H  -18.01500 39.74900 44.25900
H  -16.33700 39.27800 44.74300
H  -17.62900 38.06700 44.66600
H  -18.61500 37.32600 40.99900
H  -18.25700 35.66300 41.58700
H  -16.69600 35.22400 39.83100
H  -16.43000 36.99400 39.58100
H  -17.97700 36.33200 39.21100
H  -13.37300 31.52800 41.97800
H  -14.84900 32.38800 42.66000
H  -13.47700 32.02600 43.65600
H  -9.46100 33.93700 39.69600
H  -5.86900 34.06700 42.52700
H  -5.55000 34.85900 41.04000
H  -5.14600 33.20400 41.16100

