158

Mg 47.83500 34.19500 26.65500
C  46.04300 32.52100 29.20100
C  48.07600 36.95600 28.70700
C  49.37700 35.82600 24.20900
C  47.41500 31.43200 24.66300
N  47.14100 34.68500 28.70700
C  46.55000 33.78300 29.64800
C  46.45500 34.40300 31.07400
C  47.03700 35.85700 30.78100
C  47.45900 35.86500 29.33000
C  46.06900 37.08800 31.09000
C  47.29700 33.59800 32.11800
C  48.21800 34.37800 33.11600
H  47.37800 35.34300 33.96000
N  48.67100 36.14500 26.46000
C  48.61800 37.10200 27.44500
C  49.12800 38.31400 26.85000
C  49.63500 37.98100 25.58800
C  49.24300 36.58500 25.37000
C  49.18700 39.65400 27.52100
C  50.30000 38.88300 24.54400
O  50.55500 38.52100 23.37500
C  50.59600 40.29900 24.93200
N  48.12000 33.75600 24.57600
C  49.02200 34.50900 23.87100
C  49.38100 33.84300 22.53100
C  48.74800 32.42700 22.70300
C  48.00500 32.54200 24.06200
C  48.93600 34.60900 21.27100
C  49.73800 31.21500 22.65600
C  49.39400 29.94800 21.83900
N  46.74400 32.40000 26.77900
C  46.75200 31.34700 25.83500
C  46.05600 30.27000 26.40700
C  45.69100 30.70400 27.67600
C  46.22600 31.93200 27.90200
C  45.71200 28.93400 25.66000
C  44.98500 30.32100 28.85000
O  44.25200 29.34500 29.11000
C  45.17900 31.50500 29.99800
C  45.92100 30.80900 31.09400
O  47.08600 30.45400 31.19900
O  45.08200 30.72400 32.20900
C  45.59900 29.93700 33.27800
H  48.10400 37.78300 29.41900
H  49.85800 36.30300 23.35300
H  47.42400 30.51000 24.07900
H  45.42500 34.50500 31.41700
H  47.93200 36.03300 31.37700
H  46.45300 37.64900 31.94200
H  45.03500 36.86600 31.35400
H  45.92700 37.71100 30.20700
H  47.73900 32.85100 31.46000
H  46.64600 33.05800 32.80600
H  49.05200 34.80700 32.56000
H  48.57000 33.66500 33.86200
H  48.75900 39.74000 28.51900
H  48.80200 40.44800 26.88100
H  50.17900 39.84400 27.93100
H  49.72600 40.95400 24.97200
H  51.13900 40.75200 24.10200
H  51.13700 40.34600 25.87700
H  50.46200 33.70200 22.49800
H  47.98000 32.21700 21.95900
H  49.77800 34.66700 20.58200
H  48.65600 35.63200 21.52400
H  48.05100 34.13800 20.84300
H  49.98600 30.89300 23.66800
H  50.72200 31.56600 22.34700
H  48.34700 30.00500 21.54200
H  49.35800 29.04100 22.44200
H  49.97500 29.74700 20.93900
H  45.07000 28.99500 24.78100
H  45.43300 28.15000 26.36400
H  46.69300 28.79600 25.20500
H  44.20700 31.83300 30.36700
H  46.49900 30.53500 33.42000
H  45.85400 28.92700 32.96000
H  45.05900 30.03100 34.22100
Mg -10.57400 17.37200 41.26700
C  -7.15500 17.39400 41.52700
C  -10.32100 20.62000 40.08700
C  -13.79400 17.38700 40.35200
C  -10.59600 13.85400 41.62800
N  -8.89700 18.67200 40.69100
C  -7.56700 18.49400 40.81100
C  -6.73400 19.66900 40.34400
C  -7.83000 20.78700 40.39700
C  -9.14800 20.01400 40.28300
C  -7.74500 21.65100 41.71200
C  -6.13100 19.46700 38.97900
C  -4.61100 19.18900 38.86300
H  -4.19200 17.99400 38.06900
N  -11.83300 18.82800 40.44500
C  -11.58700 20.07900 40.07900
C  -12.77600 20.78600 39.87800
C  -13.81600 19.90400 40.15800
C  -13.17600 18.61300 40.39100
C  -12.86300 22.24400 39.56100
C  -15.34100 20.25700 40.21100
O  -15.70500 21.37500 39.96500
C  -16.43200 19.28300 40.70700
N  -12.02000 15.81600 41.01900
C  -13.25600 16.07500 40.48200
C  -14.13800 14.81400 40.61400
C  -13.09100 13.63900 40.96600
C  -11.86000 14.44300 41.22500
C  -15.29900 15.10900 41.62000
C  -12.98200 12.61900 39.83800
C  -13.63200 11.23600 40.07500
N  -9.31600 15.92700 41.75500
C  -9.40900 14.55100 41.90100
C  -8.13700 13.94600 42.21700
C  -7.25000 15.04400 42.08300
C  -8.01900 16.22600 41.74800
C  -8.00500 12.49300 42.54100
C  -5.84900 15.45600 42.17900
O  -4.84000 14.80000 42.37400
C  -5.71900 16.96600 41.83300
C  -5.14000 17.68000 43.00800
O  -3.96300 17.48200 43.43000
O  -6.03700 18.56100 43.59600
C  -5.60100 19.01500 44.87100
H  -10.30000 21.70200 39.94000
H  -14.88100 17.38700 40.24000
H  -10.54200 12.76500 41.56700
H  -5.87500 19.88300 40.97900
H  -7.75900 21.47100 39.55200
H  -7.83000 22.67000 41.33500
H  -6.77800 21.70400 42.21200
H  -8.64100 21.46500 42.30400
H  -6.29200 20.44600 38.52700
H  -6.82100 18.79500 38.46900
H  -4.09100 19.04600 39.81100
H  -4.13100 20.05000 38.39800
H  -12.39700 22.58600 38.63700
H  -12.36600 22.74600 40.39100
H  -13.86100 22.65500 39.40800
H  -16.60700 18.55800 39.91200
H  -17.34600 19.85600 40.86600
H  -16.08100 18.80900 41.62300
H  -14.59100 14.70300 39.62900
H  -13.43400 13.09900 41.84900
H  -15.12800 16.02700 42.18200
H  -15.34700 14.31700 42.36800
H  -16.27400 15.05900 41.13600
H  -11.92300 12.49700 39.60900
H  -13.51000 13.06300 38.99400
H  -13.97500 10.97400 41.07500
H  -12.88900 10.49300 39.78300
H  -14.43900 11.14600 39.34800
H  -8.79500 12.25900 43.25500
H  -7.01400 12.19500 42.88400
H  -8.16700 11.89500 41.64400
H  -5.10500 17.02900 40.93500
H  -6.38100 19.67200 45.25500
H  -4.70500 19.63300 44.80700
H  -5.35000 18.18000 45.52500

