158

Mg 44.92300 3.44500 47.94600
C  42.78800 6.13300 47.14200
C  42.13700 1.31800 47.22900
C  46.92100 0.85300 48.04500
C  47.67200 5.63900 47.48900
N  42.76400 3.66600 47.43000
C  42.16900 4.83200 47.16800
C  40.66900 4.70000 46.68700
C  40.34400 3.16400 47.06600
C  41.83200 2.67200 47.25600
C  39.40600 2.88000 48.28600
C  40.63100 4.98400 45.17900
C  39.59000 5.99900 44.53500
H  38.83900 5.46300 43.30500
N  44.56800 1.36900 47.82900
C  43.38300 0.72700 47.61000
C  43.61400 -0.71000 47.79100
C  44.96100 -0.89800 47.96500
C  45.54900 0.48100 47.96600
C  42.70500 -1.87600 47.55100
C  45.70400 -2.20700 48.12800
O  45.06700 -3.25600 48.39300
C  47.17400 -2.30400 48.30100
N  46.94100 3.32100 47.66800
C  47.54100 2.07500 47.93600
C  49.04500 2.22500 48.19400
C  49.34000 3.70200 47.69000
C  47.94100 4.28300 47.71200
C  49.48200 1.96900 49.66600
C  50.23600 3.85200 46.37100
C  51.18500 5.01300 46.29800
N  45.24100 5.52800 47.53100
C  46.39700 6.25200 47.41500
C  46.02900 7.65600 47.09100
C  44.63600 7.66500 46.99600
C  44.18200 6.37100 47.30100
C  46.96600 8.77700 46.84100
C  43.44000 8.38800 46.71500
O  43.40600 9.56000 46.27300
C  42.19600 7.39600 46.81000
C  41.40200 7.92700 47.84000
O  41.44900 7.51100 48.99500
O  40.60900 8.93600 47.37900
C  39.73400 9.66900 48.34000
H  41.23600 0.72200 47.06600
H  47.70900 0.10800 48.16900
H  48.56400 6.26800 47.45500
H  40.07800 5.47700 47.17300
H  39.92100 2.67300 46.19000
H  38.81000 3.72700 48.62500
H  39.96900 2.45200 49.11500
H  38.79300 2.03300 47.97400
H  40.67500 4.06300 44.59700
H  41.56400 5.46000 44.87600
H  40.15500 6.86900 44.19900
H  38.85600 6.29200 45.28700
H  42.60900 -2.46300 48.46400
H  43.02800 -2.58100 46.78500
H  41.72400 -1.64300 47.13500
H  47.57200 -1.69200 47.49200
H  47.71900 -3.23900 48.43700
H  47.38700 -1.75100 49.21600
H  49.73100 1.60400 47.61800
H  49.81900 4.28000 48.48000
H  50.40300 2.47800 49.95000
H  49.73500 0.92200 49.83000
H  48.57500 2.12000 50.25200
H  49.47300 3.95100 45.59900
H  50.83800 2.98300 46.10500
H  51.10600 5.41100 45.28700
H  52.20600 4.68400 46.49000
H  51.05600 5.81200 47.02800
H  47.97300 8.36100 46.80700
H  46.93800 9.57800 47.57900
H  46.92900 9.28100 45.87500
H  41.68400 7.55400 45.86000
H  39.64800 10.70200 48.00400
H  40.13600 9.64700 49.35300
H  38.79100 9.12300 48.35000
Mg -0.99100 43.89600 26.85900
C  1.71100 43.73100 29.16400
C  -2.98900 43.04200 29.37500
C  -3.26500 43.45500 24.47100
C  1.46100 44.20500 24.39000
N  -0.65300 43.23800 29.02200
C  0.45600 43.53200 29.76700
C  0.14400 43.41200 31.28300
C  -1.33900 42.86400 31.28000
C  -1.69700 43.12400 29.81000
C  -1.57500 41.35600 31.65700
C  0.36600 44.80600 31.88000
C  0.69000 44.78100 33.44900
H  0.45100 43.52800 34.26400
N  -2.92000 43.32300 26.95800
C  -3.56500 42.92900 28.06300
C  -4.92600 42.52000 27.69600
C  -4.95300 42.54200 26.23700
C  -3.65200 43.07700 25.78300
C  -5.99900 42.16100 28.75500
C  -6.10300 42.14000 25.28800
O  -5.89300 42.24400 24.10800
C  -7.53300 41.56000 25.74600
N  -0.84400 43.98700 24.75600
C  -1.97800 43.78600 24.01600
C  -1.66900 43.82900 22.50000
C  -0.20000 44.33500 22.47500
C  0.16000 44.22300 23.97700
C  -1.81100 42.44900 21.86600
C  0.16800 45.74700 22.01200
C  1.57900 45.98000 21.34100
N  1.16800 43.97900 26.78300
C  1.98900 44.11400 25.64300
C  3.35300 44.36200 26.12400
C  3.28500 44.13800 27.49700
C  1.91200 43.98700 27.85000
C  4.46700 44.64500 25.32900
C  4.06100 44.04000 28.71300
O  5.28300 43.90400 28.92600
C  3.00600 43.97600 29.87000
C  3.45800 42.73000 30.57900
O  3.40000 41.65100 30.05100
O  4.05500 42.88700 31.80500
C  4.36300 41.77700 32.73700
H  -3.64800 42.81100 30.21400
H  -3.99400 43.26400 23.68000
H  2.21600 44.30800 23.60800
H  0.79000 42.66100 31.73600
H  -1.87900 43.55600 31.92600
H  -2.60800 41.30600 31.99900
H  -0.97100 41.02300 32.50100
H  -1.49000 40.70600 30.78600
H  -0.57500 45.34800 31.78900
H  1.09500 45.40600 31.33500
H  0.23800 45.62900 33.96500
H  1.76800 44.93500 33.40400
H  -5.52300 41.97300 29.71700
H  -6.44100 41.20500 28.47600
H  -6.71500 42.95600 28.96500
H  -7.45000 40.47800 25.65200
H  -8.32500 41.95700 25.11100
H  -7.96800 41.86700 26.69700
H  -2.30100 44.56600 22.00300
H  0.40900 43.64900 21.88700
H  -0.86200 42.05000 21.50800
H  -2.52500 42.53600 21.04700
H  -2.13000 41.71300 22.60400
H  0.13300 46.52400 22.77500
H  -0.58100 46.00400 21.26300
H  2.15100 45.05600 21.42100
H  2.17600 46.69000 21.91300
H  1.59600 46.30900 20.30200
H  4.21400 45.25300 24.46100
H  4.84200 43.73700 24.85700
H  5.25800 45.06900 25.94700
H  3.21200 44.91900 30.37600
H  4.61100 40.92500 32.10400
H  3.46000 41.69300 33.34100
H  5.28700 42.00200 33.27000

