158

Mg -2.34800 16.60300 25.91700
C  -2.90400 14.60600 28.81800
C  -3.34900 19.38100 27.84500
C  -2.53300 18.50300 23.14700
C  -2.08400 13.77400 24.04900
N  -3.01800 16.92500 28.12800
C  -3.16400 15.97900 29.09200
C  -3.60000 16.62600 30.41200
C  -4.11800 18.04500 29.92000
C  -3.48900 18.13600 28.49100
C  -5.64600 18.10900 29.90600
C  -2.43700 16.74400 31.45400
C  -2.89800 17.17800 32.82600
H  -2.77300 16.00400 33.86700
N  -2.67100 18.64800 25.56300
C  -2.79100 19.66200 26.53600
C  -2.56000 20.93000 25.93400
C  -2.41400 20.69700 24.49800
C  -2.57000 19.22500 24.30400
C  -2.52800 22.24300 26.80000
C  -2.08400 21.66600 23.38500
O  -2.08400 21.44000 22.21400
C  -1.96100 23.10100 23.77700
N  -2.50200 16.17300 23.91300
C  -2.48800 17.12500 22.90000
C  -2.35500 16.50200 21.47800
C  -1.90800 14.98800 21.84500
C  -2.19900 14.93700 23.36100
C  -3.64300 16.65700 20.60400
C  -0.51300 14.55700 21.56000
C  0.57000 15.12200 22.45300
N  -2.38900 14.61600 26.34300
C  -2.24000 13.51200 25.43000
C  -2.35400 12.33900 26.06500
C  -2.54000 12.67000 27.43200
C  -2.55800 14.08600 27.51600
C  -2.14500 10.99400 25.45200
C  -2.69700 12.07500 28.74200
O  -2.53100 10.93200 29.14800
C  -3.05300 13.35800 29.68200
C  -2.11400 13.38600 30.82900
O  -0.96400 13.83700 30.87100
O  -2.61000 12.56900 31.83000
C  -1.91900 12.21400 33.08400
H  -3.74700 20.23200 28.40100
H  -2.34300 18.99500 22.19000
H  -1.98400 12.87400 23.44000
H  -4.38200 16.01600 30.86600
H  -3.69700 18.90300 30.44500
H  -5.90100 18.44800 28.90200
H  -6.04200 18.81800 30.63300
H  -6.12500 17.14100 30.05400
H  -1.71300 17.46000 31.06700
H  -1.96700 15.76200 31.50700
H  -3.94300 17.48200 32.77000
H  -2.31700 18.04900 33.13100
H  -2.59500 22.09700 27.87800
H  -3.43400 22.75700 26.47700
H  -1.66200 22.82200 26.47800
H  -1.90400 23.70300 22.87000
H  -0.99800 23.20700 24.27800
H  -2.75400 23.50600 24.40500
H  -1.55600 16.93300 20.87600
H  -2.61700 14.30700 21.37500
H  -4.27700 15.78500 20.76200
H  -3.39600 16.73800 19.54600
H  -4.14100 17.61500 20.75600
H  -0.41000 14.84600 20.51400
H  -0.54800 13.49500 21.31700
H  0.15600 15.63500 23.32100
H  1.12600 15.85600 21.87000
H  1.21500 14.32600 22.82700
H  -2.06600 10.21800 26.21300
H  -1.21700 10.96200 24.88100
H  -2.94700 10.72500 24.76400
H  -4.03000 13.37200 30.16300
H  -1.13500 12.97000 33.11000
H  -1.41900 11.24800 33.01100
H  -2.67800 12.36800 33.85200
Mg -8.78700 40.30200 43.07100
C  -8.03300 37.00700 41.79900
C  -5.83300 41.39300 41.62000
C  -9.86500 43.53600 43.51600
C  -11.75800 39.14400 44.30500
N  -7.21800 39.29600 41.69700
C  -7.11200 37.99100 41.37600
C  -5.75100 37.69200 40.71700
C  -5.02700 39.04700 40.89200
C  -6.09000 40.02100 41.40500
C  -3.78400 39.04800 41.81900
C  -5.81700 37.25700 39.16300
C  -5.18600 35.93600 38.80900
H  -3.98700 36.21100 37.85700
N  -7.97500 42.20200 42.69600
C  -6.69200 42.43500 42.06400
C  -6.48800 43.90800 42.03500
C  -7.60700 44.53800 42.60800
C  -8.59200 43.44300 42.94900
C  -5.20800 44.62700 41.46000
C  -7.83000 45.96200 42.76800
O  -7.00900 46.72600 42.21700
C  -8.90700 46.63400 43.62700
N  -10.57400 41.24800 43.70000
C  -10.73000 42.54100 43.92500
C  -12.02200 42.78100 44.60200
C  -12.74800 41.38200 44.77200
C  -11.61800 40.52400 44.27400
C  -11.88700 43.50900 45.99200
C  -14.14400 41.20200 44.07100
C  -15.22200 40.90700 45.08900
N  -9.68300 38.49200 43.15000
C  -10.88400 38.14800 43.80200
C  -11.12100 36.69800 43.72700
C  -10.00600 36.22500 42.98000
C  -9.22900 37.35700 42.57400
C  -12.27200 35.92600 44.19000
C  -9.49800 35.05100 42.34400
O  -9.82800 33.88000 42.54800
C  -8.19500 35.46200 41.61800
C  -7.03100 34.69700 42.06100
O  -6.46400 34.79800 43.12900
O  -6.84700 33.76400 41.08400
C  -5.61300 32.93800 41.31800
H  -4.83600 41.72600 41.32500
H  -10.20100 44.54300 43.77000
H  -12.66300 38.80100 44.81100
H  -5.26100 36.90300 41.28700
H  -4.69900 39.35700 39.89900
H  -4.08800 39.40400 42.80300
H  -3.01500 39.74800 41.49400
H  -3.48800 38.00000 41.85500
H  -5.33900 38.06000 38.60200
H  -6.88400 37.20400 38.94500
H  -5.86100 35.22500 38.33200
H  -4.71100 35.49900 39.68700
H  -5.42100 45.06400 40.48400
H  -4.40400 43.89100 41.44100
H  -4.80300 45.40100 42.11200
H  -8.65300 47.69100 43.69600
H  -9.08100 46.13900 44.58300
H  -9.85600 46.56300 43.09500
H  -12.64400 43.45900 44.01700
H  -12.77100 41.05900 45.81300
H  -10.84300 43.72300 46.21700
H  -12.20900 42.84500 46.79500
H  -12.39300 44.47400 46.01900
H  -14.21800 40.51400 43.22900
H  -14.40800 42.14200 43.58700
H  -15.47900 41.67600 45.81800
H  -14.86600 40.04300 45.65000
H  -16.15700 40.52600 44.67600
H  -13.16300 36.55500 44.20700
H  -12.11700 35.32800 45.08800
H  -12.33600 35.18400 43.39400
H  -8.37000 35.25200 40.56300
H  -4.80100 33.66500 41.33400
H  -5.40700 32.46000 40.36000
H  -5.64400 32.33200 42.22300

