158

Mg 36.18000 49.55500 25.52900
C  35.87900 47.47700 28.33200
C  35.39800 52.20600 27.68300
C  35.98800 51.53500 22.89600
C  36.82000 46.74100 23.53000
N  35.36300 49.79600 27.73300
C  35.51300 48.82900 28.67700
C  35.38700 49.35700 30.11700
C  34.98000 50.81900 29.84800
C  35.32700 50.98300 28.31800
C  33.53400 51.29700 30.06400
C  36.66900 49.20100 31.02500
C  36.32700 48.89900 32.50400
H  34.95400 49.31400 33.15200
N  35.83700 51.56300 25.31400
C  35.64400 52.53400 26.31300
C  35.61400 53.86200 25.70000
C  35.57000 53.58500 24.33200
C  35.79000 52.21000 24.10200
C  35.54400 55.19400 26.44300
C  35.36000 54.57700 23.19200
O  35.22100 54.24800 22.00300
C  35.51600 56.01600 23.44300
N  36.20800 49.13000 23.51500
C  36.23100 50.13600 22.64900
C  36.23500 49.58800 21.22500
C  36.78200 48.12700 21.39800
C  36.71700 47.99300 22.94200
C  34.92000 49.55300 20.46900
C  38.23000 47.87200 20.90700
C  39.43900 48.44900 21.84900
N  36.28000 47.52000 25.78200
C  36.61100 46.50100 24.92700
C  36.72600 45.22600 25.70700
C  36.45900 45.62400 27.00400
C  36.19100 46.98100 27.06000
C  37.10300 43.85600 25.23900
C  36.34800 45.05700 28.27800
O  36.49500 43.89500 28.67400
C  35.99600 46.23100 29.24800
C  34.75400 46.05900 30.04800
O  33.62900 46.50500 29.83500
O  35.12400 45.31800 31.15900
C  34.01600 45.14800 32.11300
H  35.27000 53.05500 28.35800
H  35.94400 51.94800 21.88700
H  36.90900 45.79700 22.98800
H  34.58200 48.81700 30.61400
H  35.66900 51.50700 30.33900
H  32.88000 50.56300 30.53400
H  33.10200 51.68700 29.14200
H  33.67100 52.19600 30.66500
H  37.23600 50.13100 31.07000
H  37.26700 48.40800 30.57600
H  37.15900 49.31500 33.07200
H  36.45900 47.81800 32.55200
H  36.20200 55.97300 26.05700
H  35.86400 55.02300 27.47100
H  34.52300 55.57700 26.41300
H  36.52800 56.22200 23.79100
H  34.79600 56.32400 24.20100
H  35.33600 56.46900 22.46800
H  36.82600 50.30500 20.65500
H  36.06700 47.33800 21.16500
H  34.51800 48.55300 20.30900
H  34.98000 49.96100 19.46000
H  34.26900 50.27200 20.96700
H  38.34400 48.23100 19.88400
H  38.31200 46.80400 21.11200
H  39.90000 47.65800 22.44100
H  39.14600 49.24400 22.53500
H  40.28800 48.82100 21.27700
H  36.89700 43.77000 24.17200
H  36.49900 43.09800 25.73900
H  38.15100 43.76200 25.52300
H  36.71100 46.51100 30.02200
H  33.13900 44.78500 31.57600
H  33.92100 46.08400 32.66500
H  34.29800 44.31000 32.75000
Mg -11.20200 39.51700 41.47000
C  -10.15400 36.20800 40.94000
C  -8.27100 40.49900 39.64500
C  -12.37900 42.58700 41.00300
C  -14.25500 38.33000 42.47700
N  -9.42400 38.44000 40.37400
C  -9.25600 37.06300 40.27800
C  -7.93700 36.68200 39.59500
C  -7.23900 38.12500 39.47200
C  -8.34300 39.08400 39.80000
C  -5.97600 38.37100 40.33400
C  -8.14400 35.96000 38.21000
C  -7.24000 34.79200 37.88100
H  -6.21600 35.03800 36.78800
N  -10.42300 41.32700 40.49000
C  -9.24700 41.51100 39.84800
C  -9.07200 42.94200 39.56900
C  -10.27500 43.55000 39.91700
C  -11.14000 42.47100 40.46600
C  -7.94200 43.42300 38.79100
C  -10.58400 45.00500 39.73700
O  -9.79900 45.74600 39.14000
C  -11.95600 45.66400 40.09100
N  -13.05400 40.31000 41.64900
C  -13.28500 41.64500 41.50500
C  -14.75500 42.01000 41.87200
C  -15.43400 40.59400 42.06200
C  -14.16500 39.68600 42.11400
C  -14.86100 42.83700 43.23200
C  -16.54100 40.11300 41.07000
C  -17.74700 39.25900 41.52100
N  -12.07400 37.66500 41.88000
C  -13.26700 37.36200 42.40800
C  -13.36300 35.88900 42.64100
C  -12.11300 35.34900 42.08500
C  -11.35500 36.47900 41.71600
C  -14.58700 35.12500 43.23800
C  -11.37800 34.14300 41.72800
O  -11.63000 32.99700 41.98700
C  -10.09900 34.65500 40.93100
C  -8.84000 34.05300 41.55100
O  -8.21800 33.03000 41.23900
O  -8.23900 34.94500 42.51500
C  -6.96800 34.44900 43.09500
H  -7.28400 40.71100 39.22800
H  -12.79300 43.59100 41.12200
H  -15.22300 37.99700 42.85800
H  -7.42900 36.05400 40.32700
H  -6.96300 38.26700 38.42700
H  -5.84100 37.66300 41.15100
H  -6.05500 39.30900 40.88300
H  -5.15400 38.26300 39.62600
H  -7.99900 36.74000 37.46300
H  -9.18500 35.63900 38.16700
H  -7.95700 34.04100 37.55000
H  -6.67900 34.41800 38.73800
H  -7.30200 42.60200 38.47000
H  -7.43400 43.93500 39.60900
H  -8.20000 44.16200 38.03200
H  -12.77100 45.19600 39.53800
H  -11.90300 46.72800 39.86000
H  -12.16100 45.57100 41.15800
H  -15.14300 42.50600 40.98200
H  -15.93700 40.43100 43.01500
H  -15.35300 43.79400 43.06500
H  -13.84400 42.96000 43.60500
H  -15.48100 42.45300 44.04200
H  -15.93700 39.72000 40.25300
H  -17.03900 41.05900 40.85700
H  -18.00300 38.72000 40.60900
H  -18.48700 39.89600 42.00500
H  -17.45700 38.59300 42.33500
H  -15.10900 35.87500 43.83200
H  -14.30700 34.29300 43.88400
H  -15.30400 34.77600 42.49500
H  -10.18600 34.29900 39.90500
H  -6.62800 34.86900 44.04200
H  -6.16200 34.69400 42.40300
H  -7.10300 33.40000 43.35800

