158

Mg 3.05300 -1.56000 44.70300
C  6.55200 -0.84500 44.51200
C  2.59600 1.16300 42.65600
C  -0.07500 -2.59600 44.69700
C  3.99200 -4.85300 46.06800
N  4.51800 0.07900 43.80000
C  5.84400 0.06500 43.69100
C  6.34800 1.23600 42.76300
C  4.96700 1.90200 42.27600
C  3.92900 1.01800 42.96400
C  4.76600 3.44500 42.64100
C  7.15500 0.74700 41.54000
C  8.54200 1.31300 41.30400
H  8.58100 2.30000 40.04600
N  1.51900 -0.82900 43.74400
C  1.44400 0.31900 43.06100
C  0.09800 0.57700 42.75500
C  -0.68900 -0.47000 43.25300
C  0.21100 -1.37800 43.98400
C  -0.32500 1.95400 42.11300
C  -2.18000 -0.52100 43.18300
O  -2.80300 0.36200 42.60000
C  -3.04100 -1.61700 43.85400
N  2.12100 -3.54200 45.37100
C  0.81700 -3.60000 45.17300
C  0.30300 -5.00700 45.73300
C  1.61200 -5.76300 45.94500
C  2.62400 -4.68600 45.83300
C  -0.58900 -4.78600 46.98400
C  1.86300 -6.93400 44.89400
C  2.84800 -8.06200 45.15800
N  4.84400 -2.62400 45.23600
C  5.00300 -3.85300 45.88800
C  6.44200 -3.90900 46.22200
C  7.04000 -2.73700 45.73400
C  5.99900 -2.05000 45.10800
C  7.07800 -4.97300 47.04500
C  8.26900 -2.02600 45.65600
O  9.37800 -2.32900 46.06500
C  8.02600 -0.75900 44.83000
C  8.22200 0.37400 45.70700
O  7.46800 0.73400 46.60200
O  9.21200 1.23600 45.28700
C  9.08900 2.69800 45.68500
H  2.45600 1.87200 41.83800
H  -1.09400 -2.98600 44.74400
H  4.21400 -5.77600 46.60700
H  6.90000 1.92800 43.39900
H  4.87700 1.78900 41.19600
H  4.45600 3.57800 43.67800
H  4.03600 3.95800 42.01600
H  5.70900 3.99000 42.67500
H  6.60500 0.82200 40.60200
H  7.20100 -0.33800 41.63000
H  9.08000 0.48900 40.83600
H  9.01300 1.63500 42.23300
H  0.51300 2.39300 41.57100
H  -0.60000 2.64200 42.91300
H  -1.15900 1.84300 41.42000
H  -4.11200 -1.41700 43.84100
H  -2.74200 -1.41900 44.88300
H  -2.79300 -2.66600 43.68900
H  -0.21300 -5.40100 44.85700
H  1.90200 -6.04400 46.95700
H  -1.06500 -3.84900 47.27400
H  -0.06000 -5.08000 47.89000
H  -1.35500 -5.55100 46.85500
H  2.26700 -6.45800 44.00100
H  0.87300 -7.32500 44.65500
H  3.44400 -7.91600 46.05900
H  3.45000 -8.19000 44.25900
H  2.41800 -9.06000 45.24900
H  7.20000 -5.79700 46.34100
H  6.33100 -5.07300 47.83200
H  8.03700 -4.58500 47.39000
H  8.71000 -0.77800 43.98100
H  8.14100 2.92600 46.17100
H  9.15400 3.31700 44.79100
H  9.97200 2.99900 46.24900
Mg 41.79500 41.27300 26.68100
C  40.80600 43.50200 29.22800
C  42.85000 39.14200 29.24100
C  42.31600 39.03200 24.35800
C  41.24000 43.88300 24.22300
N  41.83300 41.38900 29.01100
C  41.29300 42.33900 29.80700
C  41.35800 41.96100 31.26200
C  42.22400 40.64800 31.28200
C  42.42000 40.37600 29.72900
C  43.58700 40.66500 32.14000
C  39.92200 41.76600 31.88600
C  39.72200 42.72100 33.07500
H  39.56400 42.11400 34.42800
N  42.69100 39.47600 26.77900
C  42.96100 38.63900 27.85500
C  43.38400 37.31200 27.43600
C  43.29600 37.25600 26.00100
C  42.74100 38.63900 25.64700
C  43.74300 36.19700 28.43300
C  43.70600 36.10700 24.98200
O  43.74200 36.31100 23.76800
C  44.06700 34.70400 25.50800
N  41.86000 41.49200 24.54600
C  42.06300 40.35100 23.86900
C  41.91600 40.68000 22.35700
C  41.73300 42.21600 22.24800
C  41.65500 42.59600 23.75800
C  43.20000 40.18400 21.59300
C  40.54100 42.76400 21.38800
C  41.02500 43.80200 20.36300
N  41.09300 43.21700 26.70100
C  40.84700 44.11200 25.60200
C  40.27600 45.32100 26.14900
C  40.28300 45.13700 27.54000
C  40.73500 43.82500 27.84600
C  39.94300 46.48400 25.28700
C  39.91400 45.81700 28.76700
O  39.49800 46.91900 28.90500
C  40.25200 44.78400 29.87500
C  41.28600 45.49600 30.69200
O  42.46900 45.58300 30.40400
O  40.72800 45.99900 31.88200
C  41.74100 46.37300 32.86100
H  42.87300 38.43900 30.07600
H  42.42000 38.23500 23.61900
H  41.40800 44.58900 23.40700
H  42.01700 42.70100 31.71600
H  41.65600 39.83700 31.73700
H  44.50600 40.39900 31.61800
H  43.47300 39.95000 32.95500
H  43.65200 41.70100 32.47000
H  39.77500 40.76200 32.28600
H  39.18600 41.97200 31.10900
H  38.81200 43.26700 32.82500
H  40.49500 43.48900 33.06800
H  43.54500 36.59400 29.42800
H  44.77300 35.87700 28.26900
H  43.03700 35.36700 28.47700
H  44.06900 33.97800 24.69500
H  43.33500 34.38700 26.25100
H  45.00300 34.69700 26.06600
H  41.03900 40.12300 22.02600
H  42.64700 42.72100 21.93600
H  43.96000 40.05600 22.36400
H  43.37600 40.92200 20.81100
H  42.99100 39.27900 21.02400
H  39.77100 43.24500 21.99100
H  40.07600 41.88700 20.93900
H  40.43100 44.71100 20.46400
H  40.93000 43.50500 19.31900
H  42.04100 44.12600 20.58500
H  39.50900 46.24900 24.31600
H  40.83600 47.03700 24.99600
H  39.28200 47.02300 25.96600
H  39.32400 44.50400 30.37500
H  41.76800 45.59900 33.62700
H  41.28500 47.18800 33.42400
H  42.75600 46.56200 32.51000

