158

Mg 2.15400 -2.12000 43.97500
C  5.37400 -0.87000 43.59500
C  1.04400 0.69900 42.43000
C  -0.93400 -3.57900 43.67700
C  3.51500 -5.20000 44.93000
N  3.08900 -0.36200 43.09600
C  4.40300 -0.07300 43.08600
C  4.64500 1.21600 42.32400
C  3.24100 1.90600 42.30800
C  2.39600 0.70700 42.74500
C  3.19100 3.10900 43.21900
C  5.21600 0.90800 40.90600
C  6.36400 1.86200 40.32700
H  7.09400 1.18700 39.16100
N  0.28900 -1.50600 43.12800
C  0.07200 -0.33000 42.52900
C  -1.29800 -0.25500 42.11800
C  -1.91700 -1.42000 42.55900
C  -0.85000 -2.25400 43.15200
C  -1.89200 1.00700 41.44300
C  -3.38800 -1.77200 42.43300
O  -4.19000 -0.99500 41.94100
C  -3.94400 -2.96600 43.06500
N  1.36900 -4.12000 44.25000
C  0.05700 -4.38700 44.25700
C  -0.14800 -5.83100 44.69700
C  1.29100 -6.35400 45.12800
C  2.09700 -5.20300 44.64700
C  -1.19800 -5.96100 45.80500
C  1.78400 -7.70000 44.46500
C  2.50300 -8.59500 45.55200
N  4.04100 -2.91900 44.33600
C  4.43600 -4.10600 44.84900
C  5.88800 -4.09900 44.98400
C  6.28500 -2.85900 44.50100
C  5.10300 -2.19400 44.07600
C  6.66700 -5.25800 45.50500
C  7.43300 -2.01900 44.25800
O  8.65200 -2.20300 44.34500
C  6.88900 -0.67500 43.68400
C  7.24200 0.36700 44.74500
O  6.65400 0.59700 45.81400
O  8.33100 1.10100 44.25400
C  8.70500 2.38200 44.98300
H  0.70100 1.65200 42.02200
H  -1.85300 -4.14200 43.49500
H  3.93400 -6.13300 45.31200
H  5.37200 1.83800 42.84600
H  3.02800 2.22000 41.28600
H  4.07200 3.31700 43.82700
H  2.45100 2.92400 43.99800
H  3.03500 3.94000 42.53200
H  4.44200 1.11500 40.16600
H  5.46700 -0.15100 40.84800
H  7.13800 2.03800 41.07300
H  5.94400 2.84300 40.10800
H  -1.93600 1.68000 42.29900
H  -2.85400 0.87900 40.94600
H  -1.18700 1.37600 40.69800
H  -3.74300 -3.89000 42.52300
H  -5.01500 -2.76600 43.08800
H  -3.55000 -2.96600 44.08200
H  -0.38900 -6.34400 43.76600
H  1.35300 -6.41200 46.21500
H  -1.51400 -4.96800 46.12300
H  -0.90500 -6.58700 46.64800
H  -2.01100 -6.53900 45.36500
H  2.43600 -7.40800 43.64200
H  0.92800 -8.28500 44.13100
H  2.07200 -8.54700 46.55200
H  3.58900 -8.65500 45.47400
H  2.25600 -9.56700 45.12600
H  7.56600 -4.90700 46.01100
H  6.99500 -5.84000 44.64300
H  6.10000 -5.95200 46.12500
H  7.37500 -0.46200 42.73100
H  7.81400 2.93200 45.28700
H  9.45100 3.00500 44.49000
H  9.11100 2.14300 45.96600
Mg 17.44000 52.61000 26.25700
C  18.96300 51.34300 29.10400
C  14.85100 53.88000 28.18100
C  16.01500 53.54100 23.36500
C  19.92800 50.88900 24.42300
N  16.98700 52.55100 28.38700
C  17.77400 51.96900 29.40900
C  17.18800 52.38700 30.81500
C  15.79700 52.97500 30.40900
C  15.86900 53.18900 28.89600
C  14.60300 52.14500 30.79300
C  18.14500 53.44900 31.46900
C  18.31000 53.37400 32.99700
H  17.09200 53.04800 33.91800
N  15.72600 53.70400 25.81400
C  14.82300 54.14200 26.76600
C  13.91700 54.95900 26.09100
C  14.25300 54.96300 24.63200
C  15.36200 54.07500 24.54100
C  12.89500 55.72500 26.87400
C  13.53800 55.60300 23.49500
O  13.98300 55.51500 22.38200
C  12.41700 56.51500 23.76700
N  17.79400 52.12100 24.14400
C  17.12300 52.76000 23.17800
C  17.71400 52.51200 21.72600
C  19.18800 51.96000 22.21000
C  19.02100 51.63600 23.67500
C  16.91000 51.62400 20.78500
C  20.35400 53.01100 22.01900
C  21.64900 52.49000 21.44100
N  19.12400 51.36400 26.62300
C  19.94100 50.71000 25.77200
C  20.89000 49.91400 26.51600
C  20.52200 50.12900 27.83600
C  19.41800 50.99400 27.84700
C  22.02700 49.02900 26.05200
C  20.84300 49.82800 29.20000
O  21.72000 49.24100 29.84300
C  19.84300 50.66900 30.07400
C  19.21000 49.78600 31.03200
O  18.33500 49.01000 30.71400
O  19.79100 49.87600 32.31000
C  19.04200 49.14600 33.32100
H  13.99000 54.19100 28.77600
H  15.68500 53.91500 22.39400
H  20.68300 50.42900 23.78200
H  17.04800 51.51300 31.45100
H  15.57000 53.91700 30.90900
H  13.99800 52.74200 31.47500
H  14.95100 51.32900 31.42700
H  14.15800 51.77900 29.86800
H  17.73800 54.44100 31.27400
H  19.02500 53.60500 30.84500
H  18.76100 54.29400 33.37100
H  19.18500 52.73100 33.09900
H  12.12600 55.08200 27.30500
H  12.44200 56.53200 26.29900
H  13.36900 56.12500 27.77000
H  11.56900 56.03900 24.26100
H  12.12600 56.92600 22.80000
H  12.82600 57.31300 24.38700
H  17.83000 53.48800 21.25500
H  19.48900 51.08000 21.64100
H  15.98200 51.18000 21.14700
H  17.59300 50.82000 20.51000
H  16.62200 52.20100 19.90600
H  20.46500 53.56900 22.94800
H  19.93600 53.66700 21.25500
H  21.92200 53.17100 20.63500
H  21.42900 51.46900 21.12600
H  22.43500 52.60100 22.18800
H  22.69500 49.11800 26.90900
H  22.39300 49.38500 25.08900
H  21.72300 47.99100 25.91800
H  20.31100 51.41300 30.71900
H  17.96500 49.30200 33.37200
H  19.53300 49.30900 34.28000
H  19.22500 48.08400 33.15800

