158

Mg 1.01600 8.03200 27.92400
C  1.37200 10.21100 30.51900
C  1.39300 5.35900 30.00600
C  1.64900 6.07900 25.21600
C  1.15900 10.80000 25.71200
N  1.49000 7.83800 30.02700
C  1.33100 8.85600 30.92000
C  1.34100 8.31400 32.40500
C  1.48000 6.79100 32.18800
C  1.41800 6.66800 30.63500
C  2.83100 6.19500 32.72000
C  0.15700 8.79100 33.27400
C  0.49700 9.16300 34.76400
H  0.04900 8.12500 35.73600
N  1.28600 5.97300 27.63700
C  1.34100 5.05100 28.58000
C  1.45300 3.78000 28.02200
C  1.62500 3.98200 26.61600
C  1.52200 5.39800 26.44700
C  1.36600 2.50600 28.86300
C  1.72900 2.90000 25.39600
O  1.95400 3.12500 24.25900
C  1.64600 1.46000 25.83400
N  1.23200 8.33800 25.85900
C  1.45800 7.37200 24.87600
C  1.75600 7.88400 23.47600
C  1.34500 9.36300 23.59200
C  1.20400 9.51900 25.15300
C  3.24400 7.58000 23.03800
C  0.15500 9.81900 22.71200
C  -1.28200 9.39700 23.09200
N  1.22700 10.14200 28.01400
C  1.20900 11.07000 27.11100
C  1.42600 12.30300 27.71600
C  1.58000 12.11400 29.06300
C  1.34300 10.69100 29.18600
C  1.41000 13.64000 27.10200
C  1.87200 12.67900 30.42600
O  2.20700 13.82800 30.79200
C  1.63600 11.43700 31.43200
C  2.80300 11.35000 32.28200
O  3.92900 10.95300 31.94200
O  2.57600 11.95800 33.51700
C  3.71300 12.25400 34.37800
H  1.32200 4.60100 30.79000
H  1.97700 5.54100 24.32400
H  1.28400 11.66700 25.06000
H  2.23900 8.78900 32.80000
H  0.64900 6.17400 32.52900
H  3.29800 5.71800 31.85800
H  2.59500 5.46500 33.49400
H  3.56300 6.90400 33.10800
H  -0.51500 7.93400 33.24000
H  -0.32200 9.64000 32.78700
H  0.10900 10.16500 34.94600
H  1.58300 9.21800 34.84000
H  2.18700 1.86500 28.54200
H  0.44700 2.11400 28.42800
H  1.32000 2.56100 29.95100
H  2.50900 1.24400 26.46400
H  1.68000 0.81900 24.95300
H  0.70400 1.21700 26.32600
H  1.10300 7.33900 22.79500
H  2.24300 9.93000 23.34400
H  3.90300 7.39300 23.88700
H  3.60600 8.48000 22.54000
H  3.38200 6.83000 22.26000
H  0.36800 9.38600 21.73400
H  0.23000 10.88800 22.51100
H  -1.76600 8.67400 22.43600
H  -1.84600 10.32800 23.16100
H  -1.35200 9.06300 24.12700
H  0.75900 14.39200 27.54900
H  1.14600 13.58400 26.04600
H  2.39400 14.09500 27.21600
H  0.78100 11.75500 32.02900
H  4.23600 13.13800 34.01400
H  4.46900 11.47800 34.50500
H  3.24800 12.67600 35.26900
Mg -10.96100 39.11200 40.18000
C  -10.17100 35.62200 39.98600
C  -7.78600 39.79600 39.17000
C  -12.03700 42.24700 39.87300
C  -14.32800 38.05900 41.02200
N  -9.21600 37.81700 39.51000
C  -9.09100 36.45200 39.55300
C  -7.68400 36.06600 39.05300
C  -6.85000 37.38700 39.23700
C  -8.02300 38.40800 39.32100
C  -5.85300 37.49800 40.41700
C  -7.59600 35.30500 37.69400
C  -7.00000 35.98500 36.51500
H  -7.79600 37.05500 35.72400
N  -10.01200 40.78900 39.54300
C  -8.69500 40.86700 39.32000
C  -8.41900 42.28700 39.20900
C  -9.56300 43.02500 39.36800
C  -10.60000 42.05000 39.60600
C  -6.98200 42.78200 38.98100
C  -9.70400 44.54100 39.44000
O  -8.69900 45.22500 39.29100
C  -10.90800 45.22300 39.73700
N  -12.98400 39.93600 40.22300
C  -13.06800 41.28900 40.09400
C  -14.50200 41.82300 40.29000
C  -15.20700 40.48800 40.94700
C  -14.17500 39.39500 40.57300
C  -14.63000 43.04300 41.18200
C  -16.66200 40.22800 40.48900
C  -17.73300 40.75000 41.37700
N  -12.03800 37.26200 40.59300
C  -13.35400 37.04100 41.02000
C  -13.50500 35.56700 41.31500
C  -12.26200 35.00100 40.86700
C  -11.42800 36.08800 40.45600
C  -14.67800 34.82500 41.90400
C  -11.55400 33.70600 40.69400
O  -11.83400 32.59100 41.02600
C  -10.26200 34.09700 39.90800
C  -9.07800 33.31100 40.47200
O  -8.66500 33.32000 41.57700
O  -8.40400 32.73800 39.41500
C  -7.34200 31.86900 39.76400
H  -6.74900 40.09400 39.00400
H  -12.39900 43.27500 39.80000
H  -15.35400 37.82900 41.31400
H  -7.26700 35.30000 39.70600
H  -6.30500 37.62400 38.32300
H  -6.04700 38.38000 41.02800
H  -4.92400 37.69300 39.88100
H  -5.74800 36.62700 41.06400
H  -8.59500 34.90500 37.51600
H  -6.99100 34.42300 37.90300
H  -6.86900 35.17200 35.80100
H  -5.98100 36.31500 36.71900
H  -7.21100 43.56700 38.26000
H  -6.40000 41.97400 38.53700
H  -6.50500 43.17000 39.88100
H  -11.29400 44.93100 40.71400
H  -11.51900 44.83100 38.92300
H  -10.84200 46.30700 39.64000
H  -15.00400 41.94300 39.33000
H  -15.31400 40.57100 42.02800
H  -15.14700 42.79500 42.10900
H  -15.21700 43.78300 40.63900
H  -13.69900 43.48200 41.54100
H  -16.76600 39.14400 40.44700
H  -16.85800 40.65800 39.50700
H  -17.32800 41.16900 42.29900
H  -18.41900 39.93100 41.58900
H  -18.28400 41.52700 40.84700
H  -14.72600 34.99100 42.98000
H  -14.49100 33.75400 41.82700
H  -15.54800 35.25100 41.40400
H  -10.51400 33.68200 38.93300
H  -6.64000 31.80100 38.93300
H  -7.84400 30.91000 39.89300
H  -6.82900 32.16000 40.68000

