158

Mg 42.39700 41.69400 26.14000
C  41.79000 44.03300 28.62000
C  43.59100 39.51500 28.54700
C  43.24600 39.62800 23.55400
C  41.55900 44.12700 23.70100
N  42.44600 41.72100 28.35800
C  42.26700 42.80200 29.18200
C  42.34900 42.41900 30.67500
C  43.28200 41.16700 30.57500
C  43.01100 40.72800 29.06400
C  44.74100 41.25700 30.99500
C  40.99500 42.27300 31.48000
C  40.60000 43.34700 32.48400
H  41.50300 43.61800 33.71600
N  43.24500 39.81200 26.13000
C  43.66100 39.10100 27.18000
C  44.10200 37.82500 26.66800
C  43.97600 37.79600 25.26500
C  43.43200 39.12100 24.86300
C  44.63100 36.74000 27.58400
C  44.33500 36.69400 24.27600
O  44.07000 36.74000 23.04900
C  45.03900 35.39700 24.70600
N  42.25900 41.77700 24.01800
C  42.70000 40.84200 23.16800
C  42.67000 41.30700 21.70500
C  41.78500 42.54000 21.80400
C  41.82100 42.83900 23.32600
C  44.06700 41.54900 21.05300
C  40.29500 42.34400 21.46800
C  39.60200 41.16500 22.09500
N  41.78300 43.60800 26.15400
C  41.60100 44.49800 25.05700
C  41.30700 45.82000 25.59500
C  41.28400 45.59900 27.00900
C  41.64700 44.27200 27.28200
C  41.04000 47.10100 24.85700
C  41.06500 46.31600 28.27700
O  40.67600 47.46300 28.49600
C  41.32900 45.32300 29.40100
C  42.36100 45.87800 30.34500
O  43.52300 45.53400 30.39700
O  41.81500 46.92600 31.08600
C  42.79800 47.50900 32.02200
H  43.92600 38.77100 29.27200
H  43.55700 39.05200 22.68000
H  41.20200 44.89300 23.01000
H  42.93900 43.17400 31.19400
H  42.94700 40.32600 31.18200
H  45.03800 42.28200 31.21600
H  45.31700 40.74500 30.22400
H  44.89700 40.66300 31.89500
H  40.76000 41.32100 31.95500
H  40.32800 42.32900 30.61900
H  39.57700 43.11900 32.78400
H  40.63200 44.32400 32.00200
H  45.72000 36.70700 27.58200
H  44.28300 35.78800 27.18300
H  44.43900 36.86400 28.64900
H  45.26800 34.91200 23.75600
H  44.43800 34.65400 25.23000
H  45.93200 35.80500 25.17900
H  42.07100 40.49900 21.28800
H  42.23500 43.40000 21.31000
H  44.30200 42.49600 20.56800
H  44.12700 40.75400 20.31000
H  44.87900 41.24600 21.71500
H  40.20000 42.26600 20.38500
H  39.70600 43.23300 21.69600
H  38.65600 41.51100 22.51300
H  40.17200 40.68100 22.88800
H  39.37100 40.44300 21.31200
H  41.44900 47.13700 23.84700
H  41.37900 47.96600 25.42700
H  39.95200 47.16200 24.84000
H  40.37400 45.20300 29.91300
H  43.22600 46.77300 32.70200
H  42.11400 48.11000 32.62100
H  43.58700 48.02100 31.47100
Mg 26.70900 50.19700 26.36800
C  24.61300 51.17500 29.02400
C  29.24500 49.71400 28.66200
C  28.67700 49.51500 23.84200
C  24.26600 51.57300 24.11300
N  26.91500 50.53600 28.58500
C  25.92800 50.81800 29.48600
C  26.39900 50.70800 30.96500
C  27.94500 50.43300 30.81500
C  28.07900 50.14500 29.28700
C  28.86300 51.53800 31.30100
C  25.72900 49.63100 31.91200
C  24.88600 50.15400 33.04000
H  24.54000 49.30000 34.26200
N  28.69300 49.73900 26.29100
C  29.53800 49.54200 27.29200
C  30.81600 49.01700 26.78600
C  30.71600 49.09300 25.36100
C  29.35200 49.47000 25.10000
C  31.91000 48.50700 27.63700
C  31.74400 48.85400 24.34500
O  31.48900 49.01400 23.22000
C  33.21700 48.58100 24.70300
N  26.53400 50.50400 24.29800
C  27.43100 49.91900 23.44600
C  26.89900 50.01700 22.04100
C  25.48800 50.65500 22.13800
C  25.40700 50.96500 23.59900
C  28.04100 50.85000 21.22200
C  24.33700 49.84800 21.52500
C  23.31600 50.62100 20.66600
N  24.85000 51.16800 26.43500
C  23.99200 51.65800 25.47300
C  22.82400 52.16600 26.10400
C  22.98600 52.02300 27.46500
C  24.26500 51.41100 27.68000
C  21.60200 52.72900 25.37200
C  22.44300 52.23600 28.81500
O  21.36800 52.74600 29.16000
C  23.49500 51.69600 29.83600
C  23.92700 52.83000 30.77500
O  24.79300 53.69900 30.47100
O  23.09200 52.84600 31.80700
C  23.34200 53.77200 32.90900
H  30.02900 49.51700 29.39600
H  29.28200 49.28300 22.96400
H  23.52700 51.98100 23.42000
H  26.33000 51.67900 31.45700
H  28.22900 49.45800 31.21100
H  28.30200 52.41100 31.63300
H  29.32400 51.91300 30.38700
H  29.52500 51.10300 32.05000
H  26.46200 48.98800 32.39900
H  25.15800 48.99300 31.23800
H  23.93900 50.32700 32.53000
H  25.10500 51.19400 33.28200
H  31.88100 47.41900 27.68400
H  31.76000 48.77000 28.68500
H  32.93600 48.78200 27.39300
H  33.30300 47.81400 25.47300
H  33.84200 49.39700 25.06400
H  33.59400 48.31100 23.71700
H  26.85700 49.01000 21.62600
H  25.64700 51.66300 21.75400
H  28.53100 50.13700 20.56000
H  28.75500 51.28500 21.92200
H  27.76700 51.77900 20.72300
H  23.94000 49.15400 22.26600
H  24.72400 49.16000 20.77300
H  22.41100 50.49200 21.26000
H  23.16300 50.29000 19.63900
H  23.53700 51.68800 20.64100
H  21.02400 51.91800 24.92900
H  21.88300 53.42300 24.58000
H  20.93800 53.12300 26.14100
H  22.90500 50.95000 30.36800
H  23.73200 54.72700 32.55800
H  24.09200 53.28300 33.53000
H  22.46800 53.98700 33.52300

