158

Mg 6.66400 53.53800 39.59800
C  6.46100 49.81600 39.50600
C  10.00900 53.12500 38.85300
C  6.67300 56.71300 39.33100
C  3.22000 53.42500 40.09100
N  8.07600 51.70100 39.21000
C  7.78700 50.32900 39.35800
C  9.08400 49.48700 39.14000
C  10.21800 50.52400 39.32500
C  9.42400 51.86700 39.12300
C  10.94400 50.51900 40.69700
C  9.16800 48.80500 37.72700
C  8.92500 49.75600 36.52300
H  7.65300 49.69200 35.73500
N  8.11600 54.81900 39.03900
C  9.44500 54.44800 38.70200
C  10.08800 55.60700 38.38900
C  9.16800 56.75900 38.59500
C  7.94900 56.17700 39.06900
C  11.52400 55.66400 37.82200
C  9.53400 58.22500 38.34000
O  10.64700 58.50800 37.91300
C  8.59400 59.39200 38.61200
N  5.15500 54.86200 39.51300
C  5.44800 56.15400 39.61600
C  4.16600 57.04600 39.86800
C  3.11400 55.91500 40.19900
C  3.88400 54.63900 39.96800
C  4.30600 58.12600 41.00700
C  1.72900 56.01800 39.56700
C  0.57200 55.96500 40.54500
N  5.06200 51.93300 39.57600
C  3.73700 52.14800 39.90100
C  3.04500 50.85800 40.07300
C  4.11300 49.93100 39.95100
C  5.28300 50.62800 39.63700
C  1.57400 50.65200 40.44400
C  4.39200 48.58000 40.02700
O  3.64600 47.60100 40.13200
C  5.86900 48.42300 39.72400
C  6.00900 47.60900 38.57200
O  5.77500 47.93000 37.41800
O  6.46700 46.30800 38.91000
C  6.17100 45.13900 37.97600
H  11.08700 52.98700 38.74500
H  6.70600 57.80200 39.24600
H  2.16900 53.38000 40.38500
H  9.14200 48.65900 39.84600
H  10.98600 50.53300 38.55200
H  11.98900 50.39900 40.41000
H  10.83300 49.68300 41.38800
H  10.91400 51.40200 41.33500
H  8.35400 48.08100 37.71900
H  10.11800 48.27100 37.70300
H  9.78300 49.65900 35.85700
H  9.06100 50.76700 36.90600
H  12.24100 55.79100 38.63300
H  11.55500 56.48500 37.10600
H  11.89700 54.78600 37.29400
H  9.08200 60.35900 38.73200
H  8.25300 59.07000 39.59600
H  7.72000 59.35200 37.96200
H  4.05000 57.54400 38.90500
H  3.03700 55.89700 41.28600
H  4.40500 59.16400 40.68900
H  5.21900 57.76200 41.47800
H  3.51000 57.94900 41.73000
H  1.61400 55.18800 38.87000
H  1.69700 56.98200 39.05800
H  -0.38300 55.87600 40.02600
H  0.52100 56.91100 41.08500
H  0.56600 54.96100 40.97000
H  1.51000 49.59300 40.69000
H  0.82600 51.00800 39.73600
H  1.46300 51.25900 41.34300
H  6.24100 47.88200 40.59400
H  7.11000 44.76800 37.56500
H  5.34700 45.41200 37.31800
H  5.70600 44.34900 38.56600
Mg 9.74900 47.30700 27.00300
C  7.99500 47.23300 29.89200
C  12.48000 48.46900 28.50100
C  11.27700 47.31000 24.02500
C  6.56500 46.51100 25.27500
N  10.16300 47.95500 28.96300
C  9.35600 47.62600 30.01900
C  10.10700 48.00800 31.37500
C  11.41100 48.66700 30.76800
C  11.35900 48.25000 29.33800
C  11.40000 50.22100 30.85800
C  10.34600 46.67400 32.20900
C  10.08600 46.73000 33.65500
H  10.45300 45.58800 34.57000
N  11.61100 47.80700 26.36200
C  12.61500 48.22000 27.15300
C  13.80900 48.31500 26.43800
C  13.50600 48.04200 25.08300
C  12.01600 47.74800 25.10400
C  15.04600 48.98700 26.92800
C  14.38600 47.95200 23.85100
O  13.90800 47.69100 22.79200
C  15.91400 48.10900 23.92500
N  8.92600 47.08700 24.89300
C  9.86200 46.96900 23.94700
C  9.20100 46.68700 22.60600
C  7.75200 46.20000 23.03700
C  7.75100 46.66300 24.48000
C  9.25700 47.86900 21.60700
C  7.64900 44.60600 22.93900
C  8.72900 43.80400 23.68000
N  7.75400 46.89700 27.40900
C  6.54800 46.65900 26.66400
C  5.39600 46.47700 27.56000
C  5.98600 46.62000 28.79600
C  7.35700 46.96000 28.66300
C  3.95200 46.27500 27.17900
C  5.60700 46.71700 30.16800
O  4.53200 46.69100 30.74700
C  6.94400 47.06700 30.92700
C  7.08800 45.91600 31.83700
O  7.52800 44.78500 31.56300
O  6.71600 46.36800 33.05800
C  6.57800 45.31400 34.05500
H  13.37600 48.76000 29.05400
H  11.74700 47.27700 23.04000
H  5.62400 46.36500 24.74100
H  9.56600 48.68700 32.03500
H  12.33300 48.22200 31.14200
H  12.10500 50.53500 31.62700
H  10.39700 50.62100 31.01000
H  11.73900 50.53300 29.87000
H  11.41300 46.45100 32.20000
H  9.86500 45.83800 31.70100
H  9.04800 47.01500 33.82500
H  10.59000 47.65000 33.95200
H  14.88500 49.44000 27.90600
H  15.30500 49.82900 26.28600
H  15.96200 48.39700 26.97100
H  16.28200 47.90300 22.91900
H  16.16000 47.38200 24.69900
H  16.22000 49.13600 24.12200
H  9.70200 45.84100 22.13600
H  6.97400 46.45100 22.31600
H  9.88400 48.69500 21.94400
H  8.29100 48.30300 21.34700
H  9.68800 47.56600 20.65300
H  7.90200 44.45200 21.89000
H  6.65000 44.28800 23.23600
H  8.60900 44.31300 24.63700
H  9.70900 43.96900 23.23100
H  8.45400 42.75100 23.73500
H  3.80500 46.19300 26.10200
H  3.35700 47.07800 27.61300
H  3.64700 45.35000 27.66800
H  6.88600 48.00000 31.48700
H  6.30800 45.77000 35.00800
H  7.58600 45.01200 34.33800
H  5.86000 44.54600 33.76800

