158

Mg 9.08900 3.98000 27.68800
C  10.40100 2.25600 30.47500
C  7.27200 5.79000 29.87800
C  7.41600 5.29000 25.09800
C  10.55000 1.69800 25.58800
N  9.01900 4.12100 29.94100
C  9.64200 3.33100 30.88600
C  9.42300 3.82700 32.29100
C  8.21900 4.80500 32.05100
C  8.07900 4.88900 30.50800
C  6.83000 4.51300 32.71700
C  10.68800 4.55100 32.83100
C  11.08200 4.06800 34.28000
H  10.93600 5.09200 35.46500
N  7.50500 5.36500 27.52700
C  6.89400 6.03200 28.52500
C  5.98300 7.06600 28.01000
C  6.14400 6.93300 26.57800
C  7.03600 5.80200 26.33700
C  5.03600 7.86100 28.89600
C  5.46300 7.80700 25.50800
O  5.67500 7.59000 24.31000
C  4.46500 8.90200 25.92400
N  8.82700 3.43100 25.51200
C  8.23400 4.24100 24.67700
C  8.58500 3.94700 23.24500
C  9.68700 2.76600 23.36500
C  9.69800 2.66200 24.91800
C  7.43400 3.74000 22.32700
C  11.08900 3.10800 22.77200
C  11.78500 1.94500 21.98300
N  10.22800 2.28600 27.93000
C  10.80300 1.47400 26.97000
C  11.54600 0.39900 27.69400
C  11.41600 0.66600 29.07300
C  10.58200 1.75800 29.14200
C  12.29100 -0.68500 27.12700
C  11.74000 0.27800 30.38100
O  12.30300 -0.68200 30.84300
C  11.07600 1.31500 31.43200
C  10.22000 0.58400 32.42300
O  9.10700 0.15000 32.15100
O  10.86900 0.55700 33.66000
C  10.11800 -0.16400 34.74800
H  6.75700 6.47500 30.55500
H  7.01300 5.74700 24.19200
H  11.11400 1.00800 24.95700
H  9.02000 3.07900 32.97300
H  8.60600 5.74700 32.43900
H  6.75200 4.76300 33.77500
H  6.70600 3.44000 32.57100
H  5.99000 5.00400 32.22400
H  10.55800 5.62700 32.94700
H  11.57000 4.43400 32.20100
H  12.10400 3.70300 34.17600
H  10.50700 3.20400 34.61100
H  4.04500 7.81700 28.44400
H  5.38300 8.88400 28.75400
H  5.08800 7.55400 29.94000
H  3.45400 8.49800 25.98300
H  4.40600 9.56100 25.05800
H  4.83100 9.52000 26.74400
H  9.05600 4.78700 22.73400
H  9.22400 1.85100 22.99300
H  8.04000 3.42100 21.47800
H  6.85900 4.64800 22.14500
H  6.72500 2.97500 22.64300
H  11.58800 3.53600 23.64200
H  10.97900 3.94900 22.08700
H  11.06900 1.14400 22.16900
H  12.80000 1.68400 22.28000
H  11.88600 2.32900 20.96800
H  12.83000 -0.32100 26.25300
H  11.65200 -1.46800 26.72000
H  13.17900 -1.06400 27.63400
H  11.92500 1.83800 31.87100
H  9.36000 -0.85400 34.37900
H  9.55600 0.57000 35.32600
H  10.93600 -0.62700 35.30000
Mg 16.73400 51.60200 26.57600
C  18.63900 50.25000 29.20900
C  14.12700 52.12100 28.94600
C  14.85400 52.89500 24.18300
C  19.02100 50.50800 24.27800
N  16.55700 51.24800 28.83300
C  17.45900 50.81500 29.71700
C  17.02000 51.00400 31.17200
C  15.43200 51.19300 30.92900
C  15.39300 51.59800 29.44000
C  14.45600 50.03900 31.20300
C  17.75700 52.24100 31.73100
C  17.47800 52.74100 33.15100
H  16.76900 51.69800 34.06300
N  14.84800 52.50000 26.59200
C  13.85200 52.51100 27.58100
C  12.69300 53.33500 27.17000
C  12.95900 53.75800 25.82000
C  14.27600 53.06000 25.47100
C  11.56200 53.71100 28.05400
C  12.28900 54.75900 24.83700
O  12.72600 55.00400 23.73200
C  11.00500 55.44300 25.14800
N  16.80500 51.44700 24.45900
C  15.98100 52.21500 23.71300
C  16.46000 52.17000 22.21900
C  17.80900 51.43900 22.25800
C  17.89100 51.11700 23.74100
C  15.48500 51.60100 21.06500
C  18.99200 52.11300 21.54000
C  19.75300 53.21700 22.26400
N  18.46400 50.43800 26.63600
C  19.34900 50.07200 25.55700
C  20.48000 49.46100 26.20400
C  20.22300 49.40800 27.60800
C  19.01800 50.12100 27.83100
C  21.59100 48.86600 25.37000
C  20.71900 48.90000 28.90000
O  21.65300 48.19000 29.18300
C  19.82300 49.55900 29.96900
C  19.29500 48.53900 30.93000
O  18.42100 47.71100 30.55600
O  19.80400 48.76100 32.17900
C  19.14800 48.05100 33.26500
H  13.30100 52.31700 29.63300
H  14.30800 53.26400 23.31300
H  19.83600 50.29600 23.58300
H  17.14700 50.14300 31.82900
H  15.09000 52.02000 31.55000
H  13.52700 50.42000 31.62800
H  14.86900 49.29600 31.88400
H  14.17400 49.40500 30.36300
H  17.37600 53.03100 31.08400
H  18.80000 52.05900 31.47100
H  16.84900 53.62800 33.07900
H  18.41500 53.05200 33.61300
H  11.62300 53.41200 29.10100
H  10.67500 53.31400 27.56100
H  11.35200 54.78000 28.09600
H  10.44900 55.66400 24.23700
H  11.03400 56.33800 25.76900
H  10.45700 54.74400 25.78000
H  16.63700 53.19700 21.89900
H  17.75700 50.46400 21.77400
H  14.67400 51.16200 21.64600
H  15.85500 50.81400 20.40800
H  14.99700 52.38700 20.48800
H  18.55800 52.41900 20.58800
H  19.61100 51.22400 21.41800
H  20.67300 52.67400 22.47800
H  19.20800 53.44000 23.18100
H  19.96200 54.11500 21.68200
H  21.86400 49.31100 24.41200
H  21.20200 47.86800 25.16800
H  22.48900 48.84000 25.98700
H  20.45400 50.26000 30.51500
H  19.25100 46.97100 33.15900
H  18.07700 48.16500 33.09300
H  19.46600 48.46900 34.22000

