158

Mg 24.04000 -4.50700 46.10900
C  26.51100 -2.23600 44.70400
C  21.71300 -3.04800 44.24100
C  22.31400 -7.28900 46.50800
C  26.87100 -6.01300 47.85000
N  24.13600 -2.83100 44.73200
C  25.19600 -2.07800 44.25800
C  24.62900 -0.98700 43.35400
C  23.09000 -0.95400 43.68400
C  22.92300 -2.35800 44.29900
C  22.65500 0.15900 44.64200
C  24.93900 -1.27600 41.87300
C  25.48600 -0.00600 41.12000
H  26.48500 -0.20800 40.00200
N  22.22700 -5.08100 45.46600
C  21.35600 -4.32200 44.67900
C  20.14700 -5.02700 44.56700
C  20.25900 -6.30100 45.24100
C  21.66600 -6.33200 45.74800
C  18.94100 -4.38900 43.84800
C  19.12400 -7.32400 45.32400
O  18.00900 -7.01900 44.93100
C  19.27400 -8.67800 45.92400
N  24.51200 -6.35600 47.03700
C  23.60800 -7.31600 47.12100
C  24.13500 -8.52200 47.93000
C  25.48100 -8.03900 48.53500
C  25.66400 -6.67700 47.83400
C  23.19200 -9.10500 49.02200
C  26.60700 -9.17500 48.29700
C  27.61400 -9.36500 49.48400
N  26.28700 -4.22500 46.30600
C  27.18700 -4.94100 47.04500
C  28.49700 -4.28200 46.90300
C  28.31000 -3.23700 45.99200
C  26.97900 -3.22100 45.62700
C  29.80400 -4.74600 47.49000
C  28.94100 -2.13800 45.29000
O  30.09200 -1.75500 45.29300
C  27.75900 -1.45500 44.39000
C  27.54200 -0.07500 44.90700
O  26.63200 0.22100 45.73800
O  28.35400 0.80700 44.19300
C  28.04800 2.22800 44.29700
H  20.87500 -2.42300 43.92300
H  21.75700 -8.21700 46.65800
H  27.54300 -6.43800 48.59800
H  24.96000 0.04100 43.49800
H  22.54600 -0.93100 42.74000
H  23.46100 0.77200 45.04600
H  22.08200 -0.33600 45.42600
H  21.90900 0.77700 44.14100
H  24.03400 -1.70400 41.44200
H  25.61000 -2.11500 41.68800
H  25.85400 0.81900 41.72900
H  24.61700 0.33100 40.55500
H  19.23100 -3.58400 43.17300
H  18.37300 -3.89000 44.63400
H  18.36000 -5.19400 43.39900
H  20.16000 -9.09600 45.44500
H  18.43900 -9.30300 45.61100
H  19.47500 -8.61000 46.99400
H  24.39800 -9.24100 47.15400
H  25.33400 -7.72600 49.56800
H  22.17100 -8.75400 48.87400
H  23.53200 -8.70400 49.97600
H  23.28000 -10.19100 49.04600
H  27.19200 -8.96700 47.40100
H  26.09300 -10.12400 48.14700
H  28.65400 -9.22300 49.19000
H  27.45200 -10.37300 49.86600
H  27.32100 -8.58900 50.19200
H  29.63500 -5.22700 48.45400
H  30.28300 -3.79300 47.71500
H  30.42000 -5.22700 46.73100
H  27.77800 -1.52100 43.30200
H  28.56800 2.56700 45.19300
H  26.98300 2.35500 44.49500
H  28.32400 2.80300 43.41300
Mg -5.23400 24.52600 25.68200
C  -4.09200 25.77700 28.70700
C  -7.35700 22.51300 27.40800
C  -6.50200 23.42300 22.68700
C  -3.21900 26.78200 23.95800
N  -5.57800 24.15800 27.83400
C  -5.16900 24.88200 28.82900
C  -5.85200 24.66300 30.16400
C  -6.71200 23.43400 29.76100
C  -6.58100 23.31400 28.26300
C  -6.55800 22.13100 30.50100
C  -6.58800 25.92000 30.77700
C  -6.37700 26.09400 32.37100
H  -5.71600 25.06300 33.24700
N  -6.68300 23.06300 25.15000
C  -7.44800 22.42600 26.01900
C  -8.30400 21.59700 25.33800
C  -8.12500 21.81900 23.91300
C  -7.10700 22.87600 23.84700
C  -9.36400 20.73100 26.00100
C  -8.78700 21.18000 22.73500
O  -8.69900 21.59500 21.58800
C  -9.74200 19.97700 22.94300
N  -4.96200 25.12600 23.61300
C  -5.42200 24.38700 22.57000
C  -5.02100 25.06900 21.19500
C  -4.05800 26.18000 21.65000
C  -4.14200 26.06600 23.19400
C  -4.27400 24.04000 20.28200
C  -4.46700 27.49700 21.00000
C  -3.31700 28.41200 20.63100
N  -3.89400 25.98000 26.19200
C  -3.13500 26.77400 25.38900
C  -2.31900 27.63500 26.24200
C  -2.64300 27.24300 27.55100
C  -3.59800 26.18900 27.46300
C  -1.40300 28.65600 25.76200
C  -2.46900 27.58100 29.00100
O  -1.82600 28.47600 29.46600
C  -3.40100 26.53400 29.81800
C  -2.53600 25.74900 30.77100
O  -2.00500 24.66400 30.50800
O  -2.36700 26.39700 31.98900
C  -1.42600 25.84300 32.95900
H  -8.00200 21.84200 27.97900
H  -6.90800 23.12100 21.71900
H  -2.51400 27.45600 23.46700
H  -5.02900 24.36700 30.81500
H  -7.75500 23.71600 29.90700
H  -7.16700 21.29200 30.16400
H  -6.64500 22.30600 31.57300
H  -5.53200 21.77300 30.42300
H  -7.65400 25.74300 30.62900
H  -6.21200 26.74600 30.17300
H  -7.38000 26.32000 32.73400
H  -5.70700 26.92300 32.60200
H  -9.13900 19.68500 25.79000
H  -10.35000 20.89600 25.56600
H  -9.49600 20.78600 27.08200
H  -9.25500 19.32000 23.66300
H  -9.96100 19.63400 21.93200
H  -10.62400 20.43600 23.39000
H  -5.99000 25.30100 20.75300
H  -3.05600 25.99800 21.26100
H  -3.48300 24.53000 19.71400
H  -4.99600 23.63300 19.57300
H  -3.89500 23.24500 20.92400
H  -5.08600 28.05400 21.70300
H  -4.96200 27.32100 20.04500
H  -3.10300 28.26500 19.57200
H  -2.37400 28.05100 21.04300
H  -3.44600 29.44700 20.94700
H  -0.65400 28.37800 25.02000
H  -0.89500 29.11900 26.60800
H  -1.98200 29.39100 25.20300
H  -4.11700 27.18600 30.31900
H  -1.91600 24.99200 33.43200
H  -1.05000 26.48100 33.75800
H  -0.63600 25.35500 32.38800

