158

Mg -1.98400 17.72400 27.74600
C  -3.04300 15.74500 30.39200
C  -3.04300 20.49700 29.44900
C  -1.81100 19.46400 24.81800
C  -1.82400 14.75600 25.76700
N  -2.79800 18.13200 29.69300
C  -3.18000 17.11700 30.65000
C  -3.66200 17.88400 31.90900
C  -3.76000 19.42300 31.56400
C  -3.16700 19.35600 30.19900
C  -5.14600 19.94300 31.76200
C  -2.71300 17.71100 33.11400
C  -3.34800 17.65300 34.50500
H  -2.44400 17.29900 35.63700
N  -2.11400 19.72400 27.32500
C  -2.56200 20.70400 28.16100
C  -2.53700 21.96200 27.47400
C  -2.02300 21.72300 26.17000
C  -1.98900 20.23300 26.04600
C  -2.91300 23.33100 28.16600
C  -1.61600 22.63900 24.99800
O  -1.17100 22.21200 23.91900
C  -1.74800 24.08000 25.14000
N  -1.84800 17.15800 25.63900
C  -1.68500 18.10500 24.64300
C  -1.48100 17.46300 23.21500
C  -1.36700 15.97900 23.61600
C  -1.63900 15.98700 25.14100
C  -2.62100 17.76200 22.23700
C  -0.09300 15.25800 23.23500
C  1.15100 15.77400 23.94100
N  -2.24400 15.58800 28.01800
C  -2.09900 14.52700 27.13000
C  -2.32200 13.30500 27.79600
C  -2.66800 13.73400 29.08800
C  -2.50900 15.11800 29.22400
C  -2.30100 12.01800 27.18600
C  -3.07300 13.21300 30.40600
O  -3.23800 12.10500 30.84600
C  -3.31600 14.52500 31.26700
C  -2.55900 14.35100 32.54300
O  -1.35900 14.57100 32.77600
O  -3.51600 14.02100 33.50600
C  -3.00800 13.84400 34.88600
H  -3.47000 21.39600 29.89800
H  -1.78200 20.04200 23.89200
H  -1.79700 13.95500 25.02600
H  -4.59300 17.44300 32.26400
H  -3.19600 20.08600 32.22100
H  -5.52900 20.00100 30.74300
H  -5.07200 20.92900 32.22000
H  -5.81400 19.36100 32.39700
H  -2.01800 18.54900 33.16700
H  -2.00800 16.90900 32.90000
H  -4.05000 16.82000 34.53200
H  -3.82300 18.60100 34.75800
H  -2.25700 24.13800 27.83700
H  -2.76400 23.19400 29.23700
H  -3.91500 23.58700 27.82000
H  -2.78600 24.36300 25.31300
H  -1.45300 24.54800 24.20000
H  -1.14600 24.54100 25.92300
H  -0.54800 17.77600 22.74600
H  -2.15700 15.42600 23.10700
H  -2.97500 18.71300 22.63500
H  -3.47300 17.08200 22.19900
H  -2.24000 17.92600 21.22900
H  0.23400 15.30900 22.19700
H  -0.28800 14.20200 23.42300
H  1.05300 16.76200 24.39200
H  1.95800 15.94700 23.22900
H  1.41500 14.97600 24.63500
H  -1.94700 12.16000 26.16500
H  -3.36000 11.78000 27.28500
H  -1.67100 11.39600 27.82300
H  -4.38100 14.47500 31.49400
H  -2.31300 14.67500 35.00800
H  -2.57400 12.85700 35.04200
H  -3.77100 14.04000 35.64000
Mg 35.40900 48.68400 24.67300
C  35.12800 47.04000 27.85600
C  34.07800 51.50400 26.05800
C  35.10300 49.79500 21.56000
C  36.70600 45.65400 23.46600
N  34.68600 49.19200 26.77300
C  34.72600 48.37600 27.87800
C  34.41700 49.14000 29.10200
C  34.04700 50.64000 28.53000
C  34.23900 50.44500 26.97800
C  32.63900 51.08500 28.75600
C  35.61200 49.09100 30.06400
C  35.27700 49.34200 31.59700
H  33.82600 49.64400 32.18600
N  34.70100 50.43100 23.96900
C  34.24900 51.52000 24.65700
C  33.81200 52.53200 23.75700
C  34.00800 52.00500 22.41400
C  34.65400 50.68500 22.61600
C  33.25200 53.79600 24.29300
C  33.45300 52.62900 21.14800
O  33.58400 52.10800 20.01300
C  32.55900 53.80800 21.14000
N  35.78100 47.76100 22.80800
C  35.63300 48.49900 21.66200
C  36.40000 47.84200 20.51700
C  37.17800 46.62900 21.13400
C  36.55900 46.64700 22.52500
C  35.43600 47.51000 19.36600
C  38.71500 46.81200 21.25700
C  39.51100 45.50800 21.12000
N  35.90200 46.73200 25.40700
C  36.38200 45.61900 24.80000
C  36.51400 44.51300 25.69500
C  35.96400 44.97400 26.84600
C  35.71100 46.38300 26.69100
C  36.92000 43.13300 25.30500
C  35.62700 44.63200 28.21300
O  35.71900 43.59500 28.89500
C  35.13700 45.91800 28.94300
C  33.86300 45.78600 29.82000
O  32.74100 46.23600 29.65500
O  34.25100 45.12400 30.98000
C  33.22000 44.86100 32.00100
H  33.60400 52.35700 26.54800
H  35.18800 50.26000 20.57600
H  37.25900 44.90000 22.90300
H  33.50200 48.87100 29.63000
H  34.80200 51.36100 28.84400
H  31.99800 50.23700 28.99900
H  32.16100 51.58600 27.91500
H  32.63900 51.62700 29.70200
H  36.25000 49.93100 29.78900
H  36.21600 48.18500 30.00400
H  35.94000 50.14300 31.92400
H  35.61900 48.51000 32.21200
H  33.28600 54.71200 23.70500
H  33.37500 54.03500 25.35000
H  32.23100 53.41500 24.25300
H  31.78500 53.64100 21.89000
H  32.07200 53.89800 20.16900
H  33.20500 54.66000 21.35200
H  37.07500 48.66300 20.27600
H  36.87000 45.70300 20.64800
H  34.75300 46.71600 19.66600
H  36.08400 47.25200 18.52800
H  34.81900 48.37700 19.13000
H  38.96500 47.11600 22.27400
H  39.12600 47.61000 20.63900
H  40.08200 45.38100 22.04000
H  40.08800 45.47800 20.19500
H  38.89200 44.61300 21.06600
H  36.85800 42.48400 26.17900
H  37.92200 43.14700 24.87600
H  36.28200 42.72600 24.52100
H  35.85900 46.18500 29.71400
H  32.72700 43.97300 31.60600
H  32.46600 45.64500 32.06500
H  33.60300 44.68400 33.00600

