158

Mg 26.16500 0.90500 29.36400
C  27.87600 0.55200 32.31300
C  23.16600 1.29200 31.18600
C  24.39600 0.94300 26.48500
C  29.14200 -0.03500 27.52900
N  25.62100 0.75900 31.57300
C  26.49500 0.73300 32.54300
C  25.78300 1.17100 33.88000
C  24.23900 1.07300 33.48100
C  24.32100 1.06200 31.92700
C  23.38200 -0.14100 34.05700
C  26.15200 2.56400 34.38000
C  27.03000 2.64400 35.64600
H  26.54600 3.63900 36.69300
N  24.06200 1.14300 28.84300
C  22.99600 1.27400 29.77700
C  21.74200 1.41900 29.03100
C  22.12100 1.42700 27.62500
C  23.54900 1.10900 27.58300
C  20.36800 1.50800 29.70500
C  21.21900 1.71700 26.43000
O  21.66000 1.67400 25.26200
C  19.79700 2.11800 26.52500
N  26.63400 0.45000 27.32700
C  25.74600 0.59800 26.31900
C  26.46900 0.23200 24.97800
C  27.88600 -0.25000 25.36300
C  27.90700 0.06700 26.83100
C  25.62000 -0.66400 24.02400
C  28.97900 0.30600 24.52200
C  29.27000 1.78500 24.79200
N  28.14500 0.43300 29.73700
C  29.25200 0.13100 28.97900
C  30.45500 0.14700 29.75700
C  29.93100 0.27900 31.07900
C  28.57000 0.47300 30.98100
C  31.81400 -0.30100 29.35100
C  30.25300 0.36200 32.44500
O  31.31300 0.16700 33.02400
C  28.97500 0.59600 33.30300
C  28.75600 -0.46800 34.39000
O  28.55900 -1.64500 34.21800
O  29.01200 0.13700 35.58400
C  28.85700 -0.73900 36.74500
H  22.21600 1.58100 31.64100
H  23.87600 0.99900 25.52700
H  30.07200 -0.00300 26.95800
H  26.09600 0.56500 34.72900
H  23.71100 2.00500 33.68400
H  22.75000 -0.60600 33.30100
H  22.73600 0.27400 34.83000
H  23.89100 -0.94000 34.59600
H  25.21900 3.06700 34.63700
H  26.70100 3.15000 33.64400
H  28.05900 2.89500 35.38900
H  27.02700 1.67300 36.14000
H  19.92800 2.48800 29.52300
H  20.49400 1.43000 30.78500
H  19.64500 0.77200 29.35200
H  19.82300 3.02400 27.13100
H  19.26700 1.27600 26.97100
H  19.44000 2.46000 25.55400
H  26.62300 1.15400 24.41900
H  27.85800 -1.33900 25.40400
H  26.11900 -1.58200 23.71300
H  25.38700 -0.08000 23.13400
H  24.70900 -1.01400 24.51000
H  28.76200 0.15700 23.46500
H  29.86300 -0.28700 24.75800
H  28.36500 2.29100 25.13000
H  29.70500 2.32900 23.95300
H  30.15200 1.78500 25.43200
H  31.88200 -0.45500 28.27400
H  31.89000 -1.27500 29.83300
H  32.51600 0.45800 29.69500
H  28.99900 1.62400 33.66600
H  27.84900 -1.15300 36.73100
H  29.20000 -0.28600 37.67600
H  29.65800 -1.47600 36.67900
Mg 36.01700 48.82400 25.85300
C  36.19600 47.06300 28.91600
C  35.07100 51.52600 27.58700
C  35.49000 50.35000 22.85000
C  36.64600 45.80800 24.15900
N  35.51400 49.17700 28.01700
C  35.87300 48.41200 29.09500
C  35.60000 49.10900 30.40400
C  35.02000 50.49100 29.96300
C  35.22400 50.43100 28.41600
C  33.50200 50.57600 30.34800
C  36.82500 49.40800 31.26400
C  36.65900 48.87200 32.73700
H  36.44500 49.93500 33.85000
N  35.52500 50.69100 25.27900
C  35.16900 51.68600 26.13400
C  35.14400 52.96200 25.39300
C  35.41900 52.60200 24.07600
C  35.38000 51.12300 24.04900
C  34.84800 54.29700 26.04000
C  35.48200 53.56300 22.90200
O  35.68000 53.19500 21.75700
C  35.27300 55.09700 23.16400
N  36.04500 48.10900 23.84300
C  35.75600 48.97300 22.75400
C  35.62000 48.22000 21.44500
C  36.47000 46.86500 21.81800
C  36.35400 46.88900 23.33700
C  34.18100 47.94400 20.92700
C  37.92800 46.90400 21.30400
C  38.23600 46.29300 19.93100
N  36.32600 46.82100 26.36200
C  36.56300 45.71700 25.58700
C  36.60800 44.50500 26.43000
C  36.48600 44.98000 27.73900
C  36.36100 46.40000 27.71100
C  36.84600 43.11400 25.96000
C  36.54800 44.56800 29.12200
O  36.70200 43.49200 29.60400
C  36.34400 45.91400 29.93200
C  35.10800 45.71700 30.78000
O  34.01400 45.29400 30.42200
O  35.51500 45.78700 32.09300
C  34.44700 45.71100 33.11800
H  34.84000 52.46500 28.09400
H  35.51800 50.81500 21.86300
H  36.93900 44.90600 23.61700
H  34.94000 48.49800 31.02000
H  35.48700 51.41300 30.31000
H  33.35700 51.42000 31.02300
H  33.16300 49.71700 30.92600
H  32.90100 50.60100 29.43900
H  37.17800 50.43900 31.29700
H  37.67000 48.87300 30.83000
H  37.49800 48.18600 32.85700
H  35.84200 48.18600 32.96200
H  35.74500 54.88200 25.83500
H  34.78700 54.17800 27.12200
H  33.98500 54.90900 25.77900
H  34.24300 55.29200 23.46200
H  35.45800 55.54000 22.18600
H  36.08800 55.41200 23.81600
H  36.17100 48.72100 20.64800
H  35.85700 46.05500 21.42200
H  33.45200 48.49700 21.51800
H  33.92200 46.88800 21.00200
H  34.05700 48.32500 19.91300
H  38.44700 46.31700 22.06100
H  38.34400 47.91200 21.31900
H  38.60800 47.04000 19.23100
H  37.29600 45.95900 19.49200
H  38.89600 45.43100 20.03300
H  36.14100 42.75700 25.20900
H  36.72600 42.52600 26.87000
H  37.88500 42.87200 25.73600
H  37.23800 46.12900 30.51800
H  34.56800 46.55900 33.79200
H  34.42800 44.87700 33.82000
H  33.45800 45.80500 32.67000

