158

Mg 47.92200 34.19400 26.80600
C  46.14800 32.93000 29.60900
C  48.68600 37.00000 28.58200
C  48.91000 35.76600 23.92600
C  46.89100 31.50700 24.98300
N  47.49800 34.76100 28.85200
C  46.85000 34.08600 29.88200
C  46.97600 34.78400 31.18900
C  47.36700 36.22100 30.68300
C  47.94700 36.02700 29.26400
C  46.21600 37.27800 30.77800
C  48.02700 34.16800 32.19500
C  47.69700 34.36400 33.62400
H  46.71900 35.45300 34.08900
N  48.65800 36.13800 26.36900
C  48.99400 37.05400 27.27200
C  49.60100 38.21000 26.59900
C  49.60900 37.92900 25.17800
C  48.93900 36.57400 25.09100
C  50.09500 39.38400 27.31600
C  50.22500 38.71100 24.11100
O  50.24000 38.25200 22.95800
C  51.01500 39.98700 24.32500
N  47.80800 33.71200 24.73800
C  48.37900 34.46700 23.74600
C  48.40700 33.73000 22.45900
C  47.65000 32.37900 22.64800
C  47.47900 32.49500 24.19000
C  47.90500 34.52500 21.25200
C  48.49100 31.12300 22.30100
C  49.60600 30.67100 23.22500
N  46.84100 32.45000 27.21400
C  46.50500 31.42100 26.35700
C  45.80000 30.40900 27.08800
C  45.53300 31.02600 28.35500
C  46.23200 32.23900 28.41000
C  45.23800 29.16500 26.63200
C  44.78000 30.82600 29.53700
O  44.06600 29.84800 29.85500
C  45.03500 32.13700 30.40000
C  45.32300 31.74700 31.78700
O  46.33900 31.19200 32.15300
O  44.22600 32.19800 32.59600
C  44.38000 31.85300 34.03100
H  48.87900 37.85700 29.23100
H  49.56400 36.10400 23.11900
H  46.67100 30.58300 24.44400
H  45.96000 34.72600 31.57900
H  48.08900 36.58000 31.41700
H  45.28900 36.92000 31.22500
H  45.90000 37.48400 29.75500
H  46.50600 38.23100 31.22000
H  49.06500 34.47000 32.05000
H  48.12300 33.08300 32.17100
H  48.63200 34.60800 34.12900
H  47.22000 33.47300 34.03100
H  49.68800 40.27900 26.84700
H  51.18300 39.33600 27.26500
H  49.89000 39.43500 28.38600
H  51.29700 40.46500 23.38700
H  51.90300 39.70600 24.89200
H  50.53600 40.68500 25.01200
H  49.45900 33.51400 22.27100
H  46.77000 32.54900 22.02900
H  46.95200 34.11500 20.91900
H  48.75800 34.64700 20.58400
H  47.65100 35.53300 21.58000
H  48.90800 31.29800 21.31000
H  47.73500 30.35500 22.46300
H  49.92200 31.46600 23.90100
H  50.53800 30.39200 22.73300
H  49.30200 29.79100 23.79100
H  45.46100 28.44000 27.41500
H  45.64800 28.87200 25.66500
H  44.15800 29.26900 26.52600
H  44.08400 32.66900 30.41600
H  43.72400 31.01000 34.25000
H  44.01700 32.70900 34.60000
H  45.37100 31.59900 34.40700
Mg -2.64900 35.59900 26.69700
C  -4.16700 33.75200 29.21800
C  -1.17600 37.52400 29.18900
C  -1.35800 37.52900 24.31700
C  -4.46900 33.90300 24.27700
N  -2.77900 35.66600 28.99700
C  -3.40100 34.77900 29.81100
C  -3.00500 34.98500 31.35200
C  -2.39100 36.41200 31.34400
C  -2.05200 36.53700 29.74300
C  -3.14700 37.64400 31.74600
C  -2.17400 33.84200 31.87300
C  -2.82600 32.91500 32.85400
H  -2.06200 32.62800 34.22300
N  -1.33400 37.20000 26.75800
C  -0.81700 37.82900 27.87300
C  0.24900 38.77500 27.44400
C  0.11300 38.87700 26.00900
C  -0.92900 37.81400 25.60100
C  1.24400 39.40500 28.42700
C  0.79800 39.79900 25.02200
O  0.70700 39.72500 23.81000
C  1.89400 40.81300 25.53800
N  -2.89000 35.73000 24.54600
C  -2.31200 36.62700 23.78400
C  -2.58800 36.35400 22.30600
C  -3.36600 35.03900 22.33700
C  -3.60300 34.86000 23.79100
C  -3.26000 37.50100 21.55400
C  -2.64800 33.85300 21.63100
C  -1.45300 33.23400 22.32800
N  -3.98700 34.11200 26.70500
C  -4.69900 33.53600 25.62800
C  -5.52800 32.47200 26.18100
C  -5.40400 32.50600 27.58500
C  -4.42300 33.48000 27.87400
C  -6.43000 31.56900 25.40900
C  -5.77000 31.83300 28.79600
O  -6.53000 30.97400 29.01200
C  -4.87600 32.61000 29.92400
C  -5.81300 33.08600 30.99400
O  -6.61900 34.01700 30.91000
O  -5.71600 32.25400 32.08000
C  -6.79300 32.30200 33.11100
H  -0.65200 38.08800 29.96300
H  -0.85100 38.04900 23.50200
H  -4.94500 33.34200 23.47000
H  -3.90300 35.15400 31.94600
H  -1.49700 36.28700 31.95400
H  -4.07700 37.33900 32.22500
H  -3.27600 38.44200 31.01400
H  -2.62400 37.95800 32.65000
H  -1.26200 34.19700 32.35300
H  -1.82800 33.18900 31.07100
H  -3.09800 31.95700 32.40900
H  -3.65100 33.55200 33.17400
H  1.28000 38.84700 29.36300
H  1.03800 40.45300 28.64400
H  2.21600 39.37400 27.93500
H  2.78100 40.31100 25.92400
H  1.39500 41.43200 26.28400
H  2.30900 41.35400 24.68700
H  -1.56500 36.30200 21.93400
H  -4.31400 35.20300 21.82500
H  -3.71600 38.02200 22.39600
H  -3.94600 37.23100 20.75100
H  -2.50900 38.15700 21.11500
H  -2.33000 34.21400 20.65300
H  -3.37900 33.04500 21.63700
H  -1.17300 33.69600 23.27400
H  -0.52600 33.31300 21.76000
H  -1.63900 32.17300 22.49500
H  -5.87800 30.99600 24.66400
H  -7.21000 32.11500 24.87700
H  -6.83600 30.86100 26.13100
H  -4.11700 31.96500 30.36600
H  -7.77900 32.70400 32.87700
H  -6.40400 32.75900 34.02100
H  -6.91900 31.23300 33.28200

