158

Mg 53.97300 24.69500 44.43100
C  51.24200 26.81800 44.17900
C  51.96400 22.19000 43.39600
C  56.77600 22.96800 43.99200
C  55.91800 27.43300 45.37300
N  51.85100 24.53600 43.59600
C  50.95700 25.52400 43.73900
C  49.57200 24.98400 43.50700
C  49.74300 23.46300 43.72800
C  51.27500 23.37100 43.49000
C  49.18300 23.01600 45.09600
C  49.07700 25.50900 42.17500
C  48.52800 24.48600 41.14500
H  48.15200 24.82800 39.70300
N  54.32300 22.82300 43.70500
C  53.36400 21.87800 43.44200
C  54.06400 20.55900 43.05900
C  55.47800 20.83700 43.35300
C  55.59500 22.27700 43.68600
C  53.38800 19.33300 42.62500
C  56.51600 19.73700 43.36300
O  56.19800 18.65200 42.93300
C  57.87800 19.85400 43.86000
N  56.04600 25.26100 44.26700
C  57.04300 24.33400 44.22500
C  58.45400 24.88700 44.50400
C  58.12900 26.36700 44.75300
C  56.56500 26.40200 44.71800
C  59.19800 24.15600 45.63500
C  58.70700 27.38500 43.80500
C  59.45500 28.54900 44.41600
N  53.71700 26.76000 44.80000
C  54.57400 27.71100 45.32100
C  53.78400 28.83900 45.66500
C  52.53600 28.52800 45.16000
C  52.50300 27.28700 44.63500
C  54.26400 30.09000 46.34000
C  51.28300 29.13000 44.90900
O  50.98500 30.34100 45.11800
C  50.30000 28.06100 44.23300
C  49.68600 28.53800 42.88200
O  50.39300 28.85600 41.92500
O  48.27800 28.69200 42.88300
C  47.77600 29.14800 41.61900
H  51.34700 21.35800 43.05100
H  57.69100 22.38900 43.85400
H  56.55900 28.18700 45.83600
H  49.02300 25.44100 44.33000
H  49.18100 22.84500 43.02700
H  48.88500 23.82000 45.76900
H  50.00600 22.43500 45.51200
H  48.28700 22.42500 44.90600
H  49.81000 26.08500 41.61000
H  48.21400 26.13000 42.41500
H  47.72100 23.92900 41.62100
H  49.33800 23.78900 40.93100
H  53.77900 19.02200 41.65700
H  52.32200 19.54300 42.53500
H  53.48500 18.50100 43.32200
H  58.44400 20.42300 43.12300
H  58.37100 18.88500 43.94400
H  57.92200 20.28300 44.86100
H  59.13100 24.76600 43.65800
H  58.36200 26.69400 45.76600
H  60.20500 24.01000 45.24300
H  58.75800 23.16800 45.76800
H  59.17800 24.65900 46.60100
H  57.97800 27.78100 43.09800
H  59.46300 26.95500 43.14700
H  59.46200 28.44900 45.50200
H  58.98600 29.47100 44.07300
H  60.43400 28.61000 43.93900
H  53.99000 30.87200 45.63100
H  55.35200 30.10700 46.40500
H  53.77100 30.26100 47.29600
H  49.46500 27.91200 44.91700
H  47.98900 28.41300 40.84300
H  48.15000 30.14800 41.39900
H  46.71500 29.39400 41.66000
Mg -0.85500 33.66500 27.25800
C  -2.76200 32.14600 29.86800
C  0.60500 35.65700 29.64200
C  0.63600 35.42300 24.69700
C  -2.86700 31.97300 24.99600
N  -1.29700 33.99400 29.53800
C  -1.89300 33.16300 30.38900
C  -1.53100 33.54400 31.86100
C  -0.76400 34.87400 31.71500
C  -0.42800 34.91600 30.19000
C  -1.47200 36.19600 32.11300
C  -0.82800 32.41700 32.62800
C  -0.38400 32.69700 34.08800
H  -1.25100 31.97100 35.21100
N  0.49800 35.24300 27.22400
C  1.06100 35.89100 28.31400
C  2.07400 36.88900 27.86900
C  1.98400 36.87100 26.43400
C  1.01600 35.79400 26.02100
C  2.89300 37.75500 28.74100
C  2.61100 37.81200 25.43300
O  2.37700 37.72100 24.21700
C  3.52200 38.96800 25.88100
N  -1.15900 33.70800 25.15500
C  -0.34900 34.49700 24.29500
C  -0.71700 34.17100 22.82100
C  -1.74400 33.00100 22.98400
C  -2.01000 32.94500 24.48100
C  -1.22400 35.39400 22.07900
C  -1.23000 31.68400 22.41500
C  -0.00300 31.00600 22.90100
N  -2.38200 32.23300 27.35700
C  -3.20400 31.75000 26.36300
C  -4.13700 30.84300 26.88000
C  -3.95300 30.93400 28.28900
C  -2.95100 31.87500 28.53000
C  -5.16700 30.04700 26.09000
C  -4.31200 30.34500 29.58200
O  -5.07400 29.41300 29.79900
C  -3.59800 31.15200 30.69000
C  -4.66200 31.74500 31.54400
O  -5.56100 32.41200 31.10600
O  -4.42100 31.53300 32.88600
C  -5.37800 32.14700 33.78900
H  1.17100 36.25100 30.36300
H  1.15400 35.85100 23.83600
H  -3.56300 31.51500 24.29100
H  -2.46800 33.77400 32.36900
H  0.16000 34.81600 32.29000
H  -1.91500 36.64100 31.22200
H  -0.75100 36.91000 32.51300
H  -2.24400 36.00200 32.85800
H  0.11900 32.17100 32.14700
H  -1.45700 31.53100 32.54600
H  -0.49200 33.75800 34.31700
H  0.62700 32.38700 34.35500
H  3.92600 37.83300 28.40500
H  2.89100 37.38300 29.76600
H  2.49900 38.76800 28.66300
H  3.66700 39.65900 25.05100
H  4.47300 38.61700 26.28200
H  3.12600 39.53400 26.72400
H  0.11300 33.66900 22.32500
H  -2.71100 33.16800 22.51100
H  -0.92200 36.35800 22.48900
H  -2.30800 35.49200 22.14100
H  -0.86900 35.38600 21.04800
H  -1.02800 31.90500 21.36700
H  -2.09100 31.01700 22.45100
H  0.18200 31.47500 23.86700
H  0.87800 30.95200 22.26200
H  -0.48700 30.07600 23.19600
H  -4.63800 29.33500 25.45700
H  -5.59900 30.92200 25.60600
H  -5.80800 29.63100 26.86700
H  -3.02100 30.38400 31.20600
H  -4.85500 32.88900 34.39200
H  -5.71300 31.52800 34.62100
H  -6.26400 32.63100 33.37700

