158

Mg 36.33200 49.40800 25.54800
C  36.18800 47.35800 28.35800
C  34.98500 51.95600 27.48300
C  35.81200 51.25300 22.76200
C  36.84400 46.66000 23.60600
N  35.67300 49.59700 27.68900
C  35.88500 48.69500 28.68300
C  35.70800 49.31700 30.06400
C  35.03700 50.68900 29.74100
C  35.18100 50.76200 28.24200
C  33.64600 50.93800 30.27000
C  37.13100 49.41500 30.81900
C  37.17700 49.98200 32.25500
H  35.94200 49.86900 33.05600
N  35.70400 51.41600 25.16600
C  35.28300 52.27600 26.13500
C  34.84500 53.49700 25.52200
C  35.13200 53.39900 24.11800
C  35.58700 52.02000 23.91300
C  34.24400 54.72600 26.28500
C  34.99100 54.31900 22.93900
O  35.04000 53.91100 21.77000
C  34.66300 55.77900 23.07800
N  36.37800 49.03800 23.47700
C  36.09000 49.93300 22.49600
C  36.29800 49.39900 21.15200
C  36.98800 48.07900 21.43700
C  36.67300 47.84300 22.93200
C  34.92100 49.23500 20.32600
C  38.56100 47.97700 21.26000
C  38.95700 47.68400 19.78000
N  36.62400 47.33800 25.90900
C  36.80900 46.37600 24.98200
C  37.13600 45.08500 25.67700
C  36.91400 45.45200 27.06200
C  36.49700 46.81600 27.08100
C  37.54900 43.72300 25.07300
C  36.98600 44.90000 28.41900
O  37.25400 43.77200 28.85000
C  36.58700 46.23000 29.29000
C  35.58500 45.78400 30.29800
O  34.48100 45.28600 29.95700
O  35.99100 45.99500 31.60900
C  35.01500 45.57800 32.63400
H  34.60900 52.80300 28.06100
H  35.70700 51.80600 21.82600
H  37.07000 45.79800 22.97500
H  35.04100 48.59000 30.52500
H  35.61800 51.45100 30.26200
H  33.26100 50.06800 30.80200
H  32.96800 51.06800 29.42600
H  33.58400 51.81500 30.91500
H  37.77200 50.04000 30.19600
H  37.59700 48.43000 30.81000
H  37.57300 50.99400 32.16700
H  37.90700 49.33900 32.74600
H  34.08900 55.64600 25.72200
H  34.90600 54.95600 27.11900
H  33.31100 54.29900 26.65400
H  33.69100 56.00000 23.51800
H  34.73600 56.28000 22.11300
H  35.52300 56.16300 23.62700
H  37.04600 49.99500 20.62900
H  36.60600 47.34900 20.72400
H  34.12500 48.86400 20.97100
H  35.03000 48.48000 19.54700
H  34.68100 50.21600 19.91500
H  39.07100 47.22600 21.86300
H  39.05100 48.89800 21.57600
H  38.18000 47.17100 19.21400
H  39.85900 47.07500 19.73400
H  39.12100 48.63800 19.27800
H  37.16100 43.71700 24.05400
H  37.01300 42.98300 25.66800
H  38.63100 43.59700 25.02600
H  37.47200 46.39900 29.90400
H  34.94500 44.50600 32.81400
H  33.99700 45.94800 32.50900
H  35.38400 45.95700 33.58700
Mg 26.86900 50.76800 26.75600
C  24.89400 51.77400 29.57300
C  29.15100 49.69400 28.81000
C  28.94400 50.60400 24.03600
C  24.66800 52.64600 24.79900
N  26.97700 50.83400 28.97800
C  26.09500 51.15400 29.93800
C  26.56400 50.70800 31.33300
C  27.91900 50.00900 30.98100
C  28.01500 50.07700 29.42800
C  29.09700 50.67500 31.68400
C  25.58200 49.67900 32.02500
C  24.83100 50.18200 33.31000
H  24.82200 49.38200 34.58800
N  28.72500 50.10400 26.45700
C  29.51500 49.63900 27.43900
C  30.73400 49.07400 26.85600
C  30.73400 49.41000 25.44800
C  29.45700 50.11000 25.23400
C  31.80300 48.30200 27.60700
C  31.75000 48.98800 24.33400
O  31.60700 49.37200 23.14200
C  32.89500 48.02100 24.69100
N  26.66900 51.29500 24.62500
C  27.66900 51.09200 23.72900
C  27.19000 51.47900 22.28400
C  25.71400 52.09700 22.50200
C  25.68000 52.10300 24.08000
C  28.23900 52.39700 21.55900
C  24.57000 51.22200 22.00600
C  23.33500 51.93400 21.19000
N  25.12700 51.76700 27.04500
C  24.41100 52.49800 26.15900
C  23.26900 53.10700 26.75100
C  23.38200 52.85200 28.11600
C  24.55700 52.05100 28.24900
C  22.27500 54.05100 26.08000
C  22.94900 53.18100 29.46600
O  22.10900 53.95100 29.91200
C  23.80500 52.31200 30.44600
C  24.19900 53.36700 31.46400
O  25.22000 53.94700 31.45300
O  23.22200 53.45700 32.49100
C  23.42100 54.50500 33.57500
H  29.85200 49.14300 29.44000
H  29.56700 50.44700 23.15300
H  23.90900 53.10800 24.16500
H  26.65000 51.67400 31.83200
H  27.92100 48.93000 31.13600
H  29.64200 49.91900 32.24900
H  28.61700 51.30700 32.43100
H  29.76800 51.25000 31.04600
H  26.11700 48.77000 32.30200
H  24.81500 49.49700 31.27300
H  23.80200 50.37400 33.00500
H  25.24800 51.08000 33.76800
H  31.66800 48.16300 28.67900
H  32.73300 48.87100 27.60200
H  31.91000 47.30500 27.18000
H  33.47500 48.47900 25.49200
H  33.48900 47.79700 23.80500
H  32.61700 47.00500 24.97100
H  27.19400 50.54500 21.72300
H  25.54200 53.13100 22.20400
H  29.00900 52.70000 22.26800
H  27.69100 53.24900 21.15600
H  28.68800 51.91800 20.68900
H  24.17500 50.55700 22.77300
H  24.94400 50.55900 21.22500
H  22.44700 51.30300 21.21000
H  23.69800 51.93500 20.16200
H  23.09700 52.95100 21.50200
H  22.66900 55.06100 25.96500
H  21.38200 54.14100 26.69900
H  22.14900 53.58900 25.10100
H  23.19000 51.54900 30.92300
H  24.04400 54.00400 34.31600
H  22.45500 54.84400 33.94900
H  24.00100 55.32800 33.15700

