158

Mg 30.76200 58.94700 40.55800
C  27.68900 57.41400 39.67400
C  32.45100 56.26100 39.40200
C  33.54600 60.98900 40.42800
C  28.87600 61.98900 41.15900
N  30.09200 57.02400 39.74600
C  28.85600 56.63500 39.38300
C  28.95200 55.22400 38.75100
C  30.37700 54.71900 39.08100
C  31.05000 56.03800 39.47000
C  30.39600 53.75900 40.28100
C  28.69900 55.37600 37.21600
C  27.59500 54.56900 36.63900
H  26.80200 55.25500 35.57900
N  32.77400 58.60800 40.09300
C  33.25700 57.38100 39.71300
C  34.67300 57.47500 39.62700
C  35.08800 58.84500 39.97400
C  33.74900 59.55400 40.13900
C  35.55900 56.32000 39.22100
C  36.47200 59.35800 39.94300
O  37.42000 58.54200 39.79900
C  36.74800 60.78500 40.15000
N  31.12600 61.18100 40.71800
C  32.42400 61.71100 40.76600
C  32.43200 63.19000 40.91800
C  30.97300 63.42700 41.34400
C  30.22400 62.12500 41.04400
C  33.58800 63.68100 41.81100
C  30.27000 64.72300 40.84800
C  29.51700 65.53300 41.87200
N  28.77700 59.57100 40.52400
C  28.13900 60.76000 40.88400
C  26.72200 60.65200 40.68300
C  26.50900 59.36300 40.22400
C  27.78300 58.76800 40.12900
C  25.59700 61.73600 40.92500
C  25.48700 58.48900 39.83800
O  24.26500 58.65000 39.77000
C  26.21400 57.05400 39.49600
C  25.67000 55.92600 40.27200
O  25.44400 55.86900 41.46300
O  25.22000 54.87500 39.41500
C  25.16700 53.57900 40.09200
H  33.02700 55.39800 39.06000
H  34.46600 61.57800 40.42800
H  28.28700 62.87300 41.41200
H  28.11800 54.69700 39.21400
H  31.01700 54.32600 38.29100
H  29.41200 53.29700 40.36500
H  30.68600 54.25700 41.20600
H  31.16400 53.00000 40.12900
H  29.64200 55.13800 36.72300
H  28.64600 56.40800 36.86900
H  26.89800 54.47900 37.47200
H  27.95400 53.62700 36.22500
H  36.28300 56.17400 40.02200
H  36.12100 56.54200 38.31400
H  35.02500 55.37800 39.10000
H  36.27400 60.95600 41.11700
H  36.43500 61.42500 39.32500
H  37.83000 60.88500 40.22800
H  32.56400 63.63200 39.93000
H  30.82400 63.32600 42.41900
H  33.23500 64.08700 42.75900
H  33.87800 64.52500 41.18600
H  34.45000 63.06500 42.06900
H  29.43200 64.50400 40.18600
H  30.99900 65.42200 40.43900
H  28.90300 66.25600 41.33500
H  30.37500 65.97200 42.38300
H  28.93400 64.93800 42.57400
H  25.65500 62.52600 40.17700
H  25.77800 62.17200 41.90800
H  24.60800 61.27600 40.94900
H  26.08800 56.85700 38.43100
H  24.20700 53.72600 40.58600
H  25.94200 53.49700 40.85400
H  25.20500 52.71000 39.43500
Mg -1.49300 34.49600 26.47400
C  -3.27800 32.59800 29.00600
C  -0.93500 36.82400 28.93300
C  -0.63300 36.65600 24.06900
C  -3.20900 32.47500 24.06400
N  -2.12200 34.68500 28.72200
C  -2.60200 33.65300 29.58900
C  -2.37200 33.95700 31.06700
C  -1.75200 35.44200 31.02100
C  -1.64200 35.70800 29.47100
C  -2.47400 36.55700 31.79100
C  -1.56200 32.81900 31.83500
C  -2.19500 32.20900 33.09900
H  -1.32100 32.26000 34.36900
N  -0.67000 36.33700 26.52000
C  -0.50400 37.13400 27.61000
C  0.37700 38.14200 27.19700
C  0.50100 38.25500 25.80900
C  -0.30800 37.06900 25.38300
C  1.06900 39.10400 28.23500
C  1.24600 39.20000 24.88400
O  1.17700 39.08400 23.64900
C  2.06700 40.27100 25.51600
N  -1.83700 34.45300 24.37700
C  -1.30900 35.50000 23.60300
C  -1.49000 35.19300 22.07300
C  -2.17000 33.80900 22.06000
C  -2.40300 33.49400 23.58500
C  -2.32800 36.31900 21.25800
C  -1.28400 32.73300 21.39600
C  0.04800 32.33900 22.02000
N  -2.93600 32.84800 26.47100
C  -3.50200 32.15500 25.44500
C  -4.40800 31.08800 25.88100
C  -4.32000 31.24800 27.27200
C  -3.43700 32.35200 27.59500
C  -5.09000 30.20400 24.93900
C  -4.79600 30.69900 28.53900
O  -5.60200 29.81900 28.93800
C  -3.96600 31.51000 29.66300
C  -5.00400 31.99200 30.68300
O  -5.92200 32.84700 30.59700
O  -4.95800 31.24900 31.85000
C  -5.89300 31.61300 32.93400
H  -0.60900 37.54200 29.68800
H  -0.09300 37.24300 23.32400
H  -3.58400 31.80100 23.29100
H  -3.38800 34.06800 31.44600
H  -0.75700 35.38900 31.46200
H  -3.00000 37.18600 31.07300
H  -1.65700 37.06700 32.30200
H  -3.21200 36.14500 32.48000
H  -0.55900 33.17900 32.06500
H  -1.30500 32.01800 31.14100
H  -2.57400 31.21200 32.87600
H  -3.05200 32.85600 33.28800
H  1.11300 40.16100 27.97400
H  2.14800 38.96500 28.15800
H  0.71600 39.06600 29.26600
H  2.82100 39.90800 26.21400
H  1.46800 41.08100 25.93100
H  2.61000 40.65200 24.65100
H  -0.44600 35.20500 21.76000
H  -3.17400 33.89100 21.64300
H  -3.33900 35.98800 21.02000
H  -1.83400 36.67200 20.35300
H  -2.30900 37.16800 21.94100
H  -1.14600 32.91600 20.33000
H  -1.92800 31.85400 21.42200
H  0.15700 33.03700 22.85000
H  0.84200 32.41200 21.27700
H  0.15400 31.34200 22.44900
H  -4.51300 29.92700 24.05700
H  -6.09900 30.49500 24.64500
H  -5.26800 29.31000 25.53600
H  -3.43800 30.74600 30.23400
H  -5.38900 32.27600 33.63700
H  -6.14500 30.67000 33.42100
H  -6.86800 31.91700 32.55300

