158

Mg 16.96200 -1.42500 27.47900
C  15.93100 0.64800 30.14100
C  19.31100 -2.79100 29.70200
C  18.42700 -2.89800 24.95700
C  14.68200 0.13700 25.48300
N  17.55600 -1.10700 29.75500
C  16.93200 -0.23000 30.61200
C  17.45500 -0.46700 32.04300
C  18.72200 -1.29100 31.76400
C  18.57800 -1.78200 30.31200
C  20.14900 -0.76000 32.09700
C  16.35900 -1.03900 32.98000
C  16.39500 -0.71900 34.45800
H  17.60500 -0.00600 34.99800
N  18.49900 -2.84900 27.36600
C  19.30100 -3.28300 28.40400
C  20.09300 -4.40100 27.89500
C  19.91400 -4.40900 26.46600
C  18.95500 -3.34200 26.16500
C  20.86800 -5.29900 28.86500
C  20.49300 -5.33000 25.46600
O  20.15400 -5.17900 24.32300
C  21.58000 -6.26500 25.78700
N  16.55000 -1.50200 25.50000
C  17.32700 -2.10600 24.61300
C  16.83100 -1.94500 23.12600
C  15.53800 -1.03600 23.33400
C  15.54600 -0.79300 24.86400
C  17.95100 -1.47600 22.16300
C  14.24500 -1.76300 22.89600
C  13.43900 -1.11500 21.80500
N  15.61700 0.12500 27.73600
C  14.73000 0.65200 26.80300
C  13.90200 1.61000 27.40600
C  14.23400 1.55800 28.78400
C  15.34200 0.70900 28.90800
C  12.91800 2.49400 26.70800
C  13.92300 2.13400 30.10400
O  13.02700 2.89600 30.56300
C  15.08600 1.51100 30.96900
C  15.78200 2.59100 31.66300
O  16.66700 3.29300 31.31100
O  15.11100 2.64700 32.81900
C  15.32200 3.91000 33.56100
H  19.97300 -3.35200 30.36500
H  18.92600 -3.33000 24.08800
H  14.07800 0.68700 24.75800
H  17.73400 0.49500 32.47200
H  18.57600 -2.22500 32.30500
H  20.76000 -0.53300 31.22300
H  20.73800 -1.56300 32.54100
H  20.09200 0.15800 32.68300
H  16.52000 -2.11000 32.85000
H  15.41000 -0.71200 32.55500
H  16.12600 -1.58600 35.06100
H  15.57100 -0.01800 34.59100
H  21.87300 -4.97700 29.13800
H  20.95200 -6.29200 28.42200
H  20.34000 -5.41500 29.81100
H  21.27400 -7.12700 26.38000
H  22.22500 -5.61200 26.37500
H  22.01000 -6.43700 24.80100
H  16.54000 -2.97300 22.90900
H  15.61200 -0.05300 22.87000
H  18.91000 -1.19900 22.60000
H  17.48800 -0.56300 21.78900
H  18.12600 -2.08700 21.27800
H  13.62000 -1.79200 23.78800
H  14.51900 -2.79400 22.67200
H  14.09500 -0.33400 21.42000
H  12.51900 -0.71600 22.23200
H  13.25600 -1.89900 21.07100
H  12.58200 3.38000 27.24800
H  12.01500 1.95000 26.43200
H  13.39200 2.83200 25.78600
H  14.41000 0.97000 31.63100
H  14.37700 4.25600 33.98000
H  15.63600 4.77000 32.96900
H  16.05900 3.75200 34.34900
Mg 44.43800 5.58700 47.03400
C  42.24100 8.29000 46.81600
C  41.79700 3.54000 46.27600
C  46.60800 3.06100 46.30200
C  47.18800 7.77800 47.53200
N  42.25000 5.96800 46.49100
C  41.56700 7.09200 46.66100
C  40.05100 6.84300 46.52300
C  39.92600 5.31100 46.20900
C  41.39200 4.90100 46.30100
C  38.99700 4.52200 47.15900
C  39.24900 7.68600 45.50700
C  39.96500 7.90200 44.10700
H  39.12300 7.21100 42.96400
N  44.22200 3.51100 46.56600
C  43.05500 2.86300 46.26900
C  43.32500 1.46200 45.95400
C  44.75900 1.35400 45.86800
C  45.29900 2.66500 46.22100
C  42.34700 0.38700 45.72600
C  45.55000 0.16000 45.20800
O  44.90300 -0.73900 44.77500
C  47.06200 0.09200 45.12800
N  46.64600 5.44300 46.95900
C  47.22900 4.28500 46.69400
C  48.79700 4.42500 46.72300
C  48.94900 5.81400 47.46500
C  47.52900 6.38400 47.37800
C  49.72100 3.35600 47.38400
C  49.97000 6.83500 46.85600
C  50.74800 7.56300 48.02700
N  44.72800 7.60800 47.14200
C  45.91500 8.36700 47.32000
C  45.52100 9.75400 47.29900
C  44.09600 9.72900 47.17000
C  43.63800 8.43900 46.99700
C  46.50500 10.89600 47.36600
C  42.92400 10.58600 47.14000
O  42.80700 11.81600 47.21500
C  41.66200 9.70100 46.87800
C  40.73200 9.84600 48.00500
O  40.79700 9.28300 49.03800
O  39.58100 10.58100 47.56600
C  38.48400 10.54600 48.48200
H  41.01100 2.83700 45.99200
H  47.42600 2.34800 46.18400
H  48.04900 8.42500 47.71200
H  39.74900 6.96200 47.56400
H  39.61500 5.09600 45.18700
H  39.59800 4.34700 48.05100
H  38.75900 3.63800 46.56700
H  38.15100 5.11200 47.51200
H  38.99800 8.67900 45.88100
H  38.33500 7.15200 45.24700
H  40.96600 7.47100 44.09300
H  40.14800 8.95700 43.89900
H  42.47700 0.03300 44.70300
H  41.36100 0.83100 45.85800
H  42.44000 -0.46400 46.40100
H  47.40600 0.40000 46.11500
H  47.21400 0.76000 44.28000
H  47.47500 -0.88400 44.87200
H  49.17200 4.49100 45.70100
H  49.08800 5.64800 48.53400
H  50.14900 3.70400 48.32400
H  50.50000 3.21100 46.63600
H  49.30200 2.37000 47.58200
H  49.47500 7.61400 46.27700
H  50.74300 6.39100 46.22900
H  50.38400 7.44800 49.04800
H  50.90200 8.61100 47.76600
H  51.64300 6.94200 48.00300
H  47.47500 10.67700 46.91800
H  46.75400 11.20000 48.38300
H  46.11300 11.79500 46.89100
H  41.14100 10.04600 45.98500
H  37.71100 11.07700 47.92700
H  38.77100 11.02300 49.41900
H  38.02900 9.57900 48.69800

