158

Mg 2.99300 0.74900 44.09700
C  5.87800 2.55600 43.62700
C  1.29500 3.23000 42.35000
C  0.48200 -1.40700 43.61900
C  5.05700 -1.95400 45.13000
N  3.58700 2.57200 43.00300
C  4.79400 3.20700 43.01400
C  4.79200 4.54300 42.26300
C  3.28100 4.80900 42.06900
C  2.63800 3.46700 42.56800
C  2.70300 6.11700 42.75600
C  5.70300 4.55400 40.94100
C  6.17800 3.26000 40.23800
H  6.25600 3.15000 38.65000
N  1.11500 0.97500 43.35800
C  0.59900 2.04700 42.68900
C  -0.78000 1.85600 42.47100
C  -1.10100 0.56700 42.91400
C  0.16500 -0.04200 43.28300
C  -1.56500 2.93000 41.89500
C  -2.47500 -0.09600 42.97800
O  -3.45800 0.53300 42.62100
C  -2.67900 -1.53800 43.34100
N  2.84900 -1.38300 44.22700
C  1.61300 -1.98000 44.14400
C  1.67900 -3.46700 44.53100
C  3.19300 -3.63600 44.90500
C  3.74500 -2.24400 44.78700
C  0.63400 -3.83900 45.70100
C  3.97900 -4.73800 44.12000
C  4.57500 -5.77500 45.09200
N  4.98900 0.35300 44.44500
C  5.70800 -0.77400 44.87200
C  7.11700 -0.38400 45.03300
C  7.19800 0.86600 44.57800
C  5.89400 1.29900 44.21600
C  8.21400 -1.24800 45.65000
C  8.11100 1.95400 44.32300
O  9.38000 1.93900 44.47100
C  7.31900 3.14100 43.80500
C  7.40900 4.25200 44.86600
O  8.39800 4.90700 45.22900
O  6.13600 4.60400 45.28900
C  5.89700 5.84300 46.12200
H  0.79000 4.01600 41.78500
H  -0.23100 -2.23200 43.67300
H  5.60400 -2.84400 45.45000
H  5.24200 5.27900 42.92900
H  3.12100 4.91400 40.99600
H  3.32700 6.93600 42.39700
H  2.69500 6.06800 43.84500
H  1.69200 6.29900 42.39000
H  6.56700 5.18400 41.15100
H  5.16300 5.00300 40.10800
H  5.68800 2.37700 40.64800
H  7.16400 3.00100 40.62300
H  -2.62900 2.90200 42.13000
H  -1.23500 2.90300 40.85600
H  -1.23600 3.88100 42.31300
H  -2.23400 -1.79300 44.30300
H  -2.18700 -2.14700 42.58200
H  -3.75100 -1.73200 43.34900
H  1.31600 -4.05400 43.68800
H  3.23600 -3.79400 45.98300
H  -0.35300 -4.02900 45.27800
H  0.56500 -3.07600 46.47600
H  0.97000 -4.72700 46.23600
H  4.81700 -4.28800 43.58800
H  3.32500 -5.13200 43.34300
H  4.19800 -5.69700 46.11200
H  5.65000 -5.61400 45.17300
H  4.40600 -6.78400 44.71700
H  8.19700 -1.28200 46.73900
H  9.19000 -0.83900 45.39000
H  8.17200 -2.27500 45.28800
H  7.85000 3.46400 42.91000
H  6.28100 6.68700 45.55000
H  6.38300 5.84900 47.09900
H  4.84200 6.08100 46.25400
Mg 46.70000 16.32600 28.46300
C  44.64700 15.51400 31.22500
C  48.47400 18.18500 30.40100
C  48.69100 16.63400 25.84000
C  44.45300 14.36100 26.47900
N  46.63700 16.74700 30.55300
C  45.69600 16.37500 31.53300
C  46.13100 16.94000 32.89800
C  47.18000 17.95900 32.50000
C  47.51000 17.56300 31.13600
C  46.72400 19.47600 32.41600
C  46.67100 15.77700 33.77600
C  46.58500 16.02000 35.27400
H  47.96300 16.01600 36.04000
N  48.40900 17.35100 28.20700
C  49.01600 18.10300 29.13200
C  50.26600 18.65600 28.63300
C  50.37900 18.18400 27.27900
C  49.18600 17.29800 27.07300
C  51.18300 19.58700 29.42800
C  51.47300 18.48400 26.25600
O  51.49600 17.91500 25.19100
C  52.62600 19.44000 26.59200
N  46.54800 15.50700 26.48400
C  47.57100 15.86100 25.62100
C  47.24800 15.44400 24.23100
C  45.86400 14.75300 24.40600
C  45.56800 14.86400 25.87600
C  47.26400 16.60400 23.24100
C  45.77500 13.34400 23.83300
C  46.39000 12.15500 24.70200
N  44.85600 15.20000 28.76900
C  44.11900 14.46300 27.84100
C  43.03200 13.87800 28.52300
C  43.22600 14.16800 29.86700
C  44.34200 14.98900 29.93700
C  41.85700 13.28300 27.81900
C  42.66600 14.09400 31.23200
O  41.65600 13.53900 31.64500
C  43.62400 14.85500 32.15500
C  42.86700 15.90300 32.96200
O  42.65100 17.07200 32.63200
O  42.38100 15.41100 34.18900
C  41.49600 16.27900 35.04400
H  49.10200 18.75500 31.08900
H  49.38200 16.72300 25.00000
H  43.78600 13.80500 25.81700
H  45.29100 17.40500 33.41500
H  48.08500 17.99100 33.10700
H  47.34000 20.10800 33.05600
H  45.75700 19.48200 32.91700
H  46.68400 19.95500 31.43700
H  47.67500 15.55800 33.41300
H  46.19000 14.81800 33.58400
H  45.95400 15.23100 35.68400
H  46.12300 17.00200 35.37100
H  52.18600 19.17400 29.53400
H  50.65700 19.77900 30.36300
H  51.28600 20.54900 28.92500
H  52.24400 20.36800 27.01500
H  53.11500 19.63600 25.63800
H  53.18500 18.98600 27.41000
H  48.04700 14.72000 24.07200
H  45.07900 15.30300 23.88700
H  46.65400 17.41700 23.63300
H  46.83400 16.30000 22.28700
H  48.30300 16.89800 23.08900
H  46.45300 13.34300 22.97900
H  44.75500 13.17600 23.48500
H  47.24800 11.70400 24.20200
H  45.67000 11.33900 24.76300
H  46.79800 12.41600 25.67900
H  42.29400 12.43000 27.30100
H  41.29100 13.97300 27.19200
H  41.23200 13.01200 28.67000
H  44.05000 14.11400 32.83200
H  42.23400 16.91000 35.53800
H  40.73900 15.85100 35.70100
H  40.94600 16.85000 34.29600

