158

Mg 54.22800 24.57600 44.21100
C  51.39000 26.82600 43.66900
C  52.16700 21.94700 43.56400
C  56.99500 22.80500 43.83200
C  56.16100 27.52400 44.12900
N  52.03900 24.47400 43.61500
C  51.06400 25.49000 43.49900
C  49.74100 24.79100 43.19800
C  50.00500 23.27200 43.49200
C  51.50900 23.20400 43.58700
C  49.40600 22.64000 44.78500
C  49.20900 25.19700 41.75800
C  50.30500 25.08900 40.67000
H  49.74200 24.63800 39.27000
N  54.49900 22.58100 43.92300
C  53.55500 21.67900 43.73200
C  54.24200 20.30400 43.77300
C  55.60200 20.58300 43.89600
C  55.78200 22.02800 43.89200
C  53.53600 19.01000 43.58100
C  56.62300 19.47300 43.99400
O  56.25200 18.32300 43.93300
C  58.01800 19.73000 44.13900
N  56.33700 25.07900 44.13200
C  57.25200 24.19400 43.93700
C  58.70500 24.75100 43.94700
C  58.45800 26.28300 43.83300
C  56.88100 26.32400 44.01700
C  59.57900 24.38500 45.27800
C  58.88500 26.84900 42.43600
C  60.41700 27.00900 42.20900
N  53.86300 26.74800 44.08600
C  54.79700 27.75100 44.19300
C  54.16500 28.95900 44.40100
C  52.78700 28.63500 44.13900
C  52.66100 27.30700 44.00900
C  54.75800 30.32700 44.65600
C  51.45500 29.19500 44.08400
O  51.03800 30.26300 44.35900
C  50.52100 28.00100 43.59800
C  50.18300 28.50700 42.18200
O  50.87300 28.56300 41.15800
O  48.89900 28.92000 42.21900
C  48.36500 29.42600 40.95000
H  51.55100 21.04900 43.48500
H  57.91400 22.29700 43.53500
H  56.79400 28.39800 44.29700
H  49.04900 25.11600 43.97500
H  49.68700 22.69700 42.62200
H  50.23300 22.38400 45.44800
H  48.85600 21.76500 44.43800
H  48.70300 23.31300 45.27500
H  48.89500 26.23900 41.80700
H  48.32300 24.59600 41.55100
H  51.10000 24.48400 41.10600
H  50.74800 26.06600 40.47400
H  53.64300 18.39800 44.47600
H  54.03500 18.39000 42.83600
H  52.45600 19.15400 43.53700
H  58.57100 18.85000 44.46700
H  58.18800 20.47000 44.92200
H  58.29300 20.11200 43.15600
H  59.21900 24.37400 43.06400
H  59.02900 26.74500 44.63800
H  60.55500 24.06600 44.91000
H  59.06200 23.65100 45.89600
H  59.78800 25.19400 45.97800
H  58.44500 27.83300 42.27200
H  58.47100 26.23200 41.63900
H  60.84300 27.96300 41.89900
H  60.95600 26.22900 41.67200
H  60.82400 26.90100 43.21400
H  54.05600 30.79900 45.34300
H  54.63300 30.92700 43.75500
H  55.79500 30.24900 44.98400
H  49.68600 27.85300 44.28200
H  47.31200 29.70600 40.94000
H  48.35800 28.78400 40.06900
H  48.94600 30.32700 40.75600
Mg 28.23800 57.53400 42.61700
C  25.92100 55.64400 40.82700
C  30.68100 56.26300 40.71600
C  30.04500 60.14400 43.67200
C  25.34300 59.07200 44.26000
N  28.20100 56.33600 40.77600
C  27.19400 55.53700 40.30000
C  27.66800 54.61900 39.14500
C  29.24600 54.78700 39.31400
C  29.44000 55.78000 40.45400
C  30.10900 53.51500 39.48200
C  27.08700 55.03200 37.78200
C  26.52900 53.83600 37.00200
H  27.10500 53.45100 35.64600
N  30.13800 58.04500 42.39800
C  31.07300 57.33000 41.60900
C  32.34400 57.95300 41.77400
C  32.19900 59.07800 42.59900
C  30.74600 59.19300 42.90900
C  33.63800 57.42000 41.06900
C  33.29800 60.04700 42.93900
O  34.41400 59.95100 42.44900
C  33.15500 61.24300 43.94100
N  27.70900 59.46000 43.74300
C  28.70200 60.26600 44.11400
C  28.15400 61.48700 44.85300
C  26.74700 60.99900 45.21800
C  26.54100 59.82800 44.34900
C  29.00400 61.89500 46.03600
C  25.64200 62.06400 45.25600
C  24.85700 62.22400 46.59500
N  26.09800 57.31900 42.69900
C  25.11500 57.99400 43.39900
C  23.76600 57.45000 43.12100
C  24.09200 56.60800 42.06800
C  25.51300 56.45700 41.90300
C  22.33400 57.88600 43.54300
C  23.42600 55.71600 41.09400
O  22.23500 55.46800 40.97100
C  24.57700 54.99100 40.32500
C  24.36600 53.57900 40.52200
O  24.52100 52.95100 41.56500
O  24.23000 53.06200 39.24500
C  24.28100 51.58000 39.11200
H  31.51500 55.81200 40.17500
H  30.62100 61.02600 43.96300
H  24.49200 59.52700 44.77100
H  27.38700 53.59100 39.37600
H  29.62000 55.30600 38.43200
H  30.52600 53.52400 40.48900
H  30.82500 53.49300 38.66100
H  29.46500 52.64300 39.36900
H  27.78600 55.46300 37.06500
H  26.36200 55.83300 37.92400
H  25.50800 54.13700 36.76800
H  26.58800 52.93500 37.61300
H  33.59100 56.33200 41.10600
H  34.52100 57.78300 41.59500
H  33.76700 57.69600 40.02200
H  32.57700 62.03900 43.47300
H  34.11700 61.63800 44.26800
H  32.72500 60.84300 44.86000
H  28.07500 62.25200 44.08100
H  26.77500 60.41400 46.13800
H  28.36700 62.08400 46.90000
H  29.49400 62.81900 45.72900
H  29.73700 61.14300 46.33100
H  24.88900 61.76400 44.52800
H  25.84300 63.08000 44.91500
H  24.87700 63.28700 46.83800
H  25.24000 61.70600 47.47500
H  23.85400 61.85900 46.37400
H  22.06900 58.93800 43.44700
H  22.23600 57.48900 44.55300
H  21.75300 57.37400 42.77600
H  24.52500 55.33400 39.29200
H  24.49800 51.50100 38.04700
H  23.28500 51.27500 39.43400
H  25.01200 51.22500 39.83900

