158

Mg 47.81000 34.82000 26.75500
C  45.99700 33.66300 29.42400
C  48.74400 37.57300 28.59400
C  48.96700 36.23800 23.87700
C  46.53800 32.12700 24.83600
N  47.55600 35.46800 28.87600
C  46.71000 34.84600 29.75000
C  46.80800 35.51800 31.14500
C  47.37400 36.97500 30.72900
C  47.89300 36.73500 29.25100
C  46.38500 38.05700 30.67400
C  47.77500 34.79000 32.09900
C  47.52700 34.96000 33.63500
H  46.68400 36.12900 34.11400
N  48.82300 36.67000 26.37700
C  49.21600 37.58300 27.28000
C  49.99900 38.58200 26.60600
C  50.11900 38.25600 25.20000
C  49.27100 37.01600 25.11700
C  50.50400 39.84900 27.32900
C  50.87400 38.89200 23.99400
O  50.93900 38.50800 22.82000
C  51.56900 40.20300 24.33500
N  47.71200 34.35800 24.67000
C  48.34200 35.03200 23.66700
C  48.23800 34.38100 22.26000
C  47.56300 33.00400 22.61900
C  47.26500 33.09900 24.18000
C  47.32700 35.14600 21.29200
C  48.36400 31.71700 22.20800
C  49.39600 31.19800 23.24800
N  46.58100 33.09800 27.02700
C  46.27600 32.07900 26.22800
C  45.58600 31.09500 27.05800
C  45.35300 31.76000 28.30100
C  46.02400 32.90800 28.21200
C  45.09700 29.80900 26.59300
C  44.72400 31.66600 29.51800
O  44.03200 30.78300 29.94400
C  44.90700 33.00100 30.29000
C  45.16200 32.65200 31.72700
O  46.05500 31.88100 32.11200
O  44.20600 33.07900 32.56200
C  44.30200 32.78200 34.00200
H  49.04000 38.41000 29.23000
H  49.33000 36.55800 22.89800
H  46.41600 31.25200 24.19400
H  45.80700 35.49900 31.57700
H  48.15600 37.36400 31.38100
H  45.70400 38.14600 31.52000
H  45.85400 38.16600 29.72900
H  46.95200 38.98400 30.58200
H  48.82400 35.02500 31.91900
H  47.70500 33.72200 31.89100
H  48.44300 35.05400 34.22000
H  47.09400 34.09000 34.12800
H  51.59400 39.87700 27.31500
H  50.02600 39.92400 28.30600
H  50.06600 40.64300 26.72400
H  52.49600 40.00300 24.87200
H  50.98400 40.97700 24.83400
H  51.83900 40.77800 23.45000
H  49.19800 34.34400 21.74500
H  46.61100 32.91300 22.09600
H  46.27000 34.99300 21.51100
H  47.45700 34.67800 20.31600
H  47.54900 36.21200 21.34100
H  48.82900 31.92600 21.24400
H  47.69900 30.86300 22.07700
H  49.19800 30.18400 23.59400
H  49.66200 31.81100 24.10900
H  50.36700 31.10700 22.76100
H  45.98600 29.25500 26.29400
H  44.49900 29.89200 25.68600
H  44.59600 29.21100 27.35400
H  43.99000 33.58900 30.26700
H  43.33100 32.61600 34.46700
H  44.67200 33.66100 34.52900
H  44.97800 31.93400 34.12000
Mg -12.44900 37.25900 42.03700
C  -10.08300 34.92500 41.04000
C  -10.52300 39.77100 40.60800
C  -15.08300 39.27400 42.30700
C  -14.54300 34.54900 42.97400
N  -10.72800 37.29900 40.65400
C  -9.81400 36.24800 40.61600
C  -8.56000 36.69400 39.75900
C  -8.60400 38.23400 39.91000
C  -10.06700 38.45200 40.47900
C  -7.50100 38.76300 40.82200
C  -8.63500 36.17300 38.22700
C  -7.34800 35.58900 37.67900
H  -6.58500 36.47300 36.65200
N  -12.78500 39.31400 41.52600
C  -11.84700 40.21200 41.01600
C  -12.43000 41.51100 40.95100
C  -13.73900 41.38200 41.47600
C  -13.95900 39.96100 41.80700
C  -11.67600 42.69400 40.39100
C  -14.82700 42.51900 41.48200
O  -14.55400 43.65100 41.09500
C  -16.16400 42.24500 42.04900
N  -14.57200 36.92500 42.46600
C  -15.42600 37.95900 42.56200
C  -16.79800 37.51500 43.11400
C  -16.65800 36.01200 43.35400
C  -15.13800 35.81600 43.00300
C  -17.25200 38.34100 44.31500
C  -17.63700 35.09000 42.46900
C  -18.44000 34.10000 43.34900
N  -12.32200 35.14900 42.12300
C  -13.19900 34.18800 42.62100
C  -12.52100 32.92100 42.72900
C  -11.30900 33.11600 42.07100
C  -11.24500 34.47000 41.65200
C  -13.03600 31.65900 43.31100
C  -10.10400 32.55600 41.48400
O  -9.71300 31.39700 41.65300
C  -9.29400 33.66400 40.78800
C  -7.99700 33.64000 41.47300
O  -7.67400 34.46000 42.31400
O  -7.27000 32.60300 40.99900
C  -5.96100 32.58300 41.60500
H  -9.82400 40.54200 40.27800
H  -15.99500 39.87000 42.37300
H  -15.28000 33.84900 43.37400
H  -7.66700 36.32200 40.26100
H  -8.53300 38.72400 38.94000
H  -7.12900 37.86200 41.31000
H  -7.84500 39.41800 41.62300
H  -6.71600 39.29100 40.28100
H  -8.99000 36.97100 37.57500
H  -9.39300 35.39000 38.20800
H  -7.54700 34.66300 37.14000
H  -6.72000 35.31700 38.52800
H  -11.88600 42.75100 39.32300
H  -10.60200 42.73000 40.57500
H  -11.98000 43.54700 40.99800
H  -16.62500 41.49100 41.41000
H  -16.72700 43.17800 42.07600
H  -15.92500 41.94100 43.06800
H  -17.45300 37.75300 42.27600
H  -16.73600 35.64400 44.37700
H  -17.69900 37.66000 45.04000
H  -18.01500 39.08700 44.09200
H  -16.34400 38.82000 44.68100
H  -17.03200 34.62500 41.69000
H  -18.41200 35.69100 41.99300
H  -18.28000 34.24100 44.41700
H  -17.96200 33.15500 43.09000
H  -19.42500 34.05600 42.88400
H  -14.07400 31.49300 43.02200
H  -13.02800 31.56700 44.39700
H  -12.44500 30.91100 42.78200
H  -9.17800 33.52000 39.71400
H  -6.01800 32.06300 42.56100
H  -5.41000 33.52000 41.68800
H  -5.40900 31.92600 40.93300

