158

Mg 41.52800 41.88900 26.84100
C  40.45800 44.23400 29.30900
C  42.22800 39.86600 29.26100
C  42.84900 39.90700 24.51900
C  41.23000 44.44900 24.51600
N  41.31000 42.11900 29.03300
C  40.75000 43.01000 29.87200
C  40.72200 42.63700 31.37500
C  41.61600 41.30800 31.36100
C  41.75000 41.04700 29.80100
C  42.97500 41.34900 32.03200
C  39.27600 42.52600 31.97100
C  39.00300 43.29900 33.28700
H  38.56700 42.46600 34.48000
N  42.34600 40.09800 26.85600
C  42.54500 39.41200 27.98600
C  43.10500 38.12700 27.68400
C  43.27500 38.07900 26.24400
C  42.79400 39.40500 25.80000
C  43.26400 37.02000 28.72000
C  43.75600 37.00000 25.30800
O  43.85100 37.18200 24.12300
C  44.07000 35.65500 25.86600
N  41.73000 42.12500 24.65200
C  42.42600 41.17800 24.00300
C  42.77200 41.68600 22.56000
C  41.97200 43.02800 22.45800
C  41.66500 43.21800 23.97400
C  44.23300 41.74000 22.20100
C  40.66300 42.92100 21.66400
C  40.27800 44.29100 21.27100
N  40.90100 43.85000 26.83400
C  40.87000 44.78900 25.84400
C  40.46300 46.10100 26.36000
C  40.20000 45.87500 27.71100
C  40.54100 44.54300 27.95800
C  40.35800 47.52100 25.72400
C  39.64600 46.52400 28.92900
O  39.23500 47.64500 29.22600
C  39.87200 45.40500 29.98800
C  40.78900 45.97600 30.99200
O  41.98300 46.03900 30.85700
O  40.13500 46.38900 32.10800
C  40.96500 46.62800 33.34000
H  42.45100 39.17700 30.07900
H  43.32600 39.27300 23.76900
H  41.19900 45.24400 23.76900
H  41.30200 43.38900 31.90900
H  41.18000 40.50100 31.95000
H  43.00700 41.92900 32.95400
H  43.67800 41.88400 31.39400
H  43.39800 40.34400 32.03200
H  38.95500 41.48900 32.06200
H  38.64700 43.02400 31.23200
H  38.23400 44.05600 33.13300
H  39.94400 43.79600 33.52500
H  43.57400 37.50500 29.64600
H  44.18700 36.51500 28.43700
H  42.46900 36.27500 28.73000
H  43.20500 35.23900 26.38200
H  44.87900 35.87500 26.56200
H  44.45500 35.02000 25.06800
H  42.40200 40.92000 21.87900
H  42.66100 43.86200 22.32200
H  44.56100 42.69300 22.61700
H  44.42400 41.66300 21.13000
H  44.68800 40.91200 22.74500
H  39.88700 42.47200 22.28400
H  40.77100 42.39700 20.71400
H  39.67600 44.64500 22.10800
H  39.71400 44.37000 20.34200
H  41.08800 45.01800 21.21700
H  40.89700 48.21200 26.37200
H  39.28300 47.62600 25.58000
H  40.86000 47.61000 24.76100
H  38.91900 45.15900 30.45800
H  42.00200 46.29400 33.31800
H  40.55500 46.16500 34.23700
H  40.98500 47.69300 33.56900
Mg 16.66500 52.22700 26.39500
C  18.52500 50.79500 29.06700
C  14.13000 52.93100 28.65900
C  14.81700 53.31000 23.80200
C  19.14400 51.21000 24.29200
N  16.44700 51.95200 28.67900
C  17.31100 51.38600 29.51800
C  16.81200 51.54900 30.96400
C  15.31500 51.91400 30.71100
C  15.25100 52.33300 29.21000
C  14.30400 50.80100 30.99900
C  17.62300 52.68300 31.63300
C  18.36400 52.15500 32.95600
H  17.61300 52.35100 34.23000
N  14.75200 53.13400 26.24300
C  13.93000 53.41700 27.32300
C  12.79300 54.20700 26.86300
C  12.99900 54.30900 25.44800
C  14.24100 53.56500 25.09000
C  11.58300 54.64900 27.75000
C  12.19100 55.05100 24.37400
O  12.56200 55.08200 23.18100
C  10.87500 55.69300 24.74300
N  16.98000 52.36700 24.37600
C  16.00100 52.74400 23.51500
C  16.45200 52.55600 22.06100
C  17.86300 51.96800 22.26900
C  18.04300 51.82900 23.75600
C  15.44800 51.68800 21.23400
C  18.90500 52.73700 21.48800
C  19.85000 51.81400 20.66100
N  18.47800 51.20000 26.56300
C  19.39100 50.82500 25.59600
C  20.44000 49.99800 26.22400
C  20.10100 49.94700 27.58700
C  18.95500 50.72300 27.73600
C  21.71700 49.59200 25.56400
C  20.55300 49.50700 28.86500
O  21.47000 48.78200 29.21200
C  19.60200 50.09000 29.87800
C  19.21000 49.04000 30.84300
O  18.61800 48.03500 30.45000
O  19.76500 49.17300 32.07500
C  19.38500 48.20300 33.12400
H  13.39100 53.10500 29.44400
H  14.20600 53.61100 22.94900
H  19.83700 50.88300 23.51300
H  16.83000 50.57700 31.45800
H  14.94500 52.82900 31.17300
H  13.45200 51.35200 31.39600
H  14.74400 50.01900 31.61800
H  13.92100 50.33300 30.09200
H  16.95900 53.50700 31.89200
H  18.48100 53.02000 31.05100
H  19.23000 52.81400 33.02600
H  18.58100 51.09100 32.86200
H  11.75700 54.53600 28.82000
H  10.67300 54.09100 27.53000
H  11.40500 55.71800 27.63200
H  10.45300 56.05500 23.80500
H  11.09800 56.56600 25.35600
H  10.24700 54.93500 25.21100
H  16.52800 53.56300 21.65100
H  17.91400 50.95600 21.86700
H  14.71900 51.21800 21.89400
H  15.84800 51.04300 20.45100
H  14.82900 52.38900 20.67500
H  19.52100 53.15400 22.28400
H  18.54400 53.60100 20.93000
H  20.21100 52.40900 19.82100
H  19.35100 50.97000 20.18600
H  20.69000 51.40700 21.22500
H  22.39800 50.42500 25.74400
H  21.61500 49.55800 24.48000
H  22.11300 48.67300 25.99700
H  20.20400 50.79600 30.45000
H  19.53400 48.59800 34.12900
H  19.84700 47.21600 33.16000
H  18.32200 47.97900 33.03800

