158

Mg 40.15000 9.41600 30.36100
C  42.11100 10.66300 33.03200
C  37.71200 8.42000 32.67800
C  38.64000 7.67500 27.95400
C  43.06700 9.76400 28.25900
N  40.00500 9.41000 32.68800
C  40.87600 10.11300 33.52500
C  40.25700 10.17500 34.87300
C  38.92200 9.31600 34.77800
C  38.80900 9.15800 33.25900
C  38.96000 7.93000 35.48600
C  40.04300 11.62400 35.38200
C  40.79700 11.94700 36.65900
H  39.96900 12.54000 37.79100
N  38.36200 8.24200 30.29400
C  37.51400 7.94200 31.39500
C  36.47100 7.05000 30.85000
C  36.74300 6.86900 29.46200
C  37.94600 7.63900 29.19100
C  35.30500 6.52100 31.67500
C  35.99700 5.89500 28.46600
O  36.46200 5.63500 27.35000
C  34.70200 5.31100 28.90200
N  40.84000 8.76800 28.41600
C  39.87700 8.24000 27.53500
C  40.33100 8.31100 26.09500
C  41.75200 8.87000 26.27700
C  41.89800 9.20400 27.76000
C  40.18800 7.04100 25.29700
C  42.14300 9.98300 25.27600
C  41.27200 11.26500 25.36600
N  42.14600 10.16600 30.54400
C  43.14100 10.28800 29.55600
C  44.19800 11.10800 30.13400
C  43.84800 11.26500 31.53300
C  42.58600 10.69300 31.67700
C  45.36800 11.75700 29.41500
C  44.27000 11.88800 32.79900
O  45.25900 12.52800 32.95300
C  43.16700 11.44200 33.85400
C  43.85900 10.75900 34.92800
O  44.61300 9.82100 34.88500
O  43.66900 11.50700 36.00600
C  44.29900 11.07000 37.24200
H  36.85000 8.18200 33.30500
H  38.09800 7.24300 27.11100
H  43.77900 10.08200 27.49400
H  40.90100 9.63800 35.56900
H  37.96300 9.76700 35.03300
H  38.17300 7.83300 36.23300
H  39.84600 7.77700 36.10200
H  38.77900 7.27600 34.63300
H  38.97700 11.81300 35.51400
H  40.39300 12.28500 34.59000
H  41.42200 12.82400 36.48800
H  41.37100 11.09700 37.02600
H  35.19600 6.89500 32.69300
H  35.42700 5.43800 31.64500
H  34.35900 6.63500 31.14500
H  33.96100 6.10500 28.99000
H  34.76000 4.78300 29.85400
H  34.43000 4.44800 28.29400
H  39.74900 9.06800 25.56900
H  42.48400 8.09700 26.04400
H  39.56700 6.22700 25.67000
H  41.09500 6.49000 25.04900
H  39.93100 7.37300 24.29100
H  41.91600 9.40500 24.38000
H  43.17100 10.32500 25.39100
H  40.39400 11.23600 26.01000
H  40.94200 11.41000 24.33700
H  41.82200 12.10100 25.79700
H  45.11600 12.66300 28.86200
H  45.85600 11.07100 28.72300
H  46.23500 12.04000 30.01200
H  42.77300 12.38300 34.23600
H  43.57800 11.36400 38.00500
H  45.21600 11.65600 37.31100
H  44.66600 10.05600 37.40000
Mg 26.94200 52.10200 25.86400
C  25.21400 53.28200 28.60500
C  29.38000 50.81900 27.67900
C  28.54100 51.08900 22.96600
C  24.51600 53.83300 23.87600
N  27.16800 52.02300 27.90300
C  26.39500 52.54000 28.91100
C  27.13000 52.39600 30.25100
C  28.51100 51.82500 29.96600
C  28.36300 51.47900 28.43600
C  29.82300 52.63600 30.42800
C  26.28300 51.60500 31.31000
C  25.80800 52.43700 32.53600
H  26.64300 52.44200 33.81300
N  28.79500 51.10700 25.37400
C  29.61800 50.64000 26.33800
C  30.72600 49.90800 25.70300
C  30.52800 50.00800 24.32300
C  29.29000 50.74000 24.16700
C  31.85700 49.32800 26.56100
C  31.37700 49.44300 23.18300
O  31.16800 49.62600 21.99300
C  32.54100 48.59000 23.49100
N  26.70100 52.62700 23.79200
C  27.41300 51.91900 22.81000
C  26.99500 52.32800 21.39200
C  25.63300 52.99400 21.66600
C  25.61800 53.21900 23.19400
C  28.07400 53.28900 20.92900
C  24.51100 52.11100 21.10900
C  23.72600 51.12100 22.03900
N  25.22800 53.26800 26.10600
C  24.32000 53.88400 25.22800
C  23.15800 54.34800 25.86500
C  23.48300 54.14800 27.21800
C  24.74200 53.48000 27.33400
C  21.96500 55.03100 25.25800
C  23.01600 54.38500 28.53700
O  21.91800 54.81000 28.87900
C  24.10700 53.93700 29.48200
C  24.49700 54.99500 30.43000
O  25.33300 55.80900 30.21400
O  23.67200 54.99000 31.50300
C  23.90100 55.95500 32.57100
H  30.16200 50.47800 28.36000
H  28.92500 50.69300 22.02300
H  23.71200 54.26100 23.27300
H  27.30300 53.42600 30.56200
H  28.51800 50.83900 30.42900
H  29.57600 53.57200 30.93100
H  30.51700 52.74800 29.59500
H  30.32900 52.05200 31.19700
H  26.72400 50.67600 31.67100
H  25.29900 51.48100 30.85700
H  24.80100 52.11200 32.79800
H  25.69100 53.46200 32.18500
H  31.56900 48.35900 26.96700
H  31.99700 49.93800 27.45400
H  32.83000 49.27800 26.07300
H  33.23800 49.19800 24.06700
H  32.97900 48.19600 22.57400
H  32.20300 47.81900 24.18400
H  27.04600 51.50600 20.67800
H  25.54000 53.95300 21.15600
H  28.59100 53.74700 21.77300
H  27.67000 54.15300 20.40100
H  28.77700 52.73500 20.30800
H  24.89200 51.47500 20.31000
H  23.77000 52.76300 20.64700
H  24.21900 51.12700 23.01200
H  23.76900 50.15200 21.54300
H  22.71300 51.49900 22.17800
H  21.19600 54.33000 24.93300
H  22.32700 55.64600 24.43400
H  21.57300 55.71400 26.01100
H  23.78000 53.09500 30.09300
H  23.46800 56.93500 32.37400
H  24.96000 56.09700 32.78800
H  23.35100 55.47700 33.38200

