158

Mg -2.61900 17.27200 27.03300
C  -3.13900 15.26000 29.91700
C  -3.02200 20.13000 29.05000
C  -2.60400 19.22300 24.40600
C  -2.45500 14.39100 25.17700
N  -3.03300 17.62600 29.24200
C  -3.13600 16.65700 30.20300
C  -3.46600 17.32100 31.59300
C  -3.30900 18.87000 31.30000
C  -3.10900 18.87500 29.76900
C  -4.47300 19.71300 31.79500
C  -2.64100 16.74300 32.76900
C  -2.31300 17.66300 33.94300
H  -2.06700 17.03600 35.30800
N  -2.72000 19.42900 26.75300
C  -2.86400 20.38300 27.71300
C  -2.99200 21.64300 27.05300
C  -2.88700 21.45700 25.62500
C  -2.72900 19.97100 25.56700
C  -3.16400 22.97100 27.78600
C  -2.82800 22.46800 24.48600
O  -2.79300 22.14500 23.33700
C  -2.92600 23.89500 24.86100
N  -2.45400 16.82900 25.14600
C  -2.48300 17.82500 24.16300
C  -2.51200 17.25400 22.74800
C  -2.13900 15.70000 23.02900
C  -2.29300 15.63000 24.55500
C  -3.70700 17.45900 21.80400
C  -0.75700 15.21600 22.50700
C  0.48200 15.86800 23.17300
N  -2.71000 15.22100 27.42100
C  -2.64000 14.18600 26.57100
C  -2.76700 12.91100 27.23500
C  -3.01800 13.26800 28.58800
C  -2.92700 14.75300 28.65300
C  -2.65200 11.47600 26.70000
C  -3.25700 12.74600 29.91800
O  -3.33300 11.56600 30.31600
C  -3.39400 14.02900 30.82800
C  -2.14500 13.85900 31.66700
O  -0.97900 14.17300 31.38400
O  -2.42800 13.26200 32.94800
C  -1.37400 13.22900 33.88500
H  -3.08700 20.97400 29.74000
H  -2.67900 19.77900 23.46900
H  -2.49500 13.52000 24.52000
H  -4.49800 17.02300 31.78100
H  -2.40500 19.32700 31.70200
H  -5.06000 19.04100 32.42000
H  -4.99300 20.07300 30.90700
H  -4.29800 20.60400 32.39800
H  -1.69500 16.38600 32.36300
H  -3.13900 15.87700 33.20500
H  -3.19300 18.30200 34.01300
H  -1.33700 18.07800 33.69100
H  -2.28600 23.60000 27.64000
H  -3.42400 23.01500 28.84400
H  -4.01100 23.49500 27.34500
H  -3.88400 24.14200 25.31900
H  -2.96000 24.29300 23.84700
H  -2.17100 24.45100 25.41600
H  -1.57500 17.53200 22.26500
H  -2.97700 15.21800 22.52500
H  -4.40700 16.62400 21.82800
H  -3.30900 17.83100 20.86000
H  -4.31400 18.24500 22.25300
H  -0.73800 15.46300 21.44600
H  -0.80900 14.12900 22.57500
H  0.75900 16.78200 22.64700
H  1.33300 15.22400 22.94900
H  0.49900 15.95100 24.26000
H  -2.08600 11.46000 25.76900
H  -3.65800 11.15500 26.43200
H  -2.14100 10.87200 27.45000
H  -4.28900 14.08400 31.44700
H  -1.62600 13.56500 34.89100
H  -0.46400 13.72500 33.54500
H  -1.00800 12.20300 33.86600
Mg 8.70700 3.69700 27.30600
C  9.93800 2.26900 30.11900
C  6.53000 5.65700 29.17200
C  6.92900 4.62600 24.47100
C  10.27600 1.25800 25.33400
N  8.31000 3.89900 29.41100
C  9.02600 3.29600 30.38200
C  8.57200 3.96700 31.77000
C  7.31800 4.77600 31.33500
C  7.39100 4.80400 29.85600
C  5.99900 4.21200 31.86300
C  9.80000 4.78800 32.35200
C  9.55400 5.60300 33.66100
H  10.35800 5.06000 34.99300
N  7.03500 5.00600 26.92200
C  6.31300 5.67200 27.81600
C  5.25100 6.49000 27.14200
C  5.45400 6.31200 25.75600
C  6.47600 5.24600 25.64800
C  4.27400 7.20100 27.95300
C  4.74700 6.96800 24.57800
O  4.87100 6.64700 23.40000
C  3.79300 8.04800 24.87100
N  8.68400 3.11300 25.21700
C  7.89800 3.63900 24.23000
C  8.23700 3.06800 22.83100
C  9.14600 1.86000 23.13500
C  9.49200 2.12800 24.61500
C  7.01300 2.72300 21.83400
C  10.45300 1.81200 22.32800
C  10.87000 0.41500 21.87500
N  9.98900 2.15500 27.60700
C  10.57500 1.20500 26.72900
C  11.44300 0.25900 27.48400
C  11.27300 0.71900 28.80000
C  10.31500 1.79900 28.83600
C  12.28000 -0.93100 27.01900
C  11.71300 0.52100 30.18600
O  12.47700 -0.30000 30.63300
C  10.84800 1.52000 31.07400
C  10.06400 0.80800 32.17600
O  9.11100 0.06800 31.91900
O  10.47500 1.20900 33.41100
C  9.87500 0.54400 34.61400
H  5.80000 6.17900 29.79500
H  6.39700 4.82000 23.53700
H  10.64400 0.40600 24.75900
H  8.47500 3.23300 32.57100
H  7.34900 5.81900 31.64900
H  5.37300 5.02600 32.22800
H  6.04800 3.43300 32.62300
H  5.48700 3.71500 31.03900
H  10.36800 5.24700 31.54300
H  10.44800 3.95200 32.61600
H  8.48900 5.68800 33.87900
H  9.85600 6.64600 33.56600
H  3.39200 7.48800 27.38000
H  4.69800 7.94300 28.63000
H  3.94200 6.39400 28.60700
H  2.99700 7.56800 25.43900
H  3.37800 8.43700 23.94100
H  4.20400 8.85300 25.48000
H  8.87600 3.79900 22.33700
H  8.56300 0.94000 23.09400
H  6.08900 3.22300 22.12300
H  6.71000 1.68100 21.93600
H  7.35200 2.96900 20.82800
H  11.26800 2.20800 22.93300
H  10.33100 2.42100 21.43200
H  9.96100 -0.18600 21.87200
H  11.65100 -0.03900 22.48500
H  11.24800 0.34600 20.85500
H  12.07500 -1.08200 25.95900
H  11.86100 -1.79600 27.53300
H  13.35800 -0.90600 27.17300
H  11.50700 2.20000 31.61400
H  9.33400 -0.37200 34.37700
H  9.13500 1.19000 35.08800
H  10.55300 0.33000 35.44000

