158

Mg 46.74900 44.47500 42.28900
C  43.39100 43.42500 42.25100
C  47.79600 41.20600 41.87600
C  49.93100 45.66000 42.25000
C  45.52000 47.76000 42.34900
N  45.67000 42.59500 42.00000
C  44.31000 42.37100 42.04200
C  44.02800 40.86100 41.78300
C  45.40400 40.18700 41.98900
C  46.36500 41.38000 41.93000
C  45.45600 39.29100 43.26800
C  43.21400 40.54100 40.49300
C  43.63400 41.27000 39.24000
H  43.37600 40.65900 37.84400
N  48.62500 43.57500 42.07700
C  48.81700 42.19600 41.98400
C  50.22900 41.96200 41.95200
C  50.96500 43.18300 42.11700
C  49.88800 44.21500 42.15200
C  50.75700 40.51800 41.78300
C  52.48400 43.37900 42.04300
O  53.20000 42.41200 41.87900
C  52.99800 44.73900 42.32200
N  47.61500 46.43600 42.01200
C  48.92600 46.68700 42.19800
C  49.34300 48.16600 42.36300
C  47.88000 48.76800 42.17400
C  46.85600 47.57000 42.12800
C  50.07300 48.46500 43.74000
C  47.55500 49.81100 41.04100
C  48.17800 51.21000 41.35700
N  44.86900 45.50900 42.33800
C  44.46400 46.83800 42.44900
C  43.04200 47.00900 42.77800
C  42.61600 45.65500 42.61700
C  43.72100 44.82800 42.33200
C  42.31900 48.28400 43.15500
C  41.43600 44.87000 42.52900
O  40.26600 45.09800 42.81200
C  41.84200 43.39700 42.21300
C  41.17100 42.40200 43.11700
O  41.44700 42.22000 44.27100
O  40.20600 41.71200 42.28600
C  39.52300 40.59300 42.86600
H  47.97800 40.14800 41.67700
H  50.84500 46.21600 42.46600
H  45.13100 48.75700 42.56800
H  43.29900 40.58800 42.54600
H  45.72400 39.52000 41.18900
H  44.48000 38.98500 43.64400
H  46.01100 39.91500 43.96800
H  46.14700 38.45600 43.15400
H  42.19900 40.79500 40.79900
H  43.29500 39.46700 40.32200
H  44.71900 41.35500 39.29500
H  43.21200 42.26600 39.37600
H  50.79600 40.12600 40.76700
H  50.11500 39.88700 42.39800
H  51.76900 40.37500 42.16200
H  52.63400 45.45500 41.58600
H  54.08600 44.77500 42.27300
H  52.58900 45.11200 43.26100
H  49.96600 48.60000 41.58200
H  47.51900 49.31200 43.04700
H  50.37700 47.49100 44.12400
H  49.32600 48.82200 44.44800
H  50.93300 49.13300 43.69400
H  46.50800 50.04300 40.84700
H  48.13000 49.52200 40.16200
H  48.68600 51.25000 42.32100
H  47.50700 52.05200 41.18600
H  49.08100 51.31300 40.75700
H  42.46900 48.44600 44.22300
H  41.27500 48.14100 42.87500
H  42.85500 49.10100 42.67200
H  41.49300 43.11900 41.21900
H  40.21900 40.13100 43.56600
H  39.19800 39.79800 42.19500
H  38.63100 40.96900 43.36600
Mg -0.04300 44.00600 25.79800
C  2.09900 43.79800 28.64400
C  -2.53900 42.90900 27.85500
C  -2.04800 43.71100 23.07800
C  2.65500 44.88500 23.84600
N  -0.22000 43.57900 28.08500
C  0.74600 43.52500 29.01400
C  0.19300 43.29400 30.35700
C  -1.27600 42.79900 30.07400
C  -1.38900 43.20900 28.59200
C  -1.61500 41.37200 30.51200
C  0.30500 44.61300 31.21900
C  0.78200 44.38200 32.70200
H  0.42500 43.07400 33.33500
N  -1.94000 43.29400 25.50200
C  -2.85100 42.87400 26.51100
C  -4.11500 42.44400 25.94900
C  -4.00200 42.65100 24.54800
C  -2.55500 43.13300 24.28700
C  -5.33000 42.17300 26.78500
C  -5.09000 42.44400 23.45500
O  -4.98000 42.77200 22.32800
C  -6.34800 41.86800 23.81200
N  0.35100 44.14800 23.79000
C  -0.76200 44.22000 22.87500
C  -0.39900 45.13800 21.65000
C  1.14000 45.50900 21.95800
C  1.43300 44.85900 23.26400
C  -0.62400 44.57800 20.23000
C  1.36000 47.02400 22.02700
C  1.59400 47.69300 20.65000
N  2.00900 44.26300 26.09300
C  3.02000 44.51000 25.18300
C  4.29200 44.52300 25.75800
C  3.99200 44.30200 27.16800
C  2.59600 44.09900 27.31400
C  5.54800 44.98200 25.00900
C  4.56600 44.13300 28.48000
O  5.76200 44.13300 28.78600
C  3.38500 43.79000 29.44600
C  3.67200 42.49800 30.07800
O  3.32000 41.42100 29.63000
O  4.33200 42.69400 31.23000
C  4.63200 41.49300 32.01200
H  -3.40000 42.65600 28.47700
H  -2.69700 43.79600 22.20400
H  3.47600 45.36700 23.31200
H  0.72900 42.50800 30.88800
H  -2.05300 43.36000 30.59400
H  -1.76500 40.69700 29.67000
H  -2.40800 41.31600 31.25900
H  -0.73100 40.98600 31.01900
H  -0.62100 45.18700 31.25100
H  1.08500 45.26100 30.81800
H  0.40800 45.22000 33.29000
H  1.85300 44.58100 32.67400
H  -6.10700 42.91100 26.58800
H  -5.21200 41.90100 27.83400
H  -5.67100 41.22400 26.37000
H  -6.94500 42.55600 24.41000
H  -6.14200 40.89700 24.26200
H  -7.04400 41.79900 22.97700
H  -1.01100 46.03800 21.70000
H  1.83800 45.03800 21.26600
H  -1.63500 44.77000 19.86800
H  -0.50500 43.50200 20.35300
H  0.12200 44.95400 19.53000
H  2.25400 47.29300 22.59000
H  0.50000 47.45400 22.54000
H  0.95200 48.57000 20.57200
H  1.36700 46.94300 19.89200
H  2.65000 47.96200 20.65800
H  5.49400 45.98700 24.59000
H  5.88100 44.15600 24.38100
H  6.29400 45.13600 25.78800
H  3.38600 44.51700 30.25800
H  3.67000 40.98200 32.06400
H  4.88800 41.68900 33.05300
H  5.37900 40.85900 31.53500

