158

Mg 44.50800 5.34100 47.37300
C  42.77200 8.20100 47.05800
C  41.76400 3.43300 46.86900
C  46.55200 2.72900 47.11100
C  47.51100 7.46300 47.85700
N  42.58300 5.72800 46.94900
C  42.02400 6.99900 46.90000
C  40.55800 6.81400 46.41300
C  40.18900 5.39000 46.85700
C  41.60400 4.80500 46.90700
C  39.47300 5.34900 48.28400
C  40.38200 7.13100 44.82900
C  39.39400 8.19700 44.42600
H  39.23500 8.69000 42.95700
N  44.23100 3.35100 46.96900
C  42.99300 2.77700 46.80200
C  43.17500 1.38000 46.45700
C  44.61800 1.11400 46.53300
C  45.21400 2.40400 46.94500
C  42.06500 0.48900 46.06700
C  45.31800 -0.20700 46.33400
O  44.64400 -1.28300 46.24400
C  46.77600 -0.35600 46.42900
N  46.70800 5.12800 47.39800
C  47.23900 3.88900 47.39700
C  48.78100 3.98300 47.54600
C  49.02000 5.47000 47.97200
C  47.67000 6.04600 47.75500
C  49.36400 2.93600 48.50000
C  50.09800 6.17600 47.08900
C  51.27900 6.66800 47.93400
N  45.08300 7.46000 47.44000
C  46.22700 8.11300 47.74900
C  45.99400 9.60800 47.65200
C  44.59000 9.67600 47.36900
C  44.10900 8.34000 47.31100
C  47.05800 10.74000 47.70800
C  43.50400 10.57300 47.04700
O  43.50500 11.81100 46.97700
C  42.16600 9.63700 46.91500
C  41.32800 9.94700 48.00000
O  41.52800 9.60800 49.13500
O  40.07900 10.31600 47.50400
C  38.95200 10.27400 48.39600
H  40.82300 2.89200 46.75000
H  47.37900 2.01700 47.07100
H  48.44500 7.98900 48.06500
H  39.95600 7.56700 46.92200
H  39.55400 4.90100 46.11900
H  40.17000 5.19100 49.10700
H  38.70700 4.57600 48.33800
H  38.92900 6.26000 48.53400
H  39.92500 6.29700 44.29500
H  41.28800 7.33500 44.25900
H  39.55900 9.10800 45.00200
H  38.38600 7.88200 44.69700
H  41.24100 0.95200 45.52300
H  41.64900 -0.00600 46.94500
H  42.37500 -0.34900 45.44300
H  47.20100 0.30200 45.67100
H  47.14400 -1.38000 46.35900
H  47.09200 -0.12400 47.44600
H  49.31600 3.76700 46.62100
H  49.17400 5.57700 49.04600
H  50.25200 2.65000 47.93600
H  48.65100 2.14100 48.71600
H  49.79900 3.43200 49.36800
H  49.79900 7.08000 46.55800
H  50.50900 5.40600 46.43700
H  51.28500 6.13300 48.88400
H  51.14300 7.70800 48.23100
H  52.24600 6.54600 47.44600
H  47.11300 11.34100 48.61500
H  46.84600 11.42700 46.88800
H  48.00000 10.25300 47.45600
H  41.55100 9.81300 46.03300
H  39.28800 10.74600 49.32000
H  38.77100 9.20600 48.51400
H  38.11500 10.79200 47.92900
Mg -9.70400 39.33900 40.20500
C  -9.10200 35.97600 39.66800
C  -6.50600 40.04300 39.18700
C  -10.46200 42.60300 39.98400
C  -13.16800 38.59200 40.70600
N  -8.00100 38.11300 39.41000
C  -7.95500 36.74000 39.34300
C  -6.54000 36.19400 38.97600
C  -5.71500 37.54600 39.21100
C  -6.78100 38.63800 39.29100
C  -4.79900 37.37200 40.48700
C  -6.54600 35.59000 37.50600
C  -6.95700 36.47700 36.35100
H  -8.23600 36.10900 35.56600
N  -8.63800 41.11000 39.70900
C  -7.35800 41.22000 39.27600
C  -7.00900 42.62200 38.97500
C  -8.19400 43.39600 39.19700
C  -9.14800 42.40800 39.66700
C  -5.65800 43.08500 38.49100
C  -8.29500 44.84500 38.95300
O  -7.30000 45.48500 38.60200
C  -9.60200 45.59600 39.24100
N  -11.55600 40.38700 40.34400
C  -11.48400 41.77500 40.39300
C  -12.89300 42.40100 40.66300
C  -13.84300 41.14300 40.71000
C  -12.84900 39.96400 40.59000
C  -12.91300 43.27500 41.97200
C  -14.82800 41.11300 39.47700
C  -16.13900 40.27900 39.70100
N  -10.89500 37.66000 40.46600
C  -12.27100 37.48900 40.60200
C  -12.54100 36.06200 40.64100
C  -11.35700 35.46400 40.26300
C  -10.41700 36.47800 40.11800
C  -13.92700 35.49500 40.96600
C  -10.69700 34.10000 39.87500
O  -11.04000 32.91400 39.73900
C  -9.21500 34.42600 39.39000
C  -8.25700 33.46600 40.05100
O  -8.33600 33.26800 41.21500
O  -7.33600 32.92200 39.15400
C  -6.23700 32.27500 39.87200
H  -5.46800 40.27600 38.93800
H  -10.82600 43.62000 40.14200
H  -14.21700 38.38500 40.93000
H  -6.34100 35.37800 39.67000
H  -5.06500 37.74300 38.35800
H  -4.97800 36.42300 40.99300
H  -5.02400 38.11100 41.25600
H  -3.77100 37.39300 40.12500
H  -7.15200 34.68900 37.41600
H  -5.51100 35.36600 37.25000
H  -6.13900 36.63000 35.64700
H  -7.18300 37.44400 36.80000
H  -5.73500 43.42900 37.46000
H  -4.90900 42.29800 38.58200
H  -5.25900 43.86200 39.14400
H  -9.91500 45.52700 40.28300
H  -10.42700 45.22300 38.63400
H  -9.44900 46.62900 38.93100
H  -13.15400 43.04000 39.82000
H  -14.36000 40.98800 41.65700
H  -13.33800 42.79800 42.85500
H  -13.53900 44.12500 41.70300
H  -11.91600 43.61500 42.25200
H  -14.32700 40.78400 38.56700
H  -15.11000 42.16000 39.36400
H  -16.26900 40.04300 40.75800
H  -16.05600 39.38400 39.08400
H  -16.98500 40.87300 39.35600
H  -14.45100 35.99200 41.78300
H  -13.72300 34.44600 41.18200
H  -14.56300 35.49000 40.08100
H  -9.25000 34.24600 38.31600
H  -5.32300 32.58200 39.36200
H  -6.40500 31.19900 39.83300
H  -6.10500 32.51100 40.92800

