158

Mg 9.04800 3.83800 27.58800
C  10.60400 2.29600 30.39100
C  7.10900 5.66100 29.88500
C  7.27900 4.98700 25.03100
C  10.61900 1.50200 25.59600
N  8.70900 3.79200 29.88600
C  9.68100 3.30100 30.80900
C  9.31000 3.69300 32.28600
C  8.06100 4.67600 31.98700
C  7.91400 4.71100 30.44400
C  6.77800 4.29900 32.75800
C  10.64400 4.27400 32.94900
C  11.14300 3.59300 34.25400
H  11.28000 4.37700 35.56900
N  7.53500 5.21300 27.43200
C  6.86700 5.85700 28.45300
C  5.98200 6.80500 27.85300
C  6.11000 6.70300 26.46000
C  7.02100 5.61000 26.23900
C  5.24200 7.72400 28.83400
C  5.54100 7.52400 25.29100
O  5.69900 7.44300 24.10100
C  4.62100 8.56700 25.76600
N  8.94300 3.26500 25.58300
C  8.16000 3.95400 24.68500
C  8.42600 3.36200 23.28400
C  9.51300 2.25600 23.44000
C  9.73200 2.33700 24.92500
C  7.07400 2.79700 22.67400
C  10.77500 2.57700 22.63300
C  11.64800 1.41300 22.09100
N  10.42900 2.23300 27.89500
C  10.96300 1.38500 26.95300
C  11.91300 0.51100 27.60300
C  11.86500 0.87400 28.90400
C  10.92700 1.87800 29.08900
C  12.68600 -0.56600 26.99100
C  12.34700 0.51900 30.20900
O  13.00500 -0.45000 30.54300
C  11.56800 1.50700 31.25000
C  10.85400 0.76000 32.27600
O  9.65500 0.40500 32.21800
O  11.66600 0.48700 33.33800
C  11.14600 -0.01600 34.61700
H  6.54600 6.37700 30.48700
H  6.67200 5.23900 24.15900
H  11.24200 0.76800 25.08100
H  8.96800 2.78300 32.77900
H  8.34200 5.68700 32.28100
H  5.98000 4.09300 32.04500
H  6.40400 5.11000 33.38200
H  6.82900 3.36600 33.31900
H  10.30000 5.29300 33.12400
H  11.42100 4.21400 32.18600
H  12.15700 3.28100 34.00400
H  10.58700 2.67900 34.46400
H  4.88600 7.12000 29.66900
H  4.41200 8.23500 28.34500
H  5.95400 8.46600 29.19600
H  5.18600 9.16800 26.47900
H  3.70400 8.12000 26.14900
H  4.26800 9.11200 24.89100
H  8.79600 4.17500 22.66000
H  9.13100 1.31900 23.03400
H  6.57300 3.42100 21.93400
H  6.43700 2.69000 23.55200
H  7.31500 1.83400 22.22300
H  11.38500 3.25100 23.23400
H  10.58400 3.38700 21.92900
H  11.60400 1.39400 21.00200
H  11.22500 0.53700 22.58300
H  12.66300 1.66500 22.39700
H  13.32400 -0.22900 26.17300
H  12.06700 -1.45600 26.87500
H  13.40500 -0.86400 27.75400
H  12.35300 2.15700 31.63600
H  11.19700 0.76400 35.37600
H  11.82000 -0.78800 34.99000
H  10.18800 -0.52800 34.52400
Mg 30.22400 59.10400 40.40600
C  27.48000 56.73800 39.58300
C  32.34800 56.67700 39.41200
C  32.44900 61.54500 40.23800
C  27.69600 61.35300 41.09200
N  29.90100 56.96000 39.53500
C  28.78300 56.20200 39.36800
C  29.15500 54.81300 38.73700
C  30.66500 54.71100 39.17700
C  31.03800 56.21500 39.39700
C  31.10900 53.69300 40.27700
C  29.01800 54.71800 37.23800
C  28.18000 53.49800 36.77100
H  27.54400 53.61600 35.36500
N  32.26000 59.12500 39.89900
C  32.96700 57.99100 39.51500
C  34.38500 58.35300 39.45200
C  34.49300 59.78100 39.67600
C  33.10200 60.24600 39.98000
C  35.39900 57.38400 39.12700
C  35.73500 60.68200 39.50700
O  36.86800 60.20000 39.31100
C  35.65300 62.19300 39.60800
N  30.10000 61.15400 40.50700
C  31.17900 61.99300 40.50800
C  30.81600 63.43600 40.73100
C  29.29400 63.40400 40.96800
C  28.94400 61.90500 40.85300
C  31.57100 63.95000 42.02700
C  28.45700 64.24900 39.98000
C  27.56100 65.29200 40.63100
N  28.00300 59.10900 40.45200
C  27.19300 60.07300 40.80700
C  25.77600 59.62300 40.77400
C  25.87000 58.40300 40.16800
C  27.25800 58.08300 40.07400
C  24.45800 60.35400 41.04400
C  25.12700 57.32000 39.60100
O  23.94000 57.23100 39.37100
C  26.11400 56.14300 39.30300
C  25.77500 55.07300 40.18400
O  25.70600 55.21000 41.40100
O  25.62500 53.97200 39.53100
C  25.46500 52.71300 40.30000
H  33.07700 55.89200 39.19900
H  33.12600 62.39900 40.30600
H  26.93700 62.06500 41.42300
H  28.58400 54.06000 39.28100
H  31.28700 54.35600 38.35500
H  31.83600 52.96600 39.91400
H  30.29400 53.17000 40.77800
H  31.75800 54.31900 40.89100
H  29.96600 54.78800 36.70500
H  28.54600 55.65100 36.93100
H  27.32600 53.38600 37.43900
H  28.75900 52.59200 36.94900
H  36.31600 57.49500 39.70500
H  35.55200 57.47500 38.05100
H  35.11100 56.35400 39.33600
H  34.80700 62.56800 39.03200
H  36.57300 62.70400 39.32300
H  35.42300 62.29500 40.66900
H  31.02300 63.97300 39.80600
H  29.02800 63.62900 42.00100
H  30.91900 64.39500 42.77800
H  32.27600 64.70400 41.67800
H  32.21600 63.14400 42.37700
H  27.78200 63.67900 39.34100
H  29.20300 64.79000 39.39800
H  28.02700 66.26400 40.46700
H  27.44100 65.13500 41.70300
H  26.56000 65.37100 40.20800
H  23.85400 60.54000 40.15600
H  24.51600 61.24900 41.66300
H  23.87900 59.69800 41.69500
H  26.00100 55.64500 38.34000
H  26.38500 52.37700 40.77800
H  25.17900 51.95800 39.56800
H  24.66300 52.86200 41.02300

