158

Mg 0.39000 7.25800 25.93800
C  1.16600 9.35800 28.73200
C  0.67500 4.55900 28.11500
C  -0.27500 5.38900 23.35200
C  0.92000 10.11900 23.85900
N  0.73300 7.04200 28.24800
C  1.06700 8.04700 29.14000
C  1.27600 7.42300 30.50500
C  1.35100 5.88900 30.25700
C  0.86100 5.75500 28.76300
C  2.76100 5.28100 30.35000
C  0.14100 7.81000 31.40200
C  0.42500 7.91800 32.88000
H  1.65500 7.08200 33.44700
N  0.09600 5.22900 25.78400
C  0.36500 4.31600 26.81800
C  0.23500 3.02700 26.23500
C  -0.10600 3.18400 24.82000
C  -0.08100 4.63000 24.55600
C  0.58900 1.85700 27.12800
C  -0.36700 2.20100 23.81900
O  -0.69700 2.47300 22.64600
C  -0.47900 0.77200 24.30500
N  0.60600 7.65300 23.86000
C  0.07900 6.73400 23.00400
C  -0.11000 7.36900 21.62500
C  0.08200 8.92900 21.81600
C  0.55700 8.91700 23.26600
C  0.85300 6.85300 20.50700
C  -1.15100 9.85300 21.63400
C  -1.41400 10.54100 20.21500
N  0.93000 9.35800 26.22500
C  1.05900 10.35800 25.25900
C  1.47900 11.55800 25.93500
C  1.50100 11.26600 27.29100
C  1.10100 9.88100 27.37400
C  1.71500 12.89000 25.21600
C  1.68800 11.83400 28.64000
O  2.13400 12.91600 28.96500
C  1.44600 10.50100 29.63700
C  2.67800 10.56600 30.44600
O  3.82700 10.27500 30.07500
O  2.30500 10.74500 31.74200
C  3.37200 10.69900 32.70000
H  1.00400 3.68400 28.67900
H  -0.74500 4.77500 22.58100
H  0.97100 11.09500 23.37300
H  2.19500 7.89000 30.86000
H  0.72100 5.27700 30.90300
H  2.73000 4.62900 31.22300
H  3.35900 6.13900 30.65400
H  3.03200 4.88800 29.37000
H  -0.58300 7.00500 31.27300
H  -0.36700 8.66900 30.96400
H  -0.47600 7.62100 33.41700
H  0.51700 8.99000 33.05200
H  0.53100 0.95700 26.51600
H  -0.12600 1.78000 27.94600
H  1.60800 1.86500 27.51600
H  0.43700 0.25000 24.58000
H  -0.89100 0.10600 23.54700
H  -1.13700 0.74100 25.17300
H  -1.16600 7.22600 21.39500
H  0.88000 9.34900 21.20400
H  1.46300 6.05000 20.92000
H  1.44800 7.67300 20.10600
H  0.30900 6.35800 19.70300
H  -1.04200 10.74000 22.25900
H  -1.98500 9.20500 21.90400
H  -2.47700 10.47500 19.98500
H  -0.84000 10.11800 19.39100
H  -1.05500 11.56500 20.32100
H  0.79700 13.47300 25.28100
H  2.05600 12.86900 24.18000
H  2.53200 13.41200 25.71500
H  0.55100 10.66500 30.23700
H  3.61600 11.75700 32.80300
H  4.28800 10.14200 32.50600
H  3.12600 10.37500 33.71100
Mg 0.66800 43.57300 25.59300
C  2.94700 43.05800 28.16100
C  -1.83900 42.66200 27.87600
C  -1.50000 43.56400 23.04600
C  3.29900 43.65400 23.34700
N  0.58600 43.00900 27.76500
C  1.58100 43.01500 28.67300
C  1.10600 42.82500 30.20400
C  -0.44200 42.61100 29.99100
C  -0.57600 42.65100 28.44500
C  -1.07200 41.36900 30.77400
C  1.51000 44.17400 30.98500
C  1.69100 44.04500 32.54200
H  1.25000 42.81100 33.29200
N  -1.35800 43.24700 25.50200
C  -2.21600 42.96900 26.54200
C  -3.54600 43.05500 26.01600
C  -3.49600 43.40300 24.71600
C  -2.05900 43.37600 24.34000
C  -4.84600 42.90200 26.95600
C  -4.64400 43.70500 23.75500
O  -4.44700 44.05200 22.55100
C  -6.06300 43.62000 24.23300
N  0.89500 43.83400 23.59000
C  -0.14600 43.69100 22.70400
C  0.32700 43.40700 21.29700
C  1.76000 43.78700 21.33000
C  2.02900 43.79300 22.82400
C  0.07700 41.98100 20.80400
C  1.95700 45.23000 20.70000
C  1.86500 46.54100 21.58200
N  2.78300 43.42400 25.64800
C  3.71800 43.59500 24.66500
C  5.05900 43.36700 25.22300
C  4.83500 43.18400 26.62100
C  3.39500 43.18800 26.84000
C  6.45700 43.51400 24.58400
C  5.44000 42.91800 27.93800
O  6.62500 42.88200 28.24900
C  4.26000 42.92000 28.96800
C  4.39000 41.74800 29.95100
O  4.44900 40.55600 29.79100
O  4.51300 42.30600 31.14600
C  5.14400 41.49700 32.18700
H  -2.62800 42.62900 28.63000
H  -2.20900 43.34600 22.24400
H  4.12000 43.88700 22.66600
H  1.52300 41.96100 30.72200
H  -1.04800 43.48200 30.24200
H  -1.85800 41.80900 31.38800
H  -0.34900 40.95700 31.47800
H  -1.59700 40.72300 30.07100
H  0.79400 44.98700 30.87000
H  2.33500 44.60700 30.41900
H  1.20200 44.95500 32.89000
H  2.72000 44.23700 32.84700
H  -5.27400 43.90000 27.05000
H  -4.52400 42.57500 27.94400
H  -5.53000 42.13100 26.60100
H  -6.27400 42.63200 24.64200
H  -6.84600 43.73000 23.48300
H  -6.33500 44.44800 24.88700
H  -0.35100 43.94800 20.63700
H  2.52800 43.14800 20.89500
H  0.84300 41.51300 20.18700
H  -0.88500 41.96100 20.29200
H  -0.07500 41.41000 21.72000
H  1.41400 45.22900 19.75500
H  2.98100 45.23300 20.32700
H  2.85500 46.71600 22.00500
H  1.11300 46.51600 22.37000
H  1.66600 47.39200 20.93000
H  6.42200 43.13400 23.56300
H  7.29600 43.03200 25.08400
H  6.71600 44.57300 24.57200
H  4.39700 43.81000 29.58200
H  5.76700 42.09900 32.84800
H  5.74400 40.67800 31.79200
H  4.36000 41.11300 32.83800

