158

Mg 42.12400 40.97400 26.37000
C  41.21900 43.28100 28.94000
C  42.89600 38.66700 28.81000
C  43.15400 39.03700 23.99400
C  41.61300 43.63100 24.02200
N  42.07000 41.01000 28.61100
C  41.59200 41.97800 29.45800
C  41.64200 41.54200 30.92300
C  42.25600 40.09500 30.77800
C  42.54800 39.91400 29.32100
C  43.54200 39.93400 31.54300
C  40.21800 41.57900 31.47200
C  40.02600 42.35700 32.83700
H  39.07800 41.81200 33.91900
N  42.87600 39.09700 26.39700
C  43.05600 38.27200 27.47800
C  43.58700 37.01100 27.00100
C  43.73400 37.13200 25.59700
C  43.17300 38.42800 25.20800
C  43.90600 35.84100 27.95600
C  44.27400 36.04300 24.62400
O  44.18700 36.20400 23.40100
C  44.81000 34.74800 25.17300
N  42.19400 41.23100 24.34700
C  42.66500 40.24000 23.53500
C  42.55600 40.64300 22.07000
C  41.68600 41.93900 22.12700
C  41.87000 42.32800 23.56100
C  43.93800 40.78000 21.36900
C  40.17200 41.64600 21.70000
C  39.36800 40.41800 22.38200
N  41.50000 43.02000 26.41700
C  41.45300 43.93000 25.39600
C  40.95800 45.21600 25.90200
C  40.86200 45.05800 27.36500
C  41.22600 43.62900 27.61100
C  40.65200 46.36400 25.05000
C  40.50200 45.64100 28.60700
O  40.21400 46.80100 28.81600
C  40.64900 44.45800 29.63100
C  41.54900 44.91400 30.79400
O  42.79500 44.81100 30.81400
O  40.80800 45.64700 31.66800
C  41.66700 46.14200 32.84600
H  43.00500 37.92000 29.59900
H  43.62300 38.47300 23.18600
H  41.28800 44.34100 23.25700
H  42.25800 42.21700 31.51800
H  41.51900 39.30700 30.92900
H  43.58800 38.92800 31.96100
H  43.62500 40.66300 32.34900
H  44.42900 39.98700 30.91300
H  39.88800 40.58000 31.75700
H  39.48600 41.97600 30.76800
H  39.49700 43.26800 32.55600
H  41.01300 42.44200 33.29100
H  43.22700 35.04800 27.64200
H  43.53900 35.91900 28.97900
H  44.97100 35.62800 27.85400
H  44.00300 34.16700 25.62000
H  45.65300 34.97400 25.82500
H  45.16000 34.27400 24.25600
H  42.00500 39.82100 21.61400
H  42.05900 42.62500 21.36600
H  44.24200 41.82400 21.29200
H  43.80500 40.29600 20.40100
H  44.57400 40.20300 22.04100
H  40.12400 41.55700 20.61400
H  39.53800 42.52300 21.83200
H  38.89800 39.85700 21.57400
H  38.68100 40.91800 23.06500
H  40.04600 39.80900 22.98000
H  41.30500 46.40300 24.17800
H  40.66100 47.27800 25.64300
H  39.62600 46.20700 24.71700
H  39.69900 44.08700 30.01600
H  41.87700 45.32900 33.54100
H  40.90800 46.78900 33.28400
H  42.47800 46.74200 32.43300
Mg 30.45100 58.24100 40.24100
C  27.73900 56.19100 39.39400
C  32.48300 55.54300 40.08400
C  33.00000 60.37500 40.08300
C  28.11500 60.94300 40.70300
N  30.18400 56.14400 39.35600
C  28.97700 55.51500 39.29000
C  29.19400 54.05500 38.98900
C  30.51800 53.75500 39.70200
C  31.12000 55.22300 39.78200
C  30.48000 53.09600 41.06600
C  29.24600 53.80800 37.48500
C  28.04000 52.95100 37.00400
H  27.24100 53.52600 35.86000
N  32.51700 58.01800 40.04800
C  33.17100 56.79300 40.03400
C  34.60400 57.06700 39.86700
C  34.77800 58.51200 39.92900
C  33.37800 59.06000 39.95000
C  35.65500 55.99900 39.63600
C  36.09900 59.19500 40.03200
O  37.11500 58.49900 40.14200
C  36.25500 60.66800 39.99900
N  30.54200 60.35100 40.35200
C  31.73900 60.95100 40.19000
C  31.51400 62.51900 40.24800
C  30.00900 62.69000 40.67000
C  29.52100 61.24000 40.57600
C  32.54600 63.26200 41.04800
C  29.31700 63.75500 39.81400
C  28.21100 64.55700 40.54800
N  28.32300 58.57100 40.09200
C  27.53200 59.68100 40.41400
C  26.13800 59.28200 40.31000
C  26.14100 57.95300 39.91200
C  27.53400 57.50600 39.83800
C  24.89800 60.14400 40.37400
C  25.30400 56.76700 39.53300
O  24.09500 56.67700 39.36800
C  26.28700 55.55700 39.23200
C  26.04000 54.48900 40.26000
O  26.62800 54.46700 41.30200
O  25.16000 53.48500 39.77000
C  24.95000 52.49500 40.84100
H  33.14400 54.68600 40.22900
H  33.76500 61.14800 39.98500
H  27.43000 61.78200 40.84000
H  28.43300 53.39100 39.40100
H  31.21600 53.16200 39.11200
H  31.47100 53.21600 41.50500
H  30.32400 52.04000 40.84700
H  29.67100 53.41400 41.72200
H  30.09800 53.17700 37.23300
H  29.44000 54.71300 36.90900
H  27.30100 52.80900 37.79300
H  28.33500 51.92800 36.76900
H  36.32300 56.53900 38.96500
H  35.24100 55.12000 39.14300
H  36.15200 55.62100 40.52900
H  36.01900 61.21200 39.08400
H  37.20100 61.01700 40.41300
H  35.61000 61.11900 40.75300
H  31.56200 62.86600 39.21500
H  29.93100 63.02100 41.70500
H  33.49200 63.35300 40.51500
H  32.72900 62.78200 42.00900
H  32.00100 64.17500 41.29000
H  28.94900 63.22500 38.93500
H  30.09100 64.45600 39.50200
H  28.44300 65.61000 40.38800
H  28.28800 64.49500 41.63400
H  27.23800 64.37900 40.09000
H  24.62800 60.47500 39.37100
H  25.01200 60.96400 41.08300
H  24.14700 59.43100 40.71400
H  26.16300 55.16000 38.22500
H  25.84200 51.90900 41.05900
H  24.25400 51.76000 40.43800
H  24.43700 52.99800 41.66100

