158

Mg 16.87400 -1.33700 28.12600
C  15.62700 0.38700 30.83400
C  18.61100 -3.34000 30.25900
C  18.53100 -2.59100 25.63100
C  15.41800 1.01500 25.99300
N  17.19400 -1.31400 30.39200
C  16.45500 -0.61100 31.27900
C  16.85300 -0.99900 32.73100
C  18.02900 -2.03400 32.52200
C  17.96500 -2.29700 30.95500
C  19.42100 -1.46500 32.95500
C  15.59000 -1.44400 33.53400
C  15.26300 -0.58300 34.80400
H  16.44000 -0.63400 35.84200
N  18.05700 -2.96300 27.96100
C  18.68000 -3.69300 28.91900
C  19.39000 -4.82800 28.35200
C  19.38400 -4.66700 26.95100
C  18.57400 -3.40200 26.75100
C  20.11800 -5.87100 29.08700
C  19.98400 -5.55500 25.94700
O  19.80400 -5.28200 24.79700
C  20.90400 -6.74900 26.32800
N  16.94900 -0.84400 26.13000
C  17.87300 -1.44200 25.35000
C  17.99800 -0.77300 23.92500
C  16.79800 0.28500 23.99300
C  16.37400 0.18100 25.44400
C  19.39700 -0.30300 23.42200
C  15.67600 0.07900 23.06300
C  15.35000 1.20200 22.00800
N  15.75800 0.39200 28.35700
C  15.19400 1.22900 27.38000
C  14.43100 2.23500 28.06000
C  14.57300 1.93800 29.42800
C  15.36400 0.84000 29.56100
C  13.56500 3.19600 27.44800
C  14.21100 2.40500 30.72800
O  13.45900 3.33300 31.06900
C  14.99500 1.48500 31.68000
C  16.06500 2.26000 32.41100
O  17.10300 2.71100 31.93200
O  15.57100 2.69300 33.62400
C  16.11500 3.88200 34.28000
H  19.16000 -4.05800 30.87000
H  19.12700 -2.91000 24.77300
H  14.94700 1.66300 25.25000
H  17.26900 -0.08800 33.16100
H  17.81800 -2.98000 33.02000
H  19.32200 -0.52400 33.49500
H  20.17100 -1.38400 32.16800
H  19.79300 -2.17800 33.69100
H  15.68500 -2.50800 33.75100
H  14.70000 -1.29100 32.92400
H  14.29700 -0.87800 35.21500
H  15.18900 0.47600 34.56000
H  19.70700 -6.86100 28.89000
H  20.06300 -5.67000 30.15600
H  21.16600 -5.67600 28.85700
H  20.46600 -7.56300 26.90700
H  21.86400 -6.46600 26.76100
H  21.07500 -7.21000 25.35600
H  17.59100 -1.47800 23.19900
H  17.14500 1.31600 23.91500
H  19.47600 0.77900 23.31500
H  19.49000 -0.62300 22.38400
H  20.10800 -0.76500 24.10700
H  14.70800 -0.10000 23.53200
H  15.80800 -0.81000 22.44800
H  15.64200 2.22000 22.26700
H  14.27900 1.18100 21.80800
H  15.73800 0.91600 21.03000
H  14.05800 3.84300 26.72200
H  13.11900 3.94200 28.10600
H  12.73100 2.61000 27.06200
H  14.34500 1.06000 32.44500
H  15.94900 3.78300 35.35200
H  15.60500 4.73000 33.82300
H  17.19000 3.96000 34.11800
Mg 25.38700 1.28400 29.86500
C  27.26200 1.40500 32.79200
C  22.56000 1.87200 31.91200
C  23.50900 1.17000 27.09700
C  28.19100 0.52200 27.86500
N  24.96000 1.46700 32.19600
C  25.92700 1.61900 33.13100
C  25.40500 1.88900 34.51000
C  23.78900 1.84600 34.20900
C  23.71100 1.75900 32.63900
C  22.93800 0.70500 34.73000
C  25.90500 3.20100 35.21900
C  26.84900 3.09000 36.45000
H  26.65800 4.06100 37.56900
N  23.34700 1.48600 29.55600
C  22.39000 1.67700 30.54500
C  21.13300 1.60400 29.89800
C  21.35000 1.45300 28.48000
C  22.78300 1.37400 28.27900
C  19.80200 1.53200 30.65800
C  20.36300 1.25800 27.40600
O  20.64800 0.99400 26.24300
C  18.92900 1.37500 27.70500
N  25.80300 0.66300 27.67700
C  24.80500 0.81800 26.76800
C  25.32500 0.83600 25.33500
C  26.90500 0.65200 25.58300
C  27.01900 0.50200 27.12200
C  24.73800 -0.22000 24.38200
C  27.82400 1.66000 24.86700
C  28.71500 1.11300 23.75000
N  27.32000 0.96600 30.23000
C  28.40800 0.68800 29.28800
C  29.68100 0.67000 30.03500
C  29.25900 0.94200 31.37500
C  27.81300 1.06300 31.50100
C  31.09000 0.45100 29.55500
C  29.76500 1.05800 32.69200
O  30.88600 0.91800 33.08000
C  28.49900 1.37500 33.65600
C  28.40300 0.33600 34.61300
O  27.68800 -0.67600 34.62400
O  29.08300 0.64200 35.76100
C  28.77800 -0.23000 37.01100
H  21.66900 2.05300 32.51800
H  22.92800 1.05900 26.17900
H  28.98800 0.60900 27.12400
H  25.66200 0.99200 35.07200
H  23.29300 2.74000 34.58800
H  22.23700 0.29400 34.00300
H  22.45000 1.12500 35.61000
H  23.57200 -0.14100 34.99400
H  25.03500 3.79000 35.50900
H  26.48400 3.74600 34.47300
H  27.88100 3.21500 36.12400
H  26.84100 2.07700 36.85400
H  19.43000 0.52700 30.46200
H  19.09900 2.31100 30.36200
H  19.90900 1.55800 31.74200
H  18.65200 0.48700 28.27300
H  18.38000 1.45400 26.76600
H  18.64600 2.22100 28.33100
H  25.04100 1.81500 24.94700
H  27.28100 -0.28000 25.16100
H  25.48100 -0.88600 23.94400
H  24.05700 0.02800 23.56800
H  24.02600 -0.70900 25.04700
H  28.42900 2.10900 25.65500
H  27.28800 2.51100 24.44600
H  29.76300 1.16000 24.04600
H  28.62900 1.79300 22.90200
H  28.48000 0.11700 23.37400
H  31.26000 0.90800 28.58000
H  31.36100 -0.60400 29.54100
H  31.65300 1.00500 30.30600
H  28.74100 2.36100 34.05300
H  28.91400 -1.29100 36.80200
H  27.74600 -0.01500 37.28800
H  29.43600 0.06100 37.83000

