158

Mg -0.57400 7.39500 26.05700
C  -0.07500 9.55300 28.95000
C  -0.63400 4.82900 28.25300
C  -0.64300 5.49000 23.43300
C  -0.18500 10.21200 24.15400
N  -0.50200 7.23300 28.37200
C  -0.34000 8.24800 29.32600
C  -0.44100 7.62500 30.77100
C  -0.35600 6.09400 30.46100
C  -0.52200 6.03100 28.90100
C  0.97900 5.32700 30.90100
C  -1.66300 8.19500 31.43700
C  -1.29900 8.76900 32.78600
H  -1.82300 8.04900 34.04900
N  -0.69400 5.45300 25.89300
C  -0.79800 4.50700 26.90500
C  -0.87000 3.12300 26.32900
C  -0.89100 3.30500 24.92900
C  -0.79200 4.81100 24.71200
C  -0.93100 1.95000 27.27300
C  -0.75500 2.28200 23.85400
O  -0.68200 2.56200 22.66900
C  -0.75200 0.91400 24.22600
N  -0.23300 7.83500 24.05300
C  -0.42700 6.83200 23.11200
C  -0.63900 7.37200 21.69500
C  -0.61100 8.93100 21.92000
C  -0.32800 9.04600 23.41700
C  0.42900 6.86300 20.63000
C  -1.82500 9.76800 21.30400
C  -2.73100 10.48000 22.37200
N  -0.26900 9.43100 26.40500
C  -0.09600 10.47600 25.51800
C  0.14700 11.73400 26.20000
C  0.20100 11.36900 27.49500
C  -0.06400 9.99100 27.61600
C  0.44700 13.06500 25.53300
C  0.58700 11.88900 28.74600
O  1.09200 12.94600 29.08700
C  0.32400 10.73700 29.75900
C  1.55900 10.39100 30.51000
O  2.52800 9.70800 30.15300
O  1.42600 11.03100 31.68500
C  2.51300 11.07400 32.57600
H  -0.64700 4.02800 28.99500
H  -0.92800 4.85200 22.59400
H  -0.02300 11.04700 23.46900
H  0.52700 7.81900 31.23400
H  -1.25100 5.58000 30.81000
H  0.85600 4.46600 31.55800
H  1.59200 6.13000 31.30900
H  1.44600 4.77100 30.08700
H  -2.32600 7.35900 31.66100
H  -2.09100 9.04000 30.89700
H  -1.56800 9.82400 32.84600
H  -0.21800 8.74200 32.92200
H  0.06600 1.58400 27.52000
H  -1.50400 1.16100 26.78600
H  -1.44000 2.25500 28.18700
H  -0.15500 0.76800 25.12600
H  -0.31300 0.31300 23.43000
H  -1.77300 0.64900 24.50000
H  -1.65700 7.14600 21.37600
H  0.33700 9.32700 21.55500
H  -0.03400 6.43300 19.74200
H  1.12500 6.13300 21.04300
H  1.04200 7.65500 20.20100
H  -2.47000 9.17100 20.65800
H  -1.37600 10.56200 20.70700
H  -2.96600 9.73600 23.13300
H  -3.63600 10.84300 21.88400
H  -2.25300 11.28800 22.92600
H  1.02700 13.02200 24.61000
H  1.10400 13.53600 26.26500
H  -0.38900 13.73100 25.32200
H  -0.37600 11.13300 30.49500
H  2.56500 12.10800 32.91800
H  3.51500 10.71700 32.33800
H  2.26300 10.50800 33.47300
Mg 44.12700 4.97900 47.45600
C  42.03800 7.70900 46.76000
C  41.29000 2.86100 46.99800
C  46.17700 2.43700 47.26100
C  46.86600 7.26600 47.61800
N  41.93800 5.27100 46.85800
C  41.34500 6.51300 46.64300
C  39.84600 6.36400 46.33100
C  39.63300 4.86400 46.85800
C  41.03000 4.28600 46.89100
C  38.97900 4.87100 48.25700
C  39.64000 6.51900 44.80600
C  38.53400 7.52900 44.42200
H  38.47200 8.08900 42.97800
N  43.82000 2.91700 47.07300
C  42.60700 2.22600 47.02300
C  42.90400 0.82200 46.97400
C  44.27400 0.66500 46.90900
C  44.86300 1.98500 47.09000
C  41.84600 -0.20200 46.91400
C  45.02700 -0.66300 46.78600
O  44.39500 -1.69700 46.68400
C  46.50600 -0.77200 46.76800
N  46.26000 4.90100 47.39200
C  46.87600 3.67500 47.43300
C  48.35000 3.75700 47.65400
C  48.59600 5.29100 47.82100
C  47.15900 5.89100 47.59400
C  48.89200 2.78700 48.75900
C  49.60500 5.97200 46.86200
C  50.69300 6.97800 47.32400
N  44.43900 7.03000 47.34600
C  45.59100 7.76600 47.31600
C  45.30300 9.15300 47.15400
C  43.92300 9.21200 46.95100
C  43.43600 7.86700 47.01400
C  46.28800 10.27200 47.05400
C  42.76900 10.05800 46.62800
O  42.65800 11.22300 46.44300
C  41.46500 9.06100 46.54800
C  40.67300 9.50100 47.82600
O  40.60400 8.91000 48.89200
O  39.85200 10.53100 47.53100
C  38.84900 10.94100 48.46800
H  40.33400 2.34500 46.89000
H  46.91500 1.63800 47.36000
H  47.70800 7.92800 47.82700
H  39.28800 7.17800 46.79300
H  39.00500 4.25700 46.20600
H  38.53600 5.84900 48.44200
H  39.69600 4.42700 48.94800
H  38.17900 4.14600 48.10700
H  39.32400 5.59300 44.32700
H  40.52100 6.87500 44.27100
H  38.20500 8.35100 45.05900
H  37.61300 6.94700 44.39700
H  41.87400 -0.76400 45.98000
H  40.92500 0.37700 46.97000
H  41.92100 -0.92500 47.72700
H  46.92000 -0.33000 45.86200
H  46.75100 -1.83200 46.83400
H  46.82200 -0.20400 47.64300
H  48.73900 3.39800 46.70100
H  48.81300 5.44400 48.87800
H  49.36400 1.94800 48.24800
H  48.05100 2.42400 49.34900
H  49.71300 3.20000 49.34600
H  48.98000 6.41800 46.08800
H  50.18900 5.29700 46.23600
H  50.59400 7.92300 46.79100
H  51.69500 6.60100 47.11800
H  50.57000 7.17400 48.38900
H  45.90000 11.00700 46.35000
H  47.25100 9.88100 46.72700
H  46.56600 10.77800 47.97900
H  40.75300 9.14500 45.72700
H  37.94100 10.89500 47.86600
H  39.02000 11.93400 48.88300
H  38.60400 10.20100 49.23000

