158

Mg -0.11900 7.36800 27.34000
C  0.83100 9.59600 29.76000
C  0.02300 4.89000 29.67400
C  -0.79700 5.17400 24.87200
C  0.59700 9.73900 24.84000
N  0.37900 7.27300 29.39500
C  0.53200 8.30300 30.20100
C  0.50100 7.86600 31.71600
C  0.51500 6.38100 31.65200
C  0.34700 6.14000 30.13900
C  1.77300 5.64700 32.21700
C  -0.61300 8.54300 32.53200
C  -0.35900 8.83100 33.98800
H  0.80900 8.41300 34.81400
N  -0.48200 5.39100 27.35400
C  -0.36900 4.50800 28.40800
C  -0.77800 3.18000 28.01100
C  -1.09000 3.21700 26.63200
C  -0.82500 4.65000 26.22100
C  -0.65300 1.98200 28.89100
C  -1.53600 2.18400 25.65300
O  -1.70100 2.32800 24.47700
C  -1.71100 0.80800 26.24000
N  -0.19600 7.49100 25.11400
C  -0.51600 6.40200 24.35800
C  -0.36300 6.80000 22.87000
C  -0.26600 8.39000 22.90400
C  0.00700 8.60800 24.36500
C  0.83000 6.00700 22.20800
C  -1.62800 9.07900 22.55600
C  -1.66800 10.34500 21.67900
N  0.60000 9.22500 27.20300
C  0.88700 10.09800 26.19000
C  1.42400 11.35800 26.68500
C  1.37600 11.20300 28.06700
C  0.93400 9.90300 28.33800
C  1.73600 12.53000 25.87300
C  1.67400 11.91500 29.37300
O  2.07500 13.03900 29.57400
C  1.32600 10.85800 30.61000
C  2.55700 10.68400 31.43800
O  3.48600 9.96700 31.14200
O  2.45000 11.43500 32.59600
C  3.61400 11.43300 33.46000
H  0.02700 4.05200 30.37400
H  -0.98400 4.52200 24.01700
H  0.67700 10.58300 24.15200
H  1.39000 8.33300 32.13900
H  -0.33400 5.96400 32.19400
H  2.30600 5.03100 31.49300
H  1.41100 5.11400 33.09600
H  2.50500 6.32200 32.66000
H  -1.47400 7.87600 32.52100
H  -0.85000 9.47900 32.02500
H  -1.29500 8.60700 34.50100
H  -0.31600 9.92000 33.97200
H  0.09400 2.12900 29.67100
H  -0.43500 1.08600 28.31000
H  -1.57500 1.85900 29.46100
H  -2.09400 0.09500 25.50900
H  -2.26500 0.84200 27.17800
H  -0.70100 0.51200 26.52400
H  -1.19000 6.42000 22.27100
H  0.42900 8.84000 22.19500
H  0.46300 5.34200 21.42700
H  1.31900 5.56100 23.07500
H  1.51000 6.72700 21.75200
H  -2.05600 9.46100 23.48300
H  -2.26400 8.27100 22.19300
H  -2.29900 10.31500 20.79100
H  -0.66300 10.59100 21.33600
H  -1.99000 11.15300 22.33600
H  2.65200 12.32700 25.31900
H  1.74600 13.38300 26.55200
H  0.83300 12.69300 25.28600
H  0.46400 11.22500 31.16700
H  3.50200 12.20700 34.21900
H  4.47000 11.62700 32.81400
H  3.71700 10.46100 33.94400
Mg -10.09300 17.22500 41.40100
C  -6.63000 16.38400 41.39500
C  -9.10200 20.40600 40.50400
C  -13.29000 18.00300 41.06400
C  -10.77200 13.83900 41.41600
N  -8.05300 18.25900 40.96300
C  -6.79600 17.74900 41.03500
C  -5.74400 18.77800 40.55600
C  -6.54000 20.17600 40.72600
C  -8.00800 19.62300 40.83200
C  -6.04600 21.02700 41.87600
C  -5.25500 18.63000 39.08900
C  -3.81900 18.33700 38.73800
H  -3.42300 16.90900 38.28100
N  -11.08400 18.99900 40.88800
C  -10.44000 20.15300 40.50600
C  -11.50700 21.09800 40.13800
C  -12.71300 20.47900 40.35500
C  -12.42100 19.13900 40.78600
C  -11.29300 22.46400 39.68400
C  -14.05000 21.07000 40.12500
O  -14.23300 22.23400 39.75400
C  -15.20700 20.29100 40.50700
N  -11.77300 16.08100 41.08900
C  -13.01300 16.63900 41.12000
C  -14.19100 15.59600 41.14200
C  -13.39700 14.28100 41.33100
C  -11.86000 14.74700 41.29400
C  -15.29800 15.79300 42.15200
C  -13.69600 13.17900 40.20100
C  -13.94700 11.73400 40.87400
N  -9.01300 15.39500 41.52100
C  -9.40300 14.11600 41.57100
C  -8.23700 13.22500 41.62000
C  -7.14500 14.12700 41.64100
C  -7.65100 15.43600 41.55500
C  -8.20900 11.77100 41.43700
C  -5.67300 14.18800 41.67400
O  -4.82300 13.29400 41.59000
C  -5.32600 15.70400 41.72300
C  -4.88700 16.03400 43.12600
O  -5.32200 16.92800 43.82300
O  -3.94400 15.10700 43.55500
C  -3.48300 15.28000 44.89200
H  -8.77200 21.41500 40.24700
H  -14.37400 18.12400 41.03500
H  -11.10500 12.80300 41.33400
H  -4.88000 18.72200 41.21900
H  -6.52800 20.74600 39.79700
H  -6.76200 20.96700 42.69600
H  -5.98600 22.06400 41.54500
H  -5.07400 20.67400 42.22200
H  -5.67300 19.45300 38.50900
H  -5.78000 17.75700 38.70100
H  -3.18200 18.63800 39.57000
H  -3.57500 19.03400 37.93600
H  -11.45200 22.63500 38.62000
H  -10.26900 22.76900 39.90000
H  -11.85500 23.06300 40.40100
H  -15.34300 19.47200 39.80100
H  -16.07300 20.95200 40.46700
H  -15.10900 20.02200 41.55800
H  -14.57500 15.63300 40.12300
H  -13.51200 13.89200 42.34300
H  -16.09500 16.43000 41.76800
H  -15.02100 16.30300 43.07500
H  -15.73600 14.85000 42.47800
H  -12.86500 13.19100 39.49600
H  -14.60200 13.40100 39.63600
H  -13.28300 11.04100 40.35700
H  -14.95600 11.32600 40.80100
H  -13.68700 11.81300 41.92900
H  -9.22600 11.37800 41.41100
H  -7.61600 11.37500 42.26100
H  -7.88000 11.42600 40.45700
H  -4.44700 15.83000 41.09200
H  -4.21600 15.60800 45.62800
H  -2.64600 15.97700 44.94600
H  -3.03900 14.32100 45.16000

