158

Mg 44.58900 3.08000 47.76200
C  42.32700 5.70300 47.01600
C  41.90900 0.93300 47.56300
C  46.78500 0.63900 47.64600
C  47.13700 5.42000 47.10900
N  42.43100 3.28600 47.32500
C  41.73100 4.45200 47.10800
C  40.21500 4.25700 46.90900
C  40.12800 2.76500 47.58200
C  41.53700 2.29200 47.47500
C  39.40300 2.78200 48.91900
C  39.74200 4.22300 45.41600
C  38.66500 5.15500 45.00100
H  39.04500 6.05200 43.83700
N  44.42100 1.07800 47.62600
C  43.21800 0.36800 47.62300
C  43.51400 -1.05500 47.66800
C  44.91300 -1.22400 47.80400
C  45.42400 0.17500 47.75400
C  42.42700 -2.19100 47.47000
C  45.66800 -2.53000 47.97900
O  45.06900 -3.60100 48.10900
C  47.15800 -2.64800 47.99200
N  46.64800 3.04400 47.25800
C  47.33900 1.89100 47.46000
C  48.87200 2.12700 47.32600
C  48.96500 3.57900 46.97100
C  47.51000 4.06300 47.10000
C  49.73400 1.88900 48.59500
C  49.45900 3.80600 45.52200
C  50.84100 4.21800 45.48100
N  44.79800 5.21900 47.39500
C  45.86800 5.99300 47.11200
C  45.46800 7.44800 46.90800
C  44.06200 7.37000 46.90100
C  43.68800 5.97200 47.20200
C  46.33200 8.66200 46.62000
C  42.87700 8.13800 46.74300
O  42.62800 9.31400 46.53800
C  41.68500 7.08800 46.87400
C  40.82000 7.53400 47.96800
O  41.14100 7.74900 49.15300
O  39.49900 7.57000 47.55800
C  38.59300 7.99500 48.71800
H  40.98800 0.35100 47.63500
H  47.67100 0.00100 47.68700
H  48.06900 5.96200 46.93500
H  39.67400 4.97600 47.52400
H  39.44100 2.13400 47.01900
H  40.09800 2.48600 49.70600
H  38.58800 2.05900 48.94800
H  39.07700 3.76200 49.26600
H  39.35200 3.23800 45.16100
H  40.59200 4.50000 44.79400
H  38.31100 5.71300 45.86800
H  37.88400 4.49800 44.61900
H  42.22100 -2.58500 48.46500
H  42.81400 -3.01700 46.87200
H  41.52900 -1.75700 47.03000
H  47.49400 -1.83000 48.63000
H  47.58200 -2.54000 46.99400
H  47.43300 -3.65900 48.29400
H  49.26700 1.56200 46.48200
H  49.59500 4.14600 47.65600
H  49.38400 0.98600 49.09500
H  49.72200 2.81500 49.17000
H  50.73600 1.69100 48.21300
H  48.91900 4.61400 45.02700
H  49.45400 2.92200 44.88400
H  51.18900 4.73200 46.37600
H  51.05100 4.97000 44.72100
H  51.46400 3.34200 45.29800
H  45.87200 9.43500 47.23500
H  46.13000 8.98000 45.59700
H  47.35500 8.50000 46.96100
H  41.02800 7.11200 46.00400
H  37.58100 7.88100 48.32800
H  38.76900 8.98500 49.13900
H  38.67400 7.31400 49.56600
Mg 47.11700 15.28900 28.53500
C  44.82100 15.22400 31.39000
C  48.92900 17.66300 30.41300
C  49.18400 15.60500 26.09400
C  44.72600 13.63600 26.68500
N  46.75800 16.45200 30.60700
C  45.91000 16.07000 31.63900
C  46.23900 16.80000 32.96000
C  47.31300 17.79600 32.44900
C  47.76100 17.25200 31.09300
C  46.83600 19.28300 32.43400
C  46.61600 15.92100 34.17000
C  46.85700 16.70100 35.48000
H  47.96100 16.21800 36.40400
N  48.88600 16.41700 28.33200
C  49.51400 17.18400 29.25700
C  50.84600 17.42900 28.72900
C  50.90500 16.92700 27.41800
C  49.68300 16.27900 27.20900
C  51.85100 18.37200 29.40600
C  52.04500 16.98700 26.45200
O  51.93400 16.58600 25.28700
C  53.31000 17.63100 26.90700
N  46.82300 14.92200 26.53000
C  47.93300 15.08000 25.73000
C  47.68200 14.40100 24.36700
C  46.37900 13.63800 24.67700
C  45.92200 14.05300 26.04200
C  47.65700 15.25800 23.09300
C  46.60500 12.10200 24.75900
C  46.45000 11.21400 23.43000
N  45.13800 14.55100 28.90100
C  44.37100 13.80800 28.07800
C  43.26300 13.19100 28.92000
C  43.43000 13.80000 30.13900
C  44.54700 14.57500 30.14000
C  42.14900 12.36700 28.36200
C  42.73500 13.95700 31.47600
O  41.65100 13.44100 31.87100
C  43.74300 14.76600 32.37700
C  43.07900 15.85700 33.13200
O  42.59300 16.83500 32.59100
O  43.06100 15.62200 34.45300
C  42.06900 16.42400 35.16600
H  49.55800 18.32800 31.01000
H  49.83500 15.51000 25.22200
H  44.10200 12.95500 26.10300
H  45.29400 17.29300 33.19100
H  48.15800 17.90900 33.12800
H  46.93100 19.66900 31.41900
H  47.42800 19.81000 33.18200
H  45.80000 19.46000 32.72400
H  47.36600 15.16200 33.94800
H  45.83600 15.23600 34.50400
H  46.02100 16.63000 36.17500
H  46.97900 17.73700 35.16200
H  51.92300 19.31400 28.86300
H  52.80500 17.87800 29.59200
H  51.60200 18.60400 30.44200
H  53.98600 17.52800 26.05800
H  53.76600 17.15200 27.77400
H  53.12600 18.66800 27.18600
H  48.52200 13.74700 24.13400
H  45.58400 13.80800 23.95200
H  46.77500 14.92900 22.54400
H  48.49400 15.09700 22.41300
H  47.48200 16.32600 23.22600
H  45.97000 11.70400 25.55100
H  47.57500 11.99300 25.24500
H  46.14400 11.75800 22.53600
H  45.77500 10.38100 23.62800
H  47.41900 10.72100 23.35200
H  42.11900 11.53100 29.06000
H  42.45000 11.91600 27.41600
H  41.22300 12.93300 28.26000
H  44.18200 14.01700 33.03600
H  41.92200 15.84500 36.07800
H  41.16600 16.60000 34.58100
H  42.53800 17.34400 35.51700

