158

Mg 41.61900 40.64100 26.23000
C  40.77100 43.20400 28.71200
C  42.83800 38.82900 28.76600
C  42.57900 38.54500 23.97700
C  40.59100 43.03700 23.93200
N  41.83200 40.99800 28.42800
C  41.29900 41.97400 29.21800
C  41.45900 41.60800 30.72300
C  42.35300 40.32600 30.71500
C  42.27300 40.00800 29.21300
C  43.82700 40.66200 31.28100
C  40.04800 41.52500 31.41400
C  39.80400 42.28600 32.63000
H  39.85700 41.43000 33.89400
N  42.64900 38.91700 26.39300
C  43.05100 38.32500 27.51500
C  43.76100 37.06300 27.18500
C  43.68800 36.89200 25.73400
C  42.98700 38.16800 25.28000
C  44.38600 36.18300 28.27900
C  44.13300 35.79000 24.82400
O  44.03100 35.92200 23.60800
C  44.68300 34.50600 25.45700
N  41.83800 40.89100 24.24800
C  42.10700 39.77500 23.51200
C  41.68000 39.95500 22.02000
C  41.10000 41.47000 22.03900
C  41.14800 41.85300 23.53000
C  42.77700 39.66100 20.92000
C  39.60800 41.63600 21.45700
C  39.35300 42.36700 20.12100
N  40.96000 42.74500 26.26400
C  40.57200 43.53300 25.24200
C  39.96000 44.77300 25.69900
C  40.01800 44.68800 27.09900
C  40.68500 43.47500 27.33300
C  39.25200 45.89400 24.86800
C  39.72400 45.39600 28.35000
O  39.13100 46.49500 28.51200
C  40.18400 44.38200 29.50400
C  41.14100 45.07200 30.52800
O  42.28500 44.83400 30.52400
O  40.45300 46.00300 31.32600
C  41.42000 46.65600 32.28100
H  43.02700 38.11000 29.56500
H  42.69600 37.86100 23.13400
H  40.02900 43.64800 23.22300
H  42.11600 42.34800 31.18100
H  41.77700 39.61400 31.30700
H  44.56800 40.20200 30.62800
H  43.87200 40.13000 32.23100
H  44.02800 41.72900 31.37400
H  40.02500 40.45200 31.60600
H  39.19700 41.64600 30.74400
H  38.76900 42.60800 32.51700
H  40.53600 43.09200 32.68400
H  45.42700 35.87800 28.17300
H  43.87800 35.22500 28.39100
H  44.27200 36.63900 29.26200
H  45.06800 33.86200 24.66600
H  43.84200 34.07400 25.99900
H  45.53600 34.72800 26.09800
H  40.92700 39.22400 21.72400
H  41.78600 42.09800 21.47100
H  43.66000 39.32600 21.46400
H  42.95600 40.46100 20.20100
H  42.48000 38.83500 20.27400
H  39.02000 42.14600 22.22000
H  39.16900 40.65100 21.30000
H  38.99000 41.61700 19.41800
H  40.28200 42.77600 19.72300
H  38.61000 43.16200 20.05900
H  38.87000 46.70100 25.49300
H  38.50600 45.35300 24.28500
H  39.97100 46.33200 24.17600
H  39.29000 44.07000 30.04300
H  40.86500 47.36900 32.89000
H  42.14600 47.33700 31.83800
H  41.95100 46.01900 32.98800
Mg -11.06000 39.24900 41.14600
C  -9.65200 36.15100 40.33600
C  -8.45000 40.83500 39.48400
C  -12.88100 42.14400 41.15400
C  -13.80300 37.46000 42.22800
N  -9.28200 38.54000 40.12900
C  -9.00000 37.23900 39.74600
C  -7.76100 37.25900 38.80500
C  -7.15800 38.70700 39.07000
C  -8.40700 39.43100 39.59900
C  -6.03900 38.53000 40.12000
C  -8.18200 37.05700 37.40300
C  -7.23100 36.15400 36.56500
H  -7.02600 36.51600 35.10900
N  -10.71000 41.23800 40.51200
C  -9.57700 41.65200 39.84100
C  -9.64300 43.13800 39.71600
C  -10.83500 43.56500 40.30700
C  -11.55500 42.28100 40.62500
C  -8.55400 43.82300 39.02700
C  -11.19900 45.06600 40.50200
O  -10.35700 45.94800 40.23400
C  -12.45300 45.45800 41.15100
N  -13.06200 39.70600 41.41200
C  -13.56300 40.96900 41.43700
C  -14.99200 40.97500 41.84000
C  -15.33800 39.44900 42.04300
C  -14.03000 38.80200 41.79700
C  -15.31300 41.92200 43.10500
C  -16.45600 38.86700 41.13300
C  -17.87000 38.58500 41.75100
N  -11.60400 37.19500 41.40000
C  -12.70700 36.65700 41.92400
C  -12.56100 35.22800 42.03700
C  -11.31600 34.99600 41.42300
C  -10.82300 36.20800 40.99600
C  -13.51800 34.25700 42.66600
C  -10.36900 33.96900 41.13500
O  -10.32300 32.74300 41.37300
C  -9.25500 34.70900 40.25100
C  -7.94800 34.44900 40.97500
O  -7.38700 35.11900 41.83700
O  -7.39400 33.30600 40.39400
C  -6.23000 32.86800 41.11200
H  -7.56400 41.28900 39.03600
H  -13.38100 43.07100 41.44600
H  -14.69200 36.92700 42.57100
H  -7.09400 36.46500 39.14000
H  -6.92400 39.29900 38.18500
H  -6.17000 37.74000 40.86000
H  -5.89700 39.38600 40.78000
H  -5.15700 38.39300 39.49400
H  -8.14900 37.97900 36.82200
H  -9.18900 36.64300 37.36300
H  -7.47900 35.09300 36.61300
H  -6.26100 36.31300 37.03600
H  -8.57400 43.61000 37.95900
H  -7.59800 43.53800 39.46500
H  -8.70800 44.90100 39.09200
H  -12.44300 44.97000 42.12600
H  -13.31900 45.03700 40.64100
H  -12.57100 46.54100 41.19900
H  -15.63800 41.32700 41.03600
H  -15.74400 39.39300 43.05300
H  -14.55300 42.59800 43.49600
H  -15.59200 41.37000 44.00200
H  -16.21700 42.45200 42.80300
H  -16.23800 37.87100 40.74800
H  -16.66900 39.44400 40.23300
H  -17.74800 37.91100 42.59900
H  -18.60400 38.36800 40.97500
H  -18.10700 39.57500 42.14000
H  -13.54800 34.48100 43.73200
H  -13.29900 33.20500 42.48300
H  -14.57500 34.43200 42.46600
H  -9.17100 34.47000 39.19100
H  -6.04800 31.88800 40.67100
H  -6.42200 32.67800 42.16800
H  -5.45900 33.59500 40.85600

