158

Mg 16.78800 -2.21600 27.87900
C  15.47100 -0.10800 30.41800
C  18.88500 -3.60100 30.25300
C  18.53500 -3.64600 25.36800
C  15.27900 -0.03800 25.58600
N  17.21200 -1.75500 30.05900
C  16.42200 -1.04200 30.88400
C  16.84700 -1.23700 32.39600
C  18.04400 -2.20400 32.23500
C  18.04300 -2.55700 30.72300
C  19.40900 -1.63600 32.58600
C  15.71300 -1.75700 33.35100
C  15.99400 -1.61600 34.80300
H  17.20400 -0.90300 35.32500
N  18.20500 -3.72100 27.79200
C  18.96600 -4.13100 28.87800
C  19.81500 -5.20600 28.41000
C  19.78500 -5.31900 26.97200
C  18.83000 -4.14800 26.63700
C  20.74900 -5.98100 29.43600
C  20.46900 -6.18600 25.92800
O  20.39800 -5.98500 24.72400
C  21.42200 -7.39300 26.48000
N  17.00700 -1.74600 25.78700
C  17.69400 -2.61200 24.94900
C  17.35800 -2.42500 23.43900
C  16.13800 -1.46000 23.55400
C  16.10300 -1.11200 25.05700
C  18.52400 -1.71100 22.74700
C  14.75600 -1.93600 22.94800
C  13.71700 -2.47500 23.88800
N  15.55100 -0.40000 27.88100
C  15.01100 0.32100 26.86600
C  14.14300 1.26900 27.37900
C  14.30700 1.22400 28.81800
C  15.21100 0.13300 29.05500
C  13.20800 2.13800 26.55800
C  13.86900 1.79700 30.07700
O  13.05100 2.65600 30.30800
C  14.62900 0.98600 31.15300
C  15.39800 1.93000 31.89300
O  16.27500 2.63600 31.47400
O  15.04600 1.92100 33.21100
C  15.87800 2.76500 34.09600
H  19.61700 -3.99500 30.96000
H  19.17100 -4.19700 24.67200
H  14.82100 0.54800 24.78600
H  17.19000 -0.23800 32.66700
H  17.90600 -3.09500 32.84800
H  19.29300 -0.75900 33.22400
H  20.01900 -1.38400 31.71900
H  19.92300 -2.42800 33.13000
H  15.62000 -2.81700 33.11400
H  14.79500 -1.26900 33.02500
H  15.86800 -2.61300 35.22400
H  15.15800 -1.09700 35.27300
H  20.25600 -6.93900 29.59800
H  20.95200 -5.57200 30.42600
H  21.78100 -6.13700 29.12200
H  20.89800 -8.09500 27.12800
H  22.22000 -7.05400 27.14100
H  21.87400 -7.88900 25.62100
H  17.09000 -3.37200 22.97000
H  16.22800 -0.51600 23.01700
H  19.49600 -1.92700 23.19000
H  18.47300 -0.62300 22.70900
H  18.49400 -2.04200 21.70900
H  14.98500 -2.64200 22.14900
H  14.31100 -1.05600 22.48300
H  14.15700 -2.69200 24.86200
H  13.14900 -3.27500 23.41400
H  12.97000 -1.69400 24.02800
H  13.63700 2.77300 25.78200
H  12.75200 2.87200 27.22300
H  12.48900 1.41400 26.17400
H  13.91200 0.62500 31.89000
H  15.74200 2.48400 35.14000
H  15.72400 3.84400 34.06300
H  16.93700 2.76500 33.83700
Mg 54.23300 24.12300 45.06000
C  51.45000 26.15400 44.03700
C  52.21000 21.32600 43.98400
C  56.91900 22.34100 44.98600
C  55.80700 27.04900 45.87700
N  52.13700 23.79000 44.13700
C  51.19600 24.79700 43.87400
C  49.85100 24.21900 43.37100
C  50.00100 22.71900 43.84000
C  51.54000 22.55800 44.00300
C  49.28400 22.40200 45.15400
C  49.73500 24.24300 41.76100
C  51.03300 24.41600 40.94300
H  51.96300 23.25900 40.87800
N  54.54300 22.07100 44.55000
C  53.66700 21.06300 44.22400
C  54.40100 19.82700 44.05900
C  55.74700 20.17000 44.25000
C  55.81200 21.54800 44.61200
C  53.72000 18.42000 43.88400
C  57.02700 19.15100 44.03000
O  56.79300 17.95200 43.68400
C  58.47900 19.46700 44.35800
N  56.17300 24.68200 45.16100
C  57.11900 23.70300 45.22900
C  58.35200 24.20500 45.93800
C  58.05100 25.75000 45.98400
C  56.60600 25.86900 45.63900
C  58.58600 23.60000 47.34300
C  59.04100 26.63200 45.08400
C  58.62900 26.79100 43.62500
N  53.72400 26.23000 45.13500
C  54.48800 27.26700 45.60400
C  53.65000 28.50600 45.60100
C  52.49600 28.07000 44.97600
C  52.61800 26.68600 44.66700
C  54.05700 29.94300 46.06300
C  51.23100 28.53800 44.58100
O  50.66400 29.66800 44.74200
C  50.50600 27.35500 43.91300
C  50.03900 27.76000 42.60000
O  50.74200 28.15200 41.69200
O  48.62400 27.83400 42.57400
C  48.13800 28.24600 41.22900
H  51.71500 20.40700 43.66400
H  57.91700 21.90100 45.03400
H  56.53400 27.82000 46.13900
H  49.02300 24.80600 43.76700
H  49.67000 22.00500 43.08600
H  49.91700 21.84800 45.84800
H  48.34600 21.87900 44.96700
H  49.03000 23.32800 45.67100
H  49.10200 25.07300 41.44300
H  49.34000 23.27500 41.45200
H  51.56900 25.31500 41.24700
H  50.59700 24.67200 39.97700
H  53.58000 18.30500 42.81000
H  52.67000 18.41400 44.17800
H  54.27900 17.56300 44.26000
H  59.07400 18.58200 44.13600
H  58.47500 19.69500 45.42400
H  58.84500 20.17800 43.61700
H  59.16800 24.06500 45.22900
H  58.15700 26.15800 46.98900
H  57.89600 22.78200 47.55100
H  58.58300 24.28300 48.19300
H  59.61500 23.24200 47.37900
H  59.99100 26.10100 45.03000
H  59.22600 27.64200 45.45100
H  59.39600 26.37200 42.97300
H  58.63900 27.85800 43.40600
H  57.63000 26.44200 43.36600
H  54.15800 30.57800 45.18300
H  55.03700 29.92800 46.54100
H  53.33900 30.27800 46.81200
H  49.71700 27.07400 44.61000
H  48.62800 27.75000 40.39200
H  48.18800 29.33200 41.14400
H  47.11400 27.87100 41.24000

