158

Mg 8.34400 2.35900 27.66800
C  9.84800 1.16900 30.59000
C  6.40000 4.38600 29.64400
C  6.84300 3.29200 24.83000
C  10.09900 -0.11700 25.82900
N  7.98600 2.52500 29.87100
C  8.82000 2.04100 30.85400
C  8.48200 2.68500 32.20300
C  7.25700 3.62900 31.86800
C  7.08200 3.44300 30.40600
C  5.89900 3.41300 32.57700
C  9.73000 3.47000 32.80000
C  9.62100 4.28300 34.11100
H  10.49700 3.71400 35.27600
N  6.83100 3.60300 27.23900
C  6.20500 4.43400 28.22600
C  5.24000 5.32900 27.47800
C  5.43000 5.08400 26.08600
C  6.35000 3.93200 26.03100
C  4.32700 6.37400 28.14200
C  4.76100 5.88900 24.84800
O  4.87700 5.48800 23.68400
C  3.80100 7.09200 25.03600
N  8.29100 1.53500 25.64800
C  7.73800 2.21100 24.64400
C  8.22600 1.74700 23.22100
C  9.26000 0.72100 23.62700
C  9.21000 0.66100 25.17200
C  7.03400 1.42500 22.25100
C  10.74900 0.98000 23.16700
C  11.37400 -0.09900 22.18400
N  9.71800 0.82900 28.07800
C  10.32200 -0.04800 27.23500
C  11.31300 -0.80000 27.99900
C  11.17000 -0.35800 29.27200
C  10.15900 0.63700 29.34100
C  12.23200 -1.86000 27.48600
C  11.69300 -0.45000 30.63600
O  12.57000 -1.18500 31.15200
C  10.85900 0.52700 31.46200
C  10.27400 -0.21700 32.61600
O  9.60400 -1.21400 32.59700
O  10.71000 0.32700 33.78700
C  10.27200 -0.28500 35.03000
H  5.99100 5.19700 30.24900
H  6.48100 3.55800 23.83500
H  10.91400 -0.66000 25.34700
H  8.12600 1.88400 32.85100
H  7.42000 4.68600 32.08100
H  5.27400 2.71300 32.02100
H  5.33100 4.32000 32.78200
H  6.09800 2.95000 33.54300
H  10.09300 4.12100 32.00400
H  10.60300 2.82100 32.87000
H  8.58800 4.19500 34.44600
H  9.89600 5.31600 33.89900
H  3.36300 6.12400 27.69800
H  4.48200 7.41100 27.84500
H  4.17900 6.29000 29.21900
H  2.80000 6.83700 25.38200
H  3.82900 7.68400 24.12100
H  4.30600 7.72600 25.76500
H  8.80000 2.63600 22.95700
H  9.02800 -0.31900 23.39900
H  6.04200 1.51600 22.69200
H  7.12700 0.40400 21.88000
H  7.22100 2.14700 21.45500
H  11.36700 1.15500 24.04800
H  10.72500 1.96200 22.69300
H  12.16800 -0.64400 22.69400
H  11.68500 0.38500 21.25800
H  10.56300 -0.82600 22.13800
H  13.04000 -1.90800 28.21600
H  12.59400 -1.66000 26.47700
H  11.65100 -2.78100 27.48400
H  11.55700 1.24500 31.89100
H  10.22500 0.56400 35.71200
H  11.03000 -0.97200 35.40600
H  9.36600 -0.88500 34.94200
Mg 49.19600 45.79100 42.01500
C  45.83000 46.69600 41.62300
C  48.43400 42.66900 40.73200
C  52.44600 44.97900 42.13100
C  49.86600 49.07600 42.92900
N  47.36800 44.84000 41.20700
C  46.15300 45.40400 41.12500
C  45.09900 44.53400 40.41500
C  45.87400 43.13500 40.49100
C  47.31300 43.52100 40.82200
C  45.30900 41.96700 41.31600
C  44.61400 45.12000 39.10700
C  43.24000 44.66500 38.66900
H  43.28800 44.11300 37.21600
N  50.30800 44.01900 41.54500
C  49.80400 42.79000 41.07500
C  50.88200 41.80600 41.05600
C  52.08100 42.48200 41.46400
C  51.67700 43.86900 41.75700
C  50.71900 40.34500 40.54300
C  53.47300 41.84800 41.32900
O  53.61500 40.60800 41.00700
C  54.73500 42.56500 41.58400
N  50.99600 46.91700 42.34200
C  52.15500 46.31800 42.28500
C  53.24700 47.39100 42.56400
C  52.40000 48.68700 42.84400
C  50.99500 48.23100 42.65400
C  54.39700 47.06700 43.61300
C  52.77500 49.88600 41.93400
C  53.50000 51.00400 42.73900
N  48.11100 47.56800 42.34100
C  48.51600 48.79200 42.73500
C  47.36500 49.71100 42.62400
C  46.27300 48.89700 42.34900
C  46.76900 47.60600 42.08500
C  47.47400 51.19700 43.11000
C  44.87700 48.91600 42.27000
O  44.09600 49.86900 42.45300
C  44.52300 47.48600 41.61700
C  43.36200 46.89600 42.26000
O  43.44900 46.35400 43.35300
O  42.16700 47.10500 41.53000
C  41.08100 46.23200 42.12900
H  48.16800 41.66100 40.40600
H  53.51300 44.75900 42.20300
H  50.16000 50.10600 43.13900
H  44.21400 44.45100 41.04500
H  45.88800 42.72300 39.48200
H  45.96100 41.51500 42.06400
H  44.96000 41.25600 40.56800
H  44.45700 42.45500 41.79000
H  45.43700 44.87700 38.43400
H  44.55800 46.18000 39.35100
H  42.57600 45.52800 38.63200
H  42.85100 43.90600 39.34800
H  51.25200 40.31900 39.59300
H  49.67100 40.11000 40.35900
H  50.97700 39.71600 41.39600
H  54.69600 43.42900 40.92100
H  55.51200 41.84200 41.33700
H  54.82300 42.87700 42.62500
H  53.79000 47.48900 41.62400
H  52.33800 48.93800 43.90300
H  55.36200 47.04400 43.10500
H  54.15800 46.19500 44.22100
H  54.38800 47.83800 44.38300
H  52.00200 50.27400 41.27000
H  53.50900 49.52300 41.21500
H  54.13400 50.60400 43.53000
H  52.75100 51.64200 43.20900
H  54.18200 51.51800 42.06200
H  46.52500 51.28600 43.63900
H  47.67300 51.92300 42.32100
H  48.30700 51.18500 43.81400
H  44.27700 47.80800 40.60500
H  40.62700 46.78800 42.95000
H  41.59100 45.31900 42.43800
H  40.27700 45.87500 41.48500

