158

Mg 40.67800 8.40100 29.07200
C  42.55600 9.55300 31.76100
C  38.61500 6.84500 31.28300
C  38.96200 7.19900 26.46400
C  42.97800 9.66400 26.89500
N  40.57900 8.29800 31.26800
C  41.31700 9.02900 32.10400
C  40.66800 9.08000 33.52300
C  39.43100 8.06700 33.36800
C  39.53500 7.64500 31.92100
C  39.40900 6.90600 34.40500
C  40.33300 10.56600 34.03200
C  39.32800 10.72300 35.20300
H  40.07500 10.93800 36.49900
N  39.01900 7.18600 28.89500
C  38.33900 6.63500 29.91200
C  37.14900 6.02300 29.41100
C  37.27100 6.12700 27.95700
C  38.42700 6.91100 27.72600
C  35.94600 5.29100 30.17600
C  36.33000 5.55000 26.85000
O  36.56400 5.62600 25.65300
C  35.01100 4.93000 27.26500
N  41.03300 8.38300 26.94900
C  40.08500 7.91300 26.10500
C  40.33900 8.32000 24.68900
C  41.67200 9.16900 24.80700
C  41.85100 9.21700 26.33600
C  40.21500 7.24900 23.60300
C  41.66900 10.51100 23.99700
C  40.48800 11.47600 24.11700
N  42.57300 9.28700 29.24100
C  43.37400 9.73500 28.28400
C  44.60700 10.24700 28.92500
C  44.29000 10.24200 30.31600
C  43.04800 9.64300 30.43100
C  45.80800 10.82600 28.14700
C  44.69500 10.72300 31.61200
O  45.67000 11.39200 32.00700
C  43.56300 10.34700 32.66000
C  44.11100 9.56300 33.87900
O  44.93300 8.64400 33.74700
O  43.61200 10.07900 35.06700
C  44.12200 9.40500 36.26600
H  37.91400 6.32700 31.94000
H  38.37100 7.11400 25.55000
H  43.68500 10.16800 26.23400
H  41.40200 8.60200 34.17200
H  38.47300 8.58800 33.37600
H  38.41000 6.85400 34.83700
H  40.09200 7.08600 35.23600
H  39.64300 5.95700 33.92200
H  39.94800 11.13800 33.18800
H  41.30800 10.99600 34.26200
H  38.63900 9.88300 35.29000
H  38.76900 11.64100 35.02100
H  35.03500 5.77900 29.82900
H  36.08200 5.56500 31.22200
H  35.87400 4.21400 30.02700
H  34.62100 4.50000 26.34200
H  34.30700 5.63100 27.71200
H  35.09600 4.02800 27.87100
H  39.56700 9.09000 24.67900
H  42.50600 8.50900 24.56900
H  39.96100 6.28900 24.05300
H  41.22100 7.11200 23.20700
H  39.56800 7.51400 22.76600
H  41.83600 10.13400 22.98800
H  42.54700 11.04400 24.36200
H  40.00700 11.73300 23.17300
H  40.92700 12.40400 24.48400
H  39.70300 11.12000 24.78400
H  45.77100 10.48300 27.11300
H  46.58400 10.33900 28.73700
H  45.89900 11.91200 28.16500
H  43.14700 11.27400 33.05500
H  45.21000 9.33400 36.29600
H  43.66800 8.46600 36.58300
H  43.85900 10.20700 36.95700
Mg 26.80100 51.13600 26.56200
C  24.82800 52.02900 29.21400
C  29.33200 50.22400 28.83100
C  28.65200 49.97500 23.90500
C  24.33900 52.12000 24.32500
N  27.09100 51.29400 28.81100
C  26.02300 51.52700 29.68100
C  26.43600 51.17400 31.10700
C  27.94800 50.85300 30.97600
C  28.20400 50.79700 29.43600
C  28.83100 51.91100 31.64900
C  25.56400 50.05400 31.73100
C  24.84800 50.26300 33.11700
H  25.61900 50.90100 34.29500
N  28.75900 50.27300 26.38000
C  29.55900 49.91900 27.40400
C  30.73300 49.22400 26.86700
C  30.60200 49.12800 25.46100
C  29.24200 49.82900 25.14300
C  31.81500 48.50100 27.67200
C  31.50200 48.48000 24.43300
O  31.10000 48.37700 23.25600
C  32.85800 47.81400 24.63500
N  26.59300 51.22100 24.39800
C  27.44700 50.60100 23.53300
C  26.94500 50.74500 22.07600
C  25.52800 51.38500 22.24000
C  25.44600 51.59500 23.75700
C  27.87400 51.51100 21.12100
C  24.43300 50.38100 21.66000
C  23.32600 51.06500 20.90600
N  25.12300 52.11100 26.61300
C  24.13200 52.41300 25.71800
C  22.97300 52.96600 26.29600
C  23.17400 52.80100 27.66200
C  24.47000 52.23900 27.81100
C  21.81600 53.59000 25.58700
C  22.61200 52.96700 28.94400
O  21.56500 53.48700 29.21700
C  23.58100 52.43700 30.02500
C  23.90800 53.56000 30.97900
O  24.64200 54.44600 30.75100
O  23.13400 53.32700 32.07200
C  23.34100 54.24400 33.23500
H  30.12700 49.94400 29.52500
H  29.20300 49.56900 23.05400
H  23.56000 52.39500 23.61000
H  26.32300 52.07100 31.71600
H  28.11500 49.82700 31.30300
H  28.56300 52.88700 31.24300
H  29.84400 51.60300 31.38900
H  28.81700 51.88600 32.73900
H  26.02500 49.07500 31.86000
H  24.75700 49.97000 31.00200
H  24.35900 49.35600 33.47200
H  24.07200 50.96600 32.81100
H  32.70100 49.11600 27.82700
H  32.07900 47.58200 27.14800
H  31.39500 48.31200 28.66000
H  33.32500 47.66100 23.66200
H  32.73300 46.84500 25.11800
H  33.36600 48.47900 25.33400
H  26.84400 49.71000 21.75000
H  25.38700 52.39000 21.84200
H  27.44500 52.41900 20.69700
H  28.38300 50.84400 20.42600
H  28.62300 51.87800 21.82200
H  24.00800 49.76600 22.45300
H  24.85700 49.70500 20.91700
H  23.12200 50.53500 19.97600
H  23.59400 52.06200 20.55700
H  22.39400 50.96200 21.46100
H  22.14100 54.55500 25.19900
H  21.07800 53.64800 26.38800
H  21.51300 52.84900 24.84600
H  23.01000 51.66300 30.53800
H  23.67200 55.23900 32.93700
H  24.03300 53.77600 33.93500
H  22.40900 54.44800 33.76300

