158

Mg 25.16400 -7.81400 48.62300
C  27.52100 -5.53200 47.16500
C  23.14700 -7.04700 45.99400
C  23.53500 -10.31200 49.56800
C  27.90800 -8.69000 50.92400
N  25.34000 -6.34800 46.80900
C  26.32400 -5.49300 46.40600
C  25.91500 -4.66700 45.23100
C  24.39700 -5.00500 45.08500
C  24.28400 -6.21200 46.01800
C  23.36000 -3.96500 45.36800
C  26.74500 -5.13400 44.01000
C  27.48000 -4.02700 43.27300
H  27.28800 -3.80000 41.76900
N  23.56600 -8.62300 47.74800
C  22.83600 -8.17600 46.71900
C  21.63700 -9.01700 46.61800
C  21.81600 -10.09700 47.56600
C  22.98000 -9.74200 48.31900
C  20.58400 -8.77500 45.61600
C  20.98700 -11.25900 47.83600
O  20.01600 -11.48400 47.13700
C  21.24500 -12.40400 48.86900
N  25.77600 -9.31500 50.03200
C  24.70800 -10.16900 50.34800
C  25.07400 -11.00400 51.55900
C  26.56900 -10.73300 51.72500
C  26.79800 -9.49400 50.85700
C  24.18000 -10.68000 52.77400
C  27.56900 -11.83400 51.35300
C  28.73100 -12.03800 52.31000
N  27.25700 -7.21300 49.06400
C  28.20600 -7.68000 50.00000
C  29.41600 -6.88000 49.81300
C  29.15500 -6.01500 48.71100
C  27.84500 -6.26100 48.32100
C  30.67900 -7.01200 50.44800
C  29.74900 -5.00600 47.84300
O  30.87100 -4.53900 47.83600
C  28.68100 -4.56300 46.94000
C  28.27900 -3.25700 47.38300
O  27.87300 -2.95000 48.49900
O  28.37400 -2.28900 46.45000
C  28.04100 -0.95200 46.91300
H  22.28700 -6.67900 45.43100
H  22.77600 -10.85600 50.13400
H  28.79500 -8.97700 51.49300
H  26.04600 -3.66000 45.62600
H  24.28800 -5.37700 44.06700
H  22.74600 -3.89400 44.47000
H  23.92200 -3.03200 45.39800
H  22.88300 -4.22300 46.31400
H  26.10200 -5.64200 43.29100
H  27.49500 -5.87500 44.28600
H  28.52800 -4.30800 43.36700
H  27.20000 -3.12400 43.81600
H  20.51400 -7.71400 45.37600
H  19.58700 -8.92000 46.03400
H  20.72100 -9.38600 44.72500
H  22.22900 -12.86600 48.79600
H  20.53900 -13.16700 48.54100
H  20.87900 -12.07100 49.84000
H  24.90400 -12.07000 51.41000
H  26.81500 -10.50000 52.76100
H  23.97300 -11.59700 53.32500
H  23.22000 -10.38400 52.35000
H  24.64900 -9.90100 53.37500
H  28.11900 -11.48000 50.48100
H  26.99300 -12.75900 51.32800
H  29.39200 -12.80000 51.89900
H  28.18600 -12.34300 53.20300
H  29.27300 -11.10700 52.47600
H  31.33700 -6.37300 49.85800
H  30.97200 -8.05900 50.37700
H  30.63400 -6.76100 51.50700
H  28.90500 -4.42700 45.88200
H  28.82500 -0.54000 47.54800
H  27.05700 -0.86800 47.37500
H  28.14800 -0.34800 46.01300
Mg 25.14400 51.73100 25.66000
C  23.50400 52.63200 28.56400
C  28.11400 51.79200 27.65500
C  27.26000 51.60800 22.78200
C  22.72400 52.74200 23.77000
N  25.66700 52.08300 27.92600
C  24.77700 52.34400 28.89500
C  25.42700 52.29100 30.27500
C  26.99900 52.15800 29.97600
C  26.91700 51.98200 28.44400
C  27.95700 53.32600 30.43400
C  24.82400 51.20000 31.21000
C  24.34900 51.64500 32.62300
H  25.32000 52.20500 33.59000
N  27.30500 51.59500 25.32000
C  28.32300 51.68900 26.26800
C  29.63100 51.59600 25.67400
C  29.45700 51.63400 24.27500
C  27.94400 51.58400 24.09000
C  30.96500 51.57700 26.41600
C  30.43000 51.68900 23.15000
O  30.06600 51.95800 22.01000
C  31.90500 51.51000 23.50200
N  25.03500 52.03000 23.55400
C  25.93600 51.75200 22.55700
C  25.24700 51.76100 21.19600
C  23.77600 52.08300 21.50300
C  23.79500 52.27100 23.06600
C  25.82700 52.70900 20.15100
C  22.91000 50.91300 20.89100
C  21.65900 51.30100 20.07600
N  23.46900 52.44200 26.00900
C  22.46700 52.76400 25.13800
C  21.34800 53.19500 25.80000
C  21.62400 53.07200 27.17500
C  22.96200 52.63200 27.26600
C  20.15700 53.72300 25.15600
C  21.10400 53.25600 28.56800
O  19.99400 53.55600 29.02900
C  22.32200 52.89300 29.44100
C  22.43300 54.08500 30.27700
O  23.02300 55.10200 29.99600
O  21.75200 53.90800 31.47400
C  21.91600 54.90300 32.56200
H  28.99800 51.89300 28.28700
H  27.80800 51.66500 21.83900
H  21.79600 52.94500 23.23000
H  25.31500 53.27200 30.73700
H  27.36700 51.25500 30.46400
H  27.48100 53.96400 31.17900
H  28.30800 53.93700 29.60200
H  28.77000 52.92000 31.03600
H  25.55900 50.41400 31.38400
H  23.93100 50.82200 30.71200
H  23.90100 50.74100 33.03500
H  23.56400 52.37400 32.42300
H  30.88500 51.24200 27.45100
H  31.37400 52.58500 26.48200
H  31.78600 50.95200 26.06400
H  32.51600 51.42500 22.60300
H  32.05200 50.49000 23.85800
H  32.25700 52.27700 24.19100
H  25.40900 50.72500 20.89900
H  23.49300 53.04000 21.06600
H  26.67000 53.29500 20.51700
H  25.04300 53.34800 19.74600
H  26.06600 52.05300 19.31400
H  22.48900 50.41600 21.76600
H  23.51900 50.22500 20.30400
H  20.73800 51.02400 20.58900
H  21.68700 50.73700 19.14400
H  21.78700 52.34600 19.79300
H  20.37300 54.65900 24.64100
H  19.33800 54.07900 25.78000
H  19.87200 53.06700 24.33300
H  22.11000 52.00100 30.03100
H  22.28200 55.84800 32.16100
H  22.66100 54.57100 33.28600
H  20.97200 55.09100 33.07300

