158

Mg 9.29900 4.17800 28.02600
C  10.52300 2.28200 30.79200
C  7.47100 5.99200 30.16200
C  7.87500 5.48200 25.42900
C  10.57800 1.42800 26.02100
N  8.97300 3.95600 30.25200
C  9.66000 3.30100 31.19900
C  9.29800 3.82000 32.62200
C  8.12500 4.87200 32.34200
C  8.13900 4.95500 30.85200
C  6.81100 4.50000 33.05000
C  10.51900 4.38400 33.45700
C  10.68000 3.82200 34.89200
H  10.96800 4.82700 35.98800
N  7.88900 5.63400 27.79000
C  7.34200 6.34900 28.77700
C  6.56300 7.46200 28.20400
C  6.77300 7.31200 26.77900
C  7.60800 6.17200 26.62900
C  5.86900 8.46500 29.03600
C  6.19200 8.12100 25.72700
O  6.39300 7.89700 24.52800
C  5.24100 9.34700 26.00000
N  9.23100 3.47700 25.96000
C  8.53500 4.29400 25.06300
C  8.74500 3.81900 23.60700
C  9.54400 2.48400 23.80700
C  9.80800 2.41000 25.35500
C  7.40500 3.65400 22.87700
C  10.77000 2.29700 22.93400
C  10.96300 0.98700 22.23200
N  10.44300 2.33900 28.26500
C  10.98600 1.43700 27.37100
C  11.92900 0.53700 28.10200
C  11.77700 0.83600 29.42200
C  10.86000 1.87900 29.49400
C  12.88500 -0.42300 27.43200
C  12.23300 0.44800 30.73700
O  13.09800 -0.38400 31.10100
C  11.47800 1.45100 31.70000
C  10.76400 0.62400 32.72900
O  9.69600 0.07900 32.51500
O  11.48300 0.57000 33.90300
C  10.76100 0.02200 35.07000
H  6.92500 6.68600 30.80500
H  7.48300 5.88000 24.49100
H  11.04300 0.74500 25.30700
H  8.94200 2.90100 33.08700
H  8.38800 5.81900 32.81400
H  6.05000 4.23600 32.31600
H  6.65800 5.48100 33.50000
H  6.87800 3.69600 33.78400
H  10.56200 5.47300 33.46500
H  11.37600 4.12000 32.83800
H  11.38600 2.99100 34.91000
H  9.69900 3.37600 35.05700
H  6.19800 8.47800 30.07500
H  4.84200 8.10300 29.06500
H  6.01600 9.53100 28.86400
H  4.35400 8.88700 26.43600
H  4.77500 9.76900 25.11000
H  5.62300 10.08500 26.70600
H  9.39200 4.60200 23.21100
H  8.86200 1.67700 23.53900
H  6.63500 3.67700 23.64900
H  7.35600 2.69900 22.35400
H  7.07500 4.45200 22.21100
H  11.65400 2.49400 23.54100
H  10.61800 3.00300 22.11700
H  10.03400 0.46300 22.00700
H  11.38200 0.33500 22.99900
H  11.47500 1.07600 21.27400
H  13.21800 0.17500 26.58400
H  12.52800 -1.36200 27.00800
H  13.74800 -0.73000 28.02100
H  12.19500 2.02200 32.28900
H  9.98400 -0.70700 34.84100
H  10.42600 0.77300 35.78600
H  11.56800 -0.57400 35.49700
Mg 48.90000 45.33300 42.86100
C  45.64600 45.15400 41.47200
C  49.24800 41.90700 42.03500
C  52.11500 45.47600 43.46800
C  48.42700 48.55100 43.43200
N  47.50900 43.73900 41.96900
C  46.28600 43.96300 41.36600
C  45.85200 42.68100 40.60500
C  46.72500 41.67600 41.32700
C  47.93500 42.45200 41.81200
C  46.05500 40.93500 42.56300
C  45.98200 42.89200 39.01000
C  44.71000 42.55400 38.13800
H  44.87100 41.77600 36.84200
N  50.46900 43.85800 42.79900
C  50.47300 42.55000 42.40700
C  51.75100 41.96100 42.56700
C  52.54200 42.91500 43.19300
C  51.71000 44.13400 43.20300
C  52.13500 40.58600 42.08900
C  53.94000 42.79100 43.79200
O  54.52300 41.73600 43.66200
C  54.64300 43.89400 44.56000
N  50.15500 46.84900 43.20100
C  51.46900 46.70800 43.53400
C  52.13200 48.05700 43.72100
C  50.93700 49.01700 44.00400
C  49.76200 48.09400 43.59400
C  53.31700 48.14500 44.79600
C  51.03100 50.34800 43.27000
C  50.86800 51.62800 44.13600
N  47.40600 46.67700 42.55700
C  47.28400 47.92700 42.93500
C  45.99000 48.45700 42.61700
C  45.29200 47.39700 42.00700
C  46.23500 46.32400 42.04500
C  45.50400 49.88800 42.82700
C  44.05100 47.04700 41.37800
O  43.05100 47.64700 40.98900
C  44.34400 45.57400 40.92800
C  43.16200 44.81000 41.35200
O  42.27100 44.33900 40.61600
O  43.22100 44.68500 42.74500
C  41.95700 44.21400 43.26700
H  49.30400 40.81700 42.07900
H  53.17900 45.66700 43.62500
H  48.29200 49.60900 43.66700
H  44.77800 42.62100 40.78000
H  46.92600 40.97100 40.52100
H  46.08400 39.85100 42.45600
H  44.99200 41.17100 42.51800
H  46.39500 41.26700 43.54400
H  46.74900 42.20200 38.65800
H  46.27900 43.92000 38.80300
H  44.24400 43.51200 37.90800
H  44.04900 41.96100 38.77000
H  52.97200 40.63000 41.39200
H  51.34500 39.96500 41.66700
H  52.46100 39.99400 42.94300
H  55.16500 44.50200 43.82200
H  55.35500 43.32700 45.15900
H  54.05400 44.52400 45.22600
H  52.58200 48.31800 42.76300
H  50.93900 49.13200 45.08800
H  53.13500 48.82900 45.62500
H  54.23500 48.43800 44.28700
H  53.40900 47.12900 45.17900
H  50.13800 50.31300 42.64600
H  51.89900 50.50700 42.63200
H  51.73800 52.26100 43.96100
H  50.73000 51.24000 45.14500
H  50.01100 52.19500 43.77100
H  45.49200 50.16100 43.88300
H  44.51400 50.05000 42.39900
H  46.27700 50.51100 42.37800
H  44.38200 45.65800 39.84200
H  42.02600 44.51400 44.31300
H  41.79500 43.13700 43.22200
H  41.09500 44.73900 42.85600

