158

Mg 0.35800 7.45800 25.64400
C  1.07600 9.26400 28.49500
C  -0.48400 4.68900 27.66300
C  -0.07100 5.49200 22.83400
C  1.26400 10.11600 23.68800
N  0.57500 7.01800 27.78300
C  0.64100 7.92300 28.79000
C  0.35700 7.39700 30.13900
C  0.09500 5.80600 29.89300
C  0.13200 5.80000 28.29900
C  1.11200 4.80000 30.51900
C  -0.87700 8.00400 30.84500
C  -0.64700 8.55100 32.32200
H  0.46000 7.88300 33.19900
N  -0.16300 5.43300 25.29800
C  -0.62200 4.53100 26.28800
C  -1.21100 3.41300 25.67700
C  -0.99500 3.47000 24.29100
C  -0.42600 4.90600 24.03600
C  -2.09300 2.42100 26.39400
C  -1.23800 2.50100 23.19600
O  -0.94400 2.69100 22.05800
C  -1.82500 1.07800 23.48700
N  0.76800 7.73800 23.56500
C  0.44000 6.77300 22.62400
C  0.60900 7.23900 21.23900
C  0.82100 8.79900 21.48300
C  1.00100 8.93800 23.04900
C  1.79300 6.49200 20.51400
C  -0.32100 9.70000 20.81100
C  -1.73800 9.58000 21.47000
N  1.02000 9.28900 26.01600
C  1.25300 10.31100 25.14200
C  1.63400 11.52300 25.87300
C  1.53100 11.19600 27.16300
C  1.19600 9.81000 27.24400
C  1.97900 12.88300 25.27700
C  1.62100 11.71400 28.51600
O  1.94900 12.80400 28.93700
C  1.20800 10.50300 29.39400
C  2.23200 10.21100 30.48700
O  3.30700 9.60300 30.44300
O  1.75400 10.86200 31.60900
C  2.44800 10.90200 32.89500
H  -0.66800 3.77800 28.23600
H  -0.25500 4.91000 21.92900
H  1.55200 11.02700 23.15900
H  1.30500 7.54500 30.65700
H  -0.89900 5.55300 30.26200
H  1.34500 3.94000 29.89200
H  0.66000 4.31200 31.38200
H  1.94300 5.46500 30.75500
H  -1.72200 7.33100 30.98400
H  -1.19400 8.82300 30.20000
H  -1.62600 8.59300 32.79900
H  -0.30700 9.58600 32.32800
H  -1.67300 1.45600 26.68000
H  -3.00100 2.22400 25.82500
H  -2.49400 2.84100 27.31600
H  -1.17500 0.40900 24.05100
H  -2.00700 0.51700 22.57000
H  -2.77600 1.29100 23.97300
H  -0.33700 7.02200 20.74200
H  1.71100 9.03200 20.89800
H  2.31600 5.89700 21.26300
H  2.38800 7.26700 20.03000
H  1.30100 5.77300 19.85900
H  -0.43100 9.33500 19.78900
H  0.04100 10.70200 20.58400
H  -1.66500 9.12500 22.45800
H  -2.36800 8.99600 20.79800
H  -2.18000 10.57200 21.56900
H  2.49100 13.53900 25.98100
H  1.09300 13.44300 24.98000
H  2.57900 12.86500 24.36800
H  0.26900 10.74500 29.89300
H  1.75500 10.68600 33.70800
H  2.90600 11.88500 33.00200
H  3.22700 10.14300 32.82400
Mg 47.11300 16.58300 28.05500
C  44.88200 16.52700 30.68900
C  49.36200 18.41200 30.14600
C  48.78600 17.48900 25.28700
C  44.63100 15.18100 26.04800
N  47.04200 17.40000 30.14300
C  46.07100 17.18200 31.03900
C  46.44100 17.74400 32.38500
C  47.79300 18.57900 32.10200
C  48.14000 18.00100 30.75200
C  47.74200 20.14900 32.12300
C  46.63100 16.67300 33.45600
C  46.18000 16.90800 34.97900
H  45.79300 18.36500 35.38900
N  48.93200 17.60300 27.76800
C  49.64700 18.26300 28.71800
C  50.74400 18.90600 28.07700
C  50.62800 18.71400 26.65800
C  49.41700 17.89500 26.50400
C  51.89000 19.64800 28.87000
C  51.61400 19.08200 25.57600
O  51.39800 18.90100 24.38900
C  52.83900 19.93200 25.91600
N  46.83200 16.25700 26.03900
C  47.66800 16.70100 25.07000
C  47.17600 16.29800 23.64700
C  45.84000 15.50500 23.96200
C  45.85100 15.48300 25.47200
C  46.95400 17.59300 22.73100
C  45.65100 14.06300 23.37700
C  44.83300 13.98700 22.07900
N  45.15200 15.83600 28.30500
C  44.25200 15.31200 27.36200
C  42.93500 15.06300 27.95900
C  43.10300 15.48900 29.31100
C  44.50800 15.92100 29.45200
C  41.71400 14.38700 27.29700
C  42.46400 15.62000 30.54500
O  41.32600 15.35800 30.97000
C  43.61900 16.21000 31.45900
C  42.97500 17.49700 31.94400
O  42.65300 18.48900 31.31600
O  42.78800 17.40100 33.33100
C  42.11400 18.52700 34.00300
H  49.95700 19.14400 30.69600
H  49.34300 17.72800 24.37900
H  43.82700 14.87400 25.37700
H  45.72900 18.46600 32.78500
H  48.59900 18.32700 32.79100
H  46.84200 20.46200 32.65200
H  48.00100 20.58200 31.15700
H  48.54000 20.49600 32.77900
H  47.68700 16.44800 33.60200
H  46.14200 15.72800 33.22000
H  47.01300 16.67000 35.63900
H  45.37000 16.24000 35.27300
H  52.91500 19.51600 28.52400
H  51.92500 19.32100 29.90900
H  51.76700 20.72800 28.78000
H  53.59700 19.37500 26.46600
H  52.50100 20.74300 26.56200
H  53.05700 20.40400 24.95800
H  47.93100 15.58600 23.31300
H  44.94800 16.06000 23.67200
H  45.91300 17.76400 22.45800
H  47.49500 17.44000 21.79700
H  47.24500 18.51300 23.23900
H  45.21500 13.42800 24.14900
H  46.59500 13.54400 23.21600
H  43.91300 13.41100 22.18400
H  45.45200 13.57100 21.28400
H  44.53400 14.96200 21.69600
H  41.06400 15.11600 26.81400
H  41.26700 13.79900 28.09900
H  42.13200 13.64400 26.61800
H  44.00600 15.57400 32.25500
H  42.83500 19.34400 34.03500
H  42.06400 18.22100 35.04800
H  41.10300 18.80500 33.70400

