158

Mg 34.57500 2.97400 29.70400
C  32.52100 4.09100 32.27800
C  37.28200 3.37200 31.79800
C  36.49200 2.62500 26.95500
C  31.70700 3.31000 27.49900
N  34.90400 3.76600 31.78300
C  33.89900 4.05400 32.69000
C  34.40600 4.04100 34.13000
C  35.95400 4.00400 33.86800
C  36.07500 3.60300 32.40200
C  36.70600 5.31100 34.26000
C  33.88400 2.77800 34.91800
C  33.53200 3.04500 36.46600
H  34.16800 4.30600 37.14300
N  36.58900 2.76300 29.47700
C  37.51000 3.01800 30.45100
C  38.86400 2.90500 29.90800
C  38.67100 2.72800 28.48400
C  37.17100 2.66300 28.23500
C  40.15700 3.15800 30.76200
C  39.63200 2.62600 27.30100
O  39.35700 2.41300 26.10800
C  41.13300 2.73400 27.63200
N  34.08900 2.87400 27.49900
C  35.12500 2.88100 26.58400
C  34.59800 2.94800 25.17700
C  33.03800 2.83900 25.36100
C  32.89100 2.99900 26.83100
C  35.12700 4.24100 24.45500
C  32.39700 1.52000 24.89500
C  32.36200 0.26500 25.78200
N  32.57300 3.44000 29.76600
C  31.47700 3.47000 28.87500
C  30.31500 3.99000 29.52600
C  30.62500 4.07700 30.90900
C  32.00600 3.85100 30.94500
C  28.95200 4.12700 28.98000
C  30.08200 4.38600 32.19500
O  28.96400 4.73900 32.47600
C  31.35500 4.40300 33.15400
C  31.46100 5.77300 33.76000
O  32.09000 6.70000 33.31700
O  30.76000 5.83000 34.86700
C  30.86900 7.10100 35.66300
H  38.15200 3.47000 32.45100
H  37.06300 2.64000 26.02500
H  30.81000 3.57400 26.93500
H  34.17700 5.03200 34.52200
H  36.40600 3.24800 34.51000
H  37.51600 4.89800 34.86200
H  36.15500 5.95900 34.94200
H  37.00200 5.85600 33.36300
H  34.61600 1.97900 34.79700
H  33.00400 2.47100 34.35200
H  33.88500 2.16700 37.00600
H  32.45800 3.03400 36.65100
H  40.17200 4.24100 30.88300
H  41.07100 2.69300 30.39400
H  39.87800 2.64900 31.68500
H  41.22800 3.68400 28.15700
H  41.60000 2.68500 26.64800
H  41.57400 1.99000 28.29500
H  34.85500 2.11300 24.52500
H  32.58500 3.76400 25.00500
H  34.65900 5.15900 24.81000
H  35.10700 4.17100 23.36700
H  36.17900 4.33600 24.72200
H  32.76300 1.18800 23.92300
H  31.33700 1.70800 24.72600
H  33.21300 0.22600 26.46200
H  32.33700 -0.64400 25.18100
H  31.47600 0.27200 26.41700
H  28.20700 3.93400 29.75300
H  28.84600 3.38600 28.18800
H  28.70700 5.09900 28.55300
H  31.11600 3.59500 33.84500
H  31.86100 7.26800 36.08200
H  30.26700 7.02400 36.56900
H  30.46800 7.94200 35.09600
Mg 47.45500 16.84900 28.75900
C  45.32800 16.69400 31.63600
C  49.70700 18.54500 30.43300
C  48.78900 17.66300 25.84500
C  44.65200 15.60700 26.89100
N  47.64300 17.38800 30.86900
C  46.66900 17.34600 31.83000
C  47.13800 17.83400 33.19700
C  48.47500 18.49600 32.77000
C  48.72100 18.07400 31.31500
C  48.39900 20.07900 32.89200
C  47.25200 16.58000 34.12600
C  46.70200 16.70500 35.56500
H  46.38400 18.12400 36.02900
N  49.13700 17.80600 28.26000
C  50.00700 18.37300 29.06600
C  51.20100 18.86800 28.42300
C  50.84000 18.66300 27.02700
C  49.57500 17.98300 27.00300
C  52.43700 19.55400 29.00500
C  51.68500 19.07100 25.81700
O  51.43700 18.58900 24.68100
C  52.91900 19.83200 25.93400
N  46.79800 16.66500 26.57200
C  47.63500 17.01600 25.61800
C  47.03900 16.76900 24.24900
C  45.85700 15.79400 24.61900
C  45.71800 16.02700 26.12900
C  46.39300 17.95600 23.54000
C  46.21200 14.32200 24.26900
C  45.34400 13.75000 23.16900
N  45.43700 16.17500 29.13400
C  44.50800 15.64800 28.28900
C  43.27000 15.33300 29.01400
C  43.59100 15.76700 30.36600
C  44.94500 16.18900 30.37700
C  41.94900 14.82300 28.39000
C  43.14700 15.87300 31.70800
O  42.02700 15.54000 32.18700
C  44.20900 16.47300 32.64100
C  43.62100 17.71200 33.23400
O  43.79800 18.82600 32.72800
O  42.83700 17.42600 34.33700
C  41.94500 18.48400 34.72400
H  50.41100 19.10200 31.05500
H  49.33400 17.88900 24.92600
H  43.97100 15.06000 26.23600
H  46.56500 18.71300 33.49200
H  49.27200 18.20500 33.45300
H  49.08600 20.37800 33.68300
H  47.41700 20.41000 33.22800
H  48.66500 20.50000 31.92200
H  48.29000 16.25100 34.17700
H  46.69500 15.71300 33.77200
H  47.48400 16.30600 36.21100
H  45.69700 16.28900 35.63900
H  53.33000 19.01600 28.68800
H  52.42700 19.47600 30.09200
H  52.48600 20.60200 28.70900
H  53.56300 19.20400 26.54900
H  52.76900 20.80900 26.39400
H  53.36700 20.11200 24.98100
H  47.80900 16.27100 23.66000
H  44.85800 15.96700 24.22100
H  45.46300 17.73100 23.01800
H  47.12000 18.27800 22.79600
H  46.21900 18.72200 24.29600
H  45.96000 13.72300 25.14400
H  47.27900 14.21900 24.06700
H  44.65800 14.45100 22.69300
H  44.78600 12.88800 23.53400
H  46.00100 13.42000 22.36500
H  41.57300 13.96200 28.94200
H  42.19800 14.54500 27.36600
H  41.14400 15.55000 28.50100
H  44.40400 15.70200 33.38500
H  41.60400 19.13200 33.91700
H  42.39900 18.97600 35.58500
H  41.04700 18.07700 35.18900

