158

Mg 47.26700 25.73600 28.43900
C  48.30400 27.80900 31.03000
C  46.16300 23.47100 31.01500
C  46.69500 23.44100 26.15800
C  48.88300 27.75800 26.20100
N  47.19000 25.66500 30.78200
C  47.58000 26.67200 31.55900
C  47.26000 26.39600 33.02000
C  46.78000 24.93600 33.07500
C  46.66800 24.64900 31.54200
C  47.61600 23.90700 33.74300
C  46.23300 27.38300 33.60900
C  46.65700 27.81700 35.04500
H  45.48000 27.98100 36.03300
N  46.48100 23.73500 28.56600
C  46.07600 22.98500 29.66900
C  45.67900 21.66000 29.22700
C  45.73200 21.65100 27.84300
C  46.30600 22.98200 27.44700
C  45.23000 20.65100 30.19700
C  45.25300 20.51600 26.83900
O  45.31400 20.63900 25.63000
C  44.89700 19.13900 27.40600
N  47.92500 25.48700 26.51700
C  47.45700 24.49800 25.74300
C  47.71100 24.77400 24.24700
C  48.21400 26.30000 24.31600
C  48.34100 26.57200 25.76700
C  48.84400 23.86900 23.64800
C  47.26400 27.33000 23.62200
C  47.76500 28.27300 22.52500
N  48.26200 27.46600 28.53500
C  48.90600 28.17800 27.50700
C  49.60500 29.32100 28.04200
C  49.32300 29.24200 29.44900
C  48.58800 28.07000 29.67900
C  50.53400 30.34000 27.30200
C  49.57500 29.85100 30.69200
O  50.16900 30.83500 30.89700
C  48.97700 28.96000 31.70100
C  50.04500 28.47900 32.52600
O  50.86000 27.63800 32.20600
O  49.98200 28.98500 33.81900
C  50.72400 28.30700 34.82900
H  45.75500 22.79000 31.76500
H  46.29500 22.82900 25.34700
H  49.35700 28.38700 25.44500
H  48.15200 26.42500 33.64600
H  45.76700 24.90400 33.47600
H  47.84500 23.00800 33.17000
H  46.95800 23.53200 34.52700
H  48.53000 24.28800 34.19800
H  45.19500 27.05000 33.61400
H  46.12000 28.20300 32.90000
H  47.19800 28.74600 34.86300
H  47.53100 27.35200 35.50100
H  44.21000 20.33400 29.97900
H  45.34900 21.03300 31.21100
H  45.86400 19.76400 30.20000
H  45.66000 18.59300 27.95900
H  44.53600 18.50700 26.59500
H  44.02000 19.31100 28.02900
H  46.78300 24.64500 23.69000
H  49.23500 26.42100 23.95400
H  49.69400 24.54500 23.55300
H  48.60400 23.43900 22.67600
H  49.15500 23.14600 24.40100
H  46.70500 27.87600 24.38200
H  46.56300 26.72000 23.05300
H  48.85400 28.26200 22.48500
H  47.41600 29.28100 22.74900
H  47.33000 28.06800 21.54700
H  49.86500 31.08200 26.86600
H  51.11900 29.99200 26.45100
H  51.24700 30.83100 27.96400
H  48.44100 29.60600 32.39600
H  49.99200 28.27500 35.63500
H  51.51500 29.00600 35.10200
H  51.12800 27.32400 34.58400
Mg 10.70900 47.95800 25.64800
C  7.97100 48.10900 27.89400
C  12.72500 49.23700 28.04400
C  13.02800 47.92200 23.30400
C  8.19200 47.44100 22.97500
N  10.37000 48.62300 27.70000
C  9.28700 48.36900 28.47800
C  9.53800 48.46400 30.04700
C  10.99300 49.22700 29.97600
C  11.38500 49.08100 28.44200
C  11.00100 50.72800 30.29500
C  9.45300 47.15800 30.90600
C  10.10400 47.07100 32.33400
H  9.39200 46.53800 33.51900
N  12.59000 48.44700 25.67100
C  13.26900 48.93400 26.79500
C  14.67000 49.10900 26.38100
C  14.84500 48.65900 25.04900
C  13.45900 48.25200 24.64300
C  15.67100 49.71000 27.30800
C  16.10600 48.58900 24.22500
O  16.15900 48.12200 23.11200
C  17.38500 48.98100 24.84100
N  10.54800 47.67400 23.40800
C  11.72500 47.78600 22.77600
C  11.51700 47.29200 21.32600
C  9.97900 47.28700 21.15500
C  9.51500 47.39700 22.58700
C  12.17800 48.15100 20.21900
C  9.45500 45.98500 20.48800
C  8.49400 46.12100 19.27000
N  8.56200 47.78800 25.41500
C  7.75100 47.61600 24.29100
C  6.37800 47.54200 24.73000
C  6.40600 47.64000 26.14600
C  7.79200 47.73300 26.50000
C  5.14700 47.33900 23.78500
C  5.59300 47.61900 27.38700
O  4.34100 47.56100 27.41000
C  6.58100 47.92800 28.56800
C  6.48000 46.69200 29.28800
O  7.14900 45.68300 29.06100
O  5.63400 46.87100 30.28300
C  5.54500 45.78600 31.22700
H  13.42300 49.50000 28.84100
H  13.77000 47.95100 22.50300
H  7.46100 47.27200 22.18100
H  8.61800 48.95900 30.35800
H  11.67600 48.73300 30.66600
H  10.79800 50.91500 31.35000
H  10.24500 51.16000 29.63900
H  11.87800 51.34600 30.10500
H  9.66600 46.31500 30.24800
H  8.37800 47.05900 31.05900
H  10.32700 48.11400 32.55700
H  11.06500 46.56200 32.26600
H  15.25800 49.93800 28.29000
H  16.07900 50.61600 26.85900
H  16.46900 48.99400 27.50600
H  17.56400 48.31000 25.68100
H  17.15000 49.91200 25.35600
H  18.20500 49.03600 24.12500
H  11.87700 46.26300 21.31100
H  9.65100 48.18600 20.63200
H  11.46700 48.73900 19.63900
H  12.48900 47.34000 19.56100
H  13.05100 48.74700 20.48600
H  8.79700 45.43900 21.16300
H  10.34200 45.46600 20.12400
H  7.59900 45.51600 19.41400
H  9.04500 45.68800 18.43500
H  8.20100 47.12500 18.96600
H  4.65900 48.30500 23.91900
H  4.49700 46.53200 24.12400
H  5.41600 47.25600 22.73200
H  6.28800 48.77700 29.18600
H  5.22700 44.89200 30.69100
H  4.83100 46.10600 31.98700
H  6.50500 45.56300 31.69200

