158

Mg 30.76000 57.84500 39.43100
C  27.77100 55.94700 38.66500
C  32.60400 55.14700 38.60500
C  33.37100 59.79900 39.81400
C  28.59900 60.61100 40.00200
N  30.16600 55.83800 38.58700
C  28.91500 55.25200 38.47300
C  29.07300 53.72400 38.29700
C  30.62600 53.49200 38.32500
C  31.18600 54.91600 38.60200
C  31.21600 52.50300 39.35000
C  28.49800 53.10500 36.91500
C  29.06300 53.78700 35.63300
H  28.08500 54.21200 34.54200
N  32.75600 57.52700 39.27700
C  33.30400 56.32600 39.01400
C  34.69400 56.45400 39.18900
C  34.96700 57.80300 39.49300
C  33.67700 58.47600 39.52400
C  35.60700 55.33300 38.88800
C  36.37900 58.45500 39.68400
O  37.37300 57.78700 39.50300
C  36.57800 59.89000 39.95700
N  30.95400 59.94800 39.68600
C  32.17900 60.53500 39.80600
C  32.00100 62.08800 39.77400
C  30.50100 62.20800 40.21500
C  29.97100 60.79100 39.97500
C  33.04900 62.87700 40.70100
C  29.77500 63.31100 39.32600
C  28.81000 64.22900 40.13500
N  28.63000 58.31700 39.33600
C  27.96300 59.40200 39.77900
C  26.48600 59.10100 39.67200
C  26.38700 57.76000 39.34700
C  27.70200 57.33200 39.13000
C  25.42600 60.15600 39.83300
C  25.44000 56.67900 39.12200
O  24.24500 56.61100 39.18500
C  26.34400 55.40100 38.68300
C  26.24500 54.42300 39.87100
O  27.07000 54.29800 40.80800
O  25.14600 53.62800 39.69700
C  24.93200 52.51400 40.61000
H  33.26000 54.32200 38.31800
H  34.16200 60.54200 39.93400
H  28.02600 61.52600 40.16300
H  28.70400 53.15100 39.14800
H  31.05400 53.22100 37.36000
H  31.37000 53.04100 40.28600
H  32.18200 52.21000 38.94100
H  30.64700 51.59300 39.54200
H  27.42200 52.96600 37.01800
H  28.88900 52.08900 36.86600
H  29.68100 53.06600 35.09700
H  29.69300 54.62700 35.92500
H  35.67400 55.01900 37.84600
H  35.27200 54.54600 39.56400
H  36.65800 55.48800 39.13100
H  37.61400 60.03500 39.65100
H  36.52800 60.06700 41.03200
H  36.05900 60.54200 39.25500
H  31.98700 62.49800 38.76400
H  30.51400 62.52000 41.25900
H  33.44200 62.21800 41.47500
H  32.46300 63.59400 41.27600
H  33.88000 63.39100 40.21700
H  29.11800 62.82600 38.60400
H  30.37500 63.90900 38.64000
H  29.04700 65.28700 40.02400
H  28.87700 63.92000 41.17800
H  27.79400 64.19000 39.74200
H  24.39000 59.82100 39.89500
H  25.57100 60.86100 39.01500
H  25.78100 60.63000 40.74800
H  26.03800 54.86400 37.78500
H  24.52600 52.83700 41.56800
H  25.88500 52.02000 40.79800
H  24.31700 51.77000 40.10300
Mg 36.24200 49.19700 24.80900
C  36.33200 47.45600 27.77300
C  34.86000 51.96600 26.42900
C  35.58900 50.59800 21.82400
C  37.00600 46.16400 23.17700
N  35.45500 49.61300 26.86600
C  35.73600 48.78200 27.94300
C  35.30500 49.49800 29.25200
C  34.66800 50.87300 28.74200
C  35.12100 50.84500 27.26500
C  33.19200 51.05400 29.11800
C  36.53400 49.73000 30.23100
C  36.34900 49.34600 31.71000
H  34.92300 49.28500 32.35700
N  35.51500 51.09300 24.20900
C  34.98100 52.10200 24.97300
C  34.71500 53.32000 24.21700
C  34.91600 52.92800 22.84100
C  35.41000 51.51500 22.89900
C  34.35400 54.62100 24.87500
C  34.82400 53.72400 21.55100
O  35.21400 53.30900 20.44800
C  34.24300 55.03300 21.56700
N  36.11900 48.42900 22.84500
C  35.93700 49.24100 21.81200
C  35.85400 48.30500 20.55800
C  36.63700 47.07700 20.91000
C  36.46400 47.15600 22.36800
C  34.42600 48.05700 20.05300
C  38.10700 46.85000 20.43800
C  39.15500 47.97600 20.71500
N  36.61100 47.19200 25.29000
C  36.99800 46.10400 24.56200
C  37.39100 45.03400 25.48400
C  37.11300 45.50000 26.75300
C  36.67200 46.80700 26.53700
C  37.86800 43.68800 25.04300
C  37.25400 45.21400 28.21300
O  37.59100 44.23000 28.86900
C  36.68600 46.40400 28.89100
C  35.53800 45.85600 29.69300
O  34.40800 45.60400 29.29800
O  36.01800 45.74200 31.01900
C  35.06500 45.08200 31.90400
H  34.47500 52.79400 27.02800
H  35.23800 50.90400 20.83600
H  37.41700 45.25100 22.74200
H  34.49000 48.89100 29.64700
H  35.24200 51.71000 29.13900
H  32.65700 50.10800 29.20100
H  32.64800 51.58200 28.33500
H  33.18200 51.50800 30.10900
H  36.90800 50.75300 30.18900
H  37.39500 49.14700 29.90500
H  36.93100 50.10800 32.22900
H  36.90000 48.41900 31.86800
H  33.29600 54.88100 24.89400
H  34.76100 55.41500 24.24900
H  34.55000 54.66400 25.94600
H  34.05200 55.45500 20.58100
H  35.06400 55.62800 21.96700
H  33.35400 54.92100 22.18700
H  36.38200 48.75400 19.71700
H  36.13700 46.17200 20.56300
H  33.64800 48.74200 20.39000
H  34.11200 47.03400 20.25700
H  34.48300 48.15800 18.96900
H  37.96600 46.78900 19.35900
H  38.53700 45.88000 20.68700
H  38.77500 48.91300 21.12300
H  39.60300 48.07300 19.72600
H  39.92800 47.66600 21.41800
H  37.34400 43.29800 24.17000
H  37.75800 42.93600 25.82400
H  38.90100 43.80800 24.71500
H  37.51600 46.78600 29.48500
H  34.81400 44.09800 31.50700
H  34.17000 45.67200 32.09900
H  35.53600 45.05300 32.88700

