158

Mg 36.27000 49.20600 25.40300
C  36.30700 47.11300 28.20700
C  35.07000 51.67300 27.41500
C  35.80900 50.87100 22.63100
C  36.91900 46.26900 23.45600
N  35.55500 49.35900 27.51300
C  35.90600 48.39900 28.48700
C  35.71300 48.96300 29.90100
C  35.15100 50.38600 29.57500
C  35.34300 50.52900 28.06400
C  33.69000 50.60800 29.98800
C  36.98200 49.00500 30.82800
C  36.86800 48.39100 32.26900
H  36.87800 49.45800 33.35100
N  35.51100 51.02000 25.10300
C  35.22300 51.95200 26.02500
C  35.19600 53.24200 25.42900
C  35.23800 52.97300 23.98100
C  35.53500 51.55000 23.81700
C  34.92300 54.45400 26.32300
C  34.93600 53.87500 22.80100
O  34.85500 53.57500 21.60200
C  34.74800 55.46200 23.08000
N  36.33800 48.67900 23.28500
C  36.13000 49.54900 22.38000
C  36.23500 48.91800 20.91500
C  36.76000 47.46700 21.26100
C  36.73700 47.46000 22.79500
C  34.96400 48.89000 20.01500
C  38.05400 47.00900 20.57200
C  38.02200 46.00100 19.42800
N  36.55300 47.12600 25.68400
C  36.91700 46.10500 24.84600
C  37.20100 44.91900 25.52500
C  36.99900 45.27200 26.86000
C  36.56900 46.63600 26.92600
C  37.66700 43.62500 24.97000
C  37.02400 44.86800 28.23900
O  37.12300 43.76600 28.75500
C  36.67800 46.02100 29.13100
C  35.54400 45.67200 30.00000
O  34.34700 45.71000 29.65600
O  35.90800 45.26700 31.24600
C  34.93700 44.64500 32.11500
H  34.64500 52.44600 28.05900
H  35.72500 51.45800 21.71400
H  36.93400 45.39200 22.80600
H  34.98600 48.34500 30.42900
H  35.67100 51.18800 30.09900
H  33.50300 49.97500 30.85500
H  32.88300 50.45100 29.27300
H  33.46100 51.63500 30.27200
H  37.37600 50.01700 30.92000
H  37.73900 48.37000 30.37000
H  37.71000 47.73200 32.47800
H  35.93200 47.84300 32.37700
H  35.02600 55.36000 25.72500
H  35.65800 54.52300 27.12500
H  33.89700 54.41000 26.68800
H  33.92900 55.66600 23.77000
H  34.33700 55.73800 22.10900
H  35.64100 55.99100 23.41500
H  37.00100 49.49600 20.39800
H  35.96600 46.79400 20.93900
H  35.07800 49.81700 19.45300
H  34.20000 49.08100 20.76900
H  34.77000 48.09300 19.29700
H  38.83300 46.72100 21.27800
H  38.49200 47.93300 20.19500
H  37.04400 45.51900 19.41600
H  38.75500 45.20700 19.57300
H  38.27800 46.44100 18.46500
H  38.59800 43.27300 25.41600
H  37.72100 43.56300 23.88300
H  36.96300 42.81800 25.17300
H  37.63200 46.28000 29.59200
H  34.09700 45.23900 32.47700
H  35.46900 44.34900 33.01900
H  34.43100 43.86900 31.54100
Mg -1.41400 33.90700 26.38500
C  -3.32200 32.50100 28.94600
C  0.08600 35.96000 28.66000
C  0.25900 35.49500 23.74800
C  -2.86700 31.79200 24.15900
N  -1.73100 34.28300 28.59200
C  -2.46800 33.51100 29.47500
C  -2.34800 34.00500 30.88700
C  -1.24400 35.13600 30.75700
C  -0.86200 35.12900 29.25400
C  -1.66400 36.48800 31.38100
C  -1.91200 32.83400 31.85400
C  -1.19500 33.19700 33.09500
H  -1.66200 32.51000 34.39100
N  -0.12200 35.59300 26.22800
C  0.40100 36.24600 27.30800
C  1.24200 37.33000 26.77400
C  1.17200 37.26400 25.32700
C  0.36100 36.09300 25.01300
C  2.08600 38.25600 27.68700
C  1.79900 38.16500 24.32800
O  1.67800 38.08600 23.13100
C  2.53100 39.39900 24.82300
N  -1.16700 33.55400 24.27300
C  -0.44600 34.29100 23.38300
C  -0.71700 33.79000 21.91900
C  -1.55500 32.42100 22.20000
C  -1.82500 32.53700 23.65100
C  -1.46200 34.80000 20.97600
C  -0.76700 31.11300 21.77900
C  0.17800 30.40400 22.75500
N  -2.93100 32.59400 26.46500
C  -3.39200 31.75300 25.46100
C  -4.42300 30.91000 25.95200
C  -4.44000 31.12800 27.35300
C  -3.44500 32.10100 27.61300
C  -5.29300 30.01200 25.13300
C  -5.06100 30.84300 28.57000
O  -6.04100 30.10900 28.78000
C  -4.27200 31.64000 29.74900
C  -5.22600 32.44400 30.54600
O  -5.75800 33.53100 30.28900
O  -5.33600 31.70300 31.70200
C  -6.09000 32.39500 32.77100
H  0.52100 36.68200 29.35400
H  0.50500 36.10900 22.87900
H  -3.37200 31.23100 23.37000
H  -3.33500 34.40200 31.12500
H  -0.37600 34.79500 31.32200
H  -0.78900 36.95700 31.83200
H  -2.51900 36.20200 31.99400
H  -2.05700 37.08300 30.55700
H  -1.31100 32.10300 31.31300
H  -2.82200 32.34800 32.20400
H  -1.35100 34.25800 33.29300
H  -0.14200 32.93800 32.98500
H  3.10400 38.43600 27.34100
H  1.97800 37.81100 28.67600
H  1.62500 39.24200 27.74400
H  1.94000 39.85400 25.61800
H  2.73900 40.14800 24.05900
H  3.46600 39.01700 25.23100
H  0.25000 33.55800 21.47300
H  -2.52100 32.37600 21.69600
H  -1.67900 35.70300 21.54600
H  -2.43400 34.57200 20.53900
H  -0.84200 35.12000 20.13900
H  -0.15800 31.48700 20.95500
H  -1.58600 30.53500 21.35100
H  0.27300 30.84000 23.75000
H  1.20900 30.35200 22.40600
H  -0.11300 29.35600 22.83200
H  -5.32400 29.06700 25.67500
H  -4.82900 29.91600 24.15200
H  -6.32200 30.37200 25.16400
H  -3.69300 31.00000 30.41600
H  -6.76200 31.67500 33.23900
H  -6.62300 33.31500 32.53200
H  -5.35000 32.74600 33.49100

