158

Mg -1.89000 17.03900 26.12600
C  -1.77700 14.79700 28.89000
C  -2.00800 19.61400 28.25800
C  -2.07300 19.03700 23.44200
C  -2.15100 14.17100 24.09200
N  -2.10100 17.11700 28.32900
C  -1.90900 16.15400 29.25900
C  -2.01000 16.81000 30.68000
C  -2.35800 18.30800 30.35000
C  -2.11500 18.36000 28.85700
C  -3.78800 18.78300 30.68300
C  -0.82200 16.55200 31.57300
C  -0.57200 17.60900 32.72000
H  -0.00100 17.01900 33.97700
N  -1.88800 19.06400 25.89600
C  -1.83800 19.98400 26.89600
C  -1.85200 21.32000 26.27900
C  -1.87900 21.14900 24.90500
C  -1.94900 19.72600 24.72100
C  -1.93200 22.59200 27.16600
C  -1.69700 22.15200 23.84300
O  -1.67500 21.85700 22.66600
C  -1.40500 23.60100 24.13600
N  -2.07100 16.68900 24.13300
C  -2.10000 17.64800 23.20000
C  -2.02700 17.09400 21.74700
C  -1.81800 15.63200 21.96700
C  -2.00600 15.45500 23.49500
C  -3.17800 17.57200 20.79400
C  -0.43000 14.96800 21.51400
C  -0.48400 14.35900 20.06800
N  -1.96900 14.98600 26.38400
C  -2.10600 13.90700 25.46800
C  -1.95000 12.73700 26.13600
C  -1.84400 12.97200 27.47300
C  -1.91900 14.40400 27.59400
C  -2.01300 11.42100 25.47700
C  -1.65400 12.39300 28.77600
O  -1.44700 11.24400 29.05600
C  -1.74700 13.56200 29.78500
C  -0.53000 13.27500 30.65800
O  0.66400 13.58700 30.51900
O  -1.11300 12.72000 31.74600
C  -0.40100 12.62200 33.04300
H  -2.02000 20.51100 28.88100
H  -2.14200 19.61500 22.51800
H  -2.06300 13.31400 23.42100
H  -2.89100 16.41900 31.18800
H  -1.68000 19.06100 30.75300
H  -4.29700 18.40000 31.56700
H  -4.45800 18.63400 29.83700
H  -3.76000 19.87000 30.76100
H  0.07100 16.52200 30.94900
H  -0.96200 15.54400 31.96300
H  -1.46100 18.12300 33.08300
H  0.12300 18.33400 32.29600
H  -2.21700 22.31900 28.18100
H  -2.53000 23.40800 26.76000
H  -0.90900 22.96800 27.14600
H  -2.25100 24.21600 24.44400
H  -1.11500 24.11300 23.21900
H  -0.59700 23.68100 24.86300
H  -1.16900 17.43900 21.17000
H  -2.53400 15.09600 21.34500
H  -3.86100 18.20000 21.36700
H  -3.73100 16.70600 20.42800
H  -2.88800 18.21500 19.96400
H  -0.08300 14.17900 22.18200
H  0.39600 15.67700 21.45900
H  0.53700 14.53600 19.73100
H  -1.09000 14.86400 19.31500
H  -0.68500 13.29100 20.14600
H  -1.63400 11.38900 24.45600
H  -3.01600 11.00700 25.58800
H  -1.40400 10.76400 26.09900
H  -2.67800 13.37800 30.32200
H  -0.64000 13.51200 33.62500
H  0.67500 12.55400 32.88400
H  -0.84200 11.80600 33.61500
Mg 23.06500 -7.50300 46.22200
C  25.72900 -5.33600 44.86600
C  20.87100 -5.89200 44.27700
C  21.04600 -10.14300 46.58600
C  25.73100 -9.33600 47.75900
N  23.28500 -5.79000 44.78000
C  24.42600 -5.06000 44.35000
C  23.99500 -3.97900 43.25800
C  22.43200 -4.06700 43.27600
C  22.15500 -5.36600 44.07900
C  21.74600 -2.93900 43.93800
C  24.75900 -4.13300 41.84200
C  24.72200 -2.80700 40.98600
H  23.93300 -2.77800 39.64000
N  21.19700 -7.92600 45.56100
C  20.38100 -7.11500 44.84400
C  19.15700 -7.76600 44.44500
C  19.11900 -8.95400 45.26500
C  20.50300 -9.09800 45.79200
C  18.09400 -7.12900 43.56400
C  17.94700 -9.97200 45.39300
O  16.90000 -9.84200 44.68700
C  18.00000 -11.09000 46.36800
N  23.36600 -9.39900 46.98600
C  22.29600 -10.25900 47.13400
C  22.68600 -11.55800 47.91000
C  24.21600 -11.29000 48.18400
C  24.51200 -9.95100 47.50700
C  21.89300 -11.84100 49.18700
C  25.08200 -12.55200 47.88700
C  26.35300 -12.70800 48.70700
N  25.28100 -7.29700 46.49600
C  26.17000 -8.12200 47.19600
C  27.49200 -7.55400 47.06500
C  27.39100 -6.48300 46.17800
C  25.99700 -6.41800 45.77100
C  28.73500 -8.08000 47.64600
C  28.13300 -5.32000 45.62500
O  29.24900 -4.91100 45.87700
C  27.07900 -4.62200 44.62100
C  27.14900 -3.22700 45.09100
O  26.54400 -2.89700 46.11100
O  27.64900 -2.36500 44.12700
C  27.70300 -0.91700 44.50400
H  20.18100 -5.15800 43.85700
H  20.40800 -11.02200 46.69900
H  26.53200 -9.93200 48.20000
H  24.30100 -2.97700 43.55900
H  22.04000 -4.21300 42.26900
H  22.45400 -2.58900 44.68900
H  20.86400 -3.11000 44.55500
H  21.65700 -2.16500 43.17600
H  24.24900 -4.98000 41.38400
H  25.79400 -4.45800 41.94800
H  25.77500 -2.85800 40.70700
H  24.55100 -1.95700 41.64600
H  18.16300 -7.77300 42.68700
H  18.29600 -6.07200 43.38900
H  17.08400 -7.20200 43.96600
H  18.36300 -10.75300 47.33900
H  18.58700 -11.91300 45.96000
H  17.01800 -11.53800 46.52400
H  22.61900 -12.28000 47.09700
H  24.32900 -11.14100 49.25800
H  22.48000 -11.59500 50.07200
H  21.60800 -12.89100 49.12400
H  20.98800 -11.23500 49.13800
H  25.27100 -12.43000 46.82000
H  24.50600 -13.44900 48.11500
H  27.16200 -12.79900 47.98300
H  26.41200 -13.49100 49.46300
H  26.62300 -11.79400 49.23700
H  29.49600 -8.15600 46.87000
H  28.57600 -9.02100 48.17200
H  29.06900 -7.45400 48.47400
H  27.37600 -4.70400 43.57600
H  28.70300 -0.61900 44.81800
H  27.00100 -0.71300 45.31300
H  27.39600 -0.40100 43.59500

