158

Mg 48.98000 35.31400 26.99000
C  46.56500 34.43500 29.55500
C  49.56100 38.23700 28.72200
C  50.81000 36.48500 24.29800
C  47.66900 32.86000 25.05500
N  48.20500 36.15600 28.92900
C  47.37900 35.56800 29.91100
C  47.05300 36.53700 31.05500
C  47.85200 37.78600 30.64200
C  48.65700 37.38600 29.39700
C  47.07400 39.09200 30.30600
C  47.48200 36.00800 32.51700
C  46.52700 36.58400 33.56900
H  47.01300 37.67900 34.45300
N  50.20000 36.96400 26.68600
C  50.35900 38.01700 27.55000
C  51.37000 38.85900 27.00900
C  51.85900 38.25900 25.82100
C  50.96000 37.22200 25.50900
C  51.70900 40.27600 27.59900
C  53.05100 38.66400 24.95000
O  53.43300 38.02800 23.97700
C  53.95500 39.83500 25.33900
N  49.06400 34.87800 24.99900
C  49.84100 35.46700 23.99200
C  49.76200 34.63400 22.68900
C  49.08300 33.31600 23.13400
C  48.53700 33.70000 24.50200
C  49.02800 35.47600 21.62700
C  50.04700 32.08900 23.19300
C  50.35400 31.43500 21.89400
N  47.50800 33.91700 27.24300
C  47.08100 32.98600 26.35300
C  45.97100 32.17900 26.87700
C  45.69700 32.74500 28.14100
C  46.71900 33.69700 28.34400
C  45.44000 30.89000 26.29000
C  44.89300 32.72000 29.35200
O  43.86000 32.10700 29.64900
C  45.31400 33.97000 30.18000
C  45.46800 33.44000 31.56100
O  46.34300 32.66900 31.92900
O  44.36600 33.84900 32.23400
C  44.21500 33.34700 33.54500
H  49.73400 39.21800 29.17100
H  51.46600 36.83200 23.49700
H  47.19200 32.04900 24.50100
H  45.98100 36.73100 31.03200
H  48.52000 38.19500 31.40000
H  47.54400 39.91000 30.85200
H  46.08400 39.00100 30.75300
H  46.96700 39.37600 29.25900
H  48.44500 36.34800 32.89800
H  47.53100 34.91900 32.50800
H  46.17700 35.83900 34.28400
H  45.68100 37.07200 33.08600
H  50.74300 40.77800 27.66100
H  52.30200 40.90400 26.93400
H  52.23800 40.18300 28.54800
H  54.85700 39.61900 24.76700
H  54.14600 39.76400 26.41000
H  53.55300 40.83100 25.15000
H  50.75900 34.27400 22.43700
H  48.31800 33.06000 22.40100
H  48.92600 36.51800 21.92700
H  48.02100 35.06200 21.57500
H  49.66700 35.53100 20.74500
H  49.57800 31.41400 23.90900
H  51.00700 32.42700 23.58400
H  49.83400 31.94900 21.08600
H  49.99500 30.42200 22.07400
H  51.40400 31.53200 21.61500
H  46.29800 30.22300 26.20800
H  45.32000 31.04600 25.21800
H  44.52800 30.47100 26.71500
H  44.49000 34.68400 30.19000
H  44.78900 34.00900 34.19300
H  44.54600 32.32300 33.72300
H  43.21600 33.52500 33.94300
Mg 29.93400 58.72600 40.44900
C  26.89000 57.00000 39.78900
C  31.63900 56.15200 39.13700
C  32.61000 60.77100 40.45300
C  27.97700 61.53700 41.44000
N  29.30000 56.81400 39.51700
C  28.03000 56.35400 39.28900
C  28.05200 55.00200 38.59000
C  29.61200 54.57900 38.57500
C  30.26600 55.94400 39.11700
C  30.02400 53.27500 39.42100
C  27.36000 55.00500 37.18100
C  27.49600 56.19700 36.24700
H  28.09800 55.94100 34.79700
N  31.85900 58.43800 40.03700
C  32.41900 57.31300 39.57100
C  33.80300 57.33100 39.49900
C  34.14700 58.69200 39.86900
C  32.87600 59.39700 40.22900
C  34.74200 56.16700 39.13900
C  35.59800 59.20500 39.80000
O  36.54100 58.50300 39.38900
C  35.84600 60.64200 40.24100
N  30.23200 60.85700 40.85700
C  31.47300 61.43200 40.79900
C  31.50900 62.92200 41.22000
C  30.02400 63.11200 41.66600
C  29.34200 61.75200 41.32100
C  32.54800 63.04500 42.42600
C  29.41400 64.39900 40.91200
C  28.69100 65.43500 41.70500
N  27.86800 59.24400 40.56700
C  27.22900 60.40100 41.05800
C  25.82000 60.23600 40.99600
C  25.57000 58.87200 40.69600
C  26.88400 58.33100 40.37300
C  24.82400 61.26600 41.37600
C  24.53600 57.84900 40.45300
O  23.35000 57.87300 40.47300
C  25.36700 56.57200 39.81600
C  25.11900 55.28500 40.69100
O  25.03900 55.23500 41.91700
O  25.01000 54.14300 39.81900
C  24.88100 52.87100 40.54200
H  32.11700 55.28800 38.67000
H  33.43700 61.47500 40.33500
H  27.36600 62.38100 41.76500
H  27.50100 54.30700 39.22400
H  29.93900 54.39400 37.55200
H  29.06500 52.93700 39.81300
H  30.76800 53.37000 40.21300
H  30.56500 52.53100 38.83600
H  26.29600 54.78200 37.25600
H  27.63200 54.08500 36.66300
H  28.08700 57.01900 36.65000
H  26.51100 56.66300 36.19500
H  35.40200 55.81900 39.93400
H  35.43900 56.51700 38.37700
H  34.29600 55.37100 38.54300
H  35.26600 61.19600 39.50200
H  36.88100 60.98100 40.28900
H  35.42400 60.74800 41.24000
H  31.83100 63.53600 40.37900
H  29.98800 63.29600 42.74000
H  32.80700 62.03800 42.75100
H  32.04500 63.50600 43.27600
H  33.37400 63.66900 42.08400
H  28.72400 63.98300 40.17800
H  30.13400 64.96000 40.31700
H  27.62600 65.43400 41.47100
H  29.09600 66.43900 41.57500
H  28.70700 65.20700 42.77100
H  24.77300 61.83100 40.44500
H  25.03300 61.88000 42.25200
H  23.81300 60.87300 41.48500
H  24.99100 56.27800 38.83600
H  25.84900 52.37300 40.47600
H  24.23800 52.28000 39.88900
H  24.44600 53.01600 41.53000

