158

Mg 25.81700 1.26400 29.21100
C  27.75700 0.76300 32.10400
C  23.07200 1.82500 31.18200
C  23.82500 1.10800 26.38400
C  28.59800 0.40300 27.37300
N  25.37400 1.09200 31.41800
C  26.37200 1.06200 32.35300
C  25.70300 1.36800 33.79200
C  24.20700 1.67100 33.52100
C  24.25000 1.57700 31.91900
C  23.20900 0.72000 34.09900
C  26.44600 2.45700 34.59300
C  26.87400 2.17800 36.05400
H  26.58500 3.26000 37.10200
N  23.74700 1.57300 28.78800
C  22.80600 1.75900 29.76600
C  21.49200 1.99700 29.09900
C  21.73600 1.80600 27.69100
C  23.14800 1.48400 27.56300
C  20.18600 2.24500 29.76900
C  20.76500 1.99600 26.54800
O  21.09500 1.95000 25.34700
C  19.37900 2.26100 26.81200
N  26.18300 0.76000 27.16800
C  25.17700 0.74400 26.23800
C  25.73400 0.50400 24.85700
C  27.30900 0.55400 25.07600
C  27.43700 0.61400 26.62800
C  25.11700 -0.67900 24.09000
C  27.99700 1.75200 24.28500
C  28.67200 1.46600 22.97400
N  27.76600 0.63200 29.61900
C  28.84100 0.36300 28.73300
C  29.97900 0.05000 29.53500
C  29.60300 0.20100 30.89200
C  28.24400 0.55400 30.85500
C  31.28200 -0.18500 28.92900
C  30.05700 0.13700 32.24200
O  31.07100 -0.26900 32.75600
C  28.87600 0.58100 33.13500
C  28.61900 -0.40700 34.23500
O  27.96700 -1.40200 34.15700
O  29.30100 0.00100 35.38900
C  28.98900 -0.74200 36.56400
H  22.20900 2.16600 31.75800
H  23.30900 1.31100 25.44300
H  29.44200 0.20800 26.70800
H  25.82400 0.40700 34.29200
H  23.92900 2.72100 33.61100
H  22.33000 1.35600 34.20100
H  23.53500 0.23200 35.01700
H  22.83200 -0.06100 33.43900
H  25.94100 3.42000 34.66900
H  27.37500 2.65000 34.05700
H  27.92700 1.91500 36.14800
H  26.32100 1.27600 36.31700
H  19.90300 3.26000 29.49000
H  20.38500 2.25100 30.84100
H  19.34500 1.60400 29.50600
H  18.85800 1.38700 27.20300
H  18.94000 2.52700 25.85100
H  19.11400 3.11700 27.43200
H  25.40700 1.40800 24.34300
H  27.81200 -0.36100 24.76100
H  25.85500 -1.45200 23.87000
H  24.79200 -0.43500 23.07900
H  24.27100 -1.23500 24.49400
H  28.79200 2.06500 24.96200
H  27.33700 2.59700 24.08800
H  28.41700 0.50100 22.53400
H  29.73100 1.62800 23.17700
H  28.26800 2.15100 22.22900
H  31.50300 0.39300 28.03100
H  31.40000 -1.22700 28.63000
H  32.03500 0.07200 29.67300
H  29.21100 1.49500 33.62600
H  29.54000 -0.30800 37.39800
H  29.16400 -1.81600 36.49400
H  27.94900 -0.68800 36.88700
Mg 35.52300 48.65200 25.24900
C  35.74800 46.79800 28.26500
C  34.28300 51.39300 27.03300
C  34.81600 49.99500 22.34600
C  36.37700 45.58400 23.53100
N  34.92400 48.96500 27.33700
C  35.18500 48.10800 28.37600
C  35.16200 48.83100 29.66000
C  34.44100 50.15200 29.29400
C  34.54600 50.20000 27.83900
C  32.97300 50.46900 29.89100
C  36.54500 49.01400 30.36800
C  36.64000 48.61700 31.85500
H  35.44500 48.97300 32.76400
N  34.78300 50.50400 24.69000
C  34.38500 51.57400 25.59300
C  34.07700 52.73400 24.83000
C  34.20700 52.32700 23.46200
C  34.57700 50.85300 23.43800
C  33.70500 54.12000 25.49700
C  33.97000 53.12100 22.17700
O  34.18700 52.63200 21.07900
C  33.48800 54.52700 22.24500
N  35.47200 47.85200 23.20400
C  35.17400 48.62400 22.21400
C  35.39100 47.92000 20.80100
C  35.93900 46.55800 21.16700
C  35.99600 46.72100 22.71700
C  34.03400 47.86900 19.96800
C  37.23200 46.08100 20.47400
C  38.52500 46.82700 20.74500
N  36.02200 46.60800 25.74800
C  36.37000 45.56400 24.93800
C  36.75800 44.35300 25.78600
C  36.59700 44.80200 27.08300
C  36.09100 46.16600 26.99600
C  37.27900 43.00900 25.39100
C  36.70500 44.48400 28.48400
O  36.99700 43.43900 29.09900
C  36.24700 45.75900 29.30100
C  35.14800 45.40000 30.20000
O  33.97000 45.17300 29.92400
O  35.58800 45.23700 31.50900
C  34.65000 44.65000 32.46200
H  33.85900 52.29200 27.48600
H  34.76600 50.40200 21.33400
H  36.67600 44.73800 22.90800
H  34.49500 48.33500 30.36500
H  34.98100 51.04100 29.61900
H  32.21700 50.60100 29.11700
H  32.97300 51.30000 30.59700
H  32.78300 49.54400 30.43500
H  36.84400 50.06000 30.30000
H  37.37400 48.46300 29.92400
H  37.58900 48.86700 32.33000
H  36.60600 47.52800 31.89400
H  33.84000 55.03500 24.92000
H  34.28800 54.23800 26.41100
H  32.66000 54.16700 25.80300
H  32.65900 54.69800 22.93100
H  33.19700 54.88400 21.25700
H  34.32800 55.08800 22.65400
H  36.12400 48.51000 20.25100
H  35.26900 45.71500 20.99400
H  33.99000 46.94700 19.38800
H  33.92700 48.64300 19.20800
H  33.16700 47.94300 20.62500
H  37.03700 46.11100 19.40200
H  37.37700 45.04700 20.78400
H  39.32100 46.22500 21.18400
H  38.39500 47.65100 21.44700
H  39.06200 47.26800 19.90500
H  37.52400 42.92200 24.33200
H  36.51600 42.23500 25.47100
H  38.12300 42.78700 26.04300
H  37.06600 46.04100 29.96300
H  34.17200 43.78500 32.00200
H  33.75700 45.22400 32.71000
H  35.21800 44.46100 33.37300

