158

Mg 44.32900 3.97600 46.64300
C  42.23500 6.75700 46.03100
C  41.56200 1.90000 46.00800
C  46.48600 1.40800 46.48000
C  47.02500 6.22800 46.52800
N  42.27000 4.26700 45.89200
C  41.66000 5.51200 45.70000
C  40.23700 5.42200 45.14800
C  39.93800 3.89800 45.38000
C  41.32400 3.28400 45.76700
C  38.90800 3.67800 46.52400
C  40.15000 5.77400 43.58900
C  38.88800 5.32800 42.79900
H  38.62100 6.22800 41.60100
N  44.09300 1.86000 46.45700
C  42.87800 1.23600 46.20500
C  43.13600 -0.19200 46.23700
C  44.51900 -0.39600 46.46600
C  45.09800 0.95000 46.51800
C  42.06900 -1.27500 46.00900
C  45.22100 -1.75600 46.46600
O  44.60700 -2.75600 46.42900
C  46.74400 -1.97200 46.78500
N  46.52300 3.84100 46.23200
C  47.13900 2.63800 46.48800
C  48.71600 2.80600 46.51700
C  48.88000 4.35800 46.56600
C  47.39400 4.85800 46.45700
C  49.39200 2.11100 47.67300
C  49.78400 4.96300 45.47700
C  51.24300 4.85900 45.71700
N  44.62500 6.08800 46.46000
C  45.74000 6.81800 46.53000
C  45.48200 8.22200 46.56500
C  44.07600 8.24900 46.35800
C  43.62600 6.96400 46.26600
C  46.46200 9.34700 46.57200
C  42.90900 9.16100 46.19800
O  42.80400 10.36300 46.33600
C  41.63400 8.17300 46.04100
C  40.74900 8.30600 47.22000
O  40.45700 7.43000 48.01400
O  40.02800 9.47200 47.25900
C  39.11000 9.71800 48.41100
H  40.67400 1.26800 45.92800
H  47.34900 0.74000 46.51300
H  47.85400 6.92900 46.64700
H  39.59000 6.03800 45.77300
H  39.69000 3.32300 44.48800
H  38.23900 2.86700 46.23500
H  38.27600 4.50600 46.84500
H  39.56200 3.33100 47.32400
H  41.09300 5.48000 43.13000
H  40.33300 6.84800 43.54200
H  38.00300 5.44000 43.42600
H  39.03400 4.32000 42.41000
H  42.33600 -1.95100 45.19700
H  41.11300 -0.94700 45.60100
H  41.97800 -1.93200 46.87400
H  47.41500 -1.72000 45.96400
H  46.76500 -3.03400 47.03200
H  46.97900 -1.38500 47.67200
H  49.18700 2.40400 45.62000
H  49.27500 4.63900 47.54200
H  48.69700 1.56200 48.30700
H  49.99100 2.76400 48.30800
H  50.07600 1.37800 47.24400
H  49.52900 5.98400 45.19400
H  49.64400 4.46300 44.51900
H  51.88400 5.73600 45.81300
H  51.57800 4.30300 44.84100
H  51.36100 4.14200 46.52900
H  47.05100 9.57700 47.46000
H  46.06700 10.28700 46.18600
H  47.15400 9.19800 45.74300
H  41.15100 8.50000 45.12000
H  38.68300 10.72100 48.43800
H  39.81100 9.71300 49.24600
H  38.27800 9.01500 48.37700
Mg 7.14400 53.09100 40.41700
C  6.84000 49.63700 40.23100
C  10.54900 52.70300 39.72100
C  7.12600 56.18700 39.21000
C  3.66000 53.30100 40.96000
N  8.50600 51.30200 40.17500
C  8.16900 50.08500 40.03600
C  9.41200 49.18900 39.79000
C  10.57300 50.21500 40.00600
C  9.81900 51.55400 40.05100
C  11.45800 50.03600 41.30800
C  9.56800 48.54100 38.44500
C  9.25400 49.27500 37.11600
H  8.02800 48.92300 36.26800
N  8.63300 54.44300 39.74600
C  9.98200 54.01700 39.52700
C  10.67600 55.19600 39.11000
C  9.67100 56.31500 39.00100
C  8.39600 55.72400 39.40200
C  12.15000 55.30700 38.75300
C  9.97800 57.75500 38.71000
O  11.11600 58.12400 38.44400
C  8.91800 58.77500 38.72100
N  5.62700 54.47800 40.07300
C  5.89200 55.70700 39.51000
C  4.60900 56.57100 39.46300
C  3.69300 55.79000 40.43700
C  4.28200 54.42300 40.41600
C  4.83600 58.02900 39.93700
C  2.12200 55.87600 40.24300
C  1.45800 56.58200 41.43500
N  5.53200 51.81900 40.58400
C  4.21300 52.04400 40.92000
C  3.51900 50.79500 41.18000
C  4.47900 49.76500 40.79000
C  5.72000 50.45700 40.42900
C  2.17800 50.54800 41.54600
C  4.74000 48.31800 40.69100
O  3.98800 47.37200 40.92200
C  6.24700 48.20900 40.27800
C  6.12700 47.58800 38.87100
O  5.65400 48.17900 37.90900
O  6.54700 46.25500 38.88600
C  6.25100 45.50900 37.62100
H  11.60000 52.64100 39.42800
H  7.07800 57.06000 38.55500
H  2.62400 53.32500 41.30600
H  9.48200 48.45700 40.59400
H  11.25200 50.20000 39.15300
H  11.40100 49.08100 41.83000
H  11.10100 50.89200 41.88200
H  12.52500 50.23800 41.21900
H  8.95700 47.64300 38.53100
H  10.58200 48.17500 38.28400
H  10.10600 49.39600 36.44700
H  9.15100 50.30000 37.47100
H  12.10000 55.71600 37.74400
H  12.60000 54.31600 38.70200
H  12.67500 55.95500 39.45500
H  8.41800 58.76000 39.69000
H  8.17300 58.62900 37.93800
H  9.41200 59.74700 38.71300
H  4.14200 56.62200 38.47900
H  3.80800 56.08600 41.48000
H  4.19300 58.63900 39.30300
H  5.83900 58.42800 39.79200
H  4.48900 58.25500 40.94500
H  1.62100 54.92700 40.04900
H  1.83700 56.52500 39.41500
H  1.75800 57.62600 41.51700
H  1.67600 55.98300 42.31900
H  0.37500 56.53700 41.31300
H  2.02700 49.74400 42.26600
H  1.63600 50.32100 40.62800
H  1.71900 51.39200 42.06100
H  6.85000 47.47700 40.81400
H  6.60100 44.48300 37.73500
H  6.98000 45.82600 36.87500
H  5.22200 45.60900 37.27600

