158

Mg 3.13400 -3.50800 44.83500
C  6.08700 -1.75600 44.43100
C  1.59900 -1.20900 42.71000
C  0.51600 -5.50900 44.69800
C  5.00000 -6.10100 46.37200
N  3.78800 -1.71900 43.63000
C  5.06100 -1.19300 43.59800
C  5.14400 0.00700 42.76600
C  3.57700 0.43500 42.67600
C  2.92200 -0.91000 43.02800
C  3.10600 1.62700 43.61400
C  5.73300 -0.49300 41.39400
C  6.63700 0.52700 40.61200
H  5.96300 1.40600 39.53200
N  1.26300 -3.33400 43.91400
C  0.80500 -2.30200 43.09100
C  -0.56500 -2.54800 42.70800
C  -0.96700 -3.80100 43.24800
C  0.25900 -4.28800 44.01200
C  -1.42900 -1.52300 41.90200
C  -2.36300 -4.43900 43.14800
O  -3.22800 -3.88100 42.50800
C  -2.75000 -5.75200 43.79100
N  2.76900 -5.51400 45.48000
C  1.57500 -6.09100 45.37100
C  1.51300 -7.55300 45.96400
C  3.00900 -7.67900 46.49500
C  3.64300 -6.33900 46.18600
C  0.40100 -7.63500 47.08000
C  3.76100 -8.84100 45.84100
C  4.36400 -9.97000 46.79100
N  5.07800 -3.86000 45.43600
C  5.74800 -4.97000 45.99400
C  7.07300 -4.56900 46.27900
C  7.22200 -3.32300 45.74500
C  6.04000 -2.97200 45.09400
C  8.22700 -5.36400 46.93200
C  8.15900 -2.29400 45.48800
O  9.32700 -2.11700 45.76800
C  7.44800 -1.16100 44.63800
C  7.33900 0.04000 45.48500
O  6.35600 0.24600 46.24200
O  8.30200 0.96500 45.17500
C  8.06900 2.25000 45.65600
H  1.15700 -0.43200 42.08300
H  -0.39300 -6.11400 44.69800
H  5.48700 -6.94500 46.86600
H  5.57100 0.91800 43.18600
H  3.23100 0.60100 41.65500
H  2.98600 1.32700 44.65500
H  2.21600 2.09900 43.19800
H  3.89000 2.38300 43.66500
H  4.88100 -0.65500 40.73300
H  6.35400 -1.36400 41.60300
H  7.45800 -0.07100 40.21500
H  7.08500 1.08100 41.43700
H  -2.37400 -1.40100 42.43200
H  -1.75000 -1.90600 40.93300
H  -1.01100 -0.52400 41.77500
H  -2.01900 -6.42700 43.34600
H  -3.73400 -6.06500 43.44000
H  -2.64100 -5.60600 44.86500
H  1.29900 -8.15400 45.08000
H  3.20600 -7.72800 47.56600
H  0.93800 -7.73000 48.02300
H  -0.21800 -8.52600 46.98100
H  -0.24000 -6.75400 47.04200
H  4.68600 -8.45200 45.41500
H  3.21400 -9.30400 45.02000
H  4.12900 -9.86900 47.85100
H  5.45100 -10.03600 46.74600
H  3.93200 -10.95000 46.59000
H  8.43900 -4.89700 47.89400
H  9.11900 -5.40900 46.30700
H  7.91100 -6.40300 47.02400
H  8.01600 -0.94100 43.73400
H  7.32200 2.44100 46.42700
H  7.91300 2.99200 44.87400
H  9.03500 2.49700 46.09500
Mg -0.26100 33.97700 26.74000
C  -2.31900 32.39400 29.05400
C  1.15700 35.76300 29.23000
C  1.05300 36.03700 24.33600
C  -1.82400 32.17000 24.22900
N  -0.57700 34.09200 28.91100
C  -1.39300 33.26400 29.59000
C  -1.25700 33.67800 31.11200
C  -0.23400 34.88300 31.08400
C  0.28600 34.82700 29.66900
C  -0.72200 36.26200 31.48800
C  -0.81900 32.47700 31.96300
C  -0.35600 32.72300 33.41800
H  -0.72700 31.84200 34.57800
N  1.08700 35.68200 26.77500
C  1.57400 36.18900 27.88300
C  2.52400 37.19900 27.51200
C  2.52600 37.35100 26.08000
C  1.50500 36.39800 25.64100
C  3.28600 37.96000 28.45600
C  3.26000 38.35000 25.16600
O  3.16900 38.31200 23.92400
C  4.28200 39.36900 25.64200
N  -0.60800 34.26600 24.67800
C  0.17500 35.10700 23.90000
C  0.08600 34.77500 22.42800
C  -0.80600 33.47800 22.33400
C  -1.06000 33.24000 23.82200
C  -0.40800 35.93800 21.51700
C  -0.12300 32.20600 21.72900
C  0.95300 31.55900 22.60800
N  -1.78500 32.66000 26.60100
C  -2.29700 31.96700 25.52200
C  -3.35800 31.00300 25.93300
C  -3.32900 31.12700 27.33200
C  -2.43800 32.16400 27.68000
C  -4.06100 30.01100 25.13700
C  -3.93700 30.58400 28.57600
O  -4.79700 29.74700 28.72500
C  -3.17800 31.32000 29.77600
C  -4.16900 31.81600 30.73500
O  -4.88300 32.78500 30.58200
O  -3.98400 31.13600 31.93900
C  -4.87500 31.50000 33.05000
H  1.58900 36.47500 29.93600
H  1.72700 36.55600 23.65200
H  -2.25100 31.56800 23.42400
H  -2.17700 34.06800 31.54800
H  0.66100 34.69600 31.67700
H  -1.41000 36.18300 32.33100
H  -1.26700 36.66400 30.63500
H  0.16400 36.84100 31.74900
H  0.01300 32.02100 31.42700
H  -1.57700 31.70000 32.05700
H  -0.53100 33.76600 33.68200
H  0.72200 32.56600 33.46200
H  2.84400 38.92200 28.71500
H  4.31000 38.16200 28.14000
H  3.38100 37.37300 29.36900
H  4.01900 39.68500 26.65100
H  4.20000 40.26700 25.02800
H  5.27200 38.91300 25.63800
H  1.07800 34.42700 22.14100
H  -1.67600 33.55600 21.68300
H  -0.09900 36.90900 21.90400
H  -1.49300 35.86100 21.45000
H  -0.13200 35.74400 20.48000
H  0.27400 32.39300 20.73100
H  -0.81100 31.36200 21.68200
H  1.86600 31.35300 22.04900
H  0.64700 30.60600 23.03800
H  1.28900 32.29600 23.33700
H  -3.54300 29.73700 24.21800
H  -5.01500 30.32200 24.71300
H  -4.30200 29.21600 25.84300
H  -2.48500 30.61200 30.23000
H  -4.16600 31.65500 33.86300
H  -5.62700 30.75000 33.29200
H  -5.45700 32.41500 32.93700

