158

Mg 24.64600 -6.48500 46.47200
C  26.93300 -4.22800 45.20000
C  22.41600 -5.37500 44.16800
C  22.70600 -9.14800 47.29100
C  27.38100 -8.19700 48.08900
N  24.80600 -5.08900 44.82600
C  25.72100 -4.17400 44.55900
C  25.35000 -3.21500 43.40600
C  23.82600 -3.37200 43.33100
C  23.66300 -4.75100 44.14400
C  22.91400 -2.28500 43.88300
C  26.06400 -3.65600 42.12400
C  26.79200 -2.68600 41.24200
H  26.32700 -2.62500 39.81400
N  22.65300 -7.05500 45.92100
C  21.91600 -6.44800 44.93100
C  20.67800 -7.20200 44.81000
C  20.74000 -8.26600 45.70100
C  22.05300 -8.17600 46.37200
C  19.53700 -6.92800 43.78700
C  19.73100 -9.33100 45.77400
O  18.71900 -9.25700 45.11900
C  19.85600 -10.43900 46.78900
N  25.07900 -8.50400 47.39900
C  24.04600 -9.33000 47.67800
C  24.49500 -10.57700 48.42400
C  25.99300 -10.26900 48.71800
C  26.14900 -8.87500 48.09400
C  23.66100 -11.03900 49.72500
C  27.04500 -11.33200 48.13000
C  27.52000 -12.41600 49.15100
N  26.74200 -6.28000 46.62900
C  27.68000 -6.98500 47.42100
C  28.92000 -6.20700 47.43900
C  28.68300 -5.08800 46.59400
C  27.35400 -5.23100 46.07100
C  30.13700 -6.83000 48.13400
C  29.29000 -4.01200 45.94100
O  30.46100 -3.54300 46.00400
C  28.23100 -3.36500 44.97900
C  28.06700 -1.92500 45.23200
O  28.42700 -0.97500 44.47700
O  27.36300 -1.75100 46.31200
C  27.19200 -0.39200 46.82200
H  21.72900 -4.84000 43.51000
H  22.22800 -10.09600 47.54600
H  28.13900 -8.64300 48.73700
H  25.73900 -2.21800 43.61500
H  23.40900 -3.69700 42.37800
H  23.59100 -1.57500 44.35800
H  22.27200 -2.62800 44.69400
H  22.27400 -2.00600 43.04600
H  25.42100 -4.18700 41.42200
H  26.78800 -4.39400 42.47000
H  27.85100 -2.84700 41.43900
H  26.40900 -1.74000 41.62600
H  19.73000 -6.13300 43.06600
H  18.55500 -6.63800 44.16000
H  19.28700 -7.80600 43.19100
H  20.15500 -10.07000 47.77100
H  20.73600 -10.89100 46.33100
H  19.16600 -11.28300 46.80400
H  24.45700 -11.46400 47.79100
H  26.12600 -10.18700 49.79700
H  23.38200 -10.11800 50.23700
H  24.23800 -11.61500 50.44800
H  22.89800 -11.69600 49.30800
H  27.89300 -10.78700 47.71500
H  26.67700 -11.88300 47.26400
H  27.12800 -12.48200 50.16500
H  28.61000 -12.38500 49.16500
H  27.28200 -13.36500 48.67100
H  30.89500 -6.04600 48.14400
H  30.42500 -7.70500 47.55100
H  29.93000 -6.98900 49.19200
H  28.50200 -3.36500 43.92300
H  27.51600 0.40200 46.15000
H  27.59700 -0.27500 47.82800
H  26.12500 -0.17000 46.84400
Mg 41.97800 41.21000 26.92900
C  40.65400 43.43900 29.13500
C  42.11000 38.80100 29.44800
C  43.58600 39.07700 24.83600
C  42.00600 43.65600 24.47500
N  41.36900 41.11800 28.99100
C  40.85300 42.18900 29.71100
C  40.80400 41.94000 31.27300
C  41.22900 40.46400 31.31200
C  41.63800 40.06600 29.83000
C  42.32200 40.13300 32.32700
C  39.41000 42.15300 31.94100
C  39.30700 42.64200 33.43100
H  38.53300 41.80700 34.49000
N  42.71400 39.21400 27.10200
C  42.55100 38.38200 28.17200
C  43.01900 37.02300 27.78600
C  43.43400 37.11800 26.42100
C  43.22800 38.51300 26.08900
C  42.96600 35.76600 28.76400
C  43.94600 36.01800 25.45600
O  44.15500 36.11500 24.23800
C  43.98000 34.54100 25.95700
N  42.57600 41.33400 24.84100
C  43.20200 40.30800 24.17100
C  43.68100 40.70900 22.79000
C  42.94900 42.06500 22.58200
C  42.51800 42.44500 24.07200
C  45.22100 40.81900 22.68900
C  41.71300 42.04300 21.60300
C  40.40800 41.36100 22.05800
N  41.43100 43.20300 26.80600
C  41.55400 44.06300 25.74700
C  41.15600 45.34300 26.17500
C  40.65700 45.17500 27.52200
C  40.94100 43.84600 27.87000
C  41.31600 46.60800 25.33900
C  40.14800 45.78600 28.71400
O  39.81500 46.96700 28.88600
C  40.20800 44.74300 29.85500
C  41.23500 45.34600 30.76500
O  42.34200 45.66500 30.51800
O  40.68900 45.69500 32.01600
C  41.57800 46.28100 33.00800
H  42.05700 38.08800 30.27300
H  44.15300 38.46000 24.13600
H  42.12600 44.40100 23.68600
H  41.52400 42.59000 31.77000
H  40.36900 39.82000 31.50100
H  42.50200 40.89400 33.08700
H  43.30800 40.07200 31.86500
H  42.11100 39.17800 32.80800
H  38.90400 41.18900 32.00200
H  38.82500 42.78500 31.27300
H  38.68900 43.52900 33.29800
H  40.30800 42.92100 33.75900
H  42.61700 34.96700 28.11000
H  42.25200 35.97100 29.56200
H  43.88700 35.71000 29.34500
H  44.52800 33.92600 25.24300
H  42.92900 34.25400 25.99000
H  44.56400 34.50100 26.87700
H  43.34200 40.06600 21.97800
H  43.64900 42.85600 22.31000
H  45.64800 41.79000 22.43800
H  45.57800 40.17900 21.88200
H  45.68200 40.50200 23.62400
H  41.99000 41.44100 20.73800
H  41.62200 43.07500 21.26600
H  40.60300 40.46600 22.64900
H  39.81700 41.03800 21.20100
H  39.80600 42.11300 22.56700
H  40.44100 46.62300 24.69000
H  42.27400 46.77000 24.84500
H  41.21200 47.46300 26.00800
H  39.29800 44.67700 30.45100
H  42.07200 45.47100 33.54500
H  41.04800 46.80600 33.80200
H  42.26500 47.05000 32.65300

