158

Mg 55.23700 24.64900 45.06200
C  52.25800 26.51000 43.97900
C  53.71500 21.84500 44.12400
C  58.15800 23.23500 45.66900
C  56.70300 27.92800 45.54400
N  53.33300 24.31400 43.94600
C  52.29500 25.10600 43.59100
C  51.25800 24.36200 42.89400
C  51.54100 22.89800 43.48900
C  52.98900 23.01800 43.85300
C  50.66700 22.48900 44.74900
C  51.47500 24.49200 41.37900
C  50.30700 25.04300 40.59100
H  50.10200 24.42900 39.22500
N  55.91300 22.77800 44.89100
C  55.12500 21.69700 44.47800
C  55.88900 20.46100 44.65600
C  57.19200 20.87600 45.11700
C  57.13200 22.35500 45.32300
C  55.30900 19.12800 44.36600
C  58.36400 19.79400 45.29900
O  58.15400 18.63300 44.98000
C  59.72500 20.23900 45.65900
N  57.23600 25.51200 45.44300
C  58.29200 24.62600 45.69900
C  59.52000 25.44500 46.08900
C  58.97300 26.94600 46.15000
C  57.57600 26.80100 45.70900
C  60.24900 24.95400 47.43600
C  59.71800 27.87400 45.18900
C  60.64300 28.87900 45.77400
N  54.63100 26.74600 45.02400
C  55.33500 27.91900 45.31800
C  54.43500 28.99800 45.37100
C  53.26400 28.53500 44.76300
C  53.39500 27.14000 44.57700
C  54.68500 30.37900 45.81300
C  51.87700 28.92800 44.46100
O  51.25000 30.00200 44.55800
C  51.23100 27.60900 43.84900
C  50.73400 28.01600 42.49800
O  51.46900 28.35200 41.49600
O  49.38200 28.08600 42.53400
C  48.82400 28.58200 41.32100
H  53.17900 20.90200 43.99300
H  59.00200 22.65700 46.05200
H  57.16900 28.86900 45.84200
H  50.29500 24.82200 43.11500
H  51.41400 22.12500 42.73000
H  50.03700 23.33600 45.02400
H  51.29400 22.23600 45.60400
H  50.03900 21.66800 44.40600
H  51.51400 23.46100 41.02600
H  52.38500 25.03800 41.12700
H  50.54600 26.08500 40.37800
H  49.38600 24.95700 41.16700
H  54.31900 19.12400 44.82200
H  55.91300 18.24200 44.56000
H  55.19400 19.09200 43.28200
H  60.20700 19.30400 45.94600
H  59.68600 20.79200 46.59800
H  60.09800 20.84000 44.83000
H  60.34400 25.23200 45.40700
H  59.00000 27.40800 47.13700
H  60.40100 25.77500 48.13600
H  61.25200 24.58500 47.22100
H  59.63300 24.26200 48.01000
H  59.00700 28.29000 44.47600
H  60.37300 27.27000 44.56100
H  61.17700 29.34800 44.94700
H  61.34300 28.40400 46.46100
H  60.04700 29.61800 46.31000
H  53.80700 30.97700 45.56700
H  55.53000 30.77000 45.24700
H  54.75600 30.47000 46.89600
H  50.34800 27.30800 44.41200
H  49.24400 29.57300 41.14800
H  47.75000 28.46100 41.46100
H  49.10800 28.06800 40.40300
Mg -12.45600 16.17700 41.27200
C  -9.57900 14.09900 41.11100
C  -10.56100 18.75700 39.84500
C  -15.26700 17.80300 40.90600
C  -14.31200 13.12500 42.03100
N  -10.31900 16.38700 40.52800
C  -9.26300 15.47300 40.76400
C  -7.92700 16.09100 40.39000
C  -8.30300 17.59300 40.25500
C  -9.84700 17.55000 40.13200
C  -7.88600 18.60900 41.30300
C  -7.25000 15.51500 39.08900
C  -5.71400 15.28600 39.09500
H  -4.90600 16.09800 38.02800
N  -12.85100 18.06800 40.58100
C  -11.96500 18.99900 39.97500
C  -12.67300 20.15300 39.68900
C  -14.05600 19.88200 39.97400
C  -14.13800 18.56800 40.55900
C  -11.98700 21.38400 39.06600
C  -15.26400 20.82500 39.65600
O  -15.07700 21.82200 38.95200
C  -16.66700 20.63500 40.13400
N  -14.52200 15.56200 41.44200
C  -15.48700 16.46600 41.30500
C  -16.88300 15.88600 41.41700
C  -16.54300 14.34700 41.63000
C  -15.01500 14.34200 41.75400
C  -17.62700 16.46300 42.61600
C  -17.12800 13.47600 40.48900
C  -18.19900 12.45500 40.94100
N  -12.11600 14.02500 41.57600
C  -12.90900 12.92600 41.80200
C  -12.08700 11.73600 42.03800
C  -10.78700 12.22100 41.73600
C  -10.83900 13.53800 41.43300
C  -12.63400 10.41300 42.38800
C  -9.43600 11.75900 41.55600
O  -8.97400 10.63600 41.56300
C  -8.59200 12.96200 41.18700
C  -7.67800 13.23800 42.25500
O  -7.95000 13.43000 43.44700
O  -6.47100 13.43900 41.70100
C  -5.46800 13.72200 42.71300
H  -10.03700 19.64800 39.49300
H  -16.16200 18.42500 40.98100
H  -14.86800 12.18900 42.10700
H  -7.28600 16.01200 41.26900
H  -7.84700 17.91900 39.32000
H  -8.71900 18.81900 41.97400
H  -7.47800 19.57300 41.00000
H  -7.08700 18.17000 41.90000
H  -7.42900 16.13400 38.21000
H  -7.67000 14.51100 39.02200
H  -5.52400 14.21600 39.00600
H  -5.45300 15.54100 40.12200
H  -12.58600 22.21000 38.68300
H  -11.34600 21.05600 38.24700
H  -11.21800 21.84200 39.68900
H  -17.22500 19.80800 39.69500
H  -17.18000 21.48300 39.68000
H  -16.69200 20.70600 41.22100
H  -17.39800 16.13200 40.48900
H  -16.89200 13.98200 42.59600
H  -17.17000 17.38100 42.98300
H  -17.57900 15.68700 43.38000
H  -18.67700 16.65500 42.39400
H  -16.31400 12.91100 40.03400
H  -17.52900 14.16300 39.74400
H  -17.71300 11.48900 40.80500
H  -19.06100 12.52200 40.27700
H  -18.56900 12.54500 41.96300
H  -11.80700 9.80200 42.75000
H  -13.22200 10.13100 41.51500
H  -13.28500 10.58500 43.24500
H  -8.06700 12.89300 40.23500
H  -5.35600 12.77800 43.24600
H  -5.64900 14.54200 43.40700
H  -4.50700 14.00100 42.27900

