158

Mg -1.19700 17.36800 27.56400
C  -1.73500 15.14400 30.12300
C  -1.57500 19.90100 29.78500
C  -1.11500 19.53800 24.96500
C  -1.20400 14.68700 25.27600
N  -1.60500 17.43000 29.69800
C  -1.62300 16.43400 30.61400
C  -1.58400 16.92800 32.07200
C  -1.67700 18.48500 31.89500
C  -1.51800 18.63200 30.38700
C  -2.95400 19.19300 32.47800
C  -0.30300 16.50500 32.86300
C  -0.11500 17.27000 34.18700
H  0.41500 16.51400 35.46800
N  -1.25200 19.46700 27.39900
C  -1.43700 20.34000 28.43900
C  -1.34400 21.66300 27.91300
C  -1.08900 21.61300 26.57000
C  -1.09300 20.17900 26.19600
C  -1.44700 22.90000 28.86700
C  -0.81300 22.69700 25.47700
O  -0.59200 22.38100 24.29900
C  -0.73700 24.10800 25.80000
N  -0.98400 17.16700 25.49100
C  -1.09600 18.16100 24.62900
C  -1.13700 17.72200 23.16900
C  -1.11600 16.20500 23.23800
C  -1.14800 15.98700 24.77400
C  -2.37100 18.35200 22.35300
C  -0.03500 15.37500 22.51800
C  1.44500 15.67700 22.81400
N  -1.45100 15.31200 27.62100
C  -1.43200 14.35500 26.59900
C  -1.77400 13.06100 27.19900
C  -1.76700 13.35400 28.54700
C  -1.69700 14.73400 28.74100
C  -2.01300 11.75300 26.50800
C  -2.07300 12.71800 29.80900
O  -2.31300 11.55400 30.11300
C  -2.02600 13.80900 30.90000
C  -0.96500 13.40800 31.84400
O  0.26800 13.37400 31.62900
O  -1.48800 12.92900 33.04000
C  -0.44500 12.42200 33.97300
H  -1.69000 20.62800 30.59300
H  -0.96400 20.20600 24.11500
H  -1.17400 13.81100 24.62400
H  -2.46500 16.51200 32.56100
H  -0.86100 19.02400 32.37600
H  -2.69800 20.22300 32.72600
H  -3.28100 18.62200 33.34700
H  -3.78500 19.24000 31.77300
H  0.42300 16.70100 32.07400
H  -0.32800 15.45000 33.13500
H  -0.92200 17.94500 34.47200
H  0.72400 17.95100 34.03900
H  -0.41200 23.24000 28.85700
H  -1.76200 22.61800 29.87100
H  -2.10900 23.71700 28.57800
H  -1.63600 24.48900 26.28600
H  -0.61900 24.73500 24.91600
H  0.17500 24.34000 26.34900
H  -0.19900 18.06900 22.73500
H  -2.10400 15.79900 23.02500
H  -2.95200 18.86500 23.11900
H  -2.83200 17.54000 21.79000
H  -2.02600 19.18400 21.73900
H  -0.29600 15.37900 21.46000
H  -0.19000 14.34900 22.85300
H  1.78600 15.99700 21.82900
H  1.96000 14.76400 23.11400
H  1.66200 16.38700 23.61100
H  -2.32900 11.96800 25.48700
H  -2.72300 11.14300 27.06600
H  -1.07800 11.19500 26.46400
H  -3.05300 13.75300 31.26200
H  0.10800 11.58900 33.53800
H  -0.84900 12.13500 34.94400
H  0.16600 13.26700 34.28900
Mg 42.00400 41.26800 27.17000
C  41.40100 43.80500 29.39200
C  42.82400 39.29400 29.76200
C  42.83700 38.83200 24.94100
C  41.55800 43.48000 24.57100
N  42.31900 41.58200 29.33200
C  41.74400 42.63200 30.05900
C  41.68700 42.36600 31.61600
C  42.48400 41.02700 31.72500
C  42.52700 40.56100 30.24300
C  43.85400 40.84300 32.47900
C  40.24700 42.37400 32.21300
C  39.94400 43.36500 33.36100
H  39.31500 42.76900 34.58500
N  42.75700 39.30300 27.31000
C  42.92600 38.62600 28.50500
C  43.18600 37.23800 28.20100
C  43.23300 37.05700 26.79000
C  42.90900 38.41300 26.28200
C  43.42600 36.21700 29.35900
C  43.58000 35.78900 25.95500
O  43.78400 35.82100 24.75700
C  43.91400 34.46500 26.57100
N  42.33100 41.25400 25.06100
C  42.50300 40.08600 24.41500
C  42.33200 40.23000 22.90100
C  41.85800 41.69900 22.72000
C  41.92000 42.18000 24.18300
C  43.50700 39.68800 22.04000
C  40.52100 41.91900 21.91600
C  39.24700 42.18300 22.70000
N  41.72600 43.28400 26.95900
C  41.53300 44.03500 25.85100
C  41.11200 45.41500 26.27900
C  41.01200 45.34300 27.64100
C  41.42800 44.02400 27.99400
C  40.61300 46.52500 25.29800
C  40.70000 46.08400 28.75400
O  40.16400 47.18500 28.90000
C  40.83900 45.11400 29.96300
C  41.51900 45.87500 31.05400
O  42.70300 46.24900 31.08500
O  40.54300 46.22100 31.96300
C  40.98100 46.72400 33.26900
H  42.94500 38.73300 30.69200
H  42.98100 38.04900 24.19300
H  41.21200 44.04000 23.70100
H  42.20200 43.11000 32.22500
H  41.78100 40.31800 32.16300
H  44.71600 40.97400 31.82400
H  43.75900 39.91100 33.03500
H  43.88700 41.64700 33.21400
H  39.97300 41.35800 32.49700
H  39.57600 42.46000 31.35900
H  39.22600 44.13300 33.07500
H  40.86400 43.82200 33.72600
H  43.74700 36.64300 30.31000
H  44.23100 35.49700 29.21400
H  42.50200 35.63900 29.38200
H  43.02000 34.33200 27.18100
H  44.79500 34.36100 27.20500
H  43.95100 33.63300 25.86800
H  41.45100 39.60200 22.76900
H  42.53500 42.21700 22.04100
H  43.70300 40.44400 21.28000
H  43.25500 38.72500 21.59500
H  44.42700 39.55600 22.61100
H  40.49600 41.09100 21.20700
H  40.88400 42.79300 21.37500
H  39.40000 41.79000 23.70500
H  38.36500 41.64000 22.36000
H  38.99000 43.23000 22.53800
H  39.82000 46.22100 24.61500
H  41.38400 47.10300 24.78900
H  40.14000 47.26700 25.94100
H  39.94600 44.81900 30.51400
H  41.88100 47.32700 33.14600
H  40.99900 45.96700 34.05300
H  40.11700 47.37500 33.40300

