158

Mg 1.09400 8.26800 27.52500
C  1.51100 10.29900 30.18700
C  1.01700 5.52900 29.73300
C  0.68900 6.25400 24.98300
C  1.67700 10.88600 25.32600
N  1.44600 8.02200 29.75800
C  1.21700 9.01200 30.57000
C  0.96700 8.51300 32.03000
C  1.11500 6.98400 31.74700
C  1.26800 6.81500 30.28800
C  2.33900 6.27100 32.58700
C  -0.39300 9.03000 32.77600
C  -0.38800 9.12000 34.28500
H  0.75300 8.37600 35.08300
N  0.85900 6.15000 27.41900
C  0.68400 5.22500 28.40200
C  0.34900 3.97200 27.91500
C  0.29100 4.12300 26.46600
C  0.61200 5.54100 26.18300
C  0.23200 2.83300 28.78300
C  0.21100 3.02900 25.39800
O  0.36500 3.28400 24.20800
C  0.17900 1.53800 25.72400
N  1.19900 8.45900 25.43100
C  1.03100 7.48500 24.56400
C  1.00700 7.91000 23.06800
C  0.91900 9.48800 23.20900
C  1.26800 9.62500 24.78400
C  2.37700 7.43000 22.41400
C  -0.44900 10.14400 22.87100
C  -0.41900 11.53900 22.21900
N  1.46400 10.17800 27.70700
C  1.80000 11.14500 26.78000
C  2.02900 12.41800 27.37300
C  1.88200 12.15600 28.72400
C  1.59300 10.75400 28.85900
C  2.16800 13.79000 26.65600
C  1.85500 12.74000 30.04500
O  2.02000 13.92900 30.36000
C  1.57500 11.55800 30.99300
C  2.55200 11.40400 32.17000
O  3.77600 11.43300 32.07700
O  1.84700 11.51900 33.32700
C  2.70800 11.92000 34.50200
H  1.10100 4.71400 30.45500
H  0.44700 5.61800 24.12900
H  1.73500 11.65000 24.54800
H  1.81900 8.80000 32.64700
H  0.21300 6.49300 32.11100
H  2.02200 6.19600 33.62700
H  3.23700 6.88800 32.54600
H  2.60000 5.32300 32.11700
H  -1.21500 8.41000 32.41900
H  -0.61500 9.99900 32.32800
H  -1.35900 8.82300 34.68200
H  -0.24200 10.16100 34.57100
H  1.17100 2.36200 29.07600
H  -0.39500 2.03400 28.38700
H  -0.41900 3.13700 29.60200
H  1.01300 1.29200 26.38100
H  0.14600 0.88400 24.85300
H  -0.71500 1.27200 26.28700
H  0.16200 7.49300 22.52000
H  1.64800 10.06200 22.63700
H  2.62800 8.26100 21.75400
H  2.22600 6.50400 21.85900
H  3.09100 7.06500 23.15200
H  -1.18800 10.16700 23.67100
H  -0.77800 9.45100 22.09600
H  0.53000 12.07500 22.23700
H  -1.07500 12.30600 22.63000
H  -0.75200 11.40400 21.19000
H  2.49700 13.58300 25.63800
H  2.97800 14.31300 27.16400
H  1.32500 14.48100 26.67600
H  0.53200 11.70400 31.27500
H  3.30500 12.80900 34.29500
H  3.39600 11.11600 34.76300
H  2.01100 12.04100 35.33100
Mg 10.20300 47.67000 25.38600
C  7.84600 47.81300 28.12200
C  12.65400 48.79500 27.53400
C  12.29500 47.76400 22.77100
C  7.45200 47.08400 23.23500
N  10.20400 48.25700 27.67600
C  9.14000 48.20900 28.57500
C  9.65100 48.65400 29.96800
C  11.08600 49.23700 29.66000
C  11.40100 48.73100 28.20100
C  11.00900 50.82400 29.70900
C  9.67800 47.51500 30.96900
C  9.42800 47.95100 32.45900
H  9.49100 46.80900 33.50000
N  12.26500 48.04600 25.19300
C  13.14500 48.49000 26.20400
C  14.40000 48.69000 25.66500
C  14.34300 48.25400 24.27000
C  12.92800 47.97800 24.04000
C  15.54700 49.25400 26.50900
C  15.40500 48.21800 23.23700
O  15.28100 47.89600 22.06500
C  16.85300 48.55800 23.62900
N  9.93900 47.42800 23.32100
C  10.98000 47.47100 22.45300
C  10.53000 47.06100 21.09100
C  9.01100 46.62000 21.25900
C  8.76100 47.12600 22.68200
C  10.66700 48.14800 19.97200
C  8.66900 45.06700 20.99400
C  8.96600 44.17900 22.20500
N  8.07200 47.51800 25.55000
C  7.13400 47.25000 24.61000
C  5.82600 47.22100 25.22000
C  6.07000 47.40700 26.60700
C  7.46000 47.55200 26.77700
C  4.46700 47.00100 24.60600
C  5.39800 47.52900 27.89300
O  4.19100 47.53000 28.18100
C  6.51100 47.89300 28.90100
C  6.27100 46.99900 30.13800
O  6.54600 45.81000 30.30000
O  5.51500 47.77500 30.97600
C  5.18100 47.12500 32.23000
H  13.38700 49.22700 28.21900
H  12.95000 47.75300 21.89700
H  6.70400 46.75900 22.50900
H  8.99800 49.45600 30.31200
H  11.79100 48.84200 30.39100
H  10.29400 51.24600 30.41500
H  10.71600 51.30700 28.77700
H  11.99600 51.17700 30.01000
H  10.61000 46.95400 30.89100
H  8.84800 46.91800 30.59300
H  8.42700 48.37500 32.54700
H  10.10900 48.75600 32.73500
H  15.97400 50.07800 25.93600
H  16.44600 48.63900 26.52900
H  15.31300 49.66900 27.49000
H  17.47100 48.18800 22.81100
H  17.04600 47.87700 24.45700
H  16.90400 49.60900 23.91400
H  11.14700 46.18900 20.87500
H  8.35100 47.12400 20.55300
H  10.01800 48.98900 20.21700
H  10.64000 47.74100 18.96200
H  11.65600 48.60400 20.01800
H  9.39500 44.78800 20.23000
H  7.64400 44.90700 20.66000
H  9.01700 44.59700 23.21000
H  9.91100 43.65200 22.07600
H  8.36500 43.27000 22.20800
H  4.45600 46.01000 24.15400
H  4.22000 47.88800 24.02200
H  3.80500 46.90800 25.46600
H  6.37700 48.91100 29.26700
H  4.72800 47.84400 32.91200
H  6.04100 46.74100 32.77900
H  4.48600 46.29500 32.10100

