158

Mg 16.52100 -1.52800 28.19100
C  15.19900 0.56200 30.78300
C  18.29400 -3.21600 30.48200
C  17.96100 -3.43200 25.72000
C  14.89700 0.46900 25.86000
N  16.81300 -1.26900 30.25300
C  16.17700 -0.38800 31.18900
C  16.44600 -0.81500 32.64600
C  17.56900 -1.86800 32.52400
C  17.59000 -2.10100 30.98700
C  19.08300 -1.63600 32.95800
C  15.08200 -1.22900 33.28000
C  14.72500 -0.77800 34.69200
H  15.70600 0.04000 35.49700
N  17.77800 -3.17900 28.16400
C  18.42200 -3.72300 29.14600
C  19.23200 -4.89200 28.77600
C  19.03800 -5.06700 27.36300
C  18.22700 -3.80000 27.02000
C  20.01800 -5.72900 29.79300
C  19.67100 -6.01200 26.37600
O  19.57000 -5.87600 25.14900
C  20.50300 -7.20900 26.93100
N  16.40100 -1.44100 26.12100
C  17.05800 -2.37100 25.31600
C  16.71900 -2.10200 23.80900
C  15.65400 -0.93400 23.92800
C  15.63600 -0.61100 25.39300
C  17.96000 -1.83100 23.04100
C  14.28700 -1.51400 23.34500
C  14.20300 -1.52700 21.80500
N  15.37500 0.27100 28.25300
C  14.78900 0.90800 27.23800
C  13.96600 1.98700 27.75200
C  14.02200 1.86400 29.15100
C  14.97900 0.84400 29.44000
C  13.10000 2.76000 26.87700
C  13.65900 2.42500 30.38500
O  13.03600 3.41400 30.65500
C  14.36000 1.56700 31.49300
C  15.22700 2.54700 32.27700
O  16.41200 2.81200 32.00000
O  14.46400 3.03200 33.28700
C  14.96400 4.14300 34.12100
H  18.91200 -3.67100 31.25900
H  18.36000 -3.97500 24.86100
H  14.23900 1.01200 25.17900
H  16.86600 0.05100 33.15800
H  17.31300 -2.75900 33.09800
H  19.08000 -0.85500 33.71900
H  19.67700 -1.43200 32.06700
H  19.45200 -2.55600 33.41100
H  15.07800 -2.31700 33.35400
H  14.20600 -1.01000 32.67100
H  14.34400 -1.62000 35.27100
H  13.83800 -0.17000 34.51100
H  20.01000 -6.81100 29.66200
H  19.76900 -5.61500 30.84800
H  21.01800 -5.30900 29.69100
H  21.03900 -7.74700 26.14900
H  19.76500 -7.85500 27.40700
H  21.19300 -6.86000 27.69800
H  16.29300 -3.05500 23.49600
H  15.97300 -0.08800 23.31900
H  17.88200 -0.97100 22.37500
H  18.24800 -2.66900 22.40700
H  18.78500 -1.61900 23.72100
H  13.35800 -1.04500 23.66600
H  14.09400 -2.54400 23.64700
H  13.22000 -1.13700 21.54000
H  14.27100 -2.57400 21.51100
H  15.04900 -0.98900 21.37900
H  12.52500 2.10900 26.21900
H  13.76600 3.30200 26.20600
H  12.41300 3.43900 27.38200
H  13.65700 1.09900 32.18100
H  15.00100 3.85000 35.17000
H  14.30500 5.00500 34.01900
H  15.89500 4.60300 33.78800
Mg 26.95600 50.57500 26.40300
C  24.75400 51.75200 28.80000
C  29.34100 50.24600 28.87800
C  29.20300 50.08500 23.96900
C  24.57700 51.45700 23.94500
N  27.03800 51.03200 28.57300
C  25.96600 51.30700 29.35800
C  26.24900 51.15200 30.91400
C  27.75800 50.75100 30.88400
C  28.10600 50.67400 29.36400
C  28.78600 51.72400 31.61800
C  25.27300 50.11600 31.63300
C  24.73700 50.55500 33.04500
H  24.80600 49.64300 34.28200
N  28.97600 50.20800 26.43300
C  29.78900 50.03500 27.56700
C  31.11700 49.62500 27.20300
C  31.19800 49.60900 25.78500
C  29.70500 49.94400 25.33300
C  32.27800 49.41600 28.23800
C  32.42300 49.42200 24.88200
O  32.19800 49.59200 23.64200
C  33.78400 49.03800 25.46700
N  26.95400 50.72700 24.31100
C  27.97500 50.43700 23.50200
C  27.48400 50.35800 22.04000
C  26.02800 50.64700 22.04000
C  25.81000 50.93600 23.57400
C  28.34500 51.20700 21.04700
C  25.07900 49.59500 21.41800
C  24.07600 50.25400 20.53200
N  25.06900 51.47000 26.33500
C  24.22400 51.72400 25.26600
C  23.01200 52.38200 25.76700
C  23.16000 52.37600 27.17600
C  24.48500 51.84500 27.46500
C  21.93100 52.98300 24.91400
C  22.49500 52.64400 28.43400
O  21.38800 53.08200 28.65000
C  23.47500 52.22800 29.49100
C  23.70200 53.27000 30.51700
O  24.58000 54.08300 30.39200
O  22.81600 53.06500 31.59700
C  22.99200 54.14800 32.58500
H  30.04200 50.09200 29.70200
H  29.80500 49.85300 23.08800
H  23.85600 51.75600 23.18200
H  26.09300 52.14400 31.33700
H  27.81400 49.75000 31.31300
H  29.27200 52.42100 30.93500
H  29.53300 51.20900 32.22100
H  28.19400 52.19300 32.40400
H  25.83100 49.17900 31.63200
H  24.37600 49.99100 31.02800
H  23.67400 50.71800 32.87000
H  25.10600 51.55000 33.29800
H  33.01700 50.17800 27.99100
H  32.74100 48.44000 28.09400
H  31.94100 49.49200 29.27200
H  34.20900 49.81600 26.10300
H  34.50300 48.86500 24.66600
H  33.64200 48.12200 26.03900
H  27.60800 49.31100 21.76300
H  25.88200 51.62700 21.58700
H  29.17700 51.74900 21.49700
H  27.80100 51.93600 20.44600
H  28.74200 50.45000 20.37100
H  24.56800 49.07000 22.22500
H  25.65800 48.93200 20.77500
H  23.23800 50.58700 21.14400
H  23.62300 49.55500 19.82900
H  24.47800 51.09300 19.96400
H  22.39800 53.50900 24.08200
H  21.39900 53.69100 25.55000
H  21.21600 52.31400 24.43500
H  23.03300 51.46000 30.12600
H  23.11300 55.08300 32.03700
H  23.86100 54.03100 33.23300
H  22.11900 54.13700 33.23700

