158

Mg 16.16200 -1.80900 27.30500
C  15.08600 0.21000 29.91700
C  18.31200 -3.36800 29.45800
C  17.53900 -3.23300 24.71600
C  14.19000 0.34900 25.10500
N  16.63300 -1.52000 29.41000
C  16.00500 -0.79400 30.35000
C  16.67300 -0.88700 31.74000
C  17.80600 -1.96600 31.50500
C  17.59600 -2.31600 29.98900
C  19.25800 -1.54200 31.80400
C  15.72500 -1.09800 32.91200
C  16.05700 -0.63000 34.35900
H  17.55100 -0.41200 34.75100
N  17.66300 -3.25900 27.11900
C  18.44400 -3.77800 28.12800
C  19.33800 -4.78200 27.56800
C  19.03600 -4.84100 26.17700
C  18.05800 -3.74200 25.93800
C  20.37800 -5.44000 28.39900
C  19.60700 -5.76700 25.17900
O  19.35800 -5.70600 24.02300
C  20.50100 -6.89300 25.47700
N  15.93700 -1.48600 25.19200
C  16.51500 -2.31000 24.29800
C  16.12700 -2.04200 22.83700
C  15.05000 -0.88000 23.04500
C  15.04100 -0.64300 24.56500
C  17.34600 -1.54900 22.00100
C  13.59700 -1.32700 22.49700
C  13.10500 -0.43100 21.28500
N  14.81000 -0.15300 27.48000
C  14.09100 0.53700 26.51900
C  13.31000 1.54700 27.13200
C  13.64000 1.47000 28.47100
C  14.59100 0.42100 28.61500
C  12.37600 2.38000 26.32300
C  13.47000 1.97900 29.76800
O  12.87500 2.98600 30.25900
C  14.38100 1.18900 30.74400
C  15.21700 2.19900 31.48300
O  16.20400 2.76700 31.02500
O  14.68100 2.38200 32.72700
C  15.26400 3.59600 33.33900
H  18.90000 -3.90800 30.20300
H  17.78400 -3.80000 23.81600
H  13.49800 0.82000 24.40300
H  17.06100 0.10800 31.95700
H  17.60800 -2.82000 32.15300
H  19.72100 -2.24200 32.49900
H  19.38400 -0.49800 32.09100
H  19.90900 -1.67900 30.94000
H  15.69300 -2.18000 33.03700
H  14.71700 -0.78600 32.63900
H  15.61400 -1.35800 35.04000
H  15.67200 0.36300 34.59500
H  21.36700 -5.22400 27.99300
H  20.12500 -6.47800 28.61500
H  20.40500 -5.00200 29.39700
H  20.52800 -7.61200 24.65900
H  20.06000 -7.28800 26.39300
H  21.52900 -6.57300 25.65100
H  15.71800 -2.96900 22.43600
H  15.34300 -0.02600 22.43400
H  17.37000 -0.46200 22.07600
H  17.36200 -1.85700 20.95600
H  18.29100 -1.83900 22.46000
H  12.89200 -1.24100 23.32400
H  13.50900 -2.39400 22.29100
H  12.33900 0.27400 21.60800
H  12.73300 -1.18100 20.58700
H  13.94700 0.02000 20.76000
H  12.13200 3.27800 26.89100
H  11.47400 1.79200 26.15500
H  12.72400 2.85000 25.40300
H  13.66600 0.74800 31.43800
H  15.42100 4.46500 32.70000
H  16.21300 3.34000 33.80900
H  14.60000 3.74400 34.19100
Mg 17.67000 50.84400 25.94500
C  19.39400 49.50500 28.68400
C  15.14500 51.69400 27.97700
C  15.96700 51.74700 23.24500
C  20.01800 49.25300 23.89100
N  17.28800 50.47900 28.04400
C  18.14000 50.01400 29.00500
C  17.66700 50.35400 30.38900
C  16.19100 50.73800 30.08500
C  16.17300 50.99900 28.58200
C  15.12700 49.62700 30.45900
C  18.48100 51.44400 31.20900
C  18.45600 51.34500 32.73200
H  17.53900 50.53300 33.58300
N  15.84300 51.81400 25.66800
C  14.97300 51.99200 26.62300
C  13.90600 52.87400 26.07700
C  14.18300 52.91600 24.67200
C  15.33400 52.05000 24.45700
C  12.77500 53.40300 26.86400
C  13.53100 53.71600 23.54200
O  14.03700 53.84200 22.39700
C  12.44300 54.66400 23.90700
N  18.00900 50.57300 23.80100
C  17.17700 51.08600 22.92100
C  17.51000 50.66100 21.46800
C  18.95100 49.94400 21.68400
C  18.97000 49.90400 23.19300
C  16.42600 49.79900 20.74900
C  20.23300 50.63900 21.06400
C  21.01600 51.59000 21.94500
N  19.49200 49.79900 26.18600
C  20.29500 49.19500 25.23200
C  21.43800 48.57000 25.90900
C  21.15800 48.69600 27.27000
C  19.90800 49.41200 27.32600
C  22.60700 48.00500 25.26400
C  21.63100 48.35500 28.57200
O  22.72200 47.77300 28.90100
C  20.57800 48.97600 29.53900
C  20.13300 47.89700 30.49000
O  19.45100 46.93100 30.16800
O  20.59900 48.27200 31.74500
C  20.30400 47.29800 32.72900
H  14.37600 52.10900 28.63100
H  15.46400 51.93000 22.29300
H  20.64100 48.59100 23.28800
H  17.67900 49.38700 30.89100
H  15.97300 51.65800 30.62700
H  14.23700 49.93800 31.00500
H  15.76600 48.94800 31.02400
H  14.90800 49.09800 29.53200
H  18.10600 52.42900 30.93000
H  19.53900 51.31700 30.97900
H  18.31500 52.41500 32.88900
H  19.51800 51.16400 32.89800
H  12.85900 54.46700 27.08900
H  12.81300 52.87400 27.81600
H  11.82200 53.12800 26.41100
H  12.14600 55.37000 23.13100
H  12.97900 55.37800 24.53400
H  11.56200 54.18300 24.33000
H  17.63000 51.62000 20.96300
H  18.95400 48.91100 21.33600
H  15.68400 49.48600 21.48400
H  16.66300 48.83400 20.29900
H  15.94400 50.37400 19.95800
H  19.97700 51.16300 20.14300
H  20.91100 49.80800 20.86900
H  20.75600 51.55400 23.00300
H  21.11900 52.61600 21.59300
H  22.05400 51.27900 21.82600
H  23.51400 48.32500 25.77700
H  22.85100 48.43700 24.29300
H  22.64700 46.92000 25.35600
H  21.09300 49.77400 30.07400
H  20.97900 46.45500 32.87200
H  19.30500 46.87000 32.64000
H  20.35800 47.73200 33.72800

