158

Mg -1.63200 17.33600 26.51900
C  -1.72300 14.88300 28.98000
C  -2.29400 19.72400 28.86100
C  -1.72500 19.72200 24.00800
C  -1.55400 14.84300 23.98000
N  -1.90100 17.25000 28.65600
C  -1.80100 16.16700 29.52400
C  -1.91200 16.55700 31.00700
C  -2.26700 18.07900 30.89600
C  -2.16900 18.36000 29.41300
C  -3.74600 18.37900 31.34100
C  -0.47400 16.30300 31.66400
C  -0.19500 17.15200 32.88200
H  0.24900 16.36400 34.16600
N  -1.97500 19.43700 26.49700
C  -2.17800 20.24500 27.56600
C  -2.24200 21.64900 27.22100
C  -2.15200 21.62800 25.77300
C  -1.96000 20.22000 25.35800
C  -2.50000 22.78000 28.19100
C  -2.21400 22.72900 24.83500
O  -2.22300 22.61200 23.59600
C  -2.35300 24.15900 25.30300
N  -1.69700 17.32300 24.28400
C  -1.58400 18.44800 23.50600
C  -1.62700 18.12800 21.99100
C  -1.54800 16.49600 22.06500
C  -1.56500 16.20300 23.47900
C  -2.90100 18.56500 21.24100
C  -0.33400 15.80700 21.31200
C  -0.76400 14.96000 20.07700
N  -1.71600 15.33500 26.44000
C  -1.57800 14.44200 25.33600
C  -1.62400 13.09100 25.87300
C  -1.62200 13.22000 27.26400
C  -1.70100 14.57400 27.52900
C  -1.71000 11.83700 25.07600
C  -1.53700 12.47600 28.52900
O  -1.26200 11.27600 28.62500
C  -1.46500 13.55300 29.67700
C  -0.10400 13.35900 30.16100
O  0.87100 14.07600 29.87700
O  -0.09800 12.45600 31.19800
C  1.17900 12.49400 31.97400
H  -2.39500 20.45600 29.66500
H  -1.56300 20.41300 23.17800
H  -1.43700 14.02000 23.27200
H  -2.68200 15.95600 31.49100
H  -1.60700 18.72300 31.47700
H  -4.25300 18.95000 30.56300
H  -3.72200 19.05900 32.19300
H  -4.30500 17.49500 31.64600
H  0.32300 16.29500 30.92100
H  -0.59800 15.27200 31.99500
H  -1.02200 17.75200 33.26100
H  0.65000 17.82600 32.74200
H  -1.65000 23.44100 28.36100
H  -2.71700 22.54700 29.23400
H  -3.33900 23.30200 27.73400
H  -1.68200 24.43600 26.11600
H  -3.36700 24.30100 25.67800
H  -2.31500 24.83100 24.44500
H  -0.75400 18.63800 21.58400
H  -2.47500 16.03500 21.72200
H  -2.66900 19.52400 20.77800
H  -3.79600 18.76900 21.82900
H  -3.23600 17.85300 20.48700
H  0.26200 15.13700 21.93100
H  0.28900 16.60700 20.91100
H  -0.16600 15.24200 19.20900
H  -1.81300 15.10100 19.81600
H  -0.62800 13.95100 20.46400
H  -1.54600 11.93000 24.00200
H  -2.69100 11.44100 25.33800
H  -0.85900 11.24200 25.40800
H  -2.32400 13.19200 30.24200
H  1.02200 12.84100 32.99600
H  1.94400 13.14700 31.55400
H  1.58400 11.48700 32.07900
Mg -11.15700 17.22700 42.35800
C  -7.60400 18.24500 42.36500
C  -11.92500 20.59900 42.34000
C  -14.25600 16.32400 41.75100
C  -10.04800 13.89200 42.03700
N  -9.93400 19.21200 42.15100
C  -8.52800 19.34200 42.35700
C  -8.17100 20.75000 42.23600
C  -9.42200 21.48600 42.58500
C  -10.51500 20.41400 42.33300
C  -9.47300 22.06500 44.05200
C  -7.61000 20.98100 40.79100
C  -6.19800 21.61100 40.74900
H  -5.21500 21.04400 39.72700
N  -12.86400 18.33600 41.96600
C  -12.97800 19.68300 42.06500
C  -14.43900 19.96900 41.90600
C  -15.16000 18.74300 41.78400
C  -14.09600 17.74200 41.82500
C  -14.98500 21.41200 41.96200
C  -16.70000 18.54000 41.71200
O  -17.41600 19.54300 41.89700
C  -17.38200 17.24700 41.43500
N  -11.95700 15.35300 42.01300
C  -13.31500 15.27800 41.85400
C  -13.81400 13.83300 41.99800
C  -12.48700 13.00600 42.06600
C  -11.41700 14.14000 41.95700
C  -14.84000 13.60300 43.14900
C  -12.43400 11.86000 40.96200
C  -11.97400 10.53500 41.50500
N  -9.26600 16.23000 42.27200
C  -9.06200 14.86000 42.14600
C  -7.57900 14.60700 42.30400
C  -7.06900 15.96100 42.29100
C  -8.07800 16.90100 42.33200
C  -6.78400 13.38500 42.26000
C  -5.78700 16.61800 42.38800
O  -4.70400 16.12500 42.44300
C  -6.07400 18.20000 42.31600
C  -5.51400 18.75400 43.51300
O  -5.76600 18.38900 44.64100
O  -4.60600 19.71700 43.14800
C  -3.73000 20.29300 44.21800
H  -12.20100 21.65100 42.43100
H  -15.26700 15.91200 41.73100
H  -9.69200 12.86900 41.89600
H  -7.35400 21.00100 42.91100
H  -9.55700 22.35500 41.94200
H  -10.15500 21.40200 44.58400
H  -9.87300 23.08000 44.06200
H  -8.51600 21.94800 44.56000
H  -8.24100 21.76200 40.36700
H  -7.63300 20.04800 40.22800
H  -5.85000 21.73800 41.77400
H  -6.34500 22.63000 40.39200
H  -15.35700 21.76100 40.99800
H  -14.27100 22.05100 42.48100
H  -15.90100 21.31600 42.54500
H  -18.44300 17.49100 41.48400
H  -17.09200 16.67800 42.31800
H  -17.04800 16.70900 40.54700
H  -14.36400 13.70000 41.06600
H  -12.41100 12.64500 43.09200
H  -14.48600 12.77900 43.76800
H  -15.74700 13.23400 42.67100
H  -14.97400 14.53700 43.69600
H  -11.77800 12.14400 40.14000
H  -13.38600 11.69800 40.45600
H  -11.17900 10.09200 40.90500
H  -12.80400 9.84200 41.37200
H  -11.73800 10.63000 42.56500
H  -7.46600 12.66000 42.70400
H  -5.94800 13.50000 42.95000
H  -6.29100 13.18200 41.30900
H  -5.59300 18.60300 41.42500
H  -2.95700 19.57900 44.50200
H  -4.36100 20.47800 45.08700
H  -3.21400 21.16800 43.82300

