158

Mg 16.67500 -2.48900 28.22400
C  16.08400 -0.32700 31.05900
C  18.22900 -4.56200 30.25300
C  17.59500 -4.02200 25.52800
C  14.98800 -0.00600 26.24600
N  17.19700 -2.34300 30.36100
C  16.81800 -1.50800 31.37000
C  17.10400 -2.02900 32.69300
C  18.16600 -3.17300 32.44600
C  17.90000 -3.40400 30.94500
C  19.70100 -2.75800 32.82000
C  15.91300 -2.47400 33.45700
C  15.78300 -1.96300 34.87000
H  16.99700 -1.50900 35.69600
N  17.62100 -4.12700 27.97600
C  18.19200 -4.93900 28.95300
C  18.78600 -6.11300 28.30100
C  18.54400 -5.97000 26.87700
C  17.91300 -4.69000 26.73000
C  19.60500 -7.14000 29.04100
C  18.87000 -6.90900 25.74800
O  18.63900 -6.62200 24.56600
C  19.63300 -8.18000 26.06900
N  16.36900 -1.99900 26.13700
C  16.92600 -2.85800 25.22300
C  16.84700 -2.28200 23.80700
C  15.74400 -1.15100 23.98100
C  15.58600 -1.06100 25.53600
C  18.21900 -1.86600 23.16800
C  14.42800 -1.34500 23.18600
C  13.91400 -0.16900 22.31500
N  15.75300 -0.55600 28.54900
C  15.10900 0.26400 27.59700
C  14.67700 1.43900 28.32400
C  14.96400 1.27200 29.64600
C  15.68100 0.07300 29.71900
C  13.90200 2.61800 27.90300
C  14.83900 1.73800 31.02200
O  14.24500 2.68000 31.53200
C  15.58500 0.73700 31.96700
C  16.62000 1.55400 32.67800
O  17.71300 1.80800 32.28800
O  16.07100 1.87900 33.89300
C  16.93800 2.66600 34.81300
H  18.57700 -5.32800 30.95000
H  17.98900 -4.52900 24.64500
H  14.60300 0.82800 25.65500
H  17.41900 -1.13800 33.23700
H  18.03900 -4.09900 33.00700
H  19.78300 -1.74500 33.21500
H  20.33300 -3.10300 32.00200
H  20.05200 -3.44300 33.59000
H  15.92100 -3.54800 33.63800
H  15.02400 -2.18900 32.89300
H  15.14200 -2.59800 35.48100
H  15.10600 -1.11500 34.76900
H  19.46700 -6.95100 30.10500
H  20.66200 -7.03700 28.79300
H  19.34400 -8.16600 28.78300
H  20.50100 -8.04800 26.71500
H  19.97300 -8.55600 25.10400
H  18.93800 -8.82300 26.61000
H  16.34000 -3.04700 23.21900
H  16.16300 -0.20000 23.65000
H  18.13700 -0.86600 22.74100
H  18.50900 -2.58100 22.39800
H  19.01600 -1.93800 23.90800
H  13.69200 -1.58500 23.95300
H  14.43700 -2.28100 22.62600
H  13.43200 -0.55200 21.41600
H  14.75000 0.48800 22.07700
H  13.11400 0.36600 22.82700
H  14.21200 2.64400 26.85800
H  14.21300 3.54400 28.38700
H  12.83300 2.52200 28.09300
H  14.80500 0.31700 32.60100
H  16.55900 2.60700 35.83300
H  16.98500 3.73700 34.61500
H  17.97100 2.32000 34.77100
Mg 46.43700 24.63500 28.16800
C  47.19900 26.81700 31.00900
C  45.74100 22.17100 30.48000
C  46.57000 22.43000 25.69300
C  47.43400 27.20100 26.14200
N  46.63600 24.49600 30.46600
C  46.76700 25.54200 31.38900
C  46.64600 24.99600 32.85800
C  46.26100 23.52000 32.60200
C  46.11100 23.34500 31.11100
C  47.10900 22.48400 33.27300
C  45.56800 25.79100 33.66200
C  45.86400 26.57900 34.90500
H  44.85800 26.49700 36.03500
N  46.09600 22.61900 28.09000
C  45.77900 21.77200 29.15400
C  45.58200 20.34700 28.65500
C  45.76400 20.44500 27.18100
C  46.19600 21.86300 26.90200
C  45.19200 19.12700 29.60100
C  45.74700 19.42600 26.20500
O  46.12400 19.51700 25.07100
C  45.31200 18.07100 26.70600
N  47.12800 24.76900 26.25100
C  46.96500 23.71500 25.33600
C  47.33800 24.25700 23.94100
C  47.17400 25.75900 24.07400
C  47.22300 25.97500 25.60100
C  48.78800 23.79900 23.64400
C  45.92000 26.35100 23.40200
C  44.59900 26.25900 24.27600
N  47.03300 26.64500 28.39100
C  47.43000 27.53600 27.41800
C  47.67000 28.80900 28.03500
C  47.63700 28.55500 29.47700
C  47.27900 27.25100 29.61000
C  48.03800 30.08700 27.36200
C  47.96500 29.15300 30.71300
O  48.35300 30.24900 31.02200
C  47.67000 28.03400 31.85100
C  48.92200 27.61900 32.55000
O  49.97100 27.36300 31.97500
O  48.75200 27.68100 33.92500
C  49.89300 27.28600 34.72500
H  45.36000 21.43000 31.18600
H  46.66900 21.72500 24.86500
H  47.46700 27.98300 25.38000
H  47.65500 25.07300 33.26300
H  45.29100 23.43400 33.09100
H  47.68300 21.91300 32.54300
H  46.53400 21.79700 33.89500
H  47.94600 22.91600 33.82200
H  44.65200 25.21700 33.79600
H  45.28000 26.59000 32.98000
H  45.95200 27.64300 34.68400
H  46.82000 26.23500 35.29900
H  46.07800 18.50900 29.74500
H  44.42100 18.55100 29.09000
H  44.78100 19.49000 30.54300
H  44.24400 17.95800 26.89300
H  45.96700 17.72100 27.50400
H  45.42200 17.43400 25.82900
H  46.69400 23.88900 23.14300
H  47.96000 26.33700 23.58900
H  49.46400 24.65200 23.58400
H  48.66500 23.44100 22.62200
H  49.23500 23.00800 24.24700
H  45.59700 25.95900 22.43700
H  46.11500 27.41500 23.26700
H  44.60300 27.17200 24.87200
H  44.70200 25.38500 24.91900
H  43.68200 26.20800 23.68800
H  47.72000 30.14100 26.32000
H  49.12800 30.09100 27.37000
H  47.74500 30.97800 27.91600
H  46.95100 28.44900 32.55800
H  50.69800 28.00500 34.87600
H  50.36000 26.41100 34.27200
H  49.58600 26.89700 35.69600

