158

Mg 45.99400 24.61300 28.82900
C  46.94100 27.00500 31.35200
C  45.24200 22.45600 31.53300
C  45.81300 22.12100 26.65900
C  47.55400 26.71700 26.57700
N  46.09300 24.77500 31.15200
C  46.37800 25.85200 31.91000
C  46.09600 25.64300 33.39400
C  45.66900 24.13400 33.37800
C  45.57200 23.80100 31.89100
C  46.65000 23.20900 34.15200
C  44.92800 26.59400 33.89400
C  45.25000 27.46700 35.18200
H  44.18000 27.40500 36.31600
N  45.47400 22.54300 29.04100
C  45.10500 21.90600 30.19400
C  44.83400 20.51600 29.80400
C  45.07800 20.38300 28.39200
C  45.42500 21.76700 27.92500
C  44.50600 19.48600 30.94500
C  45.06600 19.15400 27.55800
O  45.42600 19.11000 26.33300
C  44.51900 17.87200 28.28300
N  46.67400 24.37200 26.93600
C  46.35500 23.31100 26.15700
C  46.76700 23.51200 24.71500
C  47.14400 25.06200 24.62900
C  47.13000 25.44900 26.14200
C  47.85500 22.48700 24.33100
C  46.05100 25.89600 23.84500
C  44.76300 26.27600 24.62900
N  46.91300 26.57700 28.77900
C  47.51500 27.26300 27.79100
C  47.97100 28.57400 28.31000
C  47.75200 28.55200 29.71700
C  47.15100 27.25900 29.97800
C  48.53400 29.64800 27.40000
C  47.77300 29.29800 30.93400
O  47.97100 30.51900 31.07600
C  47.31400 28.32900 32.13100
C  48.47200 28.10600 33.01200
O  49.64200 27.84700 32.70800
O  48.18300 28.49600 34.32400
C  49.27500 28.50600 35.27100
H  44.95400 21.87200 32.41000
H  45.68400 21.31800 25.92900
H  47.87700 27.31900 25.72500
H  47.03600 25.82700 33.91600
H  44.71700 24.03600 33.89900
H  46.00800 22.59700 34.78600
H  47.27000 23.71300 34.89300
H  47.22100 22.56300 33.48600
H  43.99700 26.04900 34.05100
H  44.78000 27.32400 33.09800
H  45.34700 28.51200 34.88800
H  46.20100 27.23600 35.66100
H  45.02900 18.54900 30.75000
H  43.44000 19.30000 30.80900
H  44.73100 19.86500 31.94100
H  45.40400 17.37600 28.68200
H  44.07700 17.14700 27.60000
H  43.72700 18.07600 29.00300
H  45.95400 23.28700 24.02300
H  48.08900 25.30400 24.14300
H  48.28000 21.95100 25.18000
H  48.68700 22.97500 23.82200
H  47.44800 21.73700 23.65300
H  45.67600 25.29100 23.01900
H  46.44600 26.86900 23.55500
H  44.64800 25.62200 25.49300
H  43.88300 26.01200 24.04200
H  44.77400 27.33000 24.90600
H  47.76300 30.41200 27.30300
H  48.74600 29.20800 26.42600
H  49.52000 29.90600 27.78700
H  46.42500 28.67900 32.65700
H  49.87000 27.60600 35.11000
H  48.98500 28.59200 36.31800
H  49.91300 29.37900 35.13300
Mg -2.27500 34.75400 26.70300
C  -3.36700 32.91900 29.41800
C  -0.63400 36.88200 28.85600
C  -1.48100 36.58700 24.03200
C  -3.58700 32.34200 24.57000
N  -2.08100 34.85500 28.88500
C  -2.53500 33.95800 29.81700
C  -2.06600 34.34100 31.16900
C  -1.29800 35.58800 31.01700
C  -1.33100 35.80900 29.45600
C  -1.82700 36.81800 31.91100
C  -1.18600 33.18400 31.83700
C  -1.63700 32.57500 33.18900
H  -0.68900 32.41000 34.46100
N  -1.23500 36.52000 26.44300
C  -0.66100 37.23400 27.44900
C  -0.03400 38.36800 26.84600
C  -0.30500 38.34900 25.49200
C  -1.01000 37.10500 25.21400
C  0.81300 39.37600 27.66400
C  0.15200 39.39100 24.45800
O  0.01000 39.20200 23.29400
C  0.84200 40.64900 24.84500
N  -2.37200 34.48500 24.60300
C  -2.05300 35.39500 23.68800
C  -2.58000 35.12800 22.32500
C  -2.94400 33.58300 22.47000
C  -2.89800 33.41000 23.98400
C  -3.77400 35.95200 21.87100
C  -2.08200 32.58000 21.71900
C  -0.71300 32.11700 22.41200
N  -3.41700 32.91800 26.90100
C  -3.86100 32.02000 25.92600
C  -4.60400 30.98000 26.58700
C  -4.52300 31.33200 27.98500
C  -3.74800 32.56300 28.08700
C  -5.07400 29.74600 25.85600
C  -4.84600 30.92100 29.29200
O  -5.46100 29.94300 29.68100
C  -4.11100 31.91500 30.27600
C  -5.13800 32.53100 31.14100
O  -5.92600 33.37400 30.76400
O  -5.13300 31.93300 32.43600
C  -6.27600 32.39700 33.22000
H  -0.12400 37.55700 29.54600
H  -1.37700 37.18000 23.12100
H  -4.03600 31.66700 23.83800
H  -2.96000 34.60900 31.73200
H  -0.26000 35.41100 31.29800
H  -0.94100 37.15600 32.44600
H  -2.57500 36.41100 32.59200
H  -2.25400 37.61900 31.30800
H  -0.14000 33.45400 31.97900
H  -1.07900 32.37900 31.11000
H  -1.69800 31.52100 32.92000
H  -2.63700 32.91400 33.45800
H  1.85600 39.50900 27.38000
H  0.98700 39.05900 28.69200
H  0.27800 40.31300 27.82300
H  0.16000 41.27100 25.42600
H  1.24300 41.11400 23.94400
H  1.74300 40.40400 25.40700
H  -1.68300 35.18200 21.70800
H  -3.96500 33.34900 22.16800
H  -3.96100 36.59100 22.73400
H  -4.67500 35.37200 21.67300
H  -3.42700 36.57300 21.04500
H  -1.81300 33.06000 20.77700
H  -2.56900 31.63000 21.50300
H  0.08900 32.80400 22.14200
H  -0.35600 31.12900 22.12000
H  -0.70200 32.04700 23.50000
H  -4.38900 29.52700 25.03700
H  -6.02000 29.89200 25.33500
H  -5.10200 28.89800 26.54000
H  -3.41500 31.39300 30.93200
H  -7.19500 32.60500 32.67200
H  -6.06700 33.32800 33.74800
H  -6.48100 31.60100 33.93500

