158

Mg 55.47000 22.71100 44.27100
C  53.31100 25.44300 43.27500
C  53.05700 20.58400 43.10900
C  57.66200 20.32300 44.81000
C  57.79600 25.10200 45.31900
N  53.49200 23.04300 43.18500
C  52.81200 24.20600 42.95700
C  51.33700 23.94800 42.57900
C  51.19100 22.38600 42.95900
C  52.68800 21.96800 42.97200
C  50.33600 21.98000 44.26000
C  50.99900 24.32400 41.07800
C  49.56500 24.67300 40.76400
H  48.84200 23.98100 39.62500
N  55.45100 20.70400 43.84900
C  54.36700 19.96400 43.42500
C  54.65400 18.56200 43.51600
C  55.99300 18.43800 43.99300
C  56.45800 19.85500 44.26500
C  53.66300 17.56600 42.99600
C  56.80000 17.14100 44.00400
O  56.29500 16.08200 43.68200
C  58.19700 17.12600 44.23300
N  57.47300 22.68400 44.83400
C  58.19800 21.58500 44.96400
C  59.68500 21.85000 45.25000
C  59.62500 23.36400 45.56700
C  58.22900 23.78500 45.24900
C  60.35900 21.02000 46.40300
C  60.70000 24.20000 44.69300
C  61.09300 25.62200 45.23400
N  55.60700 24.82000 44.29900
C  56.56500 25.62000 44.82100
C  56.18500 27.00800 44.61900
C  54.87400 26.94500 44.21900
C  54.57100 25.61300 43.94200
C  57.01300 28.31700 44.87000
C  53.69700 27.73600 43.89900
O  53.47600 28.90800 44.08000
C  52.68700 26.81400 43.17200
C  52.57300 27.26600 41.75700
O  53.44500 27.06800 40.92500
O  51.27300 27.77200 41.57400
C  50.99900 28.21100 40.16000
H  52.34000 19.76900 42.99100
H  58.44300 19.61500 45.09500
H  58.46200 25.91100 45.62800
H  50.71800 24.50900 43.27900
H  50.70600 21.79600 42.18100
H  51.03200 21.55900 44.98500
H  49.52700 21.27900 44.05300
H  49.92500 22.85800 44.75900
H  51.09200 23.36700 40.56500
H  51.80900 24.93100 40.67200
H  49.78700 25.68800 40.43500
H  48.99600 24.43200 41.66200
H  52.61000 17.80100 43.14800
H  53.78100 16.64900 43.57400
H  53.87000 17.30200 41.95900
H  58.56200 17.91500 43.57400
H  58.75200 16.22200 43.98400
H  58.43400 17.35700 45.27100
H  60.16300 21.71500 44.28000
H  59.75500 23.54900 46.63400
H  59.72000 20.29200 46.90200
H  60.89000 21.44700 47.25400
H  60.94000 20.21000 45.96100
H  60.23700 24.39700 43.72600
H  61.63500 23.70000 44.43900
H  60.49600 26.32100 44.64800
H  62.12200 25.81300 44.92900
H  60.99400 25.81900 46.30100
H  57.48200 28.20000 45.84700
H  56.36400 29.18400 44.74900
H  57.81600 28.47000 44.14900
H  51.71400 26.80500 43.66300
H  51.88700 28.71400 39.77800
H  50.23100 28.98500 40.14900
H  50.74000 27.39300 39.48800
Mg 41.14200 41.53600 26.41000
C  40.43100 43.63100 28.95400
C  42.48400 39.31800 28.62800
C  41.74600 39.31900 23.82500
C  40.46000 44.06700 24.07700
N  41.49900 41.60000 28.50800
C  40.99700 42.51400 29.44900
C  41.15100 42.05500 30.95500
C  42.00600 40.78100 30.72600
C  42.03900 40.53000 29.18300
C  43.48100 41.00400 31.34100
C  39.66800 41.80800 31.55300
C  39.40800 42.48700 32.90100
H  39.10100 41.60800 34.07800
N  41.97600 39.59000 26.22500
C  42.46300 38.85800 27.29700
C  43.06200 37.60500 26.79300
C  42.87600 37.64400 25.39500
C  42.12800 38.91200 25.07600
C  43.85800 36.58700 27.66100
C  43.37800 36.63600 24.30700
O  42.96400 36.70600 23.13600
C  44.26200 35.58500 24.65600
N  41.42100 41.78300 24.21100
C  41.34300 40.62500 23.39300
C  41.02900 41.00200 21.90400
C  40.80300 42.51700 22.02700
C  40.90800 42.85900 23.56500
C  42.22600 40.68300 20.98500
C  39.53400 43.14400 21.33300
C  38.15000 43.14100 22.07500
N  40.53100 43.40900 26.43700
C  40.34400 44.37600 25.41900
C  39.96000 45.61600 26.08500
C  39.93200 45.34400 27.47600
C  40.31600 44.03100 27.59400
C  39.61600 46.94400 25.42300
C  39.60100 45.96200 28.75400
O  39.12400 47.03400 29.09900
C  39.91200 44.79300 29.76000
C  40.92000 45.39700 30.62800
O  42.04500 45.69500 30.39300
O  40.34500 45.60200 31.86300
C  41.19800 46.08700 32.94300
H  43.02500 38.63600 29.28800
H  41.76400 38.59700 23.00600
H  40.03600 44.84000 23.43300
H  41.70000 42.77600 31.56000
H  41.52500 39.95600 31.25100
H  44.30100 40.87800 30.63400
H  43.54000 40.15600 32.02300
H  43.64500 41.86400 31.99000
H  39.57600 40.73300 31.71200
H  38.96600 42.12400 30.78200
H  38.60800 43.22700 32.86200
H  40.26200 43.10300 33.18100
H  44.13400 36.94100 28.65400
H  44.85800 36.45500 27.24700
H  43.26400 35.67500 27.59500
H  43.64300 34.83100 25.14400
H  45.03900 36.02500 25.28100
H  44.79200 35.24900 23.76500
H  40.13900 40.43100 21.64100
H  41.68500 42.97800 21.58100
H  42.65600 41.48200 20.38000
H  41.93100 39.84200 20.35800
H  42.99700 40.26600 21.63300
H  39.48300 42.55800 20.41600
H  39.82300 44.18300 21.17400
H  38.25900 42.42000 22.88600
H  37.37300 43.05100 21.31600
H  37.90800 44.09000 22.55300
H  38.54900 47.05200 25.22800
H  40.16400 46.99100 24.48200
H  39.94800 47.85100 25.92900
H  39.06200 44.50300 30.37800
H  41.90900 46.80700 32.53600
H  41.51200 45.19300 33.48100
H  40.47800 46.62600 33.55900

