158

Mg 24.87200 1.19700 30.05100
C  26.97500 1.45400 32.78300
C  22.28500 1.97600 31.94400
C  23.12500 1.36700 27.18600
C  27.73400 0.28800 28.10100
N  24.72100 1.89300 32.12000
C  25.63400 1.71800 33.09000
C  25.07000 2.09100 34.49000
C  23.49900 1.98600 34.24200
C  23.49300 2.03800 32.64900
C  22.94200 0.65700 34.84000
C  25.67100 3.39900 35.03400
C  26.61700 3.31700 36.21700
H  26.27600 4.23400 37.40100
N  22.94800 1.65700 29.60300
C  21.96900 1.90300 30.54700
C  20.70400 1.88000 29.90700
C  20.97600 1.81900 28.54900
C  22.41500 1.63200 28.34400
C  19.38900 2.04400 30.69600
C  19.94500 1.83500 27.38600
O  20.29500 1.79200 26.22200
C  18.51500 1.86500 27.68900
N  25.32400 0.74500 27.89600
C  24.44000 0.93700 26.90300
C  25.08700 0.77000 25.49800
C  26.59500 0.41500 25.86100
C  26.55500 0.39200 27.36400
C  24.38100 -0.24900 24.55400
C  27.61200 1.45500 25.32300
C  27.61600 2.90800 25.77800
N  26.92600 0.84700 30.32900
C  27.99100 0.51400 29.44500
C  29.25300 0.42400 30.14000
C  28.79600 0.77700 31.48700
C  27.46000 1.05600 31.52400
C  30.67000 0.14600 29.74300
C  29.37300 1.02200 32.88800
O  30.50300 0.98200 33.29600
C  28.19100 1.42000 33.75000
C  28.11400 0.30300 34.66400
O  27.54900 -0.78600 34.44300
O  28.78700 0.56900 35.83000
C  28.72300 -0.42800 36.93200
H  21.45500 1.95300 32.65300
H  22.57400 1.48200 26.25000
H  28.65000 0.15900 27.52000
H  25.35900 1.26800 35.14300
H  22.99700 2.86500 34.64700
H  22.47700 0.98000 35.77200
H  23.67800 -0.14600 34.87200
H  22.10800 0.24300 34.27400
H  24.94000 4.04700 35.51800
H  26.22400 3.88800 34.23200
H  27.64800 3.59300 35.99700
H  26.68400 2.32800 36.67300
H  18.79900 1.14800 30.50800
H  18.78900 2.91600 30.43600
H  19.57900 2.09500 31.76800
H  18.40300 1.10600 28.46300
H  17.95000 1.77900 26.76100
H  18.23500 2.83200 28.10800
H  24.88900 1.75100 25.06600
H  26.83800 -0.61600 25.60200
H  23.33300 -0.46700 24.75800
H  25.01000 -1.14000 24.53700
H  24.51100 0.13400 23.54200
H  27.21500 1.46100 24.30800
H  28.61400 1.02700 25.28400
H  27.01300 3.04800 26.67500
H  27.19500 3.49900 24.96500
H  28.58000 3.33200 26.05900
H  30.78600 0.26000 28.66500
H  30.86600 -0.90500 29.95500
H  31.43700 0.73100 30.25000
H  28.36300 2.37400 34.24900
H  28.04200 -1.23800 36.67100
H  28.47500 0.15900 37.81600
H  29.73100 -0.79900 37.11500
Mg 1.55900 41.22600 24.89400
C  2.23400 41.84900 28.37800
C  -1.47000 40.06500 25.73800
C  1.18400 40.07700 21.70700
C  4.76000 42.31700 24.21100
N  0.55900 40.87400 26.82000
C  1.01500 41.23400 28.06600
C  -0.07500 41.08100 29.07800
C  -1.25000 40.41100 28.22100
C  -0.73900 40.39000 26.80400
C  -1.57200 38.97000 28.63300
C  -0.58100 42.38700 29.76900
C  -0.56600 42.49700 31.31300
H  -0.89700 41.30400 32.17700
N  -0.03400 40.41100 23.78000
C  -1.14100 39.87800 24.36000
C  -2.01100 39.31400 23.34200
C  -1.25700 39.28400 22.13300
C  0.01200 39.92500 22.46300
C  -3.47500 39.07900 23.54900
C  -1.70700 38.88000 20.73700
O  -0.93800 38.83500 19.80200
C  -3.16900 38.44400 20.51700
N  2.78500 41.20700 23.26900
C  2.43600 40.63800 22.04700
C  3.60900 40.68300 21.01000
C  4.58500 41.71200 21.69500
C  4.01100 41.72800 23.17800
C  4.19000 39.23200 20.72000
C  4.68200 43.16000 20.98900
C  4.17800 44.43600 21.80300
N  3.28800 41.88100 25.99900
C  4.44900 42.40000 25.59400
C  5.28500 42.88000 26.68600
C  4.42600 42.68800 27.80400
C  3.23300 42.07400 27.38000
C  6.65400 43.43800 26.68600
C  4.30600 42.87000 29.28600
O  5.09000 43.36400 30.09200
C  2.87900 42.29200 29.69600
C  3.25200 41.14700 30.53900
O  3.85500 40.13800 30.08700
O  2.82100 41.30700 31.82200
C  3.06800 40.25300 32.72800
H  -2.46700 39.74800 26.04900
H  1.19400 39.62400 20.71300
H  5.75300 42.68400 23.94500
H  0.29100 40.35200 29.80100
H  -2.13100 41.04600 28.30900
H  -1.00800 38.67200 29.51600
H  -1.45100 38.25100 27.82200
H  -2.65500 38.93600 28.75500
H  -1.59300 42.67100 29.47800
H  0.14600 43.09300 29.36900
H  -1.10600 43.36400 31.69500
H  0.46900 42.79200 31.48700
H  -4.02500 39.89200 23.07600
H  -3.73900 39.06900 24.60600
H  -3.75700 38.10700 23.14200
H  -3.23000 37.40000 20.82600
H  -3.41800 38.57500 19.46400
H  -3.85800 38.99000 21.16100
H  3.18500 41.04300 20.07200
H  5.55400 41.21400 21.66000
H  3.90100 38.46100 21.43500
H  5.20800 39.30800 20.33800
H  3.73500 38.85000 19.80600
H  4.04300 43.12500 20.10700
H  5.66300 43.42900 20.59500
H  3.40900 44.94400 21.22000
H  5.05600 45.07000 21.92400
H  3.86400 44.20500 22.82100
H  6.72200 44.52600 26.72400
H  7.23600 43.13800 25.81400
H  7.33000 43.07500 27.46000
H  2.27400 42.98500 30.28000
H  2.29600 39.50500 32.54200
H  2.87500 40.70500 33.70100
H  4.02300 39.75100 32.57400

