158

Mg 35.37600 1.21300 29.25800
C  33.30500 2.29300 31.85400
C  37.83200 0.87500 31.63700
C  37.73600 0.46500 26.84200
C  32.95300 1.84500 26.96300
N  35.56200 1.76900 31.50800
C  34.55000 1.98200 32.31300
C  34.98600 1.91300 33.76200
C  36.52300 1.75100 33.67100
C  36.68800 1.45800 32.20100
C  37.56100 2.75300 34.32400
C  34.18200 0.88900 34.61600
C  33.97400 1.14300 36.10700
H  34.72000 2.29100 36.74800
N  37.48400 0.83400 29.20700
C  38.25900 0.64400 30.27800
C  39.53500 0.09200 29.85300
C  39.60200 0.17500 28.47200
C  38.23500 0.50300 28.11800
C  40.60200 -0.26800 30.91300
C  40.76900 -0.07400 27.49800
O  40.58100 0.08200 26.29900
C  42.01400 -0.58100 27.94000
N  35.27600 1.15000 27.19900
C  36.41200 0.87400 26.39100
C  36.02100 0.67600 24.92000
C  34.49300 1.10600 24.98700
C  34.21300 1.32600 26.49000
C  36.81000 1.39600 23.79200
C  33.52000 0.15600 24.27800
C  33.12000 -1.14500 25.05600
N  33.50100 2.00700 29.29600
C  32.64400 2.14100 28.27900
C  31.39200 2.54400 28.78900
C  31.56300 2.68200 30.18400
C  32.83700 2.23400 30.49300
C  30.08500 2.66800 28.05800
C  30.90500 2.95300 31.46600
O  29.72200 3.20800 31.77700
C  31.99500 2.63400 32.55600
C  32.00200 3.85500 33.43200
O  32.72100 4.78000 33.34900
O  31.10300 3.66200 34.51100
C  31.06000 4.83100 35.45400
H  38.48000 0.75200 32.50700
H  38.44100 0.09800 26.09400
H  32.16800 2.08600 26.24400
H  34.78000 2.87000 34.24200
H  36.66900 0.79500 34.17400
H  38.20800 2.29000 35.07000
H  36.91600 3.50600 34.77400
H  38.11100 3.36000 33.60500
H  34.71200 -0.06400 34.62300
H  33.21300 0.68800 34.15900
H  34.06800 0.21900 36.67700
H  32.89900 1.31400 36.16500
H  40.20900 -0.37500 31.92400
H  41.50900 0.32700 30.80700
H  41.00600 -1.22900 30.59300
H  42.56100 0.25700 28.37300
H  42.62400 -0.97700 27.12900
H  41.88200 -1.39800 28.64900
H  36.00000 -0.37300 24.62600
H  34.35800 2.06100 24.47800
H  37.07000 0.67800 23.01400
H  37.69900 1.94700 24.10000
H  36.14400 2.14400 23.36300
H  34.01200 -0.21000 23.37700
H  32.66700 0.72300 23.90500
H  33.92600 -1.55300 25.66500
H  32.78500 -1.81100 24.26100
H  32.18800 -1.01200 25.60600
H  29.29800 2.33500 28.73500
H  29.96800 2.08900 27.14200
H  29.90700 3.69600 27.74500
H  31.58600 1.78200 33.09900
H  31.90400 4.73500 36.13600
H  30.12600 4.71700 36.00400
H  31.05400 5.78800 34.93200
Mg 0.47400 42.39300 26.09000
C  3.01100 42.47800 28.58500
C  -1.76000 41.45300 28.51500
C  -1.82600 42.05900 23.73400
C  2.89200 42.75300 23.62300
N  0.58600 42.16700 28.31700
C  1.72000 42.35200 29.12100
C  1.32900 42.00100 30.57500
C  -0.09700 41.33200 30.46400
C  -0.51200 41.72900 28.99500
C  -0.05200 39.80500 30.75700
C  1.50100 43.27100 31.52900
C  2.11400 42.99100 32.98600
H  1.63100 41.68700 33.63800
N  -1.57600 41.94400 26.10200
C  -2.31600 41.52700 27.24100
C  -3.59700 41.14600 26.83800
C  -3.69000 41.51700 25.42100
C  -2.33700 41.93100 25.03300
C  -4.68200 40.64400 27.82000
C  -4.91200 41.62300 24.50100
O  -4.84600 42.09100 23.44300
C  -6.23400 41.24100 25.03800
N  0.54000 42.41700 24.02900
C  -0.59200 42.26200 23.22900
C  -0.28400 42.46900 21.71200
C  1.20500 42.96700 21.80300
C  1.57000 42.68800 23.24100
C  -0.58400 41.11400 20.91200
C  1.49400 44.33700 21.22900
C  1.68400 45.51100 22.23300
N  2.49800 42.59400 26.08100
C  3.39900 42.57500 24.98700
C  4.75200 42.62100 25.41200
C  4.64400 42.51100 26.82100
C  3.29000 42.48100 27.16800
C  5.90800 42.69000 24.52700
C  5.42500 42.42400 28.05100
O  6.66300 42.32600 28.19300
C  4.36900 42.47100 29.20800
C  4.69300 41.41500 30.19900
O  4.65900 40.22700 29.93300
O  5.07300 41.94300 31.39800
C  5.32600 40.96400 32.49000
H  -2.33700 41.16600 29.39700
H  -2.53000 42.08600 22.90000
H  3.69100 43.06800 22.94700
H  2.01400 41.32700 31.08900
H  -0.75600 41.87400 31.14200
H  -0.82300 39.56700 31.48900
H  0.85500 39.61500 31.33000
H  -0.23300 39.22000 29.85500
H  0.44600 43.54300 31.55300
H  1.94200 44.13200 31.02700
H  1.83800 43.81800 33.64100
H  3.19000 42.83000 32.92800
H  -5.09500 39.75600 27.34000
H  -5.42200 41.41900 28.01700
H  -4.15900 40.35100 28.73000
H  -6.19300 40.16400 25.20100
H  -7.05300 41.59200 24.41000
H  -6.34200 41.62500 26.05300
H  -0.89500 43.25600 21.27100
H  1.82300 42.26100 21.24900
H  0.29300 40.46900 20.86600
H  -0.81500 41.48800 19.91400
H  -1.40900 40.57700 21.38100
H  0.67300 44.70700 20.61600
H  2.42400 44.27300 20.66300
H  1.17600 46.42800 21.93600
H  2.74400 45.65200 22.44700
H  1.16200 45.16400 23.12400
H  5.77900 43.59000 23.92700
H  5.95100 41.83100 23.85800
H  6.87900 42.69700 25.02300
H  4.52300 43.44600 29.67200
H  4.97600 41.33900 33.45200
H  6.40500 40.85800 32.59800
H  4.86000 39.99500 32.31200

