158

Mg 9.23800 4.28000 27.70000
C  10.51600 2.68000 30.56700
C  7.46600 6.34000 29.81800
C  7.54100 5.38100 25.09400
C  11.03300 2.08400 25.70200
N  9.22700 4.63100 29.98200
C  9.73400 3.76200 30.88200
C  9.31300 4.19100 32.31000
C  8.28300 5.35200 32.04900
C  8.30500 5.47500 30.53800
C  6.86500 5.23600 32.61800
C  10.57500 4.34400 33.24300
C  10.59500 5.53600 34.17100
H  11.54100 5.51000 35.32400
N  7.77200 5.74300 27.47600
C  7.17500 6.49300 28.43300
C  6.27500 7.47000 27.81500
C  6.28800 7.24700 26.39900
C  7.21100 6.04100 26.28900
C  5.51200 8.54200 28.67600
C  5.65200 8.12900 25.26200
O  5.82000 7.87800 24.08100
C  4.77500 9.24200 25.67600
N  9.18600 3.75300 25.69500
C  8.34800 4.35500 24.83600
C  8.63700 3.83000 23.44200
C  9.93500 2.98000 23.61500
C  10.13200 2.96900 25.11900
C  7.44100 3.09800 22.81000
C  11.21600 3.39000 22.85100
C  11.88400 2.20300 22.07600
N  10.45800 2.64600 27.98900
C  11.20000 1.84900 27.09900
C  11.93800 0.89600 27.77600
C  11.68600 1.14900 29.12800
C  10.81200 2.25300 29.21900
C  12.62800 -0.33300 27.16800
C  11.91700 0.62300 30.46500
O  12.53800 -0.31900 30.88600
C  11.23100 1.63400 31.46800
C  10.41500 0.89900 32.52700
O  9.25300 0.55000 32.33300
O  11.13700 0.93500 33.73100
C  10.47600 0.47800 34.95100
H  6.95700 7.03700 30.48700
H  7.18000 5.88300 24.19400
H  11.58600 1.36400 25.09600
H  8.88700 3.28600 32.74300
H  8.70800 6.27700 32.43800
H  6.54800 6.13800 33.14100
H  6.79400 4.36200 33.26700
H  6.07500 5.22800 31.86700
H  11.49000 4.44500 32.66000
H  10.61000 3.54300 33.98100
H  9.61300 5.52400 34.64300
H  10.77200 6.48900 33.67300
H  5.49400 9.51600 28.18800
H  5.92500 8.67300 29.67700
H  4.49400 8.20600 28.87300
H  4.18000 9.60300 24.83700
H  5.33300 10.09100 26.07000
H  4.15900 8.90600 26.51000
H  8.90000 4.72500 22.87800
H  9.72500 1.95000 23.32700
H  6.61200 3.07900 23.51700
H  7.80000 2.09800 22.56800
H  7.18800 3.66500 21.91400
H  12.03800 3.88300 23.36900
H  10.90000 4.09800 22.08600
H  11.54800 2.32900 21.04600
H  11.47300 1.24500 22.39400
H  12.97000 2.13400 22.13900
H  13.66800 -0.07900 26.96500
H  12.15100 -0.83200 26.32400
H  12.65800 -1.03600 28.00000
H  11.96100 2.12800 32.10900
H  10.68200 1.29200 35.64600
H  10.88800 -0.48000 35.26700
H  9.39400 0.43400 34.83100
Mg 36.31400 1.74700 30.15200
C  34.22900 2.85000 32.92100
C  38.90700 1.52600 32.27900
C  38.10700 0.81900 27.54200
C  33.33800 2.08700 28.17600
N  36.42900 1.91300 32.40700
C  35.52800 2.39000 33.32600
C  36.17300 2.46800 34.70100
C  37.75800 2.31700 34.39000
C  37.70000 1.91100 32.91400
C  38.62500 3.52600 34.84800
C  35.52400 1.58300 35.74300
C  35.21200 2.29100 37.12000
H  36.29200 3.15900 37.75500
N  38.25900 1.17300 29.95400
C  39.18900 1.14700 30.93600
C  40.42200 0.62700 30.44100
C  40.24400 0.46000 29.03800
C  38.82600 0.78900 28.78800
C  41.59200 0.32600 31.37900
C  41.28000 0.05400 27.89900
O  41.00500 -0.09200 26.71800
C  42.71000 -0.21100 28.37200
N  35.85700 1.79900 28.11500
C  36.76600 1.20900 27.23000
C  36.10700 0.88500 25.87400
C  34.56100 0.97400 26.18300
C  34.59300 1.73700 27.56500
C  36.59600 1.74000 24.69000
C  33.67000 -0.34800 26.18300
C  32.24400 -0.07900 25.73500
N  34.24400 2.42100 30.39800
C  33.17500 2.53500 29.53500
C  31.98800 2.99600 30.20100
C  32.39000 3.19000 31.50500
C  33.74500 2.77200 31.56500
C  30.71000 3.35100 29.58100
C  31.89900 3.64300 32.74900
O  30.78800 4.03000 33.03500
C  33.06200 3.39000 33.76100
C  33.32400 4.71800 34.45000
O  34.18000 5.50400 34.14900
O  32.38700 4.89300 35.50100
C  32.37500 6.25400 36.02500
H  39.80900 1.56700 32.89300
H  38.63000 0.54400 26.62300
H  32.49000 1.99100 27.49500
H  36.00800 3.50100 35.00800
H  38.12300 1.47000 34.97200
H  39.36500 3.21600 35.58500
H  37.94000 4.28400 35.22700
H  39.23000 3.91500 34.02800
H  36.08100 0.64800 35.68300
H  34.60200 1.19300 35.31200
H  35.04200 1.52600 37.87700
H  34.26200 2.80700 36.98200
H  42.27600 -0.42600 30.98400
H  41.46700 0.11400 32.44100
H  42.14700 1.24900 31.21200
H  42.74200 -0.98600 29.13800
H  43.03500 0.70700 28.86100
H  43.34300 -0.39400 27.50400
H  36.30500 -0.14700 25.58300
H  34.09100 1.59500 25.42000
H  37.28900 2.50100 25.05000
H  35.74300 2.12600 24.13200
H  37.19600 1.07400 24.07100
H  33.47500 -0.82900 27.14200
H  34.25000 -1.03100 25.56200
H  31.90000 0.93200 25.51700
H  31.54100 -0.53300 26.43400
H  32.06100 -0.57800 24.78200
H  30.08100 2.54200 29.20900
H  30.77600 4.11600 28.80700
H  30.03600 3.73200 30.34800
H  32.56000 2.68100 34.42000
H  32.25300 6.98800 35.22700
H  33.34700 6.31200 36.51600
H  31.61400 6.32700 36.80100

