158

Mg 49.18200 46.96900 44.11400
C  46.15600 46.99500 42.28200
C  49.97600 44.10700 42.58300
C  52.34500 47.72500 44.99900
C  48.23000 50.28300 45.11400
N  48.06800 45.68700 42.79800
C  46.86600 45.83000 42.16600
C  46.40100 44.49200 41.44900
C  47.58200 43.55600 41.78700
C  48.59700 44.43400 42.51400
C  47.11100 42.34200 42.64300
C  46.31200 44.67700 39.91100
C  45.02300 44.12200 39.34800
H  45.27900 43.22500 38.09900
N  50.93000 45.99300 43.91700
C  51.05000 44.82100 43.17800
C  52.49600 44.50100 43.16000
C  53.18100 45.44200 43.91900
C  52.18700 46.42500 44.38900
C  53.09800 43.42300 42.18200
C  54.71800 45.33500 44.27800
O  55.46100 44.46400 43.81300
C  55.38800 46.34800 45.26700
N  50.12900 48.76800 44.97800
C  51.41200 48.72900 45.30900
C  51.68800 49.94100 46.15700
C  50.43900 50.88500 46.10500
C  49.50800 49.98300 45.37200
C  52.16000 49.59600 47.62300
C  50.71300 52.31600 45.39400
C  51.61500 53.28700 46.16800
N  47.55200 48.37200 43.86600
C  47.35700 49.57700 44.36000
C  46.06100 50.11300 43.91800
C  45.55600 49.14800 43.09300
C  46.48700 48.06900 43.10800
C  45.48900 51.43600 44.34900
C  44.41000 48.76600 42.24200
O  43.41100 49.43500 42.02800
C  44.72600 47.39100 41.63000
C  43.58900 46.42300 41.78800
O  43.39300 45.65000 42.71400
O  42.61400 46.51800 40.73700
C  41.53200 45.51100 40.87400
H  50.34600 43.21900 42.06600
H  53.41400 47.90500 45.13100
H  47.93400 51.27700 45.45400
H  45.43400 44.20000 41.85900
H  48.13400 43.13200 40.94900
H  47.54300 42.31000 43.64300
H  47.50800 41.47700 42.11200
H  46.04000 42.33000 42.84300
H  47.08700 44.09800 39.40900
H  46.48100 45.72100 39.65100
H  44.35600 44.91900 39.01800
H  44.47700 43.54100 40.09000
H  53.90900 42.85100 42.63100
H  53.55400 43.93600 41.33500
H  52.38100 42.62500 41.99100
H  55.56300 47.31700 44.79800
H  56.33900 45.95800 45.62900
H  54.71000 46.40200 46.11800
H  52.46100 50.52300 45.65600
H  50.08100 51.16300 47.09700
H  52.45600 48.62400 48.01600
H  51.26600 49.90500 48.16500
H  52.78300 50.43800 47.92600
H  49.77600 52.81600 45.15000
H  51.12600 52.06100 44.41800
H  51.11500 54.23900 46.34700
H  52.51000 53.61100 45.63700
H  51.83000 52.88700 47.15900
H  45.74700 51.76500 45.35500
H  44.40400 51.38400 44.26200
H  45.86200 52.25800 43.73800
H  44.91000 47.56300 40.57000
H  40.87200 45.78700 41.69600
H  41.90600 44.53300 41.17800
H  40.97800 45.32700 39.95300
Mg -12.76400 38.97000 42.37400
C  -10.83500 35.99300 41.57600
C  -10.68900 40.70800 40.18500
C  -14.69800 41.59000 42.77400
C  -15.16000 36.80500 43.72400
N  -10.92000 38.39700 41.07400
C  -10.25600 37.18800 41.03600
C  -8.96000 37.36800 40.26300
C  -8.95900 38.92400 39.90700
C  -10.31000 39.34800 40.35800
C  -7.75200 39.75800 40.46100
C  -8.83100 36.41100 38.99500
C  -7.57400 35.52700 39.00000
H  -6.65500 35.56300 37.65800
N  -12.66100 40.94400 41.65000
C  -11.74300 41.46600 40.76300
C  -12.13500 42.85000 40.34200
C  -13.34400 43.14100 41.14400
C  -13.63300 41.89700 41.89500
C  -11.73200 43.71200 39.16700
C  -14.12900 44.42100 41.05200
O  -13.75600 45.45700 40.50300
C  -15.42100 44.62300 41.76200
N  -14.64300 39.21800 43.16200
C  -15.21500 40.43800 43.30800
C  -16.63100 40.30600 43.92200
C  -16.78400 38.77800 44.18300
C  -15.48600 38.20000 43.57800
C  -16.86400 41.19200 45.19100
C  -18.10600 38.15600 43.81200
C  -18.78900 37.07100 44.68800
N  -12.87800 36.78500 42.75800
C  -13.95800 36.09700 43.35500
C  -13.70300 34.74500 43.36500
C  -12.46800 34.63800 42.78200
C  -11.97200 35.95700 42.38500
C  -14.65100 33.67500 43.81000
C  -11.47400 33.64700 42.30900
O  -11.40200 32.46400 42.43500
C  -10.40000 34.46100 41.44800
C  -9.05400 34.28600 42.06300
O  -8.26500 33.43600 41.70200
O  -8.73400 35.25000 42.94100
C  -7.42300 35.13700 43.60000
H  -10.03500 41.40400 39.65600
H  -15.49900 42.30200 42.98600
H  -15.86300 36.02200 44.01500
H  -8.15000 37.17800 40.96700
H  -8.85100 39.05300 38.83000
H  -7.00200 39.68000 39.67400
H  -7.31400 39.23600 41.31200
H  -8.01300 40.79600 40.66800
H  -8.80600 36.96300 38.05600
H  -9.69600 35.75300 38.91900
H  -7.93600 34.50300 39.09200
H  -6.99400 35.66700 39.91200
H  -12.58300 43.65400 38.48700
H  -10.78300 43.39600 38.73400
H  -11.50600 44.75500 39.39100
H  -16.08000 43.85200 41.36300
H  -15.79500 45.57300 41.38000
H  -15.37400 44.59700 42.85100
H  -17.41600 40.64300 43.24500
H  -16.66600 38.44300 45.21300
H  -17.43500 42.05900 44.85900
H  -15.91100 41.50400 45.61800
H  -17.29500 40.67200 46.04700
H  -17.98800 37.73900 42.81200
H  -18.92500 38.87100 43.74400
H  -18.84800 36.10200 44.19300
H  -19.80300 37.32600 44.99800
H  -18.23500 36.86900 45.60500
H  -14.67500 33.68300 44.89900
H  -14.32500 32.73700 43.36100
H  -15.58700 33.81200 43.26900
H  -10.25900 34.19600 40.40000
H  -6.89700 36.09200 43.58700
H  -6.78000 34.33400 43.23900
H  -7.46800 34.82600 44.64300

