158

Mg 52.38800 24.06800 44.34600
C  49.45300 26.02400 43.77300
C  50.85600 21.33100 43.54700
C  55.49800 22.58300 44.35200
C  54.03100 27.12100 44.87000
N  50.35100 23.74000 43.56600
C  49.31000 24.65900 43.43100
C  47.97900 23.83400 43.32100
C  48.55700 22.35600 43.08000
C  50.01400 22.43100 43.45100
C  47.83200 21.15400 43.82200
C  47.04500 24.29700 42.14400
C  47.74900 24.56900 40.81300
H  47.33600 23.82100 39.52400
N  53.07800 22.19800 43.98600
C  52.20400 21.11300 43.87900
C  52.92200 19.86500 43.85900
C  54.31000 20.20500 44.10400
C  54.38400 21.70400 44.12000
C  52.18900 18.53600 43.82400
C  55.47400 19.28800 44.25400
O  55.23700 18.13700 44.07500
C  56.88900 19.76600 44.63700
N  54.49100 24.85800 44.35900
C  55.54200 23.99900 44.35900
C  56.84300 24.80400 44.66200
C  56.40700 26.28000 44.62400
C  54.92600 26.08300 44.51600
C  57.54300 24.47700 45.97000
C  57.05400 27.19800 43.45900
C  56.38200 27.10200 42.11300
N  51.88600 26.16800 44.50200
C  52.64900 27.26700 44.79000
C  51.80900 28.41900 45.03300
C  50.48900 27.97200 44.58600
C  50.60900 26.57900 44.25800
C  52.23300 29.78700 45.60300
C  49.08700 28.31400 44.51400
O  48.44600 29.31600 44.82000
C  48.36900 27.02500 43.80600
C  47.93100 27.44300 42.45200
O  48.63500 27.65300 41.44600
O  46.59600 27.78600 42.60100
C  45.95800 28.37100 41.42300
H  50.28300 20.42600 43.33500
H  56.49300 22.21500 44.61100
H  54.59500 28.03000 45.09100
H  47.34700 23.83200 44.20900
H  48.57000 22.19000 42.00200
H  47.41600 20.42400 43.12800
H  46.94700 21.60400 44.27100
H  48.39700 20.61900 44.58600
H  46.42100 25.08300 42.56900
H  46.24400 23.60700 41.87800
H  48.83400 24.53000 40.91000
H  47.49200 25.58800 40.52400
H  52.19000 18.37300 42.74600
H  51.13200 18.68600 44.04400
H  52.64800 17.73000 44.39600
H  57.40800 18.84600 44.90400
H  56.95700 20.22700 45.62200
H  57.47400 20.36400 43.93700
H  57.55600 24.59700 43.86400
H  56.60800 26.68600 45.61500
H  58.61300 24.43800 45.76400
H  57.25400 23.46400 46.25000
H  57.36100 25.07300 46.86400
H  58.12500 27.07700 43.29700
H  56.81300 28.20300 43.80500
H  55.36000 26.73100 42.04000
H  57.10100 26.46400 41.59800
H  56.44200 28.10000 41.67900
H  51.61600 29.81800 46.50100
H  52.06300 30.65400 44.96400
H  53.28900 29.64700 45.83400
H  47.63200 26.82200 44.58300
H  46.44100 29.32000 41.19100
H  44.93800 28.68200 41.65100
H  45.90900 27.67900 40.58300
Mg 46.48600 25.20000 28.31500
C  46.92200 27.35800 31.08100
C  45.46700 22.88000 30.65100
C  47.15400 22.87300 26.11500
C  48.01300 27.56900 26.25300
N  46.38000 25.09600 30.67300
C  46.47800 26.12800 31.52500
C  46.15000 25.71300 33.02400
C  46.00600 24.21200 32.80700
C  45.82600 24.06100 31.24700
C  47.02300 23.23900 33.41600
C  44.97500 26.54000 33.65400
C  45.16300 27.05000 35.04000
H  44.09300 27.00800 36.12800
N  46.13600 23.22600 28.23700
C  45.66000 22.46600 29.26900
C  45.34600 21.15300 28.69300
C  45.92900 21.07600 27.39500
C  46.37600 22.40800 27.17400
C  44.71300 20.04900 29.51600
C  46.08800 19.89400 26.35400
O  46.59300 20.01000 25.30100
C  45.63500 18.54200 26.76800
N  47.63200 25.19600 26.53100
C  47.85300 24.04200 25.84700
C  48.66700 24.23600 24.49200
C  48.63100 25.77400 24.47000
C  48.00200 26.25700 25.81000
C  50.11400 23.47200 24.48100
C  48.14400 26.49900 23.19100
C  46.64100 26.81100 23.24700
N  47.29000 27.12300 28.57200
C  47.82300 28.02500 27.60200
C  48.11000 29.25100 28.30500
C  47.80400 28.99000 29.64400
C  47.27400 27.67500 29.75700
C  48.76300 30.40000 27.63800
C  47.82800 29.61900 30.92100
O  48.16400 30.73800 31.34800
C  47.34800 28.52200 31.92600
C  48.47800 28.22400 32.87000
O  49.43400 27.50300 32.50200
O  48.38700 28.81400 34.07000
C  49.39000 28.31000 35.04300
H  45.15100 22.12300 31.37100
H  47.30400 22.09900 25.36000
H  48.38600 28.36900 25.61000
H  47.09600 25.92300 33.52200
H  45.03000 23.93800 33.20700
H  47.87200 23.65700 33.95600
H  47.40600 22.58000 32.63600
H  46.52500 22.53100 34.07800
H  44.11900 25.86700 33.61000
H  44.67300 27.39600 33.04900
H  45.26400 28.11900 34.85500
H  46.05500 26.60200 35.47900
H  45.39400 19.19900 29.47900
H  43.76100 19.70100 29.11300
H  44.51500 20.40700 30.52600
H  45.79900 17.88400 25.91400
H  44.57200 18.55400 27.00600
H  46.22700 18.04300 27.53500
H  48.02600 23.86300 23.69400
H  49.69700 25.99700 24.51700
H  49.96100 22.61100 23.83000
H  50.48100 23.20500 25.47200
H  50.87500 24.15300 24.09900
H  48.37300 25.89100 22.31500
H  48.72500 27.41200 23.06300
H  46.10400 26.10500 23.88000
H  46.22200 26.76300 22.24200
H  46.38000 27.81800 23.57300
H  49.73300 30.17300 27.19700
H  49.10700 31.11600 28.38500
H  48.11100 30.90900 26.92700
H  46.45400 28.85200 32.45500
H  48.96400 27.74900 35.87400
H  50.01300 29.12900 35.40200
H  50.13500 27.68900 34.54500

