158

Mg 2.17000 7.58400 26.34500
C  2.38000 9.80400 29.03800
C  2.31800 4.96000 28.50300
C  2.20400 5.54800 23.59600
C  2.48800 10.37300 24.19300
N  2.46100 7.40200 28.54100
C  2.37500 8.44600 29.43700
C  2.04800 7.89700 30.83600
C  2.44000 6.37100 30.64600
C  2.33600 6.19700 29.16300
C  3.79600 5.87200 31.11300
C  0.60600 8.14200 31.42500
C  0.50100 8.41100 32.95700
H  1.69200 7.89600 33.81900
N  2.23600 5.52700 26.11500
C  2.23500 4.57300 27.12600
C  2.15000 3.27700 26.57300
C  2.09100 3.43300 25.15800
C  2.24800 4.86400 24.88600
C  1.93800 2.01700 27.48900
C  2.04900 2.37100 24.11700
O  2.08900 2.59400 22.92400
C  1.99200 0.86900 24.62500
N  2.29100 7.91800 24.25800
C  2.30900 6.92500 23.31200
C  2.37400 7.41600 21.87000
C  2.46500 8.97700 22.04300
C  2.32700 9.11000 23.61500
C  3.42800 6.71800 21.07100
C  1.28200 9.73500 21.36300
C  1.61600 10.64200 20.23800
N  2.36000 9.66400 26.51700
C  2.52000 10.60200 25.57000
C  2.55600 11.94400 26.15800
C  2.51900 11.69100 27.56900
C  2.46300 10.27900 27.70500
C  2.36400 13.29600 25.52500
C  2.35200 12.25800 28.94400
O  2.30100 13.42800 29.29500
C  2.27000 11.06600 29.88600
C  3.39000 11.02500 30.90900
O  4.58300 11.00600 30.70800
O  2.81200 11.11600 32.14100
C  3.76800 11.22100 33.23500
H  2.39700 4.18400 29.26700
H  2.15900 4.93800 22.69200
H  2.44500 11.24300 23.53300
H  2.80100 8.27100 31.53100
H  1.68000 5.71900 31.07600
H  4.41400 5.59500 30.25900
H  3.53800 5.04300 31.77200
H  4.32900 6.56800 31.75900
H  -0.08900 7.32000 31.25400
H  0.23900 9.10900 31.08100
H  -0.38200 7.88200 33.31600
H  0.47400 9.48700 33.13200
H  2.89200 1.49000 27.44900
H  0.99700 1.58500 27.14800
H  1.78400 2.34600 28.51600
H  2.96900 0.66400 25.06300
H  1.79800 0.22900 23.76500
H  1.08000 0.74800 25.20900
H  1.39800 7.14600 21.46500
H  3.43000 9.37300 21.72600
H  4.10400 6.32900 21.83300
H  3.93200 7.40800 20.39500
H  3.03500 5.97900 20.37300
H  0.74500 10.37200 22.06600
H  0.58600 9.04400 20.88700
H  1.04100 10.44800 19.33200
H  2.68100 10.52300 20.04000
H  1.27100 11.65200 20.45800
H  1.60600 13.95000 25.95700
H  2.18500 13.11200 24.46500
H  3.25200 13.92700 25.56700
H  1.36900 11.09000 30.49900
H  3.98400 12.28900 33.24300
H  4.69100 10.67800 33.03000
H  3.40900 11.04300 34.24900
Mg 40.27600 7.17000 29.14300
C  41.92500 8.73400 31.99800
C  38.29200 5.56700 31.30400
C  39.06500 5.55300 26.46100
C  42.93600 8.47400 27.23300
N  40.08300 7.30200 31.37600
C  40.89300 7.89600 32.31600
C  40.34000 7.65800 33.71000
C  39.36300 6.52000 33.51400
C  39.19700 6.44300 31.96500
C  39.90900 5.19400 34.10600
C  39.75900 8.93100 34.27700
C  39.40500 9.03800 35.74600
H  40.29500 10.06000 36.57100
N  38.71900 5.87500 28.97300
C  37.96300 5.37300 29.90500
C  36.92100 4.53600 29.33600
C  37.08500 4.69300 27.88200
C  38.35500 5.34500 27.71000
C  35.92600 3.81800 30.16500
C  36.11700 4.36300 26.69200
O  36.36300 4.47900 25.47800
C  34.81100 3.88500 27.15600
N  40.97100 6.94600 27.11500
C  40.26200 6.28300 26.22000
C  40.76700 6.52900 24.79300
C  41.94400 7.57600 25.03700
C  42.03500 7.64900 26.56800
C  41.24300 5.23800 23.94700
C  41.91300 8.96800 24.25300
C  40.91100 9.99200 24.65500
N  42.07100 8.28300 29.49900
C  43.05100 8.67000 28.60700
C  44.04000 9.41300 29.29600
C  43.62300 9.49300 30.61900
C  42.37900 8.82400 30.70200
C  45.36000 9.82800 28.81700
C  43.97800 10.01800 31.91800
O  44.93300 10.71000 32.23900
C  42.84800 9.55700 32.84800
C  43.45800 8.61800 33.84800
O  44.12900 7.63800 33.61600
O  43.40400 9.16300 35.11900
C  44.02700 8.34100 36.13700
H  37.63400 5.08400 32.02900
H  38.73400 5.09000 25.53000
H  43.60700 8.97600 26.53300
H  41.21200 7.41800 34.31800
H  38.34400 6.74000 33.83100
H  40.88100 5.28800 34.59200
H  40.07400 4.45400 33.32300
H  39.19400 4.76000 34.80500
H  38.77900 8.96900 33.80100
H  40.25800 9.83600 33.92800
H  39.55200 8.07600 36.23700
H  38.33600 9.24400 35.79400
H  36.21200 3.82200 31.21700
H  35.89100 2.75800 29.91100
H  34.92000 4.21700 30.03800
H  34.31800 4.51400 27.89700
H  35.13000 2.97000 27.65600
H  34.13300 3.63600 26.33900
H  39.93900 7.04800 24.31000
H  42.87100 7.09800 24.72100
H  40.87700 5.16200 22.92300
H  41.07400 4.28800 24.45400
H  42.32900 5.29100 23.86900
H  41.60400 8.77300 23.22500
H  42.93400 9.32000 24.39700
H  40.21500 9.64600 25.41900
H  40.35300 10.31500 23.77600
H  41.51000 10.77000 25.12900
H  45.29300 9.72200 27.73400
H  46.09300 9.15800 29.26700
H  45.65500 10.82200 29.15200
H  42.32600 10.38500 33.32800
H  43.50600 7.38300 36.14400
H  43.93300 8.72400 37.15300
H  45.11100 8.37700 36.02900

