158

Mg 53.69000 24.32500 43.75700
C  50.91200 26.64400 43.17000
C  51.54100 21.81900 42.91100
C  56.37700 22.48200 43.28900
C  55.66500 27.07800 44.26400
N  51.58200 24.31300 42.88300
C  50.59900 25.27300 42.90100
C  49.19900 24.75700 42.69000
C  49.37000 23.26700 42.91300
C  50.94100 23.13200 43.05200
C  48.64000 22.82700 44.23100
C  48.62000 25.06900 41.27800
C  49.61200 24.83300 40.07000
H  48.95500 24.33000 38.77000
N  53.95900 22.40100 43.24800
C  52.94900 21.55300 42.90000
C  53.52800 20.23300 42.72500
C  54.97800 20.40100 42.81500
C  55.21200 21.80100 43.10400
C  52.63400 19.04100 42.46200
C  55.96100 19.38900 42.46400
O  55.60000 18.23200 42.19800
C  57.44700 19.63000 42.47700
N  55.70400 24.82400 43.54400
C  56.68100 23.85500 43.59400
C  58.14700 24.34900 43.86000
C  57.91900 25.82600 44.24100
C  56.32500 25.95700 43.94000
C  58.97900 23.48200 44.85300
C  58.70600 26.88300 43.41400
C  60.04600 27.19800 43.95500
N  53.42200 26.46800 43.85300
C  54.29900 27.39100 44.18700
C  53.63700 28.65500 44.44200
C  52.29200 28.40400 44.07600
C  52.22700 27.09200 43.66100
C  54.24600 29.94700 45.07100
C  50.91200 28.95800 44.00300
O  50.48600 30.07200 44.43900
C  50.04300 27.86600 43.33800
C  49.51200 28.40400 42.04900
O  50.13300 28.76600 41.07800
O  48.13100 28.38500 42.14600
C  47.44200 28.60200 40.88300
H  50.84100 20.98600 42.81400
H  57.29800 21.89900 43.34600
H  56.23500 27.90100 44.69900
H  48.66900 25.27000 43.49200
H  48.91500 22.67200 42.12100
H  49.29700 23.10100 45.05600
H  48.57000 21.75500 44.04700
H  47.69800 23.34300 44.42000
H  48.32500 26.11200 41.39300
H  47.62100 24.69900 41.04900
H  50.29200 24.01700 40.31500
H  50.15300 25.77200 39.95000
H  51.87300 19.26100 41.71400
H  52.15900 18.69100 43.37900
H  53.19200 18.19400 42.06400
H  57.88800 18.66400 42.23000
H  57.76000 19.80700 43.50600
H  57.70800 20.38200 41.73300
H  58.69600 24.33700 42.91800
H  58.01800 26.04200 45.30500
H  58.29400 22.83000 45.39500
H  59.65600 24.05100 45.48900
H  59.57000 22.80600 44.23500
H  58.18400 27.83200 43.29500
H  58.68100 26.44400 42.41600
H  60.28400 26.48900 44.74800
H  60.16000 28.25600 44.18900
H  60.74300 26.91400 43.16700
H  53.97900 29.94900 46.12800
H  53.74500 30.75200 44.53200
H  55.31100 30.15500 44.96900
H  49.14900 27.66000 43.92600
H  47.68500 29.61400 40.56000
H  46.36200 28.45500 40.90500
H  47.74600 27.93700 40.07400
Mg 49.38600 35.61300 28.22600
C  46.81900 33.86500 29.86700
C  49.36500 37.95100 30.76800
C  51.17600 37.49600 26.18200
C  48.76200 33.36600 25.47100
N  48.34600 35.75600 30.05300
C  47.39600 34.93500 30.63500
C  47.20100 35.19200 32.16800
C  47.70800 36.68800 32.25500
C  48.55000 36.79100 30.94700
C  46.52300 37.63200 32.24200
C  48.13800 34.23200 32.99800
C  47.92200 34.27900 34.51000
H  46.93000 35.31000 35.14900
N  50.22000 37.47200 28.41900
C  50.08100 38.30100 29.55600
C  50.75600 39.57100 29.27800
C  51.19200 39.51700 27.85700
C  50.87700 38.10800 27.41800
C  50.82800 40.73900 30.26500
C  51.78800 40.59700 26.98500
O  51.92800 40.45100 25.81300
C  52.05900 41.96100 27.55200
N  49.93900 35.36900 26.14200
C  50.81400 36.26900 25.58500
C  51.33300 35.82800 24.24100
C  50.48300 34.48400 24.00100
C  49.66100 34.35900 25.24200
C  51.07100 36.85100 23.09800
C  51.39800 33.18800 23.75800
C  50.82200 32.18200 22.74200
N  48.18100 33.86800 27.77500
C  48.04700 33.06000 26.65800
C  46.90500 32.09200 26.86400
C  46.38400 32.38300 28.07100
C  47.25400 33.35900 28.58500
C  46.44200 31.06200 25.82400
C  45.38000 31.95800 28.99800
O  44.59400 30.99400 28.99000
C  45.56700 32.98400 30.19100
C  45.61600 32.27400 31.43300
O  46.59100 31.61200 31.84200
O  44.43900 32.41500 32.07700
C  44.32700 31.79600 33.40300
H  49.47100 38.69300 31.56200
H  51.70400 38.11900 25.45800
H  48.58000 32.70500 24.62100
H  46.16800 34.97000 32.43800
H  48.25700 36.77800 33.19200
H  45.56500 37.18400 31.97800
H  46.71300 38.43000 31.52400
H  46.36200 38.06100 33.23100
H  49.16800 34.58500 32.94000
H  48.17400 33.19700 32.65800
H  48.90900 34.61700 34.82900
H  47.63700 33.24800 34.72000
H  50.33200 41.61400 29.84400
H  51.83500 41.09600 30.47800
H  50.24200 40.47100 31.14400
H  51.12800 42.51600 27.66500
H  52.64500 42.57600 26.86900
H  52.46000 41.80600 28.55400
H  52.40200 35.61900 24.25200
H  49.79400 34.60900 23.16600
H  50.42700 36.57200 22.26400
H  52.02100 37.17300 22.67300
H  50.50500 37.68000 23.52300
H  51.51500 32.55800 24.64000
H  52.35300 33.51400 23.34700
H  50.94300 31.23300 23.26300
H  51.23500 32.12000 21.73500
H  49.75400 32.39800 22.72700
H  46.70300 30.11300 26.29100
H  46.93600 31.10600 24.85300
H  45.37000 30.96500 25.65200
H  44.72000 33.66400 30.27900
H  43.33100 31.45400 33.68300
H  44.67100 32.50300 34.15800
H  44.96900 30.92800 33.55600

