158

Mg 1.16600 8.47700 26.78500
C  1.17700 10.40900 29.66000
C  1.63200 5.73000 28.73000
C  1.11900 6.61900 23.89400
C  1.17900 11.37500 24.91400
N  1.35400 8.16800 28.97100
C  1.13400 9.03900 29.93500
C  0.95800 8.39500 31.25600
C  1.42100 6.93400 31.00100
C  1.47400 6.91300 29.41700
C  2.77900 6.59800 31.56900
C  -0.47800 8.63700 31.81200
C  -0.53600 8.92000 33.33000
H  0.54200 8.26100 34.20600
N  1.31000 6.42400 26.37600
C  1.48100 5.49200 27.31100
C  1.49000 4.16900 26.65000
C  1.33100 4.41900 25.24800
C  1.20800 5.86100 25.10800
C  1.60300 2.90600 27.37600
C  1.36100 3.42400 24.10800
O  1.43200 3.79700 22.97200
C  1.49600 1.93000 24.37700
N  0.91700 8.92200 24.75200
C  0.95700 8.00200 23.74700
C  1.01900 8.64300 22.35100
C  0.74500 10.22800 22.70300
C  1.04300 10.16800 24.20400
C  2.31600 8.41900 21.58300
C  -0.73300 10.73900 22.44200
C  -0.96200 11.89800 21.29300
N  1.24500 10.49300 27.15100
C  1.33400 11.56400 26.29500
C  1.55800 12.83000 26.98800
C  1.54100 12.35200 28.30900
C  1.22500 11.00100 28.35500
C  1.92400 14.22000 26.52300
C  1.79700 12.76300 29.66700
O  2.18500 13.85600 30.06800
C  1.33900 11.59200 30.55600
C  2.28600 11.42500 31.67800
O  3.49600 11.31100 31.55500
O  1.63600 11.59000 32.91100
C  2.52700 11.69800 34.13100
H  1.61100 4.89300 29.43000
H  1.54100 6.10300 23.02800
H  1.05700 12.29800 24.34300
H  1.70500 8.91200 31.85800
H  0.64800 6.23900 31.32700
H  3.52700 6.19500 30.88700
H  2.51200 5.86300 32.32800
H  3.26900 7.40200 32.11800
H  -1.17100 7.83300 31.56500
H  -0.85700 9.58600 31.43200
H  -1.48300 8.60400 33.76800
H  -0.60500 9.98900 33.53400
H  2.66500 2.69500 27.25100
H  1.02600 2.04700 27.03400
H  1.19800 3.00900 28.38300
H  0.61700 1.49000 24.84900
H  2.42600 1.75800 24.91800
H  1.66600 1.46000 23.40900
H  0.17700 8.33500 21.73200
H  1.47200 10.85600 22.18800
H  1.99500 8.07800 20.59900
H  2.90800 7.70700 22.15800
H  2.78300 9.40000 21.49700
H  -1.14900 11.04300 23.40200
H  -1.34400 9.89100 22.13400
H  -1.36700 12.81600 21.72000
H  -1.68900 11.42000 20.63700
H  -0.11500 12.28900 20.72900
H  2.12900 14.13200 25.45600
H  2.77500 14.68800 27.01900
H  1.05800 14.84700 26.73300
H  0.46000 11.78400 31.17200
H  3.28500 10.92000 34.22300
H  1.92400 11.52100 35.02100
H  2.90300 12.72100 34.16000
Mg 42.64700 41.70000 26.64800
C  41.60400 44.09400 29.03700
C  43.56900 39.75300 29.34300
C  43.32400 39.45800 24.44300
C  41.66000 44.01000 24.17400
N  42.49100 41.86800 28.93600
C  42.08300 42.94000 29.70000
C  42.13600 42.66100 31.26400
C  42.92000 41.30600 31.22800
C  42.99000 40.93000 29.77900
C  44.44400 41.27400 31.86500
C  40.70300 42.52500 31.95000
C  40.18700 43.44800 33.10200
H  39.96900 42.81100 34.46700
N  43.45800 39.94400 26.83300
C  43.76500 39.25200 28.01100
C  44.35900 38.01200 27.67500
C  44.37000 37.88000 26.29000
C  43.75400 39.11800 25.79000
C  44.71600 36.90000 28.77800
C  44.91500 36.74900 25.42200
O  44.79400 36.74900 24.23200
C  45.61800 35.55500 26.00000
N  42.54800 41.75300 24.58600
C  42.80500 40.62500 23.86200
C  42.57900 40.90200 22.36200
C  41.94700 42.32300 22.24600
C  42.01600 42.73600 23.74200
C  43.76000 40.59900 21.38600
C  40.54100 42.38000 21.50300
C  40.43400 43.48900 20.41200
N  41.91000 43.65000 26.58200
C  41.56600 44.51100 25.45800
C  40.93600 45.76000 25.96100
C  40.91100 45.56800 27.30500
C  41.57000 44.30600 27.65200
C  40.13700 46.81900 25.18500
C  40.56300 46.16200 28.60000
O  39.96500 47.19000 28.77300
C  41.09300 45.23800 29.86300
C  42.16500 45.97600 30.63300
O  43.27900 46.10200 30.31100
O  41.61100 46.44800 31.73600
C  42.44500 46.89400 32.86600
H  43.84600 39.06400 30.14300
H  43.63000 38.81300 23.61700
H  41.32100 44.59900 23.32000
H  42.61200 43.48600 31.79500
H  42.33400 40.55300 31.75400
H  44.28400 40.73700 32.80000
H  44.76800 42.29900 32.04300
H  45.10700 40.69200 31.22400
H  40.76600 41.60200 32.52600
H  39.92600 42.39300 31.19700
H  39.23100 43.94000 32.92500
H  40.93600 44.23600 33.18400
H  44.33400 36.97400 29.79700
H  45.78800 36.72000 28.84400
H  44.17700 36.08300 28.30000
H  46.04100 35.00700 25.15800
H  44.82600 34.94200 26.43100
H  46.43500 35.96500 26.59400
H  41.81300 40.17500 22.09000
H  42.68400 42.86200 21.65100
H  43.42800 39.94100 20.58200
H  44.54700 40.10400 21.95500
H  44.18300 41.53100 21.01000
H  39.81600 42.64600 22.27200
H  40.12800 41.44600 21.12200
H  41.42300 43.91000 20.23000
H  39.82700 44.29300 20.82800
H  39.95100 43.03100 19.54900
H  40.70500 47.74500 25.27100
H  39.23400 46.97600 25.77500
H  39.97800 46.49200 24.15800
H  40.28500 44.96200 30.54100
H  42.36000 47.95800 33.08900
H  43.50300 46.70200 32.68800
H  42.14100 46.32000 33.74100

