158

Mg 29.95800 58.48900 41.68700
C  27.14800 56.80700 40.19800
C  31.96800 56.46700 39.82800
C  32.45100 60.60800 42.20500
C  27.70700 60.88800 42.91000
N  29.49900 56.81100 40.17300
C  28.38000 56.33700 39.62300
C  28.62700 55.12500 38.70200
C  30.19700 54.99700 38.69700
C  30.58100 56.19400 39.61900
C  30.73400 53.67400 39.23500
C  27.96800 55.30600 37.32000
C  28.64300 54.54900 36.12800
H  27.74400 54.35200 34.94700
N  31.93600 58.46300 41.27200
C  32.58000 57.48100 40.53200
C  34.00300 57.74400 40.45300
C  34.20600 58.91400 41.26600
C  32.84000 59.36900 41.61900
C  35.04400 56.98800 39.63800
C  35.52700 59.53100 41.69800
O  36.55100 59.02400 41.22700
C  35.63000 60.65200 42.71900
N  30.07000 60.55200 42.46400
C  31.22500 61.13500 42.63500
C  31.02500 62.54700 43.21800
C  29.47000 62.73800 43.24800
C  29.03700 61.30600 42.88100
C  31.73100 62.75500 44.55200
C  28.92800 63.76200 42.20700
C  27.43600 64.08700 42.41300
N  27.91600 58.75700 41.72200
C  27.10400 59.73000 42.27000
C  25.71300 59.39500 42.11700
C  25.73300 58.24200 41.27500
C  27.06700 57.90800 41.05500
C  24.43400 60.08000 42.58800
C  24.82400 57.25600 40.65500
O  23.59400 57.24600 40.67700
C  25.65000 56.35900 39.86600
C  25.51800 54.94900 40.40400
O  25.75700 54.45800 41.50700
O  25.03100 54.17400 39.33800
C  24.71800 52.78200 39.65900
H  32.57700 55.69500 39.35400
H  33.29900 61.27300 42.38200
H  27.01900 61.63700 43.30800
H  28.22400 54.20800 39.13200
H  30.67700 55.11900 37.72600
H  29.90900 52.97100 39.35100
H  31.12300 53.81100 40.24400
H  31.52400 53.37400 38.54700
H  27.94100 56.35700 37.03400
H  26.91700 55.02500 37.39600
H  28.96400 53.57600 36.49900
H  29.53900 55.10700 35.85600
H  35.28500 57.67700 38.82800
H  34.62700 56.13800 39.09900
H  35.87400 56.73400 40.29800
H  36.69200 60.65700 42.96400
H  34.94200 60.44200 43.53800
H  35.27300 61.57600 42.26400
H  31.52500 63.17700 42.48200
H  29.16000 62.96400 44.26900
H  32.45800 63.56400 44.48100
H  32.22400 61.81400 44.79200
H  31.05900 62.94500 45.38900
H  29.01900 63.13900 41.31700
H  29.48200 64.69300 42.08400
H  26.80100 63.39900 41.85500
H  27.11900 65.07700 42.08600
H  27.18200 63.91600 43.45900
H  24.63200 61.14300 42.45300
H  24.55600 59.82200 43.64000
H  23.50700 59.73200 42.13300
H  25.41100 56.51700 38.81500
H  25.58000 52.11500 39.67900
H  24.20500 52.36400 38.79300
H  24.17100 52.62600 40.58900
Mg -4.75400 25.45100 26.33600
C  -3.48700 26.96900 29.23000
C  -6.68500 23.45300 28.26600
C  -5.48300 23.82200 23.59600
C  -2.34900 27.47700 24.58400
N  -4.95800 25.29300 28.51900
C  -4.40900 25.99400 29.47500
C  -5.01700 25.61600 30.86500
C  -5.73700 24.31900 30.48700
C  -5.80600 24.33900 28.95900
C  -5.03600 23.00300 30.98900
C  -5.84700 26.81700 31.46500
C  -5.63300 27.00100 32.98900
H  -5.35700 25.65400 33.71600
N  -6.06100 23.89100 25.95800
C  -6.82700 23.25800 26.83300
C  -7.87000 22.37800 26.13900
C  -7.43900 22.36000 24.71700
C  -6.31100 23.38700 24.67400
C  -9.00600 21.57600 26.82700
C  -7.97900 21.64700 23.54600
O  -7.42500 21.70200 22.45600
C  -9.21000 20.70800 23.72900
N  -4.22500 25.81100 24.39700
C  -4.56600 24.91400 23.43300
C  -3.90700 25.19400 22.04500
C  -2.96100 26.37800 22.39100
C  -3.20300 26.64000 23.86700
C  -3.08700 24.01800 21.49300
C  -3.19400 27.68400 21.56100
C  -1.87500 28.36100 21.05000
N  -3.22900 26.92400 26.75100
C  -2.41500 27.69100 25.94300
C  -1.68000 28.66600 26.75500
C  -2.06500 28.39800 28.09600
C  -2.96500 27.34200 28.02000
C  -0.61000 29.64100 26.35100
C  -1.85800 28.81200 29.45600
O  -1.11900 29.67500 29.96500
C  -2.67100 27.74800 30.30700
C  -1.80900 26.97900 31.16100
O  -0.99000 26.19900 30.75300
O  -2.12100 27.19500 32.40800
C  -1.26100 26.52300 33.36500
H  -7.44100 22.92900 28.85500
H  -5.71100 23.24400 22.69800
H  -1.54900 28.01700 24.07400
H  -4.11800 25.38200 31.43600
H  -6.73000 24.16700 30.90900
H  -4.21700 23.13500 31.69600
H  -4.60500 22.48800 30.13000
H  -5.81900 22.34500 31.36400
H  -6.88300 26.51700 31.31000
H  -5.74100 27.77000 30.94800
H  -6.54000 27.35000 33.48300
H  -4.79900 27.69300 33.10700
H  -9.87700 22.07600 26.40200
H  -9.07900 21.65700 27.91200
H  -9.11900 20.53400 26.52900
H  -9.90700 21.37100 24.24200
H  -8.88600 19.97000 24.46300
H  -9.42500 20.09400 22.85400
H  -4.64600 25.42700 21.27800
H  -1.92100 26.13300 22.17500
H  -2.01400 24.09000 21.66500
H  -3.25300 23.85000 20.42900
H  -3.39600 23.10200 21.99800
H  -3.81800 28.32800 22.18000
H  -3.71800 27.41900 20.64300
H  -1.90000 29.43900 21.20700
H  -1.94700 28.21600 19.97200
H  -0.94200 27.90600 21.38000
H  -0.93700 30.68000 26.33100
H  -0.27400 29.43000 25.33600
H  0.16200 29.57000 27.11700
H  -3.39500 28.37100 30.83200
H  -0.28800 26.99500 33.49600
H  -0.95900 25.51000 33.09900
H  -1.79800 26.42000 34.30800

