158

Mg 46.58000 24.63200 28.08200
C  47.02900 27.20200 30.40800
C  46.00500 22.44000 30.58100
C  46.28600 22.20900 25.71700
C  47.81400 26.81100 25.53500
N  46.45700 24.85100 30.16200
C  46.65300 25.99600 30.92300
C  46.45900 25.70100 32.37600
C  46.28200 24.14000 32.43100
C  46.32000 23.72900 30.97400
C  47.20500 23.30200 33.31800
C  45.37000 26.50300 33.20700
C  45.12200 25.89300 34.59700
H  45.21300 26.79200 35.87700
N  45.98700 22.67000 28.15600
C  45.86800 21.89200 29.26100
C  45.63400 20.52200 28.92500
C  45.68500 20.45900 27.52100
C  45.92500 21.81800 27.02800
C  45.41700 19.37500 29.93700
C  45.66400 19.23300 26.59600
O  45.77700 19.26800 25.36000
C  45.63500 17.91500 27.22100
N  46.73000 24.59800 25.93400
C  46.60800 23.44800 25.19000
C  47.07600 23.64900 23.71100
C  47.01700 25.25300 23.62300
C  47.27300 25.58900 25.09600
C  48.53200 23.09700 23.61100
C  45.81500 26.01300 22.94400
C  44.61700 26.50800 23.76600
N  47.30500 26.55700 27.93300
C  47.72100 27.33400 26.86800
C  48.18400 28.62200 27.32900
C  47.90500 28.58300 28.71400
C  47.32700 27.38800 29.01600
C  48.90500 29.72800 26.67400
C  48.13800 29.28900 29.92700
O  48.78300 30.36800 30.06700
C  47.46800 28.52700 31.12300
C  48.63300 28.36300 32.11800
O  49.67400 27.72300 31.99400
O  48.35100 29.00400 33.28000
C  49.34600 28.80300 34.33100
H  45.83000 21.70300 31.36800
H  46.24500 21.38800 24.99800
H  48.04200 27.60500 24.82000
H  47.43100 26.03500 32.73700
H  45.34300 23.81400 32.87800
H  47.87300 22.54500 32.90600
H  46.70300 22.65600 34.03800
H  47.77600 24.02200 33.90400
H  44.42000 26.50900 32.67200
H  45.67200 27.54000 33.35000
H  45.80000 25.05300 34.74900
H  44.11800 25.47000 34.59700
H  46.32200 18.76900 29.89100
H  44.65300 18.69100 29.56900
H  45.05400 19.71900 30.90500
H  46.36800 17.79500 28.01800
H  45.92900 17.06300 26.60800
H  44.60000 17.74100 27.51700
H  46.32700 23.20400 23.05500
H  47.92800 25.56600 23.11400
H  48.49100 22.12700 23.11500
H  49.11000 23.00600 24.53000
H  49.16200 23.77400 23.03400
H  45.35500 25.28300 22.27700
H  46.14000 26.86100 22.34200
H  44.00900 25.61000 23.87200
H  44.07400 27.32600 23.29400
H  44.80400 26.83800 24.78800
H  49.62800 30.20100 27.33900
H  48.21100 30.54600 26.48200
H  49.42400 29.42700 25.76400
H  46.67300 29.13600 31.55400
H  49.14500 27.90000 34.90700
H  49.19000 29.62700 35.02800
H  50.41300 28.91700 34.13800
Mg -10.31700 16.81000 43.16000
C  -6.83400 17.67300 43.14200
C  -10.93700 20.06000 42.48800
C  -13.57000 16.00900 42.90400
C  -9.43300 13.45800 43.07100
N  -8.99400 18.62400 42.92800
C  -7.64300 18.81100 42.95100
C  -7.17500 20.27800 42.63800
C  -8.53000 21.03200 42.61600
C  -9.57900 19.85900 42.68900
C  -8.76000 22.04500 43.78400
C  -6.31400 20.37800 41.39300
C  -4.97900 21.08900 41.48300
H  -3.79500 20.24100 41.03600
N  -12.02200 17.92600 42.77400
C  -12.11300 19.24600 42.53500
C  -13.50900 19.68400 42.50000
C  -14.32100 18.51000 42.49000
C  -13.32500 17.42700 42.73600
C  -14.01900 21.06200 42.29400
C  -15.81900 18.43900 42.18500
O  -16.50900 19.45600 42.04800
C  -16.49200 17.05500 42.11000
N  -11.32800 14.98500 42.75200
C  -12.63500 14.92000 42.96400
C  -13.13000 13.51700 43.29800
C  -11.86400 12.66500 42.96500
C  -10.79500 13.74100 42.92400
C  -13.76500 13.39400 44.72300
C  -11.95200 11.81000 41.71300
C  -12.20500 10.33700 41.95300
N  -8.54100 15.73200 43.17600
C  -8.39500 14.36900 43.22600
C  -7.01100 14.08300 43.38500
C  -6.36300 15.36600 43.33000
C  -7.34700 16.30000 43.24900
C  -6.40400 12.70800 43.47200
C  -5.09400 16.04500 43.45400
O  -3.93500 15.65900 43.69700
C  -5.38300 17.56200 43.20000
C  -4.87600 18.42400 44.35800
O  -5.48800 18.70600 45.44700
O  -3.66100 18.85800 44.01000
C  -2.96900 19.81200 44.84700
H  -11.18100 21.12400 42.46600
H  -14.56600 15.57600 43.01800
H  -9.27000 12.38400 43.18700
H  -6.59300 20.57900 43.50800
H  -8.76600 21.43500 41.63100
H  -7.75000 22.40500 43.97700
H  -9.26200 21.63100 44.65800
H  -9.36100 22.82800 43.32200
H  -6.93600 20.96100 40.71400
H  -6.33800 19.38000 40.95500
H  -4.90600 21.33700 42.54200
H  -4.88700 22.01500 40.91600
H  -14.71500 21.01800 41.45700
H  -13.29600 21.79200 41.93000
H  -14.39700 21.40500 43.25700
H  -17.49400 17.25400 41.73100
H  -16.56900 16.61500 43.10500
H  -15.87500 16.38300 41.51400
H  -13.93500 13.23300 42.62000
H  -11.69800 12.02800 43.83400
H  -14.85300 13.46300 44.72000
H  -13.37400 14.21100 45.32900
H  -13.63400 12.42600 45.20800
H  -11.01600 11.97600 41.18000
H  -12.88100 12.11600 41.23300
H  -11.97200 9.83100 42.89000
H  -11.81400 9.76700 41.11000
H  -13.29400 10.30800 41.91900
H  -5.53200 12.89700 44.09800
H  -6.09200 12.31300 42.50500
H  -7.06900 12.01000 43.98000
H  -5.00300 17.97400 42.26600
H  -3.52300 20.16800 45.71600
H  -2.74600 20.57700 44.10300
H  -2.03500 19.41400 45.24300

