158

Mg 25.33600 0.94500 29.61700
C  27.46100 0.98400 32.18600
C  22.69100 1.34000 31.69000
C  23.24700 0.57900 26.95100
C  28.10800 0.40400 27.40600
N  25.09800 1.01800 31.73200
C  26.12800 1.13100 32.59900
C  25.55600 1.44900 34.05100
C  24.04400 1.27600 33.86700
C  23.93300 1.21200 32.37400
C  23.47200 0.02800 34.57500
C  26.06400 2.80000 34.70800
C  26.81800 2.77000 36.11800
H  26.66700 3.74700 37.25300
N  23.25500 0.89100 29.37000
C  22.32300 1.16900 30.34500
C  20.96500 1.20200 29.83400
C  21.09100 0.98800 28.44400
C  22.61200 0.84900 28.14600
C  19.68700 1.14000 30.71300
C  20.01000 0.84200 27.37000
O  20.37900 0.60600 26.20700
C  18.54500 1.01300 27.72400
N  25.68800 0.43300 27.43600
C  24.63200 0.46400 26.56900
C  25.08900 0.63000 25.16700
C  26.63000 0.84200 25.24900
C  26.87400 0.56200 26.76800
C  24.72900 -0.56500 24.19900
C  27.11400 2.26800 24.74400
C  27.27100 3.40900 25.73600
N  27.39000 0.63100 29.70100
C  28.33000 0.34700 28.77100
C  29.60400 0.18600 29.41200
C  29.33200 0.46700 30.78000
C  27.94900 0.73600 30.90300
C  30.93200 -0.06400 28.77700
C  29.84000 0.57600 32.16100
O  30.98200 0.51900 32.57700
C  28.65300 1.01600 33.10200
C  28.58600 0.10000 34.32400
O  28.09200 -1.00500 34.32900
O  29.19400 0.62700 35.52500
C  29.31200 -0.24800 36.71800
H  21.81700 1.50900 32.32200
H  22.60600 0.70800 26.07700
H  28.99500 0.45100 26.77100
H  26.00100 0.69200 34.69700
H  23.44400 2.13800 34.15700
H  24.15000 -0.28800 35.36800
H  23.34900 -0.84900 33.94000
H  22.48700 0.24800 34.98600
H  25.16000 3.29300 35.06700
H  26.66500 3.31100 33.95700
H  27.88400 2.77200 35.89400
H  26.77900 1.80000 36.61200
H  19.82000 1.16800 31.79400
H  19.34200 0.12700 30.50300
H  18.94400 1.86100 30.37200
H  18.28900 0.12900 28.30700
H  17.94200 1.07400 26.81800
H  18.25000 1.88700 28.30600
H  24.68300 1.54500 24.73500
H  27.28000 0.13000 24.74100
H  24.27900 -0.02900 23.36300
H  24.08700 -1.36000 24.58000
H  25.61900 -1.04000 23.78500
H  26.38300 2.60200 24.00800
H  28.05000 2.09200 24.21300
H  28.28500 3.71100 25.47500
H  26.96700 3.10400 26.73800
H  26.61000 4.20800 25.40000
H  31.11700 0.15200 27.72500
H  31.24500 -1.09800 28.91900
H  31.64800 0.61700 29.23800
H  28.60700 2.05500 33.42800
H  29.29900 -1.30000 36.43300
H  28.57800 -0.13100 37.51500
H  30.29800 -0.02900 37.12900
Mg 39.82300 10.17100 30.42200
C  41.86800 11.34600 33.02600
C  37.77800 8.77000 32.80900
C  38.19100 8.65400 28.00700
C  42.34400 11.12500 28.16700
N  39.72900 10.16600 32.64500
C  40.65900 10.76100 33.45200
C  40.20400 10.60500 34.88800
C  39.02900 9.58100 34.86100
C  38.85200 9.49900 33.35100
C  39.32000 8.17000 35.54500
C  39.85200 11.95200 35.53300
C  40.49800 12.51700 36.76000
H  39.61700 12.64800 37.96800
N  38.14700 8.91100 30.40600
C  37.48600 8.48300 31.44400
C  36.36900 7.67200 30.96000
C  36.42400 7.57800 29.53900
C  37.60000 8.40300 29.25900
C  35.44700 7.05400 31.95300
C  35.52300 6.86000 28.55100
O  35.60000 6.96100 27.31200
C  34.38200 6.09800 29.07500
N  40.33500 9.79200 28.41400
C  39.40600 9.22100 27.59700
C  39.75800 9.26600 26.07700
C  41.21000 9.93800 26.17400
C  41.33900 10.34200 27.64500
C  39.73000 7.92600 25.26500
C  41.28100 11.10900 25.20000
C  41.12900 12.58600 25.76800
N  41.68300 11.10900 30.50000
C  42.52900 11.50900 29.51000
C  43.50300 12.33300 30.06300
C  43.29700 12.33900 31.44000
C  42.17500 11.50200 31.68700
C  44.69700 12.99800 29.46400
C  43.85600 12.76400 32.75100
O  44.84600 13.36600 32.95700
C  42.86800 12.12700 33.83400
C  43.59700 11.27500 34.88300
O  43.65200 10.06600 34.91300
O  44.07500 12.17000 35.81000
C  44.92000 11.63000 36.92300
H  37.20100 8.26200 33.58500
H  37.51900 8.24100 27.25100
H  43.04200 11.50400 27.41800
H  40.96500 10.21700 35.56500
H  38.11700 9.79500 35.41900
H  40.34400 7.93300 35.83400
H  38.88000 7.31800 35.02600
H  38.74700 8.31700 36.46000
H  38.81000 11.81700 35.82500
H  39.76400 12.76100 34.80900
H  40.86500 13.53000 36.59400
H  41.32300 11.86200 37.03800
H  34.52600 7.63700 31.93600
H  35.75800 6.85700 32.97900
H  35.17700 6.06200 31.59000
H  33.84300 5.77800 28.18400
H  33.83700 6.76900 29.73900
H  34.73300 5.23200 29.63700
H  39.06800 9.98100 25.62800
H  41.95100 9.15000 26.04000
H  39.75100 7.10300 25.98000
H  40.59800 7.75400 24.63000
H  38.85600 7.91600 24.61400
H  40.76100 10.97900 24.25100
H  42.30900 11.06800 24.83900
H  42.06900 13.12600 25.65300
H  40.66800 12.66200 26.75300
H  40.40000 13.12900 25.16700
H  44.84500 13.88800 30.07700
H  44.37000 13.29000 28.46600
H  45.65700 12.48200 29.46400
H  42.44800 12.98700 34.35700
H  44.30800 11.67100 37.82400
H  45.83900 12.19800 37.06900
H  45.17100 10.58600 36.73400

