158

Mg -10.92100 38.78100 41.75100
C  -9.21400 35.83500 40.63200
C  -8.20400 40.63100 40.73800
C  -12.80300 41.45100 42.06700
C  -13.64600 36.74800 42.57800
N  -9.06300 38.22600 40.50900
C  -8.50900 37.01700 40.26600
C  -7.18000 37.11200 39.58700
C  -6.74300 38.60600 39.87000
C  -8.08300 39.22500 40.45800
C  -5.58500 38.68500 40.87100
C  -7.17600 36.63700 38.11000
C  -6.21200 35.52100 37.69900
H  -5.01800 35.98200 36.77600
N  -10.54100 40.82900 41.40800
C  -9.35700 41.39000 41.00900
C  -9.44300 42.79000 40.95400
C  -10.82400 43.08600 41.28600
C  -11.46500 41.77700 41.61700
C  -8.30400 43.73600 40.35600
C  -11.43000 44.50500 41.19900
O  -10.64200 45.44400 40.91800
C  -12.83900 44.83800 41.60000
N  -13.00300 39.04200 42.00400
C  -13.38900 40.23400 42.39200
C  -14.81400 40.17300 43.03400
C  -15.13100 38.73500 43.06300
C  -13.82800 38.12600 42.52700
C  -14.80700 41.00800 44.34900
C  -16.38900 38.30000 42.28800
C  -17.70900 38.30000 43.05200
N  -11.44000 36.70600 41.61500
C  -12.51100 36.06800 42.10600
C  -12.24400 34.59700 42.06000
C  -11.01900 34.43900 41.53200
C  -10.51600 35.75400 41.20400
C  -13.24500 33.56300 42.46100
C  -10.01700 33.42100 41.06700
O  -9.91400 32.19300 41.01200
C  -8.77900 34.36700 40.53700
C  -7.53300 34.07900 41.32700
O  -6.74400 33.16700 41.06000
O  -7.25300 34.93300 42.30300
C  -5.92100 34.78600 42.96000
H  -7.22800 41.12100 40.72000
H  -13.46500 42.31900 42.09100
H  -14.52800 36.25100 42.98700
H  -6.53900 36.46100 40.18100
H  -6.39600 39.04800 38.93600
H  -4.66900 38.32400 40.40400
H  -5.87800 38.16300 41.78200
H  -5.44100 39.74300 41.09000
H  -7.07300 37.48400 37.43200
H  -8.21600 36.34600 37.96400
H  -6.81600 34.74200 37.23300
H  -5.72300 35.13300 38.59300
H  -7.43600 43.11900 40.12300
H  -7.98300 44.38700 41.16900
H  -8.61900 44.32100 39.49200
H  -13.55600 44.13400 41.17700
H  -13.03200 45.87000 41.30800
H  -12.84300 44.71900 42.68300
H  -15.56400 40.68700 42.43300
H  -15.37100 38.42900 44.08100
H  -15.35200 41.92800 44.13900
H  -13.82200 41.34000 44.67800
H  -15.38100 40.42100 45.06500
H  -16.26300 37.33700 41.79400
H  -16.42100 39.04600 41.49400
H  -18.29800 37.39700 42.89600
H  -18.31200 39.13700 42.70000
H  -17.59700 38.37900 44.13400
H  -13.81000 33.84800 43.34900
H  -12.75500 32.60400 42.62400
H  -13.79600 33.31600 41.55300
H  -8.54000 34.04900 39.52200
H  -5.43900 35.76200 43.02500
H  -5.16700 34.14500 42.50500
H  -6.09900 34.40300 43.96500
Mg -5.99100 25.25500 25.54300
C  -4.42300 26.37800 28.28800
C  -7.88500 23.18700 27.65600
C  -7.11400 23.43300 22.85000
C  -3.69000 26.80600 23.54600
N  -6.08400 24.83900 27.71000
C  -5.45600 25.50200 28.71300
C  -5.98500 25.24400 30.12000
C  -6.85300 23.98500 29.85700
C  -6.91000 23.95300 28.26600
C  -6.29500 22.70000 30.40100
C  -6.68200 26.49200 30.78800
C  -6.07800 26.88500 32.13300
H  -5.52100 25.74500 32.97900
N  -7.50000 23.74600 25.26000
C  -8.16700 23.11200 26.26900
C  -9.08800 22.16900 25.66400
C  -8.80900 22.14000 24.28200
C  -7.79800 23.12900 24.07700
C  -9.94900 21.29700 26.37500
C  -9.53100 21.23600 23.21700
O  -9.39000 21.46400 22.00800
C  -10.49100 20.14500 23.57800
N  -5.39800 25.07200 23.41800
C  -6.03800 24.24600 22.51800
C  -5.32500 24.37100 21.12100
C  -4.34600 25.62500 21.37100
C  -4.50000 25.92300 22.89500
C  -4.64400 23.13000 20.58600
C  -4.74800 26.92300 20.47500
C  -3.56200 27.42200 19.63900
N  -4.32400 26.41000 25.86500
C  -3.49400 27.06100 24.93100
C  -2.64300 27.93000 25.64600
C  -2.96700 27.65800 27.00600
C  -3.98900 26.72400 27.04900
C  -1.76300 28.94500 24.95200
C  -2.61100 27.95400 28.35100
O  -1.69400 28.61400 28.85500
C  -3.56300 27.11400 29.18200
C  -2.51500 26.31100 30.01900
O  -1.92400 25.33800 29.59200
O  -2.43600 26.76300 31.29000
C  -1.39400 26.05700 32.14600
H  -8.45900 22.55100 28.33300
H  -7.44100 23.06800 21.87400
H  -3.12500 27.44300 22.86200
H  -5.19200 24.90500 30.78700
H  -7.90200 24.04900 30.14400
H  -5.21900 22.79700 30.54400
H  -6.38700 21.93700 29.62700
H  -6.83900 22.40700 31.29900
H  -7.76300 26.35900 30.83800
H  -6.53800 27.30200 30.07300
H  -6.87100 27.32600 32.73600
H  -5.40900 27.74600 32.11900
H  -10.93100 21.24500 25.90300
H  -10.18800 21.73700 27.34300
H  -9.42400 20.35100 26.50400
H  -10.13400 19.50300 24.38300
H  -10.73200 19.51800 22.72000
H  -11.39400 20.62400 23.95800
H  -6.14500 24.62700 20.45100
H  -3.38000 25.24100 21.04200
H  -3.57600 23.26700 20.41800
H  -5.12000 22.90900 19.63100
H  -4.78800 22.25400 21.22000
H  -4.91600 27.77600 21.13300
H  -5.74700 26.80500 20.05600
H  -2.73200 26.71900 19.56700
H  -3.23000 28.29400 20.20200
H  -4.01900 27.61300 18.66800
H  -1.38000 28.60600 23.98900
H  -0.93000 29.10400 25.63700
H  -2.28600 29.89700 24.86500
H  -4.14900 27.73700 29.85900
H  -1.86200 25.65900 33.04700
H  -0.73100 26.87000 32.44000
H  -0.80300 25.25600 31.70200

