158

Mg -0.76500 7.43000 26.25300
C  -0.09200 9.50900 28.89300
C  -0.17900 4.75900 28.40900
C  -1.16200 5.51900 23.67600
C  -1.10700 10.34000 24.13500
N  -0.23700 7.16400 28.41500
C  -0.04600 8.18400 29.28000
C  0.24200 7.64900 30.72100
C  0.24300 6.09700 30.48900
C  0.03500 5.96400 28.97200
C  1.58500 5.39300 30.95900
C  -0.86900 8.12700 31.69600
C  -0.54800 8.07800 33.19800
H  0.54900 7.22000 33.88700
N  -0.70100 5.42500 26.06300
C  -0.40200 4.46500 26.98600
C  -0.29900 3.14900 26.35500
C  -0.58000 3.35900 24.94800
C  -0.85300 4.78900 24.84600
C  -0.01000 1.85100 27.20000
C  -0.53500 2.34600 23.76700
O  -0.95700 2.57800 22.64100
C  -0.16200 0.85000 23.97200
N  -1.11000 7.92000 24.23000
C  -1.22000 6.88900 23.36300
C  -1.44800 7.34500 21.97100
C  -1.87000 8.79500 22.20500
C  -1.28200 9.08900 23.55700
C  -0.13300 7.21500 21.10700
C  -3.46000 8.88600 22.14000
C  -3.92500 10.13600 21.33800
N  -0.62000 9.52700 26.40400
C  -0.70400 10.53400 25.48800
C  -0.42200 11.78500 26.10200
C  -0.16900 11.41400 27.48000
C  -0.31700 10.02600 27.55700
C  -0.46200 13.22100 25.61600
C  0.16900 12.03400 28.74700
O  0.47100 13.19700 29.02900
C  0.11500 10.79100 29.69700
C  1.26800 10.86000 30.58400
O  2.38200 10.88700 30.15200
O  0.90700 11.00900 31.87900
C  2.03900 11.04200 32.84200
H  0.02900 3.83500 28.95300
H  -1.42800 4.89000 22.82400
H  -1.14600 11.21800 23.48700
H  1.26900 7.95100 30.93000
H  -0.61700 5.63200 30.97200
H  2.23000 6.04800 31.54400
H  2.14700 5.06000 30.08700
H  1.26600 4.55600 31.58000
H  -1.58700 7.32000 31.55100
H  -1.32300 9.05600 31.34900
H  -1.48400 7.63100 33.53500
H  -0.57800 9.12000 33.51700
H  0.79700 1.96100 27.92500
H  0.28400 1.03600 26.53900
H  -0.93400 1.53900 27.68700
H  0.89000 0.85000 24.25900
H  -0.30400 0.43600 22.97300
H  -0.87500 0.40200 24.66300
H  -2.27500 6.81200 21.50100
H  -1.32100 9.47000 21.54900
H  -0.39100 6.37600 20.46000
H  0.79100 6.92800 21.60800
H  -0.03200 8.14500 20.54800
H  -3.85500 9.04800 23.14200
H  -4.02800 8.05000 21.73100
H  -3.24400 10.64400 20.65600
H  -4.23600 10.95900 21.98100
H  -4.84300 9.78200 20.86900
H  -0.75300 13.96600 26.35800
H  -1.16500 13.23400 24.78400
H  0.46400 13.58700 25.17200
H  -0.69200 10.86600 30.42500
H  2.64900 11.93500 32.70300
H  2.75300 10.23000 32.70000
H  1.75800 11.04400 33.89500
Mg 16.23200 -1.62000 26.80100
C  15.06700 0.19600 29.65600
C  18.18500 -3.48600 28.97500
C  17.46900 -3.14000 24.17000
C  14.43400 0.65600 24.73500
N  16.78400 -1.47200 29.00100
C  16.08800 -0.73400 29.97100
C  16.57300 -1.12700 31.39100
C  17.72800 -2.15400 31.09500
C  17.54900 -2.38900 29.56600
C  19.22000 -1.76500 31.43200
C  15.41500 -1.69000 32.27100
C  15.10700 -0.99800 33.60900
H  16.23300 -0.24100 34.33600
N  17.61400 -3.04400 26.61900
C  18.19400 -3.84200 27.62700
C  18.97700 -4.87900 27.05500
C  18.84200 -4.74100 25.63900
C  17.94000 -3.67300 25.41300
C  19.74400 -5.96000 27.82700
C  19.36600 -5.69800 24.57900
O  19.03000 -5.56500 23.41100
C  20.15500 -6.95100 24.93100
N  16.02700 -1.20000 24.57900
C  16.58900 -2.04900 23.76900
C  16.06600 -1.69100 22.38700
C  14.97700 -0.53700 22.50200
C  15.16400 -0.33000 24.05900
C  17.19500 -1.35400 21.45700
C  13.56800 -0.89800 22.10800
C  12.83700 0.09600 21.25000
N  15.00900 0.06300 27.06400
C  14.28300 0.82000 26.12100
C  13.52600 1.79300 26.85600
C  13.65700 1.54400 28.26100
C  14.68100 0.53000 28.34400
C  12.61000 2.81500 26.21400
C  13.21200 1.96500 29.62100
O  12.40900 2.83000 29.93800
C  14.10600 1.04900 30.59400
C  14.92300 2.10900 31.34100
O  15.95800 2.63600 30.94900
O  14.31200 2.31200 32.53700
C  14.79500 3.50000 33.32000
H  18.72500 -4.08800 29.70900
H  17.80100 -3.49700 23.19300
H  13.79400 1.29900 24.12800
H  16.88100 -0.21800 31.90800
H  17.56400 -3.10000 31.61100
H  19.72900 -2.45000 32.10900
H  19.25100 -0.87600 32.06300
H  19.78100 -1.64900 30.50500
H  15.58700 -2.75000 32.45700
H  14.50600 -1.65100 31.67200
H  14.81500 -1.82600 34.25500
H  14.35200 -0.22800 33.45300
H  20.75500 -6.23700 27.53200
H  19.22700 -6.90400 27.65600
H  19.66700 -5.60100 28.85300
H  20.45900 -7.46800 24.02100
H  19.47400 -7.66400 25.39800
H  21.10100 -6.69100 25.40600
H  15.64100 -2.59100 21.94200
H  15.33900 0.33200 21.95500
H  17.32100 -0.30300 21.19500
H  17.23200 -1.99600 20.57700
H  18.14900 -1.55100 21.94600
H  13.15800 -0.77200 23.11000
H  13.44700 -1.88400 21.66100
H  13.55300 0.60700 20.60500
H  12.34200 0.72200 21.99200
H  12.08600 -0.45600 20.68500
H  12.37400 3.59600 26.93500
H  11.68100 2.41700 25.80700
H  13.12100 3.28500 25.37400
H  13.48100 0.58100 31.35500
H  14.48800 4.49300 32.99400
H  15.88300 3.43800 33.34400
H  14.58300 3.32600 34.37500

