158

Mg 2.10400 -1.69500 44.24100
C  5.33400 -0.81200 43.30200
C  0.98400 0.83100 42.35100
C  -0.84700 -3.04100 44.68700
C  3.55300 -4.86500 45.45700
N  3.10400 -0.20400 42.99600
C  4.37600 -0.06900 42.66100
C  4.53900 0.96700 41.59100
C  3.21200 1.77100 41.56300
C  2.33700 0.69000 42.29400
C  3.30200 3.14600 42.41100
C  5.04500 0.31200 40.19600
C  6.35100 0.90500 39.57600
H  6.18400 1.68300 38.24700
N  0.29800 -1.09500 43.70600
C  0.00900 -0.05200 42.93600
C  -1.43900 0.10600 42.79900
C  -1.97300 -0.94100 43.53300
C  -0.84300 -1.76900 44.00600
C  -2.09200 1.26500 42.00400
C  -3.49400 -1.23500 43.73600
O  -4.38300 -0.42200 43.47200
C  -3.93900 -2.49400 44.40400
N  1.44700 -3.69800 45.10100
C  0.14400 -4.00000 45.11500
C  -0.19300 -5.40700 45.55200
C  1.23100 -5.97800 45.69200
C  2.19100 -4.79100 45.37000
C  -1.03000 -5.41300 46.78700
C  1.43000 -7.18400 44.78100
C  1.92200 -8.49900 45.37200
N  3.92400 -2.67500 44.42800
C  4.37300 -3.85400 45.05600
C  5.82500 -3.82300 45.17900
C  6.18300 -2.66100 44.45800
C  5.03900 -1.98900 44.08000
C  6.58600 -4.88900 45.86200
C  7.38600 -1.92000 44.00200
O  8.58300 -2.21300 44.10800
C  6.85300 -0.70900 43.20100
C  7.43900 0.50100 43.84500
O  8.20400 1.22300 43.27000
O  7.03600 0.62900 45.14100
C  7.35000 1.92700 45.76200
H  0.44400 1.60500 41.80200
H  -1.81900 -3.32600 45.09500
H  3.99300 -5.75800 45.90700
H  5.30000 1.60500 42.04200
H  2.93000 2.01700 40.53900
H  4.08800 3.07800 43.16400
H  2.39400 3.45800 42.92700
H  3.63700 4.02300 41.85700
H  4.28200 0.37800 39.42100
H  5.17500 -0.75300 40.39100
H  6.97000 0.04500 39.31800
H  6.93400 1.41700 40.34100
H  -1.46000 1.70000 41.23000
H  -2.41500 2.03300 42.70700
H  -3.05500 0.95700 41.59800
H  -5.02400 -2.51700 44.30700
H  -3.67000 -2.62600 45.45200
H  -3.39200 -3.34400 43.99600
H  -0.79100 -5.75000 44.70800
H  1.36600 -6.40200 46.68700
H  -0.67400 -4.62400 47.44900
H  -0.80300 -6.38400 47.22700
H  -2.07500 -5.21300 46.54900
H  2.16500 -6.97900 44.00300
H  0.47300 -7.28000 44.26800
H  1.03900 -9.06000 45.68000
H  2.54300 -8.37400 46.25900
H  2.38200 -9.10600 44.59300
H  6.75600 -5.87000 45.41800
H  6.00000 -5.12500 46.75000
H  7.57000 -4.53600 46.16900
H  7.21600 -0.85300 42.18300
H  8.40500 2.08000 45.53700
H  7.09000 2.04500 46.81400
H  6.71800 2.69200 45.31100
Mg 16.87000 51.86300 25.08700
C  18.61700 50.50100 27.80000
C  14.28900 52.72800 27.14100
C  15.15800 52.84300 22.31400
C  19.35600 50.42000 22.95100
N  16.54900 51.62500 27.20400
C  17.44800 51.13900 28.14900
C  16.90700 51.49000 29.60500
C  15.43100 51.92100 29.35000
C  15.43300 52.17100 27.82000
C  14.34900 50.87100 29.63600
C  17.73400 52.60500 30.27900
C  17.42800 52.85400 31.83200
H  16.41000 52.06400 32.52700
N  14.89500 52.69900 24.77200
C  14.04800 53.00300 25.78600
C  12.91200 53.65700 25.22100
C  13.05800 53.64600 23.74900
C  14.48300 53.08400 23.53800
C  11.70500 54.10100 26.08300
C  12.15200 54.22000 22.70700
O  12.34700 54.21700 21.48300
C  10.79600 54.86100 23.21000
N  17.18800 51.65400 22.97900
C  16.35500 52.25400 22.07100
C  16.86900 52.19800 20.57900
C  18.27400 51.33400 20.82400
C  18.32800 51.11800 22.32500
C  15.92200 51.36900 19.67800
C  19.63200 51.97400 20.38500
C  19.73400 52.30600 18.92500
N  18.65400 50.75400 25.28200
C  19.48400 50.20800 24.34000
C  20.58300 49.55400 25.00900
C  20.24300 49.60100 26.35200
C  19.02500 50.32700 26.44200
C  21.82800 48.91600 24.38900
C  20.64600 49.27500 27.64900
O  21.59300 48.60800 28.03700
C  19.71900 49.96400 28.63800
C  19.28500 48.97100 29.62700
O  18.38900 48.16000 29.55800
O  20.00100 49.24700 30.78500
C  19.65600 48.60700 32.06000
H  13.44600 53.01300 27.77300
H  14.72200 53.34300 21.44700
H  20.19200 49.99900 22.38900
H  16.98800 50.57100 30.18600
H  15.23500 52.84200 29.90000
H  13.35700 51.27200 29.84200
H  14.60300 50.21000 30.46500
H  14.24800 50.19900 28.78400
H  17.59000 53.51800 29.70100
H  18.78400 52.31800 30.22500
H  17.24400 53.92400 31.93200
H  18.39600 52.55500 32.23300
H  11.39400 55.14200 25.99600
H  11.99500 54.03700 27.13200
H  10.84700 53.43700 25.97100
H  10.27200 54.20100 23.90100
H  10.29400 54.98300 22.25000
H  10.94300 55.79700 23.74800
H  17.07300 53.16800 20.12700
H  18.18500 50.38300 20.29800
H  15.92300 50.33400 20.02100
H  16.28300 51.37300 18.64900
H  14.90100 51.74100 19.76300
H  20.48000 51.31700 20.58100
H  19.68700 52.96400 20.83700
H  20.00400 53.35600 18.80700
H  18.87700 52.00900 18.32100
H  20.58900 51.71400 18.60100
H  22.62900 49.64700 24.27700
H  21.66300 48.46000 23.41300
H  22.17600 48.11300 25.03800
H  20.23800 50.83100 29.04700
H  19.75800 47.53200 31.91500
H  18.65800 48.84000 32.43300
H  20.31400 48.76400 32.91500

