158

Mg 45.01900 4.59800 47.83600
C  42.58000 6.96000 47.21800
C  42.80800 2.13600 47.25900
C  47.54900 2.34200 47.66100
C  47.39100 7.18500 48.05000
N  42.93700 4.61400 47.26800
C  42.13200 5.63100 47.01200
C  40.84100 5.17300 46.31300
C  40.84200 3.65000 46.59100
C  42.29400 3.43900 47.08700
C  39.83400 3.04300 47.54000
C  40.62600 5.50500 44.81900
C  39.43900 6.43400 44.53300
H  39.79500 7.49400 43.50000
N  45.14100 2.45700 47.74700
C  44.09700 1.68200 47.53600
C  44.60300 0.30800 47.44000
C  46.03700 0.34100 47.47600
C  46.30200 1.76500 47.67900
C  43.78700 -0.94800 47.26300
C  46.99900 -0.79300 47.52700
O  46.66600 -1.94200 47.31200
C  48.51900 -0.58600 47.90100
N  47.17300 4.70000 47.82300
C  47.99100 3.70400 47.65700
C  49.51000 4.18200 47.57100
C  49.39500 5.67500 47.86100
C  47.91100 5.88800 47.84300
C  50.36500 3.41800 48.66800
C  50.16900 6.67700 46.88300
C  50.90700 7.79100 47.64000
N  44.99900 6.70300 47.78400
C  46.02300 7.57300 47.95800
C  45.47400 8.89600 47.72000
C  44.09500 8.70400 47.47200
C  43.89200 7.40400 47.52900
C  46.23000 10.18800 47.51800
C  42.87000 9.36600 47.11200
O  42.61100 10.54100 46.93500
C  41.71900 8.28200 47.02300
C  40.90100 8.52000 48.29000
O  41.04200 7.97700 49.40100
O  40.02700 9.51600 48.02000
C  39.08700 9.81400 49.03800
H  42.17200 1.30000 46.96300
H  48.50700 1.83500 47.52600
H  48.16700 7.94400 48.17300
H  39.98100 5.64300 46.79000
H  40.85500 3.03400 45.69200
H  39.62200 2.06700 47.10200
H  39.00000 3.70900 47.76100
H  40.33400 2.97100 48.50600
H  40.51300 4.58700 44.24200
H  41.52300 6.03200 44.49500
H  39.16700 7.10600 45.34700
H  38.58100 5.84700 44.20700
H  43.91800 -1.39000 46.27600
H  42.73000 -0.75200 47.44200
H  44.21300 -1.59000 48.03400
H  49.00600 -1.56100 47.91700
H  48.48500 -0.05900 48.85500
H  48.98600 0.00400 47.11300
H  49.95200 4.04900 46.58400
H  49.64900 5.79800 48.91300
H  51.42300 3.52600 48.43200
H  50.06700 2.37100 48.73100
H  50.10200 3.73500 49.67700
H  49.39800 7.22800 46.34400
H  50.87900 6.24100 46.18000
H  50.77500 8.82300 47.31600
H  51.94300 7.58700 47.36800
H  50.87600 7.62500 48.71700
H  46.56500 10.66900 48.43600
H  45.48700 10.88300 47.12600
H  47.13300 10.18000 46.90800
H  41.13500 8.50900 46.13100
H  38.37500 10.41200 48.46900
H  39.55900 10.33600 49.87100
H  38.68200 8.85100 49.34800
Mg 17.89500 52.00900 24.71400
C  19.62800 50.78000 27.56900
C  15.14400 52.59800 26.85400
C  16.21500 52.98100 22.06400
C  20.51700 50.99300 22.73300
N  17.51900 51.72500 26.93500
C  18.34000 51.22800 27.94500
C  17.78600 51.55400 29.30700
C  16.32700 52.03500 29.08500
C  16.32800 52.18300 27.56100
C  15.33600 50.98100 29.77100
C  18.60200 52.74100 29.98200
C  19.04900 52.49200 31.38700
H  18.00400 51.95100 32.41800
N  15.93800 52.76900 24.48300
C  14.96100 52.94300 25.51300
C  13.84500 53.62600 24.84500
C  14.12800 53.74500 23.44400
C  15.50100 53.23400 23.28900
C  12.66600 53.98900 25.72700
C  13.26900 54.28500 22.32800
O  13.60200 54.27700 21.12500
C  12.03700 55.04000 22.62400
N  18.28300 51.90100 22.68600
C  17.44800 52.39100 21.80000
C  18.08700 52.38200 20.39400
C  19.36500 51.58900 20.56000
C  19.41800 51.44400 22.06000
C  17.17000 51.85300 19.26300
C  20.68900 52.19700 19.96500
C  21.35200 51.45900 18.78700
N  19.67900 51.07100 24.99000
C  20.68000 50.79900 24.08700
C  21.78700 50.12800 24.80700
C  21.40000 50.14500 26.14000
C  20.10200 50.66400 26.20700
C  23.13200 49.55600 24.20200
C  21.87700 49.73200 27.51200
O  22.88500 49.16800 27.99200
C  20.71900 50.22500 28.45100
C  20.23200 49.09500 29.38100
O  19.63900 48.09500 29.03500
O  20.49100 49.40700 30.69800
C  20.00800 48.38600 31.59000
H  14.42500 52.96000 27.59200
H  15.66500 53.28500 21.17100
H  21.27300 50.68100 22.01000
H  17.84200 50.66500 29.93500
H  16.17000 53.03600 29.48900
H  14.46400 51.10600 29.12800
H  15.39000 51.29000 30.81500
H  15.83700 50.02000 29.65800
H  18.07500 53.69400 30.00600
H  19.50800 52.85500 29.38700
H  19.47700 53.45000 31.68100
H  19.79000 51.69500 31.33900
H  12.08200 54.84900 25.39800
H  12.85200 54.06700 26.79800
H  11.94000 53.18500 25.60100
H  11.56700 55.46600 21.73800
H  12.19900 55.93300 23.22900
H  11.26800 54.39300 23.04400
H  18.26200 53.45600 20.33300
H  19.20700 50.55800 20.24000
H  17.10100 52.70200 18.58200
H  16.15800 51.55400 19.53500
H  17.58700 51.08400 18.61200
H  21.44000 52.29300 20.74900
H  20.46400 53.22900 19.69700
H  21.61300 52.22000 18.05200
H  20.58600 50.85000 18.30600
H  22.23200 50.84900 18.99200
H  23.28400 49.98700 23.21200
H  23.06800 48.46800 24.18500
H  24.03100 49.76700 24.78100
H  21.11200 50.99100 29.12000
H  20.52900 47.43500 31.48400
H  18.95100 48.23200 31.37100
H  20.31100 48.67600 32.59600

