158

Mg 47.29400 45.25400 41.75000
C  43.98500 44.02600 42.39600
C  48.26400 41.98400 41.49000
C  50.20300 46.40600 40.40200
C  45.86500 48.45700 41.69600
N  46.20900 43.25800 41.72800
C  44.88600 42.99300 42.05500
C  44.54400 41.50700 42.16800
C  46.01200 40.92800 42.25700
C  46.91400 42.11100 41.88100
C  46.48600 40.44500 43.63000
C  43.69200 40.94000 41.04900
C  43.39600 41.83400 39.76900
H  43.47500 41.19500 38.36300
N  48.98600 44.31300 41.10600
C  49.22100 42.94300 41.11800
C  50.59900 42.74600 40.72000
C  51.07600 44.03900 40.27800
C  50.03800 44.99000 40.53100
C  51.30000 41.48500 40.61600
C  52.38200 44.18700 39.50100
O  53.16500 43.29500 39.29300
C  52.70600 45.55100 38.78500
N  47.94900 47.12100 41.12900
C  49.28900 47.37900 40.71800
C  49.52400 48.92500 40.77300
C  48.11400 49.44900 41.38100
C  47.20200 48.29100 41.27800
C  50.70200 49.25900 41.66200
C  47.80400 50.88100 40.89600
C  47.28200 51.77200 42.02400
N  45.32800 46.13600 41.96800
C  44.97100 47.49600 41.94100
C  43.57100 47.62800 42.35700
C  43.10300 46.24900 42.53000
C  44.19700 45.42500 42.28800
C  42.83100 48.89200 42.45500
C  41.97100 45.42900 42.84200
O  40.81700 45.70900 43.04000
C  42.54700 43.94800 42.82800
C  42.47700 43.53100 44.22000
O  42.80800 44.22400 45.18500
O  41.98900 42.25200 44.15700
C  41.93100 41.60500 45.52400
H  48.54400 40.93100 41.55900
H  51.17300 46.81800 40.11600
H  45.49600 49.46200 41.90800
H  43.99300 41.53700 43.10800
H  46.17900 40.13900 41.52300
H  46.69700 41.23600 44.35000
H  47.36100 39.80500 43.52400
H  45.67000 39.85700 44.05100
H  42.77400 40.50100 41.43900
H  44.29300 40.07200 40.77900
H  43.97100 42.75200 39.88900
H  42.35800 42.16800 39.78500
H  51.29700 41.05500 39.61400
H  50.74300 40.68800 41.10800
H  52.24500 41.32800 41.13700
H  52.03900 46.11900 38.13700
H  53.48600 45.09600 38.17500
H  53.16600 46.17200 39.55400
H  49.67300 49.31600 39.76700
H  48.30400 49.58000 42.44600
H  51.55300 48.83700 41.12800
H  50.59200 48.69500 42.58900
H  50.72200 50.30600 41.96300
H  47.22700 50.96100 39.97500
H  48.77900 51.27100 40.60500
H  48.02700 52.56700 42.02200
H  47.31300 51.44900 43.06400
H  46.26000 52.13500 41.91200
H  43.34500 49.69300 42.98600
H  41.88500 48.66600 42.94600
H  42.64000 49.22600 41.43500
H  41.89000 43.33700 42.20900
H  41.81600 40.54600 45.29500
H  41.21700 42.03600 46.22600
H  42.90100 41.70200 46.01200
Mg 15.84400 51.77100 25.23400
C  17.36900 50.71000 28.16000
C  13.06100 52.74600 27.14200
C  14.35200 52.49900 22.47800
C  18.52700 50.33900 23.38800
N  15.28900 51.74100 27.44900
C  16.21700 51.46400 28.43800
C  15.65200 51.81400 29.84500
C  14.18500 52.34400 29.50500
C  14.09800 52.27500 27.94700
C  13.04100 51.67000 30.33800
C  16.66000 52.65100 30.63700
C  16.95300 52.22600 32.05300
H  15.93200 51.44300 32.81900
N  13.99500 52.54900 24.88500
C  12.99300 52.87100 25.79900
C  11.84900 53.49700 25.05000
C  12.27800 53.53800 23.63100
C  13.60900 52.84400 23.61400
C  10.69200 54.20700 25.74300
C  11.57400 54.03100 22.48800
O  11.93900 53.93700 21.30500
C  10.30100 54.79000 22.69200
N  16.41200 51.59100 23.18100
C  15.56300 51.96500 22.22800
C  16.09400 51.58800 20.82400
C  17.47600 50.87100 21.14000
C  17.46700 50.93400 22.65100
C  15.03000 50.73000 20.05500
C  18.66400 51.63800 20.43200
C  18.41200 52.16800 19.04800
N  17.57000 50.68700 25.63100
C  18.56900 50.19200 24.78000
C  19.52800 49.41500 25.65400
C  19.05900 49.63700 26.93900
C  17.84100 50.41500 26.87400
C  20.63100 48.60800 25.17900
C  19.51100 49.51200 28.36500
O  20.57100 49.10400 28.85500
C  18.41400 50.20400 29.23200
C  18.01000 49.13100 30.21900
O  17.02600 48.42500 30.10300
O  18.78600 49.22200 31.38400
C  18.46800 48.34000 32.54800
H  12.28300 53.22500 27.73900
H  13.97200 52.85300 21.51700
H  19.32400 49.83500 22.83600
H  15.49900 50.81800 30.26100
H  14.13200 53.37400 29.85800
H  12.23300 51.29800 29.70700
H  12.64700 52.35600 31.08700
H  13.36000 50.78900 30.89500
H  16.23100 53.64900 30.72600
H  17.55400 52.76500 30.02300
H  17.12700 53.17000 32.57000
H  17.83800 51.59600 31.95800
H  10.63700 53.93400 26.79700
H  9.71700 53.97200 25.31600
H  10.75700 55.29300 25.81200
H  9.93600 55.05600 21.70000
H  10.56300 55.68400 23.25700
H  9.53900 54.20800 23.21100
H  16.06700 52.51600 20.25400
H  17.47300 49.80400 20.91800
H  15.48100 49.97000 19.41700
H  14.28400 51.36500 19.57600
H  14.45000 50.12700 20.75300
H  19.54700 51.00000 20.47200
H  18.81000 52.52100 21.05400
H  19.30100 51.99500 18.44200
H  18.27500 53.22800 19.26100
H  17.56700 51.85400 18.43500
H  20.29600 48.13600 24.25600
H  20.82900 47.78800 25.86900
H  21.46200 49.30100 25.04600
H  18.90200 50.97600 29.82700
H  19.29000 47.64300 32.71200
H  17.57300 47.74800 32.36000
H  18.30200 49.00100 33.39800

