158

Mg 8.32100 3.45600 27.65800
C  9.56800 1.86100 30.45300
C  6.14700 5.32200 29.62700
C  7.15100 4.82700 24.83000
C  9.96400 0.98400 25.65000
N  7.88100 3.54600 29.78200
C  8.58100 2.88000 30.77800
C  8.10300 3.25900 32.12000
C  6.96100 4.28600 31.85200
C  7.00200 4.48100 30.34700
C  5.56300 3.94100 32.40200
C  9.19700 3.86200 32.98200
C  8.72300 4.47400 34.34400
H  9.61200 4.17800 35.54000
N  6.85100 4.86000 27.25400
C  6.03800 5.52100 28.19000
C  5.18600 6.46100 27.53800
C  5.56600 6.42300 26.11800
C  6.60200 5.35800 25.99800
C  4.31500 7.45800 28.38900
C  5.08500 7.22700 24.92400
O  5.64000 7.18800 23.81100
C  4.04000 8.32900 25.17900
N  8.70100 3.12600 25.54600
C  8.06600 3.84000 24.58600
C  8.47100 3.38900 23.15600
C  9.11200 1.98700 23.42800
C  9.33100 2.00600 24.99100
C  7.30000 3.26600 22.07400
C  10.46100 1.75500 22.56000
C  10.54400 0.56600 21.59100
N  9.43600 1.68100 27.92600
C  10.13900 0.89800 27.03500
C  10.84500 -0.07000 27.83000
C  10.78800 0.39300 29.13700
C  9.83400 1.44100 29.18800
C  11.54900 -1.23100 27.32300
C  11.24600 0.05400 30.43600
O  12.02600 -0.84300 30.86500
C  10.42500 1.04100 31.35900
C  9.65100 0.32100 32.34800
O  8.55700 -0.18200 32.21900
O  10.29500 0.40800 33.58200
C  9.65000 -0.33800 34.73700
H  5.45300 5.86800 30.27000
H  6.64000 5.33000 24.00700
H  10.28000 0.21200 24.94500
H  7.72000 2.38000 32.63800
H  7.20800 5.25600 32.28300
H  5.22400 4.75000 33.05000
H  5.55600 3.04900 33.02800
H  4.74300 3.79300 31.70000
H  9.65800 4.69000 32.44300
H  9.92900 3.13400 33.33000
H  7.82200 3.95400 34.66800
H  8.55900 5.54200 34.19900
H  3.37500 7.60500 27.85800
H  4.76900 8.44800 28.41700
H  3.93400 6.98900 29.29600
H  4.49200 9.15400 25.73000
H  3.19100 7.99500 25.77500
H  3.63800 8.48300 24.17800
H  9.24700 4.02700 22.73500
H  8.46200 1.12800 23.26300
H  6.29700 3.62500 22.30400
H  7.32900 2.25900 21.65900
H  7.64000 3.95900 21.30500
H  11.18800 1.72600 23.37100
H  10.76400 2.64200 22.00400
H  10.88300 0.87200 20.60100
H  9.63600 -0.03200 21.52200
H  11.33900 -0.13900 21.83400
H  12.16600 -0.93600 26.47400
H  10.80200 -1.97700 27.05100
H  12.12200 -1.58900 28.17800
H  11.09500 1.72800 31.87500
H  9.13000 -1.26500 34.49600
H  8.88400 0.28100 35.20500
H  10.30300 -0.53500 35.58700
Mg 40.88400 9.13300 29.41800
C  42.49600 10.42700 32.17100
C  38.52200 7.80900 31.50800
C  39.30000 7.86700 26.63600
C  43.48000 10.24000 27.49900
N  40.60300 9.04200 31.56100
C  41.27600 9.80500 32.54500
C  40.50400 9.90700 33.92100
C  39.33300 8.87300 33.69200
C  39.43000 8.51500 32.23800
C  39.21200 7.50900 34.53800
C  40.13700 11.35100 34.30600
C  39.29800 11.39700 35.61700
H  39.82100 12.06500 36.80900
N  39.15700 7.92100 29.12900
C  38.34500 7.50000 30.11400
C  37.21500 6.85600 29.50000
C  37.23200 7.11300 28.10600
C  38.61200 7.66900 27.89900
C  36.12300 6.27300 30.30600
C  36.23800 7.01100 27.03700
O  36.44600 7.32000 25.89500
C  34.82500 6.44900 27.39600
N  41.28700 9.08400 27.48100
C  40.54400 8.48100 26.52600
C  41.10800 8.59400 25.08800
C  42.29100 9.59900 25.31700
C  42.37400 9.63400 26.84300
C  41.41900 7.33300 24.41300
C  42.25000 11.01700 24.77800
C  40.94900 11.85100 24.93700
N  42.68900 10.08700 29.66600
C  43.66100 10.49800 28.84300
C  44.67400 11.28600 29.49600
C  44.26100 11.26000 30.81000
C  43.08800 10.49900 30.88000
C  45.88900 11.80000 28.88000
C  44.62500 11.65000 32.14600
O  45.53000 12.37800 32.55800
C  43.52000 11.12300 33.10900
C  44.08900 10.25700 34.15000
O  44.87500 9.35900 33.92200
O  43.90700 10.86500 35.38400
C  44.30600 10.11700 36.55200
H  37.69400 7.48200 32.14000
H  38.87100 7.36300 25.76800
H  44.27300 10.62400 26.85400
H  41.11800 9.39800 34.66300
H  38.33600 9.28000 33.86000
H  39.31900 6.52000 34.09200
H  38.17900 7.50300 34.88800
H  39.90000 7.57500 35.38100
H  39.69200 11.91200 33.48400
H  41.08000 11.85400 34.52100
H  39.22300 10.36100 35.94600
H  38.25500 11.58500 35.36000
H  36.00600 5.21900 30.05600
H  35.14500 6.74200 30.20300
H  36.37900 6.22800 31.36500
H  34.78400 5.47600 27.88400
H  34.31300 6.32800 26.44100
H  34.39200 7.21700 28.03700
H  40.31800 9.02500 24.47300
H  43.17900 9.17400 24.85000
H  41.18400 6.48700 25.05900
H  42.44600 7.04200 24.19200
H  40.78300 7.14900 23.54700
H  42.43600 10.94600 23.70600
H  43.08500 11.59300 25.17800
H  40.27000 11.67600 24.10200
H  41.21800 12.90100 25.04900
H  40.40300 11.67700 25.86400
H  45.98000 11.70800 27.79800
H  46.71600 11.25200 29.33200
H  46.04700 12.86000 29.07900
H  43.09000 12.00200 33.59000
H  45.23100 10.43300 37.03500
H  44.27700 9.05800 36.29500
H  43.50000 10.43500 37.21400

