158

Mg 35.17500 48.21800 26.40000
C  35.55800 46.20600 29.08200
C  34.12400 50.70000 28.51400
C  34.62700 50.22400 23.64600
C  36.33000 45.68700 24.33500
N  34.91900 48.38300 28.57800
C  35.20200 47.46600 29.46100
C  35.21700 47.96800 30.86600
C  34.32000 49.31700 30.69800
C  34.51900 49.54500 29.16700
C  32.85800 49.12200 31.06900
C  36.72100 48.17500 31.32300
C  37.05500 47.70100 32.80800
H  36.73300 48.68100 33.96500
N  34.38900 50.17200 26.16400
C  34.02200 51.03400 27.09300
C  33.46700 52.16900 26.57400
C  33.83100 52.15000 25.17900
C  34.34300 50.79100 24.92700
C  32.71300 53.21100 27.31600
C  33.64900 53.27800 24.16000
O  33.97900 53.22200 22.94300
C  33.11800 54.59600 24.62800
N  35.37000 47.97600 24.32600
C  35.02500 48.91800 23.40900
C  35.25000 48.35200 22.03500
C  36.27900 47.12100 22.28300
C  35.80500 46.86100 23.72600
C  33.99900 48.06900 21.22400
C  37.77900 47.42900 22.02800
C  38.59500 46.69500 20.91600
N  35.82600 46.22600 26.60900
C  36.38300 45.36200 25.72400
C  36.70400 44.17500 26.37600
C  36.38800 44.39400 27.73700
C  35.86300 45.68300 27.78400
C  37.17800 42.89500 25.69700
C  36.42300 43.88500 29.09300
O  36.87300 42.82100 29.50100
C  36.04800 45.04200 30.02600
C  35.00600 44.58600 30.93300
O  33.84400 44.32400 30.67200
O  35.57000 44.46100 32.13700
C  34.61400 44.29200 33.25900
H  33.82900 51.50600 29.18900
H  34.55700 50.79700 22.72000
H  36.63800 44.91700 23.62600
H  34.92200 47.29000 31.66700
H  34.66600 50.25200 31.13800
H  32.27200 49.36600 30.18300
H  32.67100 49.86600 31.84400
H  32.65100 48.11200 31.42100
H  37.05800 49.21200 31.31500
H  37.42100 47.62500 30.69400
H  38.12500 47.49800 32.85900
H  36.48000 46.78700 32.95600
H  31.86900 53.48200 26.68300
H  33.27700 54.11000 27.56600
H  32.27200 52.92200 28.27100
H  32.09400 54.39400 24.94300
H  33.19300 55.30400 23.80300
H  33.65700 55.02400 25.47300
H  35.80600 49.01700 21.37400
H  35.91700 46.28900 21.67800
H  33.08000 48.47700 21.64500
H  33.89200 46.98800 21.14500
H  34.19800 48.55400 20.26800
H  38.42500 47.31700 22.89900
H  37.97900 48.49000 21.87700
H  38.85200 47.51000 20.23900
H  37.97900 45.98300 20.36800
H  39.48800 46.17300 21.26200
H  36.52200 42.11800 25.30400
H  37.95800 42.46000 26.32200
H  37.55100 43.23700 24.73100
H  36.98500 45.27700 30.53000
H  34.63300 45.15600 33.92400
H  34.90200 43.39200 33.80400
H  33.59100 44.17600 32.90300
Mg -4.89400 25.57400 26.29800
C  -4.23900 27.20600 29.34700
C  -6.56300 23.15800 28.07800
C  -5.88300 24.29200 23.42200
C  -3.01100 27.95000 24.69700
N  -5.22900 25.17500 28.51400
C  -5.00800 26.03300 29.54300
C  -5.62500 25.62200 30.83600
C  -6.19600 24.21200 30.43900
C  -5.91000 24.04900 28.93200
C  -5.63400 22.93500 31.20200
C  -6.72200 26.64800 31.38500
C  -6.83600 26.72900 32.92400
H  -6.09400 25.68700 33.77900
N  -5.97000 23.96500 25.86100
C  -6.59700 23.06200 26.69300
C  -7.45000 22.14500 26.00400
C  -7.39200 22.53600 24.62700
C  -6.45100 23.62500 24.52700
C  -8.26500 21.10600 26.70900
C  -8.14000 21.91200 23.57700
O  -8.06500 22.35400 22.45500
C  -8.89700 20.67300 23.72700
N  -4.22300 25.93900 24.34300
C  -4.89900 25.32500 23.31800
C  -4.32600 25.85300 21.97700
C  -3.66600 27.23800 22.37900
C  -3.71100 27.05100 23.91500
C  -3.40000 24.80000 21.35500
C  -4.25600 28.55800 21.77900
C  -3.62700 29.15700 20.52800
N  -3.81800 27.23200 26.85600
C  -3.08300 28.11800 26.08900
C  -2.49400 29.15600 26.90400
C  -2.93500 28.82300 28.14100
C  -3.78200 27.66300 28.09200
C  -1.63800 30.27800 26.56000
C  -2.88000 29.25900 29.60200
O  -2.34600 30.19200 30.17600
C  -3.79300 28.19800 30.41200
C  -2.83900 27.57900 31.39400
O  -2.25700 26.51400 31.26100
O  -2.75600 28.36400 32.46200
C  -1.92600 27.77500 33.51400
H  -7.04900 22.42300 28.72400
H  -6.13700 23.82500 22.46800
H  -2.50900 28.75300 24.15300
H  -4.83600 25.45600 31.57000
H  -7.26400 24.27700 30.64800
H  -6.42300 22.66700 31.90400
H  -4.79200 23.21700 31.83400
H  -5.25300 22.17100 30.52500
H  -7.73100 26.46400 31.01700
H  -6.50700 27.66100 31.04400
H  -7.87400 26.80200 33.24900
H  -6.47800 27.72100 33.19700
H  -7.79100 20.14700 26.49600
H  -9.27100 21.02400 26.29700
H  -8.48900 21.22100 27.76900
H  -9.11500 20.21300 22.76300
H  -9.87400 20.87300 24.16700
H  -8.24300 20.01200 24.29500
H  -5.10000 26.00100 21.22500
H  -2.60800 27.25000 22.12100
H  -2.38100 25.18300 21.41100
H  -3.55600 24.58100 20.29800
H  -3.28800 23.96500 22.04700
H  -4.09000 29.23200 22.62000
H  -5.33400 28.41700 21.70600
H  -3.17500 30.12700 20.73500
H  -4.27000 29.37400 19.67500
H  -2.85500 28.46300 20.19700
H  -1.63300 30.36000 25.47300
H  -0.67300 30.04000 27.00800
H  -2.08700 31.16400 27.00900
H  -4.64600 28.71600 30.84900
H  -1.77000 28.59000 34.22000
H  -0.92300 27.55500 33.15000
H  -2.46000 26.89300 33.86800

