158

Mg 26.11700 51.26000 25.55400
C  23.78700 52.13200 27.98800
C  28.35000 50.61600 27.89000
C  28.45400 50.93800 23.11400
C  23.83400 52.32300 23.04000
N  26.11600 51.49600 27.72200
C  24.99400 51.80100 28.55100
C  25.31500 51.49600 29.98500
C  26.88300 51.20100 29.92000
C  27.17500 51.04900 28.45100
C  27.87000 52.23200 30.47000
C  24.42100 50.37700 30.60500
C  23.61300 50.79900 31.83400
H  23.92900 50.11000 33.13900
N  28.02100 50.68400 25.48300
C  28.74700 50.42600 26.57100
C  30.11300 50.05800 26.15800
C  30.17400 50.18100 24.76900
C  28.84300 50.60500 24.40300
C  31.19000 49.69800 27.08400
C  31.35500 49.96000 23.79900
O  31.35100 50.02800 22.54500
C  32.68700 49.41900 24.33000
N  26.22200 51.75400 23.40100
C  27.23700 51.37800 22.64100
C  27.11500 51.97400 21.25400
C  25.57200 52.09500 21.11500
C  25.18900 52.18900 22.60000
C  28.03000 53.17800 20.99900
C  24.82900 50.90400 20.46500
C  24.15400 51.20500 19.10400
N  24.22600 52.03600 25.43800
C  23.37100 52.30700 24.35900
C  22.05900 52.78300 24.84800
C  22.24600 52.77900 26.23000
C  23.48900 52.21100 26.58200
C  20.95400 53.28200 24.00200
C  21.49600 53.00500 27.38400
O  20.37700 53.51400 27.59800
C  22.51600 52.55900 28.56900
C  22.67600 53.65500 29.57500
O  23.26500 54.71900 29.45500
O  22.04200 53.37900 30.71300
C  21.88000 54.42600 31.75200
H  29.08400 50.36500 28.65900
H  29.23100 50.72800 22.37600
H  23.17400 52.41600 22.17500
H  25.30100 52.42500 30.55600
H  27.02300 50.24700 30.42900
H  27.50000 53.25000 30.34300
H  28.88900 52.19600 30.08600
H  27.73200 52.06300 31.53800
H  25.11500 49.56900 30.83500
H  23.68600 50.03000 29.87900
H  22.56400 50.69900 31.55500
H  23.83900 51.85800 31.96400
H  31.33600 48.61900 27.13800
H  30.99400 49.98200 28.11800
H  32.14700 50.17700 26.87600
H  32.49400 48.49100 24.86900
H  32.99900 50.30700 24.88000
H  33.37600 49.31200 23.49300
H  27.37100 51.15300 20.58500
H  25.37400 53.02000 20.57400
H  27.45500 54.05500 20.70500
H  28.66400 52.88000 20.16400
H  28.64200 53.49200 21.84500
H  24.07800 50.48400 21.13500
H  25.48000 50.03200 20.40300
H  23.25400 50.59300 19.03600
H  24.84900 51.01000 18.28700
H  23.79500 52.22000 19.26700
H  20.73800 52.56700 23.20800
H  21.35000 54.12500 23.43500
H  20.06600 53.56100 24.56900
H  22.10800 51.71600 29.12700
H  22.44900 54.13200 32.63400
H  20.81300 54.51400 31.95700
H  22.21500 55.42000 31.45600
Mg -9.67400 17.37800 42.43300
C  -6.20400 17.28200 42.54800
C  -9.49500 20.73000 41.96800
C  -13.11200 17.41800 42.14100
C  -9.81700 13.96300 42.94600
N  -7.98500 18.84200 42.28900
C  -6.70200 18.57300 42.36000
C  -5.82400 19.81300 42.32300
C  -6.89500 20.92600 42.39900
C  -8.24800 20.13300 42.27500
C  -6.70700 21.86700 43.61800
C  -4.92800 20.01600 41.07800
C  -5.47300 19.81000 39.70900
H  -4.97400 18.76200 38.76900
N  -11.11000 18.86400 41.96500
C  -10.78000 20.15500 41.71300
C  -12.01100 20.86700 41.40200
C  -13.17000 19.97000 41.62900
C  -12.48800 18.64600 41.88500
C  -12.08600 22.39100 41.13700
C  -14.58400 20.32500 41.60000
O  -14.91600 21.45500 41.17500
C  -15.71400 19.38700 42.00500
N  -11.31900 15.79200 42.27800
C  -12.61400 16.13400 42.36300
C  -13.50400 14.84500 42.71900
C  -12.34100 13.85200 43.19400
C  -11.10400 14.58800 42.73400
C  -14.58100 15.11400 43.74600
C  -12.39900 12.42200 42.42000
C  -12.31400 11.18400 43.34400
N  -8.30500 15.89500 42.68900
C  -8.50100 14.51900 42.74600
C  -7.22200 13.90600 42.84500
C  -6.27100 14.92700 42.79600
C  -6.99000 16.11600 42.70000
C  -6.89800 12.48600 42.94500
C  -4.85100 15.24400 42.83900
O  -3.86600 14.54500 42.86900
C  -4.75500 16.73400 42.77500
C  -4.17100 17.27700 43.95300
O  -3.16500 17.95400 44.01700
O  -4.85300 16.82500 45.07700
C  -4.29200 17.29300 46.37800
H  -9.48700 21.82000 41.90300
H  -14.20000 17.33200 42.11300
H  -9.89200 12.93300 43.30200
H  -5.09200 19.88300 43.12800
H  -6.92600 21.58400 41.53000
H  -6.06700 22.69400 43.31200
H  -6.03400 21.41000 44.34400
H  -7.61600 22.21800 44.10600
H  -4.09400 19.35600 41.31900
H  -4.45400 20.99800 41.07700
H  -5.23000 20.79900 39.31900
H  -6.56200 19.83800 39.72200
H  -12.53000 22.81600 42.03700
H  -12.67500 22.61400 40.24700
H  -11.09300 22.73800 40.85300
H  -15.91600 18.61800 41.26000
H  -16.60500 20.00100 42.13800
H  -15.54400 18.92700 42.97900
H  -13.94100 14.35400 41.84900
H  -12.39800 13.69800 44.27200
H  -14.59200 16.12300 44.15800
H  -14.56600 14.51800 44.65800
H  -15.54100 15.07600 43.22900
H  -11.57600 12.52200 41.71300
H  -13.32000 12.41500 41.83600
H  -11.47100 10.58500 43.00100
H  -13.16700 10.50800 43.28900
H  -12.03300 11.41000 44.37300
H  -7.70300 11.76900 43.10600
H  -6.21400 12.30300 43.77400
H  -6.34600 12.19100 42.05300
H  -4.14000 16.93700 41.89800
H  -3.20200 17.29200 46.35000
H  -4.46100 16.52900 47.13600
H  -4.58900 18.27600 46.74200

