158

Mg 46.79300 24.24900 28.18300
C  47.64700 26.63900 30.67900
C  46.02500 22.10300 30.88300
C  46.13100 21.74600 25.95100
C  47.79600 26.33800 25.75900
N  46.57700 24.48000 30.53600
C  47.07300 25.50300 31.28500
C  46.95000 25.33100 32.79400
C  46.68700 23.75200 32.83600
C  46.38200 23.42300 31.29300
C  47.79200 22.84200 33.30000
C  45.90300 26.25600 33.49700
C  46.42700 27.34900 34.40400
H  45.58800 27.44200 35.67500
N  46.09500 22.21600 28.37100
C  45.83300 21.54700 29.50700
C  45.35000 20.25700 29.18000
C  45.12800 20.24200 27.76500
C  45.83700 21.41100 27.31400
C  44.98900 19.23100 30.20900
C  44.41300 19.23000 26.88700
O  44.33200 19.34400 25.67800
C  43.67200 18.10300 27.48200
N  47.13000 23.97200 26.14500
C  46.68500 22.92000 25.41700
C  46.75400 23.24100 23.94400
C  47.23300 24.75300 23.82100
C  47.32200 25.09100 25.32700
C  47.65100 22.25300 23.11200
C  46.17400 25.70000 23.04900
C  46.66900 26.24900 21.69800
N  47.57600 26.06300 28.15400
C  48.00300 26.81000 27.07900
C  48.51800 28.10900 27.49700
C  48.30200 28.07800 28.95100
C  47.84300 26.79800 29.29400
C  49.05400 29.16000 26.69200
C  48.59400 28.86200 30.14700
O  49.03200 29.97800 30.38400
C  48.13600 27.94200 31.38800
C  49.38800 27.65600 32.18300
O  50.21100 26.86600 31.93300
O  49.38700 28.36500 33.36000
C  50.58400 28.31200 34.26600
H  45.69300 21.44800 31.69100
H  45.76900 21.06100 25.18200
H  48.01200 27.01600 24.93100
H  47.93300 25.55800 33.20600
H  45.80700 23.46800 33.41400
H  48.31700 23.37600 34.09200
H  48.53200 22.57900 32.54400
H  47.44800 21.91400 33.75600
H  45.20400 25.67100 34.09400
H  45.40800 26.63900 32.60400
H  46.48700 28.32600 33.92500
H  47.40100 26.92500 34.64600
H  44.76100 18.24100 29.81500
H  44.17200 19.57500 30.84400
H  45.82000 19.12000 30.90600
H  43.08300 18.42000 28.34300
H  44.45700 17.40600 27.77700
H  43.02800 17.55600 26.79400
H  45.72800 23.18600 23.58100
H  48.16500 24.82500 23.26200
H  48.02700 22.73000 22.20600
H  46.95800 21.54200 22.66200
H  48.32500 21.64200 23.71200
H  46.05500 26.66300 23.54500
H  45.16900 25.29000 22.95000
H  45.75500 26.23700 21.10400
H  47.50000 25.66900 21.29700
H  46.91000 27.30800 21.78000
H  48.73600 30.03100 27.26500
H  48.47700 29.21200 25.76800
H  50.13300 29.19500 26.54400
H  47.27700 28.38000 31.89800
H  50.97200 29.33000 34.30200
H  51.22900 27.47300 34.00400
H  50.38200 28.06600 35.30800
Mg 8.92100 48.36000 25.59500
C  6.37200 48.75900 28.10600
C  11.14300 49.36000 28.04900
C  11.07900 48.14500 23.31500
C  6.19400 48.08800 23.37900
N  8.77800 48.84700 27.84700
C  7.66800 48.96400 28.65000
C  8.04700 49.11500 30.15000
C  9.53000 49.66600 30.04500
C  9.85800 49.26500 28.54000
C  9.63800 51.13800 30.41700
C  7.83100 47.84400 31.07200
C  7.60800 48.07500 32.63200
H  8.54300 47.49000 33.74400
N  10.90300 48.57700 25.72200
C  11.66600 49.06300 26.70400
C  13.04000 49.14700 26.20400
C  13.07100 48.70200 24.87400
C  11.69200 48.40500 24.58000
C  14.27700 49.72300 27.04900
C  14.15100 48.66700 23.83600
O  13.95100 48.39700 22.59300
C  15.59100 48.99000 24.30000
N  8.66900 48.32700 23.62600
C  9.74500 48.07100 22.89200
C  9.49300 47.57500 21.43900
C  7.89000 47.55700 21.44900
C  7.49400 47.98200 22.91300
C  10.16100 48.39000 20.31200
C  7.11500 46.32500 20.86100
C  6.25300 46.58800 19.60500
N  6.69300 48.27600 25.61700
C  5.77400 48.13200 24.68900
C  4.44100 47.91700 25.26600
C  4.59200 48.31200 26.56000
C  5.97000 48.42100 26.76600
C  3.17800 47.78000 24.47300
C  3.88600 48.70800 27.68600
O  2.67200 48.90100 27.89700
C  5.03300 49.10300 28.78300
C  4.71600 48.71600 30.11700
O  4.66200 47.57900 30.57000
O  4.54400 49.86500 30.86900
C  3.93100 49.81600 32.20600
H  11.88000 49.74200 28.75900
H  11.67200 47.78800 22.47100
H  5.44800 47.80000 22.63500
H  7.26800 49.76700 30.54600
H  10.10500 49.07600 30.75900
H  8.74800 51.48600 30.94200
H  9.84500 51.69900 29.50500
H  10.51000 51.23600 31.06300
H  8.71300 47.20300 31.08300
H  7.03400 47.28100 30.58700
H  6.58900 47.74400 32.83200
H  7.69500 49.15600 32.74400
H  14.47200 50.75400 26.75500
H  15.20100 49.16600 26.89400
H  14.04100 49.66600 28.11200
H  15.91300 48.15300 24.91900
H  15.73900 49.92700 24.83700
H  16.30600 48.98200 23.47700
H  9.59000 46.49000 21.43500
H  7.66300 48.42800 20.83500
H  10.24100 47.94800 19.31900
H  11.20000 48.62300 20.54800
H  9.63300 49.34300 20.26000
H  6.47300 45.76500 21.54100
H  7.86900 45.54800 20.73300
H  6.21700 47.66000 19.40900
H  5.26400 46.13900 19.70000
H  6.77100 46.06400 18.80200
H  2.46300 48.57700 24.67400
H  2.81500 46.78100 24.71300
H  3.36000 47.84400 23.40000
H  4.97700 50.19100 28.78400
H  3.07200 50.48600 32.21200
H  4.65600 50.24100 32.90000
H  3.54800 48.83300 32.47700

