158

Mg 49.23100 36.01800 27.65300
C  47.09400 35.00100 30.25400
C  49.80700 38.94800 29.50500
C  51.04200 37.26500 25.13900
C  48.42300 33.21700 25.80800
N  48.36100 36.95800 29.62300
C  47.71300 36.19100 30.58200
C  47.63700 36.95300 31.89500
C  48.18500 38.31000 31.59600
C  48.83900 38.13700 30.16700
C  47.19600 39.47300 31.66900
C  48.52000 36.17600 32.85900
C  47.94100 36.05300 34.29900
H  48.03500 37.19600 35.32000
N  50.35000 37.85400 27.38200
C  50.45800 38.88500 28.23900
C  51.40100 39.87700 27.81000
C  51.87900 39.32200 26.59600
C  51.03500 38.12800 26.30100
C  51.79100 41.17900 28.58000
C  52.97300 39.75700 25.60800
O  53.23900 39.14200 24.59100
C  53.59000 41.10900 25.92600
N  49.61400 35.38600 25.78900
C  50.41700 36.06100 24.91600
C  50.96300 35.13400 23.82800
C  50.06400 33.87800 23.98000
C  49.32400 34.15900 25.28700
C  51.12000 35.65800 22.42000
C  50.90600 32.54100 24.05600
C  50.23000 31.41600 23.17400
N  47.91300 34.42600 27.91400
C  47.71000 33.33000 27.11500
C  46.78400 32.41300 27.80100
C  46.42100 33.06100 28.98800
C  47.24000 34.24900 29.04000
C  46.21800 31.08500 27.22100
C  45.63600 33.03400 30.15800
O  44.80900 32.17900 30.54000
C  45.95000 34.24800 31.03500
C  46.32500 33.59200 32.32300
O  47.37100 32.92600 32.54400
O  45.22800 33.73300 33.15700
C  45.19700 32.67800 34.21800
H  50.00000 39.87800 30.04300
H  51.71200 37.51200 24.31200
H  48.24800 32.36400 25.14800
H  46.60500 36.92700 32.24400
H  48.94500 38.68700 32.28100
H  46.28500 39.01900 31.28000
H  47.37400 40.24200 30.91700
H  47.15200 39.83500 32.69600
H  49.46900 36.71200 32.83800
H  48.69600 35.17800 32.45800
H  48.31700 35.10600 34.68600
H  46.86500 35.91900 34.19000
H  51.23900 41.36400 29.50100
H  51.59400 42.01200 27.90600
H  52.85300 41.00500 28.75500
H  52.85100 41.90400 25.82300
H  54.39800 41.19400 25.19900
H  53.93400 41.05300 26.95900
H  51.98900 34.92800 24.13100
H  49.28800 33.85100 23.21500
H  51.06200 36.73900 22.29300
H  50.25400 35.33900 21.84000
H  51.95400 35.29300 21.82100
H  50.95900 32.11600 25.05900
H  51.91400 32.74000 23.69100
H  49.39700 31.78700 22.57700
H  49.90800 30.66300 23.89300
H  50.96000 30.89900 22.55200
H  46.51400 30.98200 26.17700
H  45.13200 31.17200 27.17800
H  46.58000 30.22900 27.79000
H  45.06000 34.87500 30.97300
H  44.57600 31.85200 33.86900
H  44.60100 33.09200 35.03100
H  46.16900 32.36700 34.60000
Mg 26.94700 51.34800 26.36100
C  24.98800 52.09000 29.20100
C  29.32200 50.05400 28.70800
C  29.00600 50.67300 23.75000
C  24.64300 52.62100 24.27800
N  27.17700 51.05600 28.69300
C  26.17100 51.47600 29.57500
C  26.46700 50.98800 30.99700
C  28.03900 50.67800 30.87200
C  28.22900 50.58200 29.31000
C  29.01600 51.63500 31.57300
C  25.53700 49.87100 31.55400
C  25.02400 49.93700 32.99300
H  25.86400 50.64500 34.07800
N  28.91300 50.55300 26.21100
C  29.72300 50.03800 27.23600
C  30.91000 49.50400 26.71800
C  30.84700 49.81700 25.33100
C  29.57500 50.44000 25.03000
C  31.77800 48.64100 27.56800
C  31.90100 49.57500 24.35000
O  31.74300 49.91000 23.16500
C  33.12900 48.83900 24.64800
N  26.84300 51.56600 24.32800
C  27.76800 51.20900 23.39000
C  27.30200 51.34600 21.87300
C  25.81800 51.79400 22.07100
C  25.74400 52.08400 23.65400
C  28.18200 52.25800 21.05700
C  24.74500 50.75600 21.66400
C  23.49200 51.41600 21.01900
N  25.19100 52.24100 26.62000
C  24.36400 52.77200 25.66700
C  23.18600 53.33600 26.37300
C  23.44100 53.11500 27.75500
C  24.61000 52.42700 27.87200
C  21.99300 53.97600 25.62700
C  22.89000 53.41100 29.05700
O  21.91900 54.01000 29.41200
C  23.82300 52.57100 30.04300
C  24.23700 53.69000 30.97900
O  25.17600 54.33400 30.88900
O  23.32300 53.83900 31.95600
C  23.72100 54.73200 33.06700
H  29.93700 49.63800 29.50800
H  29.55500 50.47200 22.82700
H  23.81900 52.90000 23.61800
H  26.33500 51.89200 31.59200
H  28.17100 49.66100 31.24000
H  29.71300 51.86000 30.76600
H  29.38900 51.19300 32.49700
H  28.43100 52.50100 31.88500
H  26.15500 48.97300 31.55900
H  24.78200 49.83400 30.76800
H  24.79900 48.93600 33.36100
H  24.04800 50.40100 32.85100
H  32.68100 49.24900 27.52200
H  31.84100 47.67200 27.07100
H  31.49800 48.46000 28.60500
H  33.77200 48.75400 23.77200
H  32.72500 47.86000 24.90600
H  33.63200 49.34600 25.47200
H  27.33200 50.33700 21.46100
H  25.59700 52.77700 21.65500
H  28.71300 52.93700 21.72400
H  27.58300 52.68100 20.25100
H  28.95700 51.67200 20.56300
H  24.39000 50.22400 22.54700
H  25.14500 50.02100 20.96600
H  23.58700 51.60100 19.94900
H  23.42100 52.43900 21.38900
H  22.55000 50.97200 21.34100
H  21.73800 53.32600 24.79000
H  22.23200 54.97100 25.25400
H  21.22100 54.02400 26.39600
H  23.20400 51.98900 30.72600
H  23.85600 55.73200 32.65700
H  24.57500 54.35700 33.63200
H  22.86700 54.71300 33.74300

