158

Mg 30.79500 57.97300 38.42900
C  28.07100 55.97100 37.40100
C  32.68500 55.19700 38.17000
C  33.28400 59.94200 39.38300
C  28.72800 60.73700 38.25000
N  30.41300 55.84900 37.65200
C  29.23000 55.29000 37.35500
C  29.41700 53.78700 37.00000
C  30.92400 53.59500 37.24300
C  31.36600 54.93700 37.78800
C  31.39800 52.43000 38.19500
C  29.00600 53.39000 35.55400
C  29.48500 54.43700 34.46500
H  28.36600 54.79600 33.46000
N  32.75700 57.59500 38.79400
C  33.39300 56.39300 38.62100
C  34.73600 56.52800 38.98600
C  34.99900 57.88200 39.27500
C  33.68100 58.57900 39.16800
C  35.75100 55.39500 38.88600
C  36.33900 58.42800 39.51600
O  37.35400 57.76700 39.25100
C  36.61600 59.81500 40.20000
N  30.95700 60.05900 38.87800
C  32.08900 60.66800 39.31100
C  31.98900 62.24800 39.33700
C  30.55100 62.44900 39.02300
C  30.03600 61.03200 38.60100
C  32.67000 63.00800 40.50300
C  30.15300 63.69300 38.19500
C  29.06300 64.66800 38.71900
N  28.79800 58.32700 38.00500
C  28.08000 59.54100 37.98200
C  26.67700 59.25600 37.64400
C  26.58500 57.86500 37.51800
C  27.90900 57.34700 37.71300
C  25.54400 60.30000 37.55300
C  25.70500 56.80000 37.28100
O  24.47800 56.90700 37.26000
C  26.53200 55.58800 37.18600
C  25.99800 54.48200 38.12400
O  26.51000 54.15100 39.14000
O  24.91400 53.91700 37.46000
C  24.36800 52.73500 38.05700
H  33.24900 54.26200 38.19000
H  34.08000 60.62300 39.69200
H  28.00700 61.55100 38.34000
H  28.68900 53.22000 37.57800
H  31.33600 53.44200 36.24600
H  32.15200 51.78100 37.75000
H  30.57200 51.76200 38.44000
H  31.72900 52.79600 39.16700
H  27.93400 53.20000 35.60100
H  29.41600 52.39400 35.38900
H  30.26800 53.85200 33.98100
H  29.99100 55.31200 34.87400
H  36.38200 55.36200 39.77500
H  36.45700 55.73200 38.12700
H  35.35200 54.41600 38.62200
H  37.53100 59.80000 40.79300
H  35.84100 60.09200 40.91400
H  36.71500 60.49400 39.35300
H  32.53700 62.59300 38.46100
H  30.02800 62.61000 39.96600
H  33.21100 62.27700 41.10400
H  31.84300 63.37800 41.10900
H  33.38400 63.79400 40.26100
H  29.84400 63.33900 37.21100
H  31.05500 64.29700 38.09800
H  29.56800 65.29000 39.45700
H  28.17000 64.13300 39.04300
H  28.59600 65.22700 37.90800
H  24.65900 59.81100 37.14600
H  25.81500 61.02300 36.78400
H  25.40000 60.83800 38.49100
H  26.48100 55.14600 36.19100
H  25.17200 52.16700 38.52500
H  23.88800 52.19600 37.24000
H  23.62100 52.93600 38.82500
Mg 35.28100 48.59800 26.24000
C  35.49900 46.73000 29.25900
C  34.24600 51.20100 28.14900
C  34.84600 50.36500 23.35600
C  36.33500 45.82300 24.44300
N  35.05600 48.88400 28.51500
C  35.17300 48.05400 29.53000
C  35.24700 48.79500 30.88500
C  34.53000 50.16300 30.50900
C  34.65800 50.10900 28.96400
C  32.98100 50.28300 30.84200
C  36.73300 49.01200 31.37900
C  37.19100 48.36300 32.73600
H  37.33800 49.40300 33.84200
N  34.53900 50.40500 25.77200
C  34.10000 51.27900 26.72600
C  33.58600 52.43700 26.02800
C  33.59000 52.23700 24.59800
C  34.37400 50.99700 24.53300
C  32.84500 53.57500 26.70900
C  33.12700 53.07600 23.36000
O  33.28000 52.78800 22.16700
C  32.45500 54.43200 23.57300
N  35.60100 48.24900 24.21300
C  35.44100 49.10800 23.11500
C  35.58600 48.44900 21.76200
C  36.18600 47.06300 22.27200
C  36.14200 47.07200 23.74900
C  34.33500 48.38700 20.84800
C  37.68600 46.70000 21.85600
C  37.79700 45.39900 21.10100
N  35.78100 46.70300 26.70600
C  36.19100 45.70500 25.86100
C  36.35700 44.47200 26.64300
C  36.17000 44.81900 27.95500
C  35.72100 46.19600 27.97800
C  36.81000 43.12500 26.17400
C  36.22300 44.34000 29.31500
O  36.50600 43.26800 29.76800
C  35.66900 45.56100 30.20500
C  34.39300 45.18800 30.88900
O  33.37600 44.79000 30.37000
O  34.57600 45.30300 32.20700
C  33.41200 44.96300 33.00000
H  33.88900 52.00600 28.79400
H  34.72900 50.97100 22.45500
H  36.59600 44.90800 23.90600
H  34.61400 48.37200 31.66500
H  35.11400 50.99600 30.90000
H  32.69100 50.84900 31.72800
H  32.72600 49.24600 31.05900
H  32.30800 50.64800 30.06600
H  36.94300 50.08100 31.40200
H  37.36400 48.48400 30.66500
H  38.16200 47.88000 32.62800
H  36.45100 47.64900 33.10000
H  31.79900 53.68100 26.42100
H  33.31600 54.51200 26.41000
H  32.77800 53.50700 27.79500
H  32.15000 54.81900 22.60100
H  33.12600 55.17700 24.00000
H  31.55600 54.34100 24.18300
H  36.36100 49.01200 21.24100
H  35.52200 46.24100 22.00400
H  34.03900 47.35300 20.66900
H  34.55700 48.83900 19.88100
H  33.54900 49.03100 21.24300
H  38.28700 46.56400 22.75400
H  38.03300 47.44400 21.13900
H  38.58700 44.75200 21.48400
H  38.11600 45.68800 20.10000
H  36.81400 44.93800 21.00500
H  36.11100 42.40800 26.60400
H  37.79400 42.97400 26.61800
H  36.84300 43.06200 25.08600
H  36.43500 45.91100 30.89700
H  32.42700 45.08600 32.55000
H  33.49600 45.38400 34.00200
H  33.43900 43.88300 33.14700

