158

Mg 35.90500 2.06100 29.93800
C  33.29900 2.80500 31.96500
C  37.99600 2.08600 32.58300
C  38.45000 1.40600 27.76400
C  33.66000 2.14500 27.16400
N  35.62500 2.35700 31.98500
C  34.47500 2.61000 32.63800
C  34.70800 2.70800 34.16500
C  36.19600 2.83000 34.28300
C  36.66200 2.39300 32.86500
C  36.69500 4.30100 34.40300
C  34.12600 1.53400 35.09500
C  33.91000 1.97100 36.54400
H  34.51200 3.30100 37.19000
N  37.99700 1.80000 30.14700
C  38.64000 1.80800 31.35900
C  40.06300 1.48200 31.11200
C  40.15200 1.20700 29.70200
C  38.84900 1.47700 29.16300
C  41.05600 1.33200 32.14300
C  41.34800 0.70900 28.84300
O  41.41900 0.46800 27.65200
C  42.65000 0.50300 29.62600
N  35.93000 1.63800 27.83700
C  37.18600 1.54000 27.19800
C  37.04500 1.38000 25.65800
C  35.40500 1.55800 25.48800
C  34.92500 1.78000 26.89500
C  37.72500 2.53600 24.88200
C  34.82400 0.27500 24.88600
C  34.29700 0.40000 23.43600
N  33.87000 2.24400 29.53700
C  33.14400 2.46800 28.38200
C  31.80600 2.88500 28.71300
C  31.84600 3.03200 30.09900
C  33.12400 2.66300 30.56400
C  30.69300 3.14300 27.78600
C  31.07100 3.45300 31.22900
O  29.96900 3.96400 31.22800
C  31.94300 3.17600 32.49000
C  32.00500 4.40900 33.37100
O  32.44600 5.52100 33.13400
O  31.39100 4.06100 34.59600
C  31.18800 5.18000 35.50800
H  38.55700 2.20700 33.51200
H  39.32100 1.26200 27.12200
H  32.98300 2.11600 26.30900
H  34.21200 3.60700 34.53200
H  36.64500 2.20700 35.05500
H  37.50400 4.29700 35.13400
H  35.88400 4.95600 34.72100
H  37.10800 4.64300 33.45400
H  34.77400 0.66300 34.99800
H  33.13200 1.22300 34.77400
H  34.11000 1.08300 37.14300
H  32.83100 2.04800 36.68000
H  41.35100 0.29400 32.29600
H  40.62900 1.73000 33.06400
H  41.93400 1.92900 31.89900
H  43.33700 0.17500 28.84600
H  42.50700 -0.24900 30.40200
H  42.88000 1.50000 30.00200
H  37.49900 0.45500 25.30100
H  35.04200 2.39400 24.89100
H  38.62500 2.85000 25.41100
H  37.04800 3.34200 24.59900
H  38.15100 2.14000 23.96100
H  34.05100 -0.10400 25.55400
H  35.62200 -0.46200 24.97300
H  34.98400 -0.13200 22.77700
H  34.10900 1.41700 23.09300
H  33.32200 -0.04100 23.22800
H  31.12800 3.43900 26.83200
H  30.03400 3.94200 28.12500
H  30.05700 2.26500 27.67200
H  31.44800 2.47500 33.16100
H  32.14400 5.57400 35.85300
H  30.53800 5.01500 36.36800
H  30.82900 6.08800 35.02400
Mg 48.49400 44.44600 41.93800
C  45.11000 43.62800 41.61200
C  49.26800 41.24500 41.90300
C  51.64500 45.42400 41.43000
C  47.56000 47.94300 41.53300
N  47.33100 42.68600 41.55400
C  45.99500 42.55300 41.64900
C  45.54000 41.05200 41.78900
C  46.91500 40.33300 41.97700
C  47.92100 41.48800 41.84600
C  47.11300 39.52900 43.37400
C  44.58100 40.47700 40.65300
C  44.74800 41.04300 39.26000
H  44.95800 40.05300 38.09300
N  50.20800 43.44100 41.71800
C  50.37300 42.10500 41.80000
C  51.79300 41.77600 41.81500
C  52.54600 42.99500 41.79500
C  51.44500 44.00200 41.67500
C  52.23200 40.32600 41.84800
C  54.10200 43.23300 41.87100
O  54.91100 42.28900 41.85700
C  54.75800 44.61400 41.77700
N  49.43800 46.42400 41.47500
C  50.77800 46.53700 41.49000
C  51.26700 48.02600 41.31600
C  49.85400 48.78300 41.25700
C  48.88400 47.65400 41.45100
C  52.13400 48.36800 42.58900
C  49.59400 49.77300 40.02500
C  49.06600 51.22800 40.40000
N  46.69600 45.63400 41.74900
C  46.47300 46.97800 41.63500
C  44.98500 47.17200 41.55800
C  44.39200 45.88500 41.52800
C  45.45800 44.99500 41.67200
C  44.26600 48.51200 41.57300
C  43.14600 45.11700 41.40600
O  41.97200 45.50200 41.25800
C  43.57800 43.61100 41.60800
C  42.91000 43.11700 42.89400
O  42.20200 42.09500 42.93300
O  43.24400 43.91300 43.90500
C  42.81000 43.47600 45.20500
H  49.44500 40.17900 42.05600
H  52.67600 45.77700 41.49800
H  47.23900 48.98700 41.50300
H  44.96200 40.97000 42.71000
H  47.00400 39.76100 41.05400
H  46.47000 38.65000 43.41600
H  46.73400 40.18400 44.15800
H  48.18000 39.33500 43.49000
H  43.55900 40.48900 41.03000
H  44.85700 39.42300 40.63200
H  45.56800 41.75700 39.18100
H  43.81700 41.59700 39.14400
H  51.87800 39.76500 40.98300
H  51.58700 39.84100 42.58000
H  53.28800 40.12400 42.02800
H  54.49800 44.98700 40.78600
H  55.81100 44.34100 41.83900
H  54.37700 45.22600 42.59400
H  51.79400 48.13200 40.36800
H  49.85300 49.46500 42.10700
H  51.66400 49.16200 43.16900
H  53.13000 48.60600 42.21700
H  52.27300 47.52400 43.26600
H  48.83600 49.30400 39.39800
H  50.51800 49.73800 39.44700
H  49.32500 51.39200 41.44600
H  47.99300 51.34500 40.25200
H  49.66200 52.01600 39.93900
H  43.40200 48.61700 40.91600
H  45.04700 49.19500 41.23800
H  43.94500 48.79700 42.57500
H  43.15800 42.93300 40.86500
H  42.85200 44.29700 45.92000
H  43.45300 42.70800 45.63400
H  41.82000 43.01900 45.19300

