158

Mg 49.05500 44.83300 43.23800
C  45.55500 44.96700 42.55800
C  48.81600 41.36900 42.57300
C  52.27100 44.71600 43.36000
C  49.03200 48.39100 43.00100
N  47.36700 43.33200 42.59700
C  46.05600 43.61500 42.39900
C  45.19600 42.53800 41.77600
C  46.19000 41.36700 42.12100
C  47.62300 42.02200 42.41300
C  45.70400 40.43800 43.29900
C  44.96200 42.66600 40.24000
C  44.25100 41.44100 39.61200
H  43.67300 41.69800 38.20400
N  50.39900 43.23900 43.19700
C  50.12700 41.92200 42.89500
C  51.36900 41.17300 42.78900
C  52.47600 42.13800 43.05600
C  51.74000 43.44700 43.22800
C  51.43500 39.63200 42.45000
C  53.97400 41.79200 43.12400
O  54.38000 40.61800 42.92200
C  54.98200 42.98100 43.17200
N  50.45400 46.37100 42.91100
C  51.75900 46.04000 43.25200
C  52.60000 47.32000 43.52600
C  51.68000 48.50500 43.08800
C  50.32600 47.77600 42.90300
C  53.04000 47.38200 45.12400
C  52.13500 49.13700 41.70000
C  51.71600 50.62200 41.53800
N  47.66700 46.39600 43.02500
C  47.82200 47.77200 43.01900
C  46.53400 48.43900 42.95700
C  45.60600 47.38100 42.79100
C  46.31900 46.12400 42.80400
C  46.39400 49.95400 42.96200
C  44.17800 47.07700 42.60400
O  43.21700 47.86200 42.53000
C  44.11600 45.51600 42.39200
C  43.10900 44.85600 43.26300
O  43.32300 44.08800 44.21000
O  41.88600 45.30800 42.87900
C  40.75500 44.89500 43.73500
H  48.89800 40.28900 42.43400
H  53.35000 44.74400 43.52400
H  48.95700 49.48000 42.99300
H  44.21800 42.30600 42.19800
H  46.47200 40.74400 41.27200
H  44.86100 40.95300 43.75800
H  46.55300 40.32000 43.97200
H  45.32000 39.48100 42.94500
H  45.94400 42.80800 39.78900
H  44.35000 43.55600 40.09300
H  43.48300 41.12600 40.31900
H  44.83000 40.51800 39.59500
H  51.62900 39.51500 41.38400
H  50.49800 39.16000 42.74300
H  52.27900 39.20000 42.98700
H  54.66000 43.69900 42.41900
H  55.99800 42.65600 42.94900
H  55.08600 43.39200 44.17600
H  53.49100 47.33600 42.89900
H  51.53600 49.17300 43.93700
H  53.24900 46.33800 45.35600
H  52.32800 47.92600 45.74500
H  53.99000 47.91500 45.10100
H  51.83500 48.57100 40.81800
H  53.22400 49.16900 41.73500
H  51.69000 50.85000 40.47300
H  52.37300 51.27500 42.11200
H  50.70100 50.61400 41.93700
H  46.69700 50.50300 42.07000
H  46.87200 50.36800 43.85000
H  45.31500 50.01300 43.10800
H  43.62100 45.37300 41.43100
H  41.08800 45.05600 44.76000
H  40.55800 43.84900 43.49900
H  39.84600 45.46700 43.54600
Mg 9.29400 48.75700 26.02600
C  7.00200 48.73900 28.77300
C  11.72800 49.81600 28.17300
C  11.35400 48.72900 23.29400
C  6.54200 48.47000 23.84400
N  9.30000 49.34400 28.27900
C  8.33700 49.11300 29.21400
C  8.82200 49.43500 30.61700
C  10.31500 49.95100 30.32400
C  10.46000 49.75400 28.81300
C  10.77100 51.31700 30.90100
C  8.65300 48.24100 31.61300
C  9.57900 48.13700 32.84100
H  9.01000 47.42200 34.02900
N  11.26500 49.14200 25.78000
C  12.05300 49.62200 26.81100
C  13.38600 49.64400 26.26200
C  13.37300 49.18900 24.87200
C  11.96600 49.00900 24.57700
C  14.60200 50.15700 27.00200
C  14.55300 49.05700 23.85500
O  14.37900 48.84700 22.67500
C  15.89600 49.42800 24.26000
N  8.99400 48.63400 23.88200
C  10.01600 48.52100 22.94800
C  9.51900 48.28400 21.54900
C  8.01400 48.30400 21.75200
C  7.80300 48.49900 23.21200
C  10.10300 49.32600 20.55000
C  7.37500 46.94300 21.17100
C  6.15100 47.09700 20.17700
N  7.27300 48.71300 26.20300
C  6.32900 48.51300 25.24200
C  4.98900 48.41500 25.79100
C  5.25300 48.33800 27.16900
C  6.62600 48.63300 27.42100
C  3.64800 48.24200 25.24200
C  4.56400 48.22900 28.44000
O  3.37700 48.06500 28.66300
C  5.67900 48.52300 29.54600
C  5.83900 47.33100 30.42900
O  6.35200 46.28000 30.12600
O  5.20000 47.53100 31.63900
C  5.21300 46.44100 32.58700
H  12.50400 50.06800 28.89900
H  11.93500 48.62200 22.37600
H  5.67700 48.29600 23.20000
H  8.18900 50.24700 30.97400
H  11.03400 49.30500 30.82900
H  11.40800 51.31700 31.78600
H  9.83800 51.76000 31.24900
H  11.18200 52.07400 30.23300
H  8.48300 47.33500 31.03200
H  7.71000 48.46300 32.11200
H  9.71700 49.18800 33.09700
H  10.52300 47.66800 32.56600
H  14.37900 50.28100 28.06100
H  14.90700 51.11900 26.59000
H  15.44000 49.46000 26.95900
H  16.29700 48.70300 24.96800
H  15.84600 50.35000 24.84000
H  16.41400 49.60500 23.31700
H  9.82000 47.26500 21.30700
H  7.57000 49.01900 21.06000
H  10.72200 50.08400 21.03100
H  9.34200 49.85800 19.97900
H  10.57100 48.77600 19.73400
H  6.99700 46.35500 22.00700
H  8.01500 46.26900 20.60000
H  5.83900 48.13000 20.01900
H  5.28100 46.53500 20.51700
H  6.40900 46.67300 19.20700
H  3.01200 49.09900 25.46500
H  3.33600 47.42300 25.89000
H  3.75600 48.07500 24.17100
H  5.49900 49.44000 30.10700
H  4.92400 46.79800 33.57500
H  6.14500 45.88600 32.69400
H  4.42800 45.73600 32.31200

