158

Mg 53.68600 24.09800 44.10200
C  51.33200 26.49900 43.62100
C  51.56200 21.70700 42.76600
C  56.28600 21.86200 44.02200
C  55.82800 26.54300 45.52900
N  51.68400 24.12300 43.05800
C  50.84800 25.23100 43.15300
C  49.51000 24.86900 42.44700
C  49.44700 23.30800 42.62200
C  50.98400 23.01200 42.86100
C  48.66000 22.67300 43.75300
C  49.40300 25.47800 41.00300
C  49.99500 24.66600 39.80100
H  50.61600 25.33900 38.55100
N  53.93600 22.02600 43.45600
C  52.90900 21.27300 42.93200
C  53.42400 19.94400 42.56800
C  54.82200 19.98900 42.88000
C  55.12200 21.36800 43.48000
C  52.49600 18.88700 41.99400
C  55.77300 18.84400 42.83900
O  55.28400 17.86600 42.34500
C  57.11200 18.81800 43.30600
N  55.82600 24.21500 44.64900
C  56.58300 23.16300 44.55700
C  57.96100 23.47400 45.15200
C  57.87800 24.93000 45.57400
C  56.43200 25.26500 45.30100
C  58.33500 22.50800 46.21900
C  58.78500 25.99700 44.80000
C  60.04300 26.51800 45.61600
N  53.66100 26.12900 44.46000
C  54.54000 26.97600 45.07400
C  53.95400 28.28200 45.24400
C  52.63500 28.11700 44.69600
C  52.55300 26.81000 44.20800
C  54.47700 29.42900 45.98400
C  51.32400 28.72600 44.51000
O  50.87600 29.83000 44.81800
C  50.46600 27.76100 43.80000
C  50.16900 28.41500 42.56600
O  50.89300 28.98800 41.81800
O  48.82700 28.23800 42.27500
C  48.27100 28.67800 40.99200
H  50.84000 20.89400 42.66600
H  57.19800 21.30700 43.79100
H  56.40500 27.43700 45.77800
H  48.70400 25.32600 43.02000
H  49.11700 22.95700 41.64400
H  48.23300 23.44400 44.39400
H  49.32200 22.04500 44.35000
H  47.84000 22.11900 43.29500
H  50.04500 26.35300 41.10400
H  48.38600 25.76300 40.73200
H  49.27600 23.96600 39.37700
H  50.86300 24.15700 40.22000
H  52.28000 18.98300 40.93000
H  51.52000 18.89000 42.47900
H  52.97100 17.91400 42.12000
H  57.09000 19.05400 44.37000
H  57.78400 19.47700 42.75600
H  57.60400 17.84500 43.31900
H  58.60700 23.38900 44.27900
H  57.99700 25.02900 46.65300
H  57.45000 21.95200 46.52700
H  58.77600 22.99900 47.08600
H  59.02900 21.86300 45.67900
H  58.22100 26.74900 44.24900
H  59.14700 25.37300 43.98300
H  60.08200 25.99300 46.57000
H  60.14400 27.59000 45.78400
H  60.92900 26.17600 45.08100
H  55.53900 29.39100 46.22800
H  53.97900 29.30900 46.94600
H  54.32400 30.39200 45.49600
H  49.52600 27.52800 44.30000
H  48.91900 28.53800 40.12600
H  47.94500 29.71500 41.07000
H  47.47200 27.94800 40.86200
Mg 16.74700 52.30500 26.70500
C  18.73100 50.80600 29.18600
C  14.50600 53.39800 29.12600
C  14.80100 53.37800 24.26800
C  18.66700 50.61300 24.31400
N  16.60900 51.98100 28.94900
C  17.57900 51.42700 29.70500
C  17.28200 51.68700 31.18200
C  15.80100 52.35900 31.12500
C  15.52500 52.52500 29.66000
C  14.70000 51.62600 31.86000
C  18.35600 52.76200 31.79000
C  18.83600 52.62100 33.22800
H  17.78900 52.20100 34.20300
N  14.95300 53.40100 26.71700
C  14.20400 53.79900 27.80700
C  13.17900 54.64100 27.36100
C  13.14900 54.55900 25.96600
C  14.31600 53.76000 25.57400
C  12.21200 55.27100 28.41700
C  12.06500 55.18800 24.98700
O  12.21000 54.91900 23.77800
C  10.97600 56.11300 25.44300
N  16.77900 52.08000 24.50000
C  15.89700 52.70000 23.77000
C  16.38300 52.59900 22.26500
C  17.69400 51.78800 22.31600
C  17.79500 51.51200 23.82800
C  15.40000 52.07200 21.30600
C  18.86500 52.64600 21.80000
C  19.03700 52.61700 20.24000
N  18.35900 50.97300 26.65000
C  19.01800 50.36000 25.57800
C  20.05300 49.55300 26.10300
C  19.98900 49.70000 27.51500
C  18.92900 50.56500 27.76800
C  21.20300 48.81000 25.53400
C  20.66300 49.27700 28.73000
O  21.63700 48.60100 28.97200
C  19.84800 49.96500 29.87000
C  19.41700 49.00400 30.91100
O  18.79600 48.00200 30.59200
O  19.86400 49.35900 32.17600
C  19.73800 48.48000 33.30800
H  13.85100 53.85600 29.87100
H  14.20300 53.71800 23.42100
H  19.40300 50.17700 23.63500
H  17.31800 50.73100 31.70600
H  15.91700 53.34100 31.58200
H  13.85300 51.38400 31.21900
H  14.23800 52.16400 32.68800
H  15.08200 50.66600 32.20700
H  18.05300 53.77400 31.52200
H  19.24600 52.47300 31.23100
H  19.27300 53.60400 33.40200
H  19.72000 51.98400 33.23000
H  11.49000 55.88300 27.87700
H  12.71400 55.88300 29.16700
H  11.72000 54.51600 29.03100
H  11.40200 57.02400 25.86300
H  10.27900 55.56200 26.07500
H  10.42400 56.37100 24.53900
H  16.56100 53.60900 21.89500
H  17.75200 50.82800 21.80200
H  15.72000 51.18400 20.76100
H  15.21300 52.89000 20.61000
H  14.39200 51.87100 21.66900
H  19.83700 52.29600 22.15000
H  18.74900 53.64400 22.22300
H  19.92600 52.07300 19.92100
H  19.17400 53.64000 19.88700
H  18.22000 52.07900 19.75900
H  22.07400 49.44800 25.39000
H  20.92100 48.49100 24.53000
H  21.48100 47.99600 26.20400
H  20.56900 50.66900 30.28600
H  20.73000 48.60700 33.74100
H  19.67100 47.41200 33.09800
H  19.07300 48.84800 34.08900

