158

Mg -1.36400 17.90000 27.03300
C  -1.76400 15.49900 29.80000
C  -1.94000 20.45000 29.30500
C  -1.31900 20.03000 24.47500
C  -0.86000 15.17200 24.90600
N  -1.84700 17.89400 29.24200
C  -1.91500 16.85000 30.18500
C  -2.20400 17.49600 31.57800
C  -2.57800 18.95200 31.27200
C  -1.99300 19.14000 29.88100
C  -4.04600 19.43000 31.50600
C  -1.09600 17.32100 32.63100
C  -1.71200 17.01800 33.98500
H  -0.75400 17.00000 35.18100
N  -1.45500 19.89700 26.93700
C  -1.65000 20.82200 27.93200
C  -1.45900 22.17500 27.43500
C  -1.27600 22.09300 26.03900
C  -1.27600 20.64100 25.75600
C  -1.77600 23.42000 28.28200
C  -1.00400 23.20000 25.00800
O  -0.74400 22.94200 23.83500
C  -1.03400 24.55700 25.43400
N  -1.27500 17.57200 25.07600
C  -1.30300 18.63100 24.20800
C  -0.99600 18.21000 22.72800
C  -0.74600 16.67000 22.86600
C  -0.99700 16.44400 24.36300
C  -2.21700 18.66100 21.86200
C  0.66500 16.31200 22.45000
C  1.82000 16.76700 23.40200
N  -1.22800 15.74800 27.31600
C  -0.97200 14.78700 26.31600
C  -1.02100 13.48000 26.93900
C  -1.35400 13.73800 28.28900
C  -1.47800 15.09100 28.47700
C  -0.77300 12.09000 26.33400
C  -1.49200 13.02300 29.56500
O  -1.32900 11.84400 29.88900
C  -1.83200 14.16800 30.67000
C  -0.77400 14.04000 31.67600
O  0.39300 14.32700 31.46900
O  -1.29000 13.57700 32.81200
C  -0.42800 13.28100 33.97600
H  -2.09100 21.28000 29.99800
H  -1.17400 20.57200 23.53800
H  -0.72100 14.39200 24.15500
H  -3.06200 16.91100 31.90800
H  -2.11100 19.62500 31.99100
H  -4.56700 18.74900 32.17900
H  -4.57600 19.46400 30.55400
H  -3.99000 20.33100 32.11600
H  -0.61400 18.28900 32.77000
H  -0.49700 16.50000 32.23900
H  -2.27200 16.08400 33.96900
H  -2.36800 17.86800 34.17500
H  -0.83500 23.81600 28.66300
H  -2.41800 23.11400 29.10700
H  -2.25200 24.10000 27.57500
H  -2.05400 24.78900 25.74000
H  -0.68800 25.12400 24.57000
H  -0.29300 24.50400 26.23200
H  -0.09300 18.78400 22.51800
H  -1.38900 15.96800 22.33400
H  -2.93000 19.24700 22.44100
H  -2.58300 17.78200 21.33000
H  -1.89700 19.30200 21.04000
H  0.90500 16.69700 21.45900
H  0.79100 15.23100 22.38200
H  2.52600 17.27100 22.74300
H  2.33000 15.91500 23.85200
H  1.45900 17.45500 24.16600
H  -0.06300 12.21400 25.51700
H  -1.66800 11.57000 25.99300
H  -0.26800 11.42300 27.03300
H  -2.84500 14.05200 31.05600
H  -0.62700 12.21700 34.10300
H  -0.82000 13.68400 34.91000
H  0.64800 13.45200 33.98600
Mg 54.26900 24.38000 44.03900
C  51.60300 26.42100 43.27100
C  52.29800 21.65400 43.36800
C  57.04800 22.35500 43.87000
C  56.20400 27.05600 44.78900
N  52.25600 24.07200 43.25400
C  51.33900 25.05300 43.10900
C  49.94800 24.50400 42.83500
C  50.09400 23.01600 43.20900
C  51.64300 22.89900 43.38300
C  49.40100 22.55900 44.53600
C  49.64000 24.59800 41.25600
C  48.16000 24.45800 40.85000
H  47.77800 24.22400 39.41600
N  54.67200 22.26300 43.67600
C  53.64900 21.34500 43.41600
C  54.25500 20.04900 43.32200
C  55.68600 20.17000 43.44400
C  55.91000 21.60800 43.69900
C  53.50800 18.72900 42.98000
C  56.78100 19.04000 43.29800
O  56.51000 17.90100 43.00300
C  58.16000 19.44900 43.56300
N  56.29300 24.60700 44.26600
C  57.30900 23.74500 44.20500
C  58.58900 24.25800 44.86400
C  58.30400 25.74800 45.13200
C  56.86600 25.81000 44.67500
C  59.04400 23.50900 46.06300
C  59.30800 26.76700 44.38800
C  60.21800 27.48700 45.38900
N  54.00200 26.35100 43.99800
C  54.83300 27.33100 44.46100
C  54.17200 28.63500 44.52400
C  52.90100 28.36600 44.01100
C  52.85900 26.90600 43.71500
C  54.91700 29.88200 44.99900
C  51.61300 28.87800 43.70900
O  51.10700 30.01700 43.77700
C  50.72300 27.62600 43.22400
C  50.46800 28.11700 41.85000
O  51.33700 28.13400 40.97300
O  49.11400 28.39300 41.73400
C  48.68700 28.72600 40.36000
H  51.58400 20.82800 43.36200
H  57.98100 21.82900 44.08300
H  56.71300 27.89100 45.27500
H  49.24100 25.00500 43.49600
H  49.78000 22.42800 42.34500
H  49.44500 23.37300 45.26000
H  50.06200 21.75600 44.86200
H  48.33900 22.32100 44.48700
H  50.30200 23.86100 40.80200
H  49.88100 25.57200 40.83000
H  47.75300 25.44000 41.09000
H  47.71900 23.79500 41.59500
H  52.61700 18.71700 43.60600
H  54.10400 17.83000 43.13800
H  53.09900 18.70500 41.97000
H  58.49600 20.13600 42.78600
H  58.74300 18.53200 43.63800
H  58.23000 19.84500 44.57600
H  59.36800 24.14300 44.11100
H  58.23500 25.93800 46.20300
H  59.80800 22.85200 45.64900
H  58.21500 22.94300 46.48900
H  59.41400 24.25700 46.76500
H  58.71900 27.39700 43.72200
H  59.99100 26.21800 43.74100
H  61.19900 27.24700 44.98000
H  60.09900 27.33500 46.46100
H  60.10000 28.56200 45.24800
H  54.75800 29.80300 46.07400
H  54.33400 30.76300 44.73000
H  55.91500 29.94000 44.56500
H  49.75200 27.55100 43.71400
H  49.34900 28.44400 39.54200
H  48.72400 29.79300 40.57900
H  47.67400 28.37600 40.15700

