158

Mg 48.46200 45.15600 42.75400
C  45.13100 45.68200 41.73300
C  48.30400 42.01700 41.44900
C  51.76400 45.18000 42.65900
C  48.54700 48.44500 43.79600
N  46.93600 44.03400 41.76100
C  45.63700 44.41400 41.38500
C  44.87000 43.27500 40.86600
C  45.77700 42.06300 41.16300
C  47.09500 42.70000 41.55200
C  45.26000 41.02100 42.22300
C  44.49200 43.53800 39.42900
C  43.29700 42.87400 38.80700
H  43.36800 42.08500 37.49300
N  49.88100 43.65300 42.33700
C  49.64800 42.42200 41.77000
C  50.88900 41.83800 41.50900
C  51.86600 42.61800 42.09400
C  51.20000 43.86500 42.43900
C  51.08800 40.46900 40.94400
C  53.29700 42.19900 42.29100
O  53.74900 41.20900 41.69100
C  54.26500 43.12400 43.01300
N  49.90200 46.63200 43.23600
C  51.23900 46.39100 43.08600
C  52.07400 47.63100 43.55500
C  51.04600 48.55300 44.18200
C  49.72700 47.83600 43.79700
C  53.42500 47.40500 44.31100
C  51.13100 50.11100 43.73200
C  50.79700 51.12800 44.82500
N  47.12400 46.76100 42.82300
C  47.30900 48.04900 43.34200
C  46.05700 48.75000 43.25600
C  45.15200 47.79900 42.72500
C  45.87300 46.65900 42.42900
C  45.86700 50.16700 43.71000
C  43.80000 47.60400 42.27600
O  42.84500 48.33800 42.31400
C  43.73700 46.16200 41.67500
C  42.76700 45.33000 42.35900
O  41.70200 45.01500 41.85400
O  43.25900 44.89100 43.58700
C  42.41000 43.93300 44.31100
H  48.21600 40.99900 41.06300
H  52.83800 45.22400 42.46900
H  48.49200 49.40800 44.30800
H  43.94600 43.19900 41.44000
H  45.99600 41.60300 40.19900
H  45.79400 41.18400 43.15900
H  45.40900 40.01500 41.82900
H  44.19900 41.17400 42.42100
H  45.30300 43.12600 38.82900
H  44.49000 44.60600 39.21300
H  42.50600 43.62400 38.79200
H  43.08300 42.08700 39.53000
H  51.49700 40.78300 39.98400
H  50.15800 39.92500 40.77600
H  51.78700 39.77400 41.40900
H  53.71700 43.58500 43.83500
H  54.85700 43.75900 42.35300
H  54.87400 42.43500 43.59700
H  52.45400 48.05200 42.62500
H  51.06700 48.59000 45.27100
H  53.58800 46.35700 44.56200
H  53.41800 48.07500 45.17000
H  54.20100 47.79300 43.65100
H  50.31400 50.21800 43.01800
H  52.00200 50.52800 43.22800
H  51.32900 52.05700 44.61900
H  51.26800 50.81400 45.75600
H  49.76400 51.46100 44.92100
H  46.35400 50.85400 43.01800
H  46.47200 50.16800 44.61800
H  44.81900 50.46400 43.75200
H  43.50500 46.30000 40.61900
H  41.57400 44.46900 44.76100
H  43.00400 43.38000 45.03900
H  41.81400 43.27400 43.68000
Mg 29.75300 58.10300 40.92200
C  26.99600 56.11000 39.76400
C  31.84300 55.54800 39.66900
C  32.30600 60.27500 41.12100
C  27.43700 60.81900 41.20200
N  29.48000 56.02800 39.82600
C  28.26100 55.43200 39.56800
C  28.42300 53.97700 39.06300
C  30.00600 53.76300 39.25700
C  30.49800 55.16400 39.64000
C  30.40900 52.81200 40.38800
C  28.00300 53.84000 37.56100
C  28.33100 54.97600 36.47300
H  27.13400 55.64800 35.69800
N  31.76200 57.88500 40.55900
C  32.46300 56.82300 40.06600
C  33.87100 57.12200 39.89000
C  34.00600 58.44100 40.36200
C  32.68000 59.00300 40.69500
C  34.97100 56.21600 39.23000
C  35.33900 59.21300 40.31300
O  36.31600 58.61800 39.86700
C  35.56500 60.61800 40.91900
N  29.79800 60.24200 40.98400
C  31.03900 60.80600 41.30000
C  30.84300 62.26900 41.72400
C  29.31100 62.43300 41.75500
C  28.79800 61.08000 41.27600
C  31.45900 62.63500 43.11400
C  28.67500 63.59100 41.03000
C  28.16400 64.73400 42.02200
N  27.60400 58.43700 40.69700
C  26.86300 59.56100 40.86200
C  25.47200 59.19300 40.78600
C  25.45900 57.87100 40.29300
C  26.83000 57.45100 40.23200
C  24.26400 60.16300 41.04000
C  24.58900 56.78800 39.80500
O  23.39100 56.63100 39.69500
C  25.58900 55.67000 39.35000
C  25.08500 54.42500 39.98400
O  25.12700 54.25200 41.19400
O  24.60500 53.55500 39.04400
C  23.90900 52.31800 39.61900
H  32.51200 54.73800 39.36900
H  32.96400 61.13700 41.24900
H  26.75100 61.63500 41.43900
H  27.84600 53.25900 39.64400
H  30.43400 53.47000 38.29900
H  29.48600 52.39000 40.78600
H  30.95700 53.28100 41.20600
H  30.89900 51.94400 39.94600
H  26.92300 53.69900 37.51900
H  28.36000 52.93800 37.06500
H  29.01000 54.51500 35.75600
H  28.89900 55.72300 37.02700
H  35.57300 56.66500 38.44100
H  34.50900 55.33000 38.79300
H  35.68900 55.91900 39.99500
H  35.13000 61.37100 40.26100
H  36.61100 60.89700 41.04300
H  35.11200 60.54700 41.90800
H  31.20800 62.98100 40.98400
H  28.99200 62.38200 42.79600
H  32.07000 61.78200 43.41000
H  30.76500 62.84600 43.92800
H  32.18100 63.45100 43.09400
H  27.76100 63.23500 40.55600
H  29.33000 63.95200 40.23700
H  28.82500 65.01800 42.84100
H  27.15300 64.55100 42.38400
H  28.05500 65.59000 41.35500
H  24.42300 61.17500 41.41200
H  23.59000 59.67600 41.74500
H  23.82200 60.38100 40.06800
H  25.49600 55.52100 38.27400
H  22.84100 52.50100 39.73400
H  24.40800 51.96900 40.52300
H  23.90600 51.63400 38.77000

