158

Mg 25.47800 0.73400 29.92300
C  27.60400 0.66200 32.83900
C  22.88300 0.49400 32.12300
C  23.48100 0.58400 27.25700
C  28.24800 0.47000 27.95800
N  25.36700 0.65500 32.21100
C  26.28500 0.72300 33.18900
C  25.70300 0.81700 34.59700
C  24.19600 0.66500 34.29800
C  24.13100 0.61600 32.79100
C  23.60600 -0.65900 34.77800
C  26.18500 2.10200 35.32100
C  25.37800 2.41800 36.60100
H  26.09900 2.66800 37.91200
N  23.40900 0.60700 29.71700
C  22.48300 0.50500 30.75700
C  21.13500 0.38500 30.18100
C  21.34900 0.46000 28.77900
C  22.79400 0.59300 28.54100
C  19.88800 0.31500 31.02400
C  20.25300 0.52300 27.65800
O  20.53600 0.58600 26.46300
C  18.82400 0.59100 28.01400
N  25.84300 0.66300 27.87700
C  24.87400 0.75500 26.97700
C  25.36700 0.77900 25.58200
C  26.90000 0.92000 25.80100
C  27.01200 0.65700 27.30500
C  24.91400 -0.31800 24.57300
C  27.65200 2.12400 25.31000
C  28.76300 1.85900 24.31300
N  27.49300 0.55900 30.26300
C  28.47600 0.37000 29.31900
C  29.73500 0.19600 29.95400
C  29.45600 0.28900 31.33300
C  28.04400 0.58300 31.51200
C  30.99500 -0.09000 29.26600
C  30.00800 0.24700 32.71700
O  31.11600 -0.11300 33.09900
C  28.94700 0.71200 33.67600
C  29.01100 -0.09500 34.89500
O  28.53700 -1.17700 35.01700
O  29.83800 0.54500 35.78700
C  29.80900 -0.06300 37.13300
H  22.07700 0.57300 32.85600
H  22.90400 0.59200 26.33000
H  29.04200 0.55000 27.21200
H  26.11400 0.00500 35.19600
H  23.67200 1.53600 34.69100
H  24.22400 -1.10800 35.55600
H  23.36400 -1.39800 34.01500
H  22.64300 -0.49000 35.26000
H  26.06100 3.01900 34.74400
H  27.25300 1.96600 35.49100
H  24.82000 1.50200 36.79700
H  24.75200 3.29200 36.41600
H  19.35400 1.26300 30.96800
H  20.19100 0.09400 32.04800
H  19.22300 -0.47700 30.67900
H  18.14200 0.81400 27.19400
H  18.70100 1.48300 28.62800
H  18.43600 -0.29900 28.51000
H  25.02600 1.72100 25.15200
H  27.43200 0.10200 25.31500
H  24.38400 -1.03600 25.19900
H  25.74300 -0.87700 24.13900
H  24.24100 0.10300 23.82600
H  28.05300 2.79400 26.07000
H  26.95500 2.75800 24.76200
H  28.31600 1.83400 23.31900
H  29.28100 0.90300 24.39900
H  29.37100 2.75300 24.44900
H  31.61200 0.54200 29.90400
H  31.08800 0.29300 28.25000
H  31.23000 -1.14800 29.38600
H  29.10200 1.77600 33.85700
H  30.44400 -0.93100 36.95600
H  28.82200 -0.23500 37.56200
H  30.44700 0.48700 37.82500
Mg 45.17600 4.78100 46.87300
C  43.04300 7.46800 46.04800
C  42.50700 2.75600 46.13300
C  47.28200 2.15700 46.89400
C  47.90500 6.97900 46.52400
N  43.08800 5.11900 46.18000
C  42.41300 6.22900 45.95100
C  41.01600 6.02000 45.33700
C  40.76400 4.62000 45.89500
C  42.25300 4.08700 46.14900
C  39.82600 4.41700 47.09700
C  40.87700 6.39300 43.78700
C  39.61200 7.06200 43.29900
H  39.43500 7.64500 41.88600
N  44.87500 2.72000 46.79100
C  43.72700 2.06700 46.40300
C  44.01200 0.63400 46.36700
C  45.33100 0.43200 46.81700
C  45.88600 1.77300 46.90400
C  42.87800 -0.39600 46.02600
C  45.98800 -0.82900 47.00700
O  45.41800 -1.91900 46.75500
C  47.27800 -0.98400 47.57800
N  47.26700 4.66700 46.60500
C  47.85600 3.40400 46.68700
C  49.37500 3.59900 46.43000
C  49.63100 5.11400 46.72300
C  48.25700 5.62900 46.56800
C  50.37300 2.64200 47.27800
C  50.52600 5.83000 45.71900
C  51.39300 6.89800 46.33800
N  45.48300 6.79700 46.61200
C  46.63300 7.54500 46.48200
C  46.24200 8.94500 46.28700
C  44.87900 8.92800 46.17100
C  44.41900 7.61100 46.31000
C  47.13300 10.13800 46.14000
C  43.76100 9.81700 45.88500
O  43.60200 11.05300 45.77600
C  42.47500 8.80600 45.86600
C  41.57800 9.06500 46.98700
O  41.79100 9.01300 48.19400
O  40.27600 9.10800 46.45700
C  39.24300 9.13900 47.46000
H  41.65500 2.10600 45.92100
H  48.06200 1.39900 46.80100
H  48.79800 7.60700 46.47800
H  40.43300 6.81900 45.79400
H  40.52800 3.90700 45.10600
H  40.26200 3.76200 47.85200
H  38.83500 4.12400 46.74900
H  39.61200 5.27400 47.73600
H  40.86300 5.46000 43.22300
H  41.78600 6.92300 43.50200
H  39.38800 7.84700 44.02100
H  38.74100 6.44400 43.52200
H  43.23200 -1.03000 45.21300
H  42.00500 0.10600 45.61000
H  42.68300 -0.96500 46.93600
H  48.07900 -1.02900 46.84000
H  47.37200 -1.91400 48.13700
H  47.36500 -0.16100 48.28800
H  49.36100 3.44600 45.35100
H  49.95700 5.21100 47.75900
H  49.86700 1.76100 47.67100
H  50.64500 3.21800 48.16300
H  51.28400 2.26600 46.81300
H  49.98200 6.26300 44.88000
H  51.21900 5.09100 45.31700
H  52.39900 6.68300 45.97800
H  51.28500 6.89200 47.42300
H  51.08800 7.90700 46.06000
H  48.04100 9.89600 46.69200
H  46.62800 11.01400 46.54600
H  47.36600 10.34800 45.09600
H  41.85900 8.94700 44.97800
H  39.43900 8.42800 48.26300
H  38.27700 8.80900 47.07700
H  39.16100 10.12800 47.90900

