158

Mg 0.81800 8.88200 26.71900
C  1.26700 10.91500 29.41600
C  0.55200 6.13500 28.98800
C  0.74700 6.75100 24.06000
C  1.09600 11.58100 24.59400
N  0.85400 8.58600 28.97800
C  1.08200 9.58900 29.84200
C  1.11400 9.08200 31.30700
C  1.13700 7.50700 31.14100
C  0.78100 7.37800 29.64200
C  2.45400 6.78000 31.43600
C  -0.01100 9.63800 32.23500
C  -0.28400 8.88500 33.61800
H  0.86800 8.42500 34.46100
N  0.61000 6.80600 26.54900
C  0.47700 5.90200 27.57500
C  0.22100 4.57800 26.98800
C  0.47100 4.61300 25.57400
C  0.57400 6.10800 25.35500
C  -0.00100 3.33500 27.82100
C  0.45900 3.45100 24.57500
O  0.54600 3.74300 23.42100
C  0.22400 1.99300 25.01300
N  0.79600 9.16300 24.63800
C  0.82300 8.14500 23.76800
C  0.92600 8.77700 22.33700
C  0.53400 10.18200 22.56400
C  0.83300 10.31200 23.98900
C  2.37300 8.56100 21.74400
C  -0.97900 10.44900 22.26700
C  -1.36800 11.35700 21.10100
N  1.23400 10.84800 26.89900
C  1.27500 11.85400 26.01300
C  1.69200 13.09600 26.67100
C  1.54400 12.76100 27.99300
C  1.34900 11.39300 28.06000
C  1.84200 14.43000 25.96300
C  1.73100 13.33000 29.30400
O  1.93700 14.46100 29.59600
C  1.45900 12.12100 30.24300
C  2.53400 11.96700 31.22400
O  3.67900 11.67500 30.94300
O  2.04500 12.25200 32.46300
C  2.93800 12.06500 33.63300
H  0.59200 5.25200 29.63000
H  0.60900 6.20500 23.12500
H  1.06300 12.41500 23.89100
H  2.10400 9.39000 31.64500
H  0.35500 7.00700 31.71100
H  3.30700 7.37400 31.76300
H  2.88100 6.53600 30.46400
H  2.27000 5.96900 32.14100
H  -0.89800 9.41900 31.64000
H  0.22000 10.66400 32.52100
H  -1.08300 8.15000 33.51500
H  -0.84500 9.67300 34.12100
H  -0.95700 2.91600 27.50500
H  -0.23900 3.57400 28.85800
H  0.85500 2.66000 27.83900
H  0.54600 1.24400 24.29000
H  -0.81300 1.88600 25.33200
H  0.93700 1.75000 25.80100
H  0.28500 8.26400 21.62000
H  1.27200 10.74900 21.99800
H  2.23500 8.06500 20.78300
H  3.00400 7.92600 22.36600
H  2.92600 9.48600 21.58100
H  -1.30200 11.09500 23.08300
H  -1.61200 9.56200 22.29100
H  -0.57900 11.46500 20.35700
H  -1.74700 12.31000 21.47200
H  -2.21000 10.81800 20.66600
H  2.40900 14.35500 25.03500
H  2.19800 15.10600 26.74000
H  0.84600 14.77400 25.68500
H  0.56000 12.36500 30.80900
H  3.57400 12.94000 33.76600
H  3.47100 11.11400 33.60800
H  2.31200 12.16100 34.52000
Mg -1.94800 34.70900 26.49600
C  -3.93100 33.30200 29.08300
C  -0.69700 36.92600 28.78200
C  -0.60400 36.32000 23.89400
C  -3.70600 32.82000 24.23200
N  -2.37500 35.14200 28.71300
C  -3.06700 34.34900 29.53200
C  -2.81500 34.71900 31.00700
C  -1.85800 36.02300 30.90600
C  -1.59300 36.06900 29.41000
C  -2.29800 37.34900 31.46400
C  -2.17000 33.54300 31.81000
C  -1.57000 33.90000 33.20200
H  -2.49200 33.70700 34.41700
N  -0.83100 36.38400 26.36100
C  -0.39000 37.15900 27.41300
C  0.54500 38.08800 26.88200
C  0.62500 37.89100 25.47900
C  -0.28100 36.78400 25.16800
C  1.21700 39.16100 27.67800
C  1.57200 38.58800 24.51200
O  1.35800 38.57100 23.26900
C  2.81600 39.27500 25.07900
N  -2.15100 34.58600 24.31200
C  -1.51400 35.36700 23.51000
C  -1.74500 35.01500 22.01200
C  -2.81600 33.90000 22.12100
C  -2.91300 33.73900 23.64500
C  -2.10900 36.28100 21.12200
C  -2.48200 32.53700 21.45300
C  -1.16500 31.90000 22.02700
N  -3.51400 33.37300 26.56200
C  -4.15700 32.70300 25.54200
C  -5.14700 31.75500 26.03000
C  -5.08000 31.98800 27.39200
C  -4.16000 32.96000 27.70600
C  -6.05100 30.97000 25.26700
C  -5.53600 31.48200 28.71700
O  -6.22900 30.58800 28.94900
C  -4.85400 32.35200 29.82700
C  -5.75800 33.17000 30.69900
O  -6.68600 33.79600 30.28300
O  -5.46800 32.96600 32.01300
C  -6.44800 33.55900 32.99800
H  -0.04400 37.49200 29.45000
H  -0.36800 36.94000 23.02700
H  -4.15100 32.11100 23.53100
H  -3.75500 34.98700 31.49000
H  -0.82700 35.93300 31.24800
H  -1.48200 37.81700 32.01500
H  -3.13500 37.25200 32.15500
H  -2.53500 37.91200 30.56200
H  -1.37500 33.22400 31.13600
H  -2.95000 32.83800 32.09700
H  -1.46800 34.98600 33.19800
H  -0.62200 33.37100 33.30100
H  0.72700 39.33400 28.63600
H  1.24600 40.12300 27.16600
H  2.20900 38.78300 27.92700
H  2.73000 40.36100 25.11900
H  3.49900 39.04400 24.26100
H  3.28600 38.73800 25.90200
H  -0.86800 34.57500 21.53800
H  -3.79200 34.22400 21.75900
H  -2.12500 37.19800 21.71100
H  -3.08100 36.20400 20.63400
H  -1.45100 36.47400 20.27500
H  -2.25700 32.84600 20.43200
H  -3.29200 31.80900 21.49700
H  -0.40200 31.96900 21.25200
H  -1.43900 30.87700 22.28500
H  -0.77300 32.28400 22.96800
H  -5.54600 30.00600 25.20900
H  -6.13200 31.36400 24.25400
H  -7.06900 30.84800 25.63700
H  -4.23300 31.73100 30.47300
H  -7.32600 32.92200 33.09900
H  -6.85700 34.48800 32.59900
H  -6.12000 33.68400 34.03000

