158

Mg 48.00300 16.35100 28.03100
C  46.30700 16.11000 30.98500
C  50.45000 18.13400 29.67200
C  49.45700 16.95300 25.02500
C  45.27300 15.00600 26.37100
N  48.35200 17.03100 30.13400
C  47.48700 16.73800 31.25200
C  48.19800 17.14000 32.56100
C  49.32100 18.11800 32.06700
C  49.36300 17.83100 30.52500
C  49.10000 19.64200 32.32100
C  48.71000 16.06500 33.56900
C  48.73800 16.43400 35.05100
H  48.09100 17.75600 35.51200
N  49.78300 17.35200 27.48100
C  50.72000 17.93100 28.31100
C  51.91600 18.13000 27.48700
C  51.63200 17.78400 26.12900
C  50.24500 17.34200 26.20300
C  53.17000 18.65100 28.02300
C  52.52700 17.97900 24.85800
O  52.08700 17.84100 23.73700
C  53.89500 18.66400 24.96600
N  47.57000 15.86600 25.96300
C  48.29900 16.29900 24.89800
C  47.61500 15.97500 23.49900
C  46.31800 15.22600 24.03200
C  46.40900 15.25800 25.55500
C  47.32700 17.28100 22.73400
C  45.98900 13.80500 23.59400
C  45.68200 13.56100 22.14900
N  46.12200 15.71800 28.50400
C  45.15300 15.14500 27.75300
C  44.02500 14.83000 28.52900
C  44.45400 15.14700 29.85800
C  45.74300 15.65000 29.75900
C  42.67000 14.23200 28.09400
C  43.95400 15.25200 31.17300
O  42.90500 15.00200 31.69600
C  45.17700 15.84400 32.03300
C  44.65800 16.98000 32.84800
O  44.71300 18.22100 32.64100
O  43.94500 16.42900 33.90100
C  43.63000 17.39200 34.98100
H  51.25900 18.49200 30.31300
H  49.85000 17.13700 24.02300
H  44.51000 14.42800 25.84600
H  47.43100 17.74000 33.05100
H  50.27300 17.82500 32.51000
H  49.78200 19.89000 33.13400
H  48.03100 19.77100 32.49400
H  49.42000 20.23600 31.46500
H  49.71200 15.71400 33.32500
H  47.98200 15.28400 33.35200
H  49.77900 16.49700 35.36500
H  48.33100 15.55400 35.55000
H  53.67100 19.40400 27.41500
H  53.90000 17.89200 28.30400
H  52.94400 19.14400 28.96800
H  53.79300 19.69900 25.29000
H  54.33000 18.74900 23.97000
H  54.59900 18.09500 25.57200
H  48.28200 15.32500 22.93300
H  45.35100 15.68100 23.81700
H  46.31400 17.29100 22.33100
H  48.08800 17.39800 21.96300
H  47.38900 18.22300 23.27700
H  45.21200 13.27400 24.14500
H  46.87700 13.20700 23.79800
H  45.99600 12.53300 21.97300
H  46.26900 14.29500 21.59700
H  44.64900 13.72100 21.84100
H  42.82600 13.25600 27.63500
H  42.08900 14.91800 27.47800
H  42.02800 14.06000 28.95800
H  45.66300 15.16100 32.72900
H  43.24700 16.86300 35.85400
H  42.81500 18.09100 34.79300
H  44.48100 18.02800 35.22700
Mg 1.07700 42.02300 24.99000
C  2.13500 42.13000 28.42400
C  -2.01800 41.12400 26.24700
C  0.08900 41.57700 21.87100
C  4.39700 42.74600 24.02000
N  0.23100 41.53000 27.11400
C  0.80400 41.84600 28.29100
C  -0.17700 41.66500 29.44700
C  -1.55500 41.27600 28.76800
C  -1.13700 41.32300 27.29200
C  -1.89400 39.82700 29.10100
C  -0.24300 42.98300 30.31800
C  -0.31500 42.88100 31.85600
H  -0.47600 41.47100 32.45900
N  -0.80700 41.49700 24.16700
C  -1.88100 41.07300 24.85600
C  -2.95200 40.85000 23.85100
C  -2.41600 40.96400 22.55400
C  -0.99600 41.35700 22.79300
C  -4.36100 40.44600 24.17700
C  -2.98500 40.74800 21.16900
O  -2.33600 41.04200 20.18000
C  -4.38000 40.23600 20.97300
N  2.05000 42.31400 23.26500
C  1.36000 42.05300 22.10300
C  2.28000 42.15800 20.79500
C  3.64700 42.60700 21.51400
C  3.35700 42.53300 23.02500
C  2.26100 40.87400 19.91300
C  4.10700 44.09000 21.11300
C  2.95900 45.12700 21.09800
N  2.92600 42.39400 25.95300
C  4.14200 42.73300 25.45000
C  5.12800 42.74500 26.54100
C  4.28600 42.64900 27.70600
C  3.04500 42.32700 27.30400
C  6.56300 43.04900 26.43100
C  4.30600 42.69100 29.21300
O  5.16200 42.97500 30.07400
C  2.98100 42.36600 29.71500
C  3.34000 41.08200 30.47900
O  3.76300 40.08200 29.95200
O  3.01000 41.20200 31.75500
C  3.41600 40.29700 32.80300
H  -3.04600 41.01900 26.60100
H  -0.16200 41.51300 20.81000
H  5.39200 43.09600 23.73900
H  0.18300 40.90200 30.13600
H  -2.36300 41.98400 28.95500
H  -1.47300 39.48200 30.04600
H  -1.53400 39.22700 28.26600
H  -2.98100 39.87500 29.16800
H  -1.10200 43.53500 29.93400
H  0.68100 43.54700 30.19100
H  -1.16100 43.44800 32.24500
H  0.52100 43.35300 32.37300
H  -5.03000 41.02800 23.54400
H  -4.62100 40.66100 25.21300
H  -4.53500 39.37500 24.06700
H  -4.44100 39.28600 21.50400
H  -4.46900 40.12500 19.89300
H  -5.12000 40.95700 21.32100
H  1.78000 42.98500 20.28900
H  4.38100 41.86400 21.20300
H  1.53300 40.15000 20.27700
H  3.23800 40.38900 19.90100
H  2.12100 41.15200 18.86800
H  4.35600 43.91300 20.06600
H  4.91800 44.44800 21.74700
H  2.07100 44.97100 21.71100
H  2.63000 45.25300 20.06600
H  3.35200 46.09200 21.41700
H  6.62500 43.88700 25.73700
H  7.06100 42.18500 25.99100
H  7.08000 43.27800 27.36300
H  2.63100 43.04000 30.49700
H  4.40000 40.57500 33.18100
H  3.37500 39.21700 32.66400
H  2.75400 40.46500 33.65300

