158

Mg 35.57500 2.50400 30.41300
C  33.03700 3.47000 32.63400
C  37.76700 2.79500 32.95400
C  38.02600 1.67400 28.16200
C  33.26900 2.59900 27.82000
N  35.34600 3.20400 32.53000
C  34.22700 3.28100 33.24500
C  34.54200 3.23800 34.79300
C  36.09300 3.39000 34.77900
C  36.46200 3.03000 33.34100
C  36.61500 4.83500 35.04500
C  34.04600 1.89800 35.39600
C  33.97200 1.90100 36.85300
H  34.59700 2.99500 37.70500
N  37.60100 2.35400 30.51200
C  38.29700 2.47800 31.68400
C  39.70400 2.22100 31.41000
C  39.79700 1.63200 30.10100
C  38.43900 1.89600 29.53500
C  40.85900 2.26100 32.50100
C  40.97300 0.98900 29.34200
O  40.90500 0.74000 28.15500
C  42.29700 0.79300 30.20900
N  35.67400 2.23300 28.34600
C  36.80200 1.93000 27.64100
C  36.50400 1.51700 26.17000
C  34.95000 1.68900 26.12400
C  34.59000 2.27500 27.50000
C  37.12600 2.56700 25.03500
C  34.20100 0.30500 25.92300
C  34.13700 -0.32200 24.49600
N  33.61300 2.98000 30.19900
C  32.79500 2.93700 29.08400
C  31.47800 3.32200 29.47900
C  31.54400 3.52100 30.87300
C  32.86900 3.29100 31.28300
C  30.24600 3.52700 28.59400
C  30.72800 3.90300 31.98700
O  29.55800 4.24200 32.04800
C  31.68800 3.75400 33.25700
C  31.73000 5.06100 33.97600
O  32.02100 6.13400 33.47100
O  31.41200 4.89600 35.32300
C  31.68600 6.10900 36.14500
H  38.49000 2.85000 33.77100
H  38.82300 1.45500 27.44800
H  32.61000 2.52000 26.95300
H  34.00600 4.09900 35.19500
H  36.41300 2.72600 35.58200
H  35.85100 5.44200 35.53200
H  37.06100 5.24800 34.14100
H  37.40500 4.73500 35.79000
H  34.64100 1.05700 35.04100
H  33.05400 1.84300 34.94900
H  34.51900 1.01100 37.16700
H  32.94700 1.88300 37.22300
H  41.14400 1.26400 32.83600
H  40.46200 2.76600 33.38100
H  41.66500 2.88000 32.10700
H  42.95600 1.65100 30.34300
H  42.83200 0.04400 29.62700
H  42.08100 0.17400 31.08000
H  36.89200 0.51100 26.01100
H  34.65300 2.39100 25.34500
H  37.39900 3.53800 25.44900
H  36.37200 2.84500 24.29700
H  38.05900 2.18400 24.62200
H  33.19600 0.36200 26.34100
H  34.73300 -0.43600 26.52000
H  34.24000 0.44200 23.72600
H  33.22600 -0.91900 24.50600
H  34.86100 -1.13500 24.43700
H  29.28800 3.59200 29.11000
H  30.16400 2.75500 27.83000
H  30.36300 4.44800 28.02200
H  31.39200 2.93100 33.90700
H  32.43300 6.79300 35.74200
H  31.93700 5.74300 37.14100
H  30.68500 6.52200 36.27300
Mg -2.16100 34.70600 26.82600
C  -4.07700 33.31000 29.38600
C  -1.14200 37.12000 29.00700
C  -0.86500 36.22900 24.24900
C  -3.65500 32.28100 24.66500
N  -2.75200 35.22600 28.93100
C  -3.41700 34.48100 29.82100
C  -3.26100 34.97600 31.28900
C  -2.37900 36.24100 31.14200
C  -2.05400 36.21000 29.63300
C  -3.14600 37.57300 31.56500
C  -2.58500 33.88000 32.11300
C  -2.39000 34.33300 33.60900
H  -2.92100 33.51300 34.77700
N  -1.10100 36.38400 26.68200
C  -0.66700 37.21200 27.65700
C  0.17700 38.28400 27.13500
C  0.12600 38.12700 25.67600
C  -0.54100 36.85200 25.50100
C  0.65200 39.38600 28.00400
C  0.79400 38.98200 24.63400
O  0.63800 38.81500 23.41900
C  1.58400 40.11200 25.14500
N  -2.13400 34.16300 24.73500
C  -1.58900 35.08900 23.86100
C  -1.78900 34.53500 22.46700
C  -2.46700 33.12100 22.59000
C  -2.78200 33.16000 24.06600
C  -2.50300 35.46400 21.47200
C  -1.51200 31.96000 22.24200
C  -0.07700 31.80100 22.73700
N  -3.58800 33.17000 26.91800
C  -4.11900 32.29900 25.98700
C  -5.08700 31.38200 26.63200
C  -5.00800 31.67500 28.00000
C  -4.17500 32.81200 28.07900
C  -5.96500 30.30200 26.04900
C  -5.47700 31.27400 29.26400
O  -6.24400 30.37500 29.44400
C  -4.88300 32.32400 30.32500
C  -5.92000 32.90300 31.14900
O  -6.64100 33.79300 30.83000
O  -5.96600 32.29800 32.36400
C  -7.12000 32.57400 33.24700
H  -0.49400 37.61900 29.73100
H  -0.52100 36.57100 23.27100
H  -4.11900 31.46900 24.10200
H  -4.26800 35.13200 31.67700
H  -1.46700 36.15400 31.73300
H  -3.94100 37.51300 32.30700
H  -3.57000 38.06300 30.68800
H  -2.48700 38.28200 32.06700
H  -1.58500 33.72700 31.70600
H  -3.20700 32.98500 32.12800
H  -2.91800 35.27500 33.76200
H  -1.34500 34.62900 33.70300
H  1.73300 39.51100 27.94400
H  0.59800 39.10300 29.05600
H  0.05700 40.28400 27.84000
H  0.94700 40.77900 25.72500
H  2.13400 40.57700 24.32700
H  2.27100 39.73300 25.90200
H  -0.79100 34.36000 22.06600
H  -3.40300 33.13400 22.03100
H  -3.06300 36.17700 22.07600
H  -3.10700 35.00400 20.68900
H  -1.76600 35.99400 20.86900
H  -1.51200 31.88600 21.15400
H  -1.99800 31.04400 22.57600
H  0.08400 30.91000 23.34400
H  0.32900 32.69400 23.21300
H  0.49900 31.76900 21.81300
H  -5.96100 30.26800 24.95900
H  -6.97000 30.43500 26.45000
H  -5.54500 29.35900 26.40000
H  -4.23700 31.68000 30.92100
H  -7.94400 33.06900 32.73200
H  -7.03000 33.05800 34.21900
H  -7.50400 31.61400 33.59000

