158

Mg 17.34200 -2.48900 27.88000
C  16.51200 -0.81800 30.81200
C  19.24500 -4.70800 29.73900
C  18.32500 -3.83800 24.92500
C  15.42000 -0.20200 26.16300
N  17.76200 -2.74900 30.04100
C  17.20300 -2.05000 31.10200
C  17.61100 -2.58800 32.43400
C  18.66000 -3.68600 32.02600
C  18.52100 -3.79500 30.50400
C  20.15400 -3.39800 32.51000
C  16.41100 -3.06000 33.32600
C  16.52600 -2.47000 34.76100
H  17.92200 -2.44000 35.37600
N  18.42200 -4.14000 27.49600
C  19.17000 -4.92400 28.32500
C  19.93900 -5.94000 27.63300
C  19.66100 -5.64800 26.22400
C  18.78200 -4.48000 26.17800
C  20.71300 -7.07000 28.32200
C  20.22000 -6.38900 25.01900
O  20.01900 -6.08300 23.85300
C  21.09200 -7.60500 25.18100
N  16.94600 -2.07300 25.77900
C  17.33100 -2.84600 24.74400
C  16.81100 -2.42900 23.43800
C  15.65000 -1.35800 23.87600
C  16.00700 -1.16100 25.36200
C  17.90900 -1.91200 22.57300
C  14.10400 -1.69400 23.70300
C  13.62600 -3.08600 23.98900
N  16.40600 -0.65600 28.23100
C  15.52600 0.08900 27.49800
C  14.95500 1.15300 28.25400
C  15.35300 0.84300 29.57800
C  16.20000 -0.24800 29.55200
C  14.02100 2.15200 27.87500
C  15.31300 1.28000 30.94100
O  14.92400 2.37100 31.49500
C  15.98100 0.13400 31.81100
C  17.06200 0.74700 32.67200
O  18.17800 0.99400 32.34000
O  16.52300 1.12500 33.82100
C  17.28900 1.91900 34.80700
H  20.03200 -5.26600 30.25200
H  18.62900 -4.35800 24.01500
H  14.76000 0.55400 25.73400
H  18.12800 -1.68200 32.74800
H  18.39800 -4.67000 32.41500
H  20.22500 -2.68300 33.32900
H  20.82300 -3.10500 31.70100
H  20.55300 -4.26200 33.04200
H  16.34200 -4.13700 33.47500
H  15.46100 -2.66100 32.96800
H  15.81100 -3.03500 35.35900
H  16.15000 -1.45000 34.67700
H  20.37000 -8.05000 27.99200
H  20.62000 -7.04900 29.40800
H  21.73500 -6.92100 27.97300
H  22.05200 -7.19400 25.49300
H  21.31700 -8.09200 24.23100
H  20.61600 -8.30900 25.86300
H  16.29600 -3.19600 22.85900
H  15.86200 -0.34300 23.54000
H  18.75200 -1.64900 23.21200
H  17.60300 -1.05500 21.97300
H  18.23500 -2.61300 21.80400
H  13.83600 -1.43200 22.67900
H  13.47200 -1.04500 24.30800
H  12.82700 -3.14900 24.72700
H  14.42600 -3.72500 24.36300
H  13.34000 -3.64300 23.09600
H  14.43900 2.79600 27.10200
H  13.62200 2.75300 28.69300
H  13.11300 1.72200 27.45200
H  15.23200 -0.40400 32.39200
H  18.36400 1.99000 34.64300
H  17.28200 1.37200 35.74900
H  17.01800 2.97500 34.79400
Mg 30.17600 58.00200 39.93700
C  27.06700 56.60800 39.16000
C  31.71600 54.98900 39.06800
C  33.19300 59.61700 39.72000
C  28.51800 61.08300 40.11900
N  29.45400 56.02400 39.10100
C  28.12600 55.69400 39.02800
C  27.98500 54.20600 38.76800
C  29.49200 53.63600 38.79700
C  30.30100 54.96700 39.03500
C  29.90300 52.55100 39.86500
C  27.32000 53.89200 37.46600
C  27.95300 54.42700 36.09100
H  27.01100 55.29800 35.23700
N  32.19100 57.31800 39.72100
C  32.63700 56.04100 39.27300
C  34.07400 56.07700 39.12000
C  34.46200 57.46500 39.32900
C  33.25700 58.19800 39.64800
C  34.93400 54.96500 38.77100
C  35.85700 57.97800 39.26100
O  36.69700 57.23000 38.87000
C  36.34600 59.36400 39.78500
N  30.74700 60.00500 39.89200
C  32.01400 60.40200 39.90700
C  32.18600 61.93300 39.84900
C  30.76700 62.39600 40.01600
C  29.95600 61.05000 40.04800
C  33.21000 62.48800 40.84300
C  30.24200 63.44000 38.99900
C  29.86300 64.80100 39.55200
N  28.20900 58.73100 39.85300
C  27.69100 59.99900 39.97800
C  26.23800 59.91900 39.90800
C  26.02100 58.61900 39.51000
C  27.21300 57.96800 39.52900
C  25.36700 61.01400 40.05600
C  24.92000 57.70400 39.17500
O  23.66400 57.87000 39.06400
C  25.58700 56.42500 38.99800
C  24.89400 55.49500 39.86700
O  25.17200 55.37800 41.03600
O  24.03200 54.64500 39.24500
C  23.33000 53.78500 40.16800
H  32.17800 54.02900 38.82700
H  34.12400 60.11700 39.44500
H  28.03000 62.05100 40.24900
H  27.34100 53.85900 39.57500
H  29.77500 53.18800 37.84500
H  30.47800 52.95700 40.69700
H  30.38900 51.65500 39.47800
H  28.99500 52.16400 40.32800
H  26.33000 54.34800 37.45200
H  27.28600 52.80400 37.41400
H  28.25800 53.53900 35.53600
H  28.87700 54.96000 36.31500
H  35.74500 54.80200 39.48100
H  35.31900 55.10300 37.76000
H  34.48100 53.97500 38.81700
H  36.13600 60.18200 39.09600
H  37.42000 59.17300 39.79900
H  36.01800 59.46200 40.82000
H  32.62900 62.25500 38.90600
H  30.63200 62.81200 41.01400
H  33.52500 61.60300 41.39700
H  32.74200 63.23200 41.48600
H  34.09300 62.94500 40.39500
H  29.33900 62.98300 38.59400
H  30.99900 63.49000 38.21600
H  30.28600 65.62800 38.98200
H  30.05400 64.99600 40.60700
H  28.79600 64.98700 39.43400
H  25.73100 61.65000 40.86300
H  24.38000 60.83200 40.48300
H  25.15900 61.53300 39.12100
H  25.32500 56.06200 38.00400
H  23.84600 52.85100 40.38700
H  22.45600 53.45000 39.61100
H  22.90600 54.42000 40.94600

