158

Mg 17.56300 -1.03200 28.04800
C  16.25500 1.04000 30.54500
C  19.06400 -2.90200 30.50700
C  19.24200 -2.69200 25.66900
C  16.29400 1.22400 25.62100
N  17.66700 -0.87800 30.32300
C  16.91900 -0.04500 31.08200
C  17.01000 -0.43500 32.60200
C  18.16400 -1.52600 32.50100
C  18.28400 -1.85400 31.07100
C  19.52000 -1.10200 33.24000
C  15.58800 -0.88200 33.18800
C  15.39400 -0.58900 34.64700
H  16.47800 -0.03400 35.52800
N  19.00000 -2.58000 28.07000
C  19.37300 -3.28000 29.18100
C  20.31200 -4.31100 28.85200
C  20.46800 -4.23100 27.42500
C  19.57600 -3.09400 26.98200
C  20.94100 -5.15200 29.89400
C  21.38500 -5.07300 26.50100
O  21.36400 -4.85400 25.30400
C  22.23300 -6.15000 27.02900
N  17.84100 -0.65100 25.96100
C  18.43300 -1.62500 25.21300
C  18.35700 -1.24500 23.69200
C  17.37200 -0.02000 23.71400
C  17.13500 0.20200 25.23900
C  19.67700 -0.85500 22.98200
C  16.00800 0.00200 22.90400
C  15.90900 0.88200 21.58600
N  16.37400 0.77400 28.01000
C  15.98400 1.58300 27.00500
C  15.23100 2.65200 27.55500
C  15.35300 2.50400 28.98200
C  16.04200 1.38000 29.17600
C  14.35800 3.63100 26.81200
C  14.97100 3.14300 30.23300
O  14.37900 4.21500 30.46000
C  15.46800 2.17500 31.28400
C  16.35000 2.93000 32.10200
O  17.56400 2.76100 32.18700
O  15.62300 3.66200 33.06800
C  16.30700 4.48900 34.07000
H  19.47700 -3.56700 31.26800
H  19.76400 -3.23700 24.88000
H  15.90400 1.90500 24.86100
H  17.37800 0.47600 33.07400
H  17.70000 -2.38600 32.98400
H  19.44700 -0.04200 33.48600
H  20.39800 -1.27200 32.61600
H  19.51800 -1.57300 34.22200
H  15.51800 -1.94900 32.97900
H  14.75000 -0.42500 32.66200
H  14.92000 -1.45600 35.10600
H  14.73100 0.27600 34.64300
H  20.19300 -5.57600 30.56400
H  21.59700 -4.56000 30.53300
H  21.44000 -6.02200 29.46700
H  22.77300 -5.84700 27.92600
H  23.01300 -6.40700 26.31200
H  21.61200 -7.03700 27.15100
H  17.96100 -2.07500 23.10700
H  17.91900 0.90700 23.54400
H  19.59500 0.12200 22.50600
H  19.76600 -1.48700 22.09900
H  20.52000 -0.91100 23.67200
H  15.16400 0.24000 23.55200
H  15.95100 -1.04100 22.59200
H  15.22600 1.73000 21.53300
H  15.72000 0.19200 20.76400
H  16.89000 1.31400 21.38700
H  13.32300 3.35000 27.01100
H  14.57000 3.52800 25.74700
H  14.65100 4.61900 27.16500
H  14.55800 1.88100 31.80800
H  16.03100 5.54000 33.98400
H  17.38800 4.35500 34.11500
H  15.89600 4.22800 35.04600
Mg -5.26600 24.65100 26.89900
C  -3.89400 26.54000 29.54500
C  -6.81400 22.65900 29.19800
C  -6.45600 22.76900 24.43500
C  -2.94800 26.28800 24.82000
N  -5.17600 24.56500 29.09200
C  -4.73000 25.50600 29.97200
C  -5.16300 25.19500 31.38700
C  -5.69600 23.68700 31.24600
C  -5.93100 23.59900 29.77200
C  -4.72000 22.59300 31.77500
C  -6.20500 26.23100 31.85400
C  -6.63300 26.34300 33.38500
H  -5.88600 25.38300 34.32500
N  -6.61700 23.09600 26.79900
C  -7.16900 22.39700 27.86300
C  -8.15700 21.44100 27.41900
C  -8.09700 21.49300 26.05200
C  -7.04700 22.48300 25.67600
C  -9.12200 20.72300 28.42300
C  -8.99600 20.78900 25.17700
O  -8.99700 21.07400 23.99200
C  -9.87500 19.63500 25.51500
N  -4.81100 24.61000 24.92500
C  -5.40600 23.61100 24.09700
C  -4.73600 23.61500 22.72000
C  -3.64700 24.79800 22.89000
C  -3.75200 25.28300 24.29000
C  -4.21100 22.20700 22.44800
C  -3.69700 25.87100 21.76600
C  -2.37000 26.07800 20.99400
N  -3.61200 26.07100 27.05800
C  -2.86600 26.75500 26.11300
C  -2.24200 27.86900 26.74100
C  -2.51800 27.76900 28.06800
C  -3.45100 26.72500 28.22500
C  -1.36000 28.87400 26.00000
C  -2.27200 28.34900 29.40300
O  -1.48900 29.17400 29.78900
C  -3.23500 27.63900 30.31400
C  -2.40800 27.20000 31.44700
O  -1.53300 26.29200 31.35700
O  -2.77300 27.91100 32.60100
C  -2.03800 27.65600 33.80700
H  -7.25600 22.02800 29.97300
H  -6.80400 22.13400 23.61700
H  -2.38800 26.92700 24.13500
H  -4.27400 25.10000 32.00900
H  -6.67800 23.63500 31.71500
H  -3.87600 22.91600 32.38500
H  -4.49700 21.92400 30.94400
H  -5.21200 21.91500 32.47300
H  -7.16700 26.11100 31.35500
H  -5.88400 27.25700 31.67100
H  -7.69300 26.15900 33.55900
H  -6.41400 27.38200 33.63300
H  -10.16100 20.95900 28.19100
H  -8.90100 20.88800 29.47700
H  -9.05400 19.63600 28.37200
H  -10.40100 19.17600 24.67800
H  -10.70800 19.89600 26.16900
H  -9.21400 18.86800 25.91800
H  -5.57900 23.90700 22.09400
H  -2.66800 24.31800 22.89500
H  -4.12600 21.51000 23.28100
H  -3.33500 22.23400 21.80000
H  -4.96300 21.71600 21.83000
H  -4.01600 26.84400 22.13900
H  -4.46200 25.52100 21.07300
H  -1.57800 25.55600 21.53100
H  -2.13700 27.14200 20.97100
H  -2.44000 25.76300 19.95300
H  -1.76400 29.34700 25.10500
H  -0.55200 28.25100 25.61800
H  -0.92000 29.56900 26.71600
H  -3.99200 28.32800 30.68800
H  -1.47300 26.72500 33.85200
H  -2.81500 27.55600 34.56600
H  -1.43600 28.47000 34.20900

