158

Mg -9.75100 40.12900 41.50900
C  -8.57800 36.85100 40.61800
C  -6.82600 41.38900 40.33700
C  -11.19600 43.09800 41.67400
C  -12.85500 38.69200 42.25700
N  -7.95300 39.20500 40.49400
C  -7.64800 37.85300 40.38400
C  -6.28400 37.71200 39.74100
C  -5.60100 39.07700 40.08000
C  -6.88000 39.96400 40.40100
C  -4.64100 39.08800 41.28700
C  -6.41600 37.41400 38.16800
C  -5.59900 36.32000 37.51300
H  -4.40700 36.81500 36.60700
N  -9.01100 41.97100 41.29300
C  -7.85200 42.30700 40.67700
C  -7.84700 43.75000 40.61800
C  -9.00000 44.27500 41.18600
C  -9.82800 43.10900 41.40900
C  -6.64500 44.43600 40.12000
C  -9.30100 45.74600 41.32400
O  -8.39300 46.55300 41.05200
C  -10.61600 46.24400 41.89000
N  -11.81900 40.80400 42.08800
C  -12.10800 42.12600 42.02900
C  -13.64300 42.31400 42.12000
C  -14.11100 40.92000 42.60500
C  -12.89300 40.06300 42.30700
C  -14.20000 43.46500 43.08100
C  -15.29800 40.41900 41.81500
C  -16.22800 39.42500 42.53200
N  -10.51000 38.17400 41.57200
C  -11.80900 37.77900 41.90300
C  -11.90100 36.34100 41.87900
C  -10.66200 35.95400 41.34300
C  -9.84200 37.12300 41.12100
C  -13.23900 35.59100 42.23900
C  -9.83700 34.80200 40.91600
O  -10.09600 33.58900 40.97500
C  -8.52100 35.35900 40.46400
C  -7.42300 34.75600 41.20100
O  -7.28600 34.87500 42.39600
O  -6.47800 34.14700 40.35500
C  -5.36700 33.70800 41.11800
H  -5.92700 41.84800 39.91900
H  -11.66200 44.08500 41.70500
H  -13.83900 38.31200 42.54000
H  -5.81700 36.92600 40.33300
H  -5.07200 39.44700 39.20300
H  -4.64400 38.10400 41.75500
H  -4.88300 39.77900 42.09400
H  -3.63000 39.26900 40.92000
H  -6.06000 38.34000 37.71500
H  -7.43700 37.23500 37.83100
H  -6.33600 35.71900 36.98000
H  -5.20100 35.74400 38.34800
H  -6.81500 44.62800 39.06100
H  -5.73500 43.85000 40.25100
H  -6.41600 45.38000 40.61600
H  -10.67100 45.94600 42.93700
H  -11.51100 46.00700 41.31400
H  -10.52000 47.32600 41.97400
H  -13.90500 42.57100 41.09400
H  -14.19400 40.89600 43.69200
H  -13.40000 43.82100 43.73100
H  -14.89800 43.02000 43.78900
H  -14.61600 44.31600 42.54100
H  -14.93300 39.90800 40.92400
H  -15.87200 41.25200 41.40900
H  -17.30200 39.58100 42.43200
H  -15.92100 39.38200 43.57700
H  -15.95100 38.50900 42.00900
H  -13.82600 35.31600 41.36300
H  -13.87800 36.20400 42.87400
H  -12.97900 34.63200 42.68600
H  -8.41900 35.10900 39.40800
H  -4.80900 34.50400 41.61200
H  -4.75700 33.07700 40.47200
H  -5.70700 32.97700 41.85100
Mg -5.10600 25.52300 25.22000
C  -3.57400 27.15200 27.83900
C  -6.81300 23.50400 27.57300
C  -6.49500 23.74600 22.77100
C  -2.99900 27.28600 23.03000
N  -5.09900 25.32700 27.45400
C  -4.50500 26.23500 28.30200
C  -5.03500 26.05200 29.69800
C  -5.73300 24.62800 29.56700
C  -5.92500 24.42300 28.09400
C  -4.87600 23.46300 30.07200
C  -6.01600 27.24700 30.11700
C  -6.05900 27.72800 31.66500
H  -5.62200 26.74900 32.70600
N  -6.53300 23.83900 25.20300
C  -7.03900 23.25200 26.25100
C  -8.09200 22.28900 25.78900
C  -7.97600 22.29400 24.34200
C  -6.96700 23.33400 24.03900
C  -8.88500 21.44600 26.64300
C  -8.65300 21.41000 23.36000
O  -8.54700 21.53000 22.16600
C  -9.50200 20.24800 23.83500
N  -4.85600 25.62100 23.18000
C  -5.44100 24.68000 22.39000
C  -4.93700 24.86400 20.94700
C  -3.97900 26.12900 21.01100
C  -3.92900 26.35300 22.52700
C  -4.30500 23.64300 20.40300
C  -4.34900 27.35500 20.08900
C  -3.20100 27.89100 19.21100
N  -3.58800 26.94700 25.41100
C  -2.79700 27.58500 24.40900
C  -1.87200 28.52600 25.06400
C  -2.16800 28.44500 26.44100
C  -3.20600 27.50300 26.55500
C  -0.85900 29.42500 24.34600
C  -1.85300 28.90600 27.77700
O  -1.09300 29.79400 28.03600
C  -2.84000 28.08000 28.70900
C  -2.03500 27.43500 29.75300
O  -1.14900 26.59300 29.50100
O  -2.58100 27.66800 30.95300
C  -1.67000 27.35100 32.17000
H  -7.40400 22.84900 28.21600
H  -6.87900 23.20100 21.90700
H  -2.32400 27.72700 22.29400
H  -4.23300 25.95800 30.43000
H  -6.75800 24.58200 29.93500
H  -4.44400 22.83400 29.29300
H  -5.48400 22.89100 30.77300
H  -4.02100 23.83900 30.63300
H  -7.04800 26.94000 29.94400
H  -5.76000 27.98800 29.36000
H  -7.12000 27.90700 31.83600
H  -5.48900 28.65500 31.72800
H  -9.92900 21.73500 26.53000
H  -8.71500 21.49600 27.71900
H  -8.65700 20.40500 26.41300
H  -10.34700 20.64900 24.39400
H  -8.86700 19.57100 24.40600
H  -10.00700 19.65000 23.07700
H  -5.74100 25.16500 20.27600
H  -2.99000 25.86800 20.63400
H  -4.35200 22.84700 21.14700
H  -3.25100 23.83600 20.20600
H  -4.74200 23.27100 19.47600
H  -4.51300 28.22300 20.72900
H  -5.14000 27.08700 19.38800
H  -3.50500 28.00800 18.17000
H  -2.27900 27.31100 19.22800
H  -3.16600 28.95400 19.44900
H  -1.38100 30.17200 23.74800
H  -0.50300 28.83300 23.50200
H  -0.01300 29.75600 24.94900
H  -3.51000 28.84700 29.09800
H  -2.02800 27.70800 33.13600
H  -0.67100 27.75100 31.99700
H  -1.54600 26.26800 32.17600

