158

Mg 44.85800 3.97400 48.58300
C  42.92600 6.87900 47.71200
C  42.22200 2.03700 47.90300
C  46.97200 1.53200 48.37600
C  47.71300 6.25500 48.52000
N  42.86900 4.39800 47.69800
C  42.27800 5.65700 47.62800
C  40.80600 5.50700 47.15600
C  40.50000 3.97700 47.39200
C  41.93300 3.42700 47.71600
C  39.47100 3.72100 48.57100
C  40.65700 6.03100 45.72900
C  39.68000 7.18400 45.58200
H  38.62900 6.72500 44.45000
N  44.59100 2.02000 48.27700
C  43.46600 1.34900 48.04900
C  43.71000 -0.05800 47.96100
C  45.11800 -0.21800 48.14800
C  45.65400 1.13400 48.24600
C  42.70500 -1.01000 47.66600
C  45.82700 -1.52700 48.22400
O  45.30400 -2.61100 47.93900
C  47.40700 -1.65200 48.60900
N  47.03600 3.95500 48.76400
C  47.59600 2.70600 48.61500
C  49.10700 2.79000 48.53500
C  49.36500 4.33000 48.63200
C  47.96600 4.88400 48.66500
C  49.78500 1.89200 49.55000
C  50.30400 4.97600 47.58100
C  51.70400 5.39600 48.02900
N  45.28500 6.12300 48.26600
C  46.44400 6.90100 48.28400
C  46.11900 8.31700 48.12800
C  44.71400 8.33400 47.88500
C  44.28500 7.02500 48.03100
C  47.14100 9.53200 47.99100
C  43.63800 9.22400 47.68300
O  43.59500 10.43300 47.49700
C  42.38900 8.30600 47.56900
C  41.36700 8.67500 48.68300
O  41.53000 8.28500 49.83200
O  40.25800 9.32400 48.23900
C  39.20900 9.75500 49.17100
H  41.34300 1.38900 47.88700
H  47.74200 0.76600 48.26000
H  48.50600 7.00400 48.47200
H  40.14100 6.05600 47.82200
H  40.15500 3.43800 46.50900
H  39.09500 4.60400 49.08700
H  39.97900 3.09600 49.30600
H  38.57500 3.14600 48.33900
H  40.29800 5.18900 45.13700
H  41.59500 6.39000 45.30400
H  40.04900 8.10400 45.13000
H  39.20100 7.45100 46.52400
H  43.06900 -1.81800 47.03100
H  41.77200 -0.65100 47.23000
H  42.47400 -1.53700 48.59100
H  47.60400 -0.96600 49.43300
H  47.97500 -1.42600 47.70600
H  47.80700 -2.62100 48.90800
H  49.41100 2.45300 47.54400
H  49.79400 4.40800 49.63100
H  50.42000 2.39000 50.28300
H  50.47900 1.17400 49.11200
H  49.10600 1.41400 50.25600
H  49.89100 5.77900 46.96900
H  50.54800 4.13000 46.93900
H  51.71800 6.46100 47.79700
H  52.37200 4.83700 47.37300
H  51.90300 5.24700 49.09000
H  48.09700 9.22800 48.41700
H  46.74100 10.42300 48.47500
H  47.22700 9.69400 46.91700
H  41.95400 8.62500 46.62200
H  38.34000 9.10500 49.06600
H  38.92000 10.78700 48.97100
H  39.52500 9.69000 50.21200
Mg 51.59300 46.06000 41.99200
C  48.72300 47.51200 40.73900
C  50.35500 42.95600 40.77400
C  54.58100 44.75400 42.21300
C  52.81700 49.33300 42.77800
N  49.75600 45.31800 40.82100
C  48.70800 46.06300 40.60600
C  47.55200 45.20800 39.97000
C  47.93100 43.74800 40.33600
C  49.47300 44.03500 40.65000
C  47.09500 43.22200 41.52600
C  47.13400 45.40100 38.46800
C  45.66200 45.31500 38.23000
H  45.30300 43.94100 37.55300
N  52.32900 44.08900 41.78300
C  51.68700 42.99000 41.22000
C  52.62500 41.89600 41.24200
C  53.91000 42.33100 41.68500
C  53.64600 43.79100 41.86400
C  52.19500 40.50800 40.91100
C  55.16700 41.50700 41.83600
O  55.11000 40.27600 41.70700
C  56.51100 41.99700 42.11700
N  53.46700 46.96700 42.57200
C  54.53600 46.16400 42.54600
C  55.75300 46.97200 42.86200
C  55.18700 48.40100 43.15100
C  53.77400 48.31700 42.82400
C  56.79200 46.28600 43.83300
C  55.79600 49.67100 42.53900
C  57.31700 49.89200 42.33100
N  50.90800 48.01000 41.87200
C  51.45800 49.21000 42.29800
C  50.53000 50.32100 42.08000
C  49.35800 49.67700 41.48900
C  49.71300 48.29300 41.40700
C  50.74200 51.78500 42.34200
C  48.08600 49.92200 40.90300
O  47.40400 50.95500 40.69400
C  47.66900 48.46800 40.44000
C  46.27800 48.04800 40.69600
O  45.41400 48.33100 39.84700
O  46.09500 47.47500 41.91400
C  44.68200 47.06900 42.22400
H  49.91400 41.98000 40.56100
H  55.61900 44.42300 42.13500
H  53.12000 50.34700 43.04800
H  46.76600 45.63100 40.59500
H  47.68500 43.12800 39.47400
H  47.71600 42.70000 42.25400
H  46.31000 42.61600 41.07400
H  46.56600 44.06100 41.97800
H  47.56500 44.60300 37.86400
H  47.66000 46.27600 38.08400
H  45.50100 46.11000 37.50100
H  44.99300 45.36200 39.08900
H  51.97000 39.87700 41.77100
H  53.03400 40.03800 40.39800
H  51.34200 40.42200 40.23800
H  56.50000 42.43700 43.11500
H  56.57100 42.76700 41.34800
H  57.27400 41.21900 42.09400
H  56.29600 47.04800 41.91900
H  55.20100 48.57900 44.22700
H  57.14400 47.03000 44.54800
H  57.67300 45.98100 43.26800
H  56.27800 45.42900 44.26700
H  55.44300 50.42100 43.24700
H  55.43000 49.87200 41.53200
H  57.40400 50.94200 42.61100
H  57.72900 49.78100 41.32800
H  57.73200 49.20300 43.06700
H  51.40200 52.19800 41.58000
H  51.18400 52.01700 43.31100
H  49.76700 52.25500 42.21700
H  47.55000 48.48700 39.35600
H  44.79000 46.33500 43.02300
H  44.18500 46.73900 41.31200
H  44.19800 48.01500 42.46800

