158

Mg -2.72800 17.44200 27.67800
C  -2.92100 15.38400 30.42100
C  -3.36400 20.08500 29.65000
C  -2.55400 19.33300 24.83200
C  -2.69100 14.56900 25.58500
N  -3.31200 17.62200 29.93600
C  -3.15600 16.70200 30.83300
C  -3.63900 17.28900 32.24300
C  -3.67800 18.81800 31.93600
C  -3.35900 18.87200 30.43400
C  -4.95400 19.53600 32.26600
C  -2.56900 17.06600 33.35500
C  -2.44100 18.04900 34.63100
H  -2.03700 17.33300 35.91600
N  -2.98700 19.43300 27.35500
C  -3.24300 20.34800 28.32600
C  -3.07900 21.64400 27.66100
C  -2.83900 21.50500 26.25200
C  -2.73700 20.02200 26.10200
C  -3.31500 22.82600 28.46300
C  -2.59500 22.47700 25.21400
O  -2.19200 22.19200 24.09200
C  -2.70000 23.94200 25.54700
N  -2.63500 17.05900 25.50700
C  -2.58800 17.96500 24.60400
C  -2.70200 17.41000 23.17000
C  -2.61200 15.90000 23.35000
C  -2.67600 15.80500 24.87000
C  -4.06100 17.72300 22.46900
C  -1.28200 15.30800 22.76200
C  0.09100 15.35900 23.58500
N  -2.78600 15.41500 27.95000
C  -2.72400 14.34000 26.97900
C  -2.64800 13.12900 27.71900
C  -2.82200 13.48400 29.00900
C  -2.85500 14.89100 29.14400
C  -2.63400 11.68500 27.17700
C  -3.01000 12.94500 30.35000
O  -3.15600 11.78500 30.68700
C  -2.98800 14.14400 31.32000
C  -1.76400 13.99700 32.14600
O  -0.71300 14.46300 31.86800
O  -2.09600 13.31700 33.27200
C  -1.11600 13.33800 34.30400
H  -3.42000 20.91600 30.35600
H  -2.65400 20.00400 23.97600
H  -2.77000 13.64900 25.00300
H  -4.61100 16.90300 32.55200
H  -2.84300 19.28700 32.45700
H  -4.80800 20.34500 32.98100
H  -5.47600 18.73100 32.78400
H  -5.47000 19.84400 31.35600
H  -1.62300 17.07800 32.81500
H  -2.70200 16.02100 33.63500
H  -3.40100 18.50100 34.88200
H  -1.53900 18.64300 34.48500
H  -2.70900 22.88100 29.36700
H  -4.39200 22.80900 28.62800
H  -3.00100 23.69000 27.87700
H  -1.81400 24.31900 26.05700
H  -3.72200 23.95800 25.92600
H  -2.72900 24.42000 24.56800
H  -1.92800 17.69200 22.45600
H  -3.52700 15.41000 23.01600
H  -4.54400 18.42800 23.14600
H  -4.79700 16.97200 22.18400
H  -3.84300 18.38400 21.63000
H  -1.02700 15.85300 21.85400
H  -1.40800 14.24700 22.54600
H  -0.04000 15.22800 24.65900
H  0.44200 16.37800 23.42000
H  0.79300 14.59700 23.24800
H  -1.74600 11.63800 26.54700
H  -3.57300 11.52200 26.64700
H  -2.71600 10.94400 27.97300
H  -3.88700 14.14200 31.93700
H  -0.98600 14.25200 34.88300
H  -0.17900 13.04600 33.83000
H  -1.34300 12.46800 34.92100
Mg 50.48900 46.37200 41.53400
C  47.42500 47.62400 40.75700
C  49.58400 43.20300 40.54400
C  53.91000 45.30200 41.71000
C  51.70900 49.69300 42.32300
N  48.61800 45.55700 40.90100
C  47.48900 46.20900 40.52000
C  46.44600 45.21900 39.95600
C  47.10300 43.77600 40.34700
C  48.52300 44.15700 40.68400
C  46.38400 43.03200 41.47800
C  45.91300 45.36400 38.42000
C  44.49100 45.01200 38.02500
H  44.42200 43.98900 36.85200
N  51.59900 44.55200 40.94100
C  50.99100 43.38300 40.58100
C  52.00300 42.40400 40.34700
C  53.24000 43.00900 40.67600
C  52.98000 44.38400 41.13900
C  51.65900 40.95700 39.96500
C  54.55200 42.34000 40.43400
O  54.53900 41.17000 40.07500
C  55.85200 42.91300 40.68900
N  52.63100 47.46500 41.70500
C  53.72100 46.71600 41.95900
C  54.89900 47.52600 42.50900
C  54.15400 48.80800 42.89100
C  52.74000 48.68900 42.27600
C  55.65600 46.88900 43.74100
C  54.90900 50.11900 42.40700
C  55.78000 50.86300 43.41900
N  49.69100 48.24000 41.76500
C  50.29300 49.47200 42.09000
C  49.24100 50.45600 42.01100
C  48.11800 49.72600 41.50900
C  48.43000 48.45700 41.31500
C  49.34700 51.88900 42.34100
C  46.68300 49.88300 41.17400
O  45.83500 50.75700 41.37600
C  46.26900 48.51400 40.52300
C  44.99100 47.93300 41.18500
O  45.03300 47.33800 42.20700
O  43.85800 48.06400 40.43500
C  42.61500 47.68300 41.12300
H  49.20900 42.20800 40.29400
H  54.87600 44.93600 42.06500
H  51.96800 50.67500 42.72200
H  45.55400 45.17800 40.58200
H  47.16400 43.09400 39.49900
H  47.11500 42.72700 42.22600
H  45.97200 42.11200 41.06200
H  45.64600 43.60800 42.03700
H  46.49800 44.70800 37.77500
H  46.09100 46.37500 38.05400
H  44.03700 45.95400 37.71500
H  43.92500 44.53400 38.82400
H  51.87100 40.23800 40.75600
H  52.27400 40.64700 39.12000
H  50.61800 40.98100 39.64300
H  56.02100 42.84600 41.76300
H  55.77600 43.95500 40.38000
H  56.61400 42.52300 40.01400
H  55.66400 47.65300 41.74300
H  53.96500 48.86500 43.96300
H  55.77700 47.66700 44.49400
H  56.60900 46.44600 43.45200
H  55.06500 46.08800 44.18600
H  54.10800 50.73600 42.00200
H  55.55000 50.05600 41.52700
H  55.35100 51.80900 43.74700
H  56.73700 51.02000 42.92000
H  55.90000 50.22400 44.29400
H  49.90500 52.49600 41.62800
H  49.83100 52.09000 43.29700
H  48.34400 52.29300 42.48000
H  46.13400 48.71300 39.46000
H  41.81000 47.73600 40.39000
H  42.35300 48.45200 41.85000
H  42.63200 46.69200 41.57700

