158

Mg 27.08000 50.00900 26.63100
C  25.05400 51.14500 29.23900
C  29.27800 49.11800 28.85000
C  29.30300 49.67000 23.97100
C  24.98900 51.83300 24.33300
N  27.06300 50.13600 28.79600
C  26.15600 50.47700 29.75600
C  26.66500 50.29000 31.17900
C  28.13300 50.01100 30.91000
C  28.16500 49.76800 29.37100
C  29.03200 51.23800 31.27300
C  25.85200 49.25800 32.00100
C  25.11600 49.81300 33.19500
H  25.87400 50.08500 34.52200
N  28.98500 49.32400 26.49100
C  29.70100 48.86300 27.49700
C  30.96500 48.34700 26.99200
C  31.03300 48.57000 25.58100
C  29.75400 49.24300 25.29500
C  31.99700 47.67200 27.85700
C  32.11400 48.06000 24.64300
O  31.97200 48.31700 23.42000
C  33.35200 47.28200 25.18800
N  27.12400 50.64600 24.42000
C  28.09800 50.25900 23.53400
C  27.73600 50.44600 22.03000
C  26.36700 51.18600 22.25400
C  26.09300 51.18400 23.73800
C  28.69700 51.17800 21.13300
C  25.15300 50.68000 21.44100
C  24.37800 49.48800 22.00800
N  25.35000 51.16000 26.71500
C  24.58700 51.77900 25.68100
C  23.45600 52.54800 26.33200
C  23.60100 52.26500 27.68100
C  24.79300 51.47700 27.87500
C  22.42500 53.31100 25.59100
C  22.98400 52.51500 28.95800
O  21.96700 53.07400 29.21300
C  24.01400 51.90100 30.02700
C  24.66600 53.10200 30.66600
O  25.84100 53.46800 30.49400
O  23.90500 53.48000 31.71600
C  24.62200 54.47400 32.59600
H  29.94800 48.70600 29.60700
H  29.98400 49.46300 23.14300
H  24.29500 52.13700 23.54700
H  26.56300 51.23400 31.71300
H  28.52000 49.11300 31.39000
H  29.10300 51.94800 30.44900
H  30.01600 51.03700 31.69600
H  28.52600 51.78700 32.06700
H  26.53000 48.47900 32.35000
H  25.15800 48.73500 31.34300
H  24.32700 49.09900 33.42800
H  24.55100 50.72700 33.01500
H  32.01300 46.65200 27.47300
H  31.79900 47.58800 28.92500
H  32.87000 48.31700 27.76200
H  33.99700 47.20900 24.31300
H  32.93100 46.34600 25.55500
H  33.82400 47.91800 25.93700
H  27.58200 49.44500 21.62700
H  26.37700 52.25700 22.05500
H  28.32000 52.10500 20.70200
H  28.76300 50.59400 20.21500
H  29.60400 51.40100 21.69500
H  25.52600 50.51800 20.43000
H  24.37000 51.42900 21.32000
H  24.96800 48.94800 22.74900
H  24.28600 48.84700 21.13100
H  23.46600 49.86800 22.46800
H  22.28600 54.33700 25.93400
H  21.52700 52.69800 25.66700
H  22.70200 53.36400 24.53800
H  23.46600 51.46400 30.86200
H  25.50100 53.98500 33.01700
H  23.92800 54.85500 33.34500
H  24.93200 55.31700 31.98000
Mg 1.53200 41.99100 25.01500
C  2.90300 42.09100 28.21400
C  -1.44500 41.34700 26.55500
C  0.29600 41.56400 21.99200
C  4.74300 42.62600 23.68200
N  0.83900 41.70000 27.18300
C  1.52800 41.85200 28.31400
C  0.66800 41.93100 29.51600
C  -0.67100 41.35300 28.92800
C  -0.43300 41.50100 27.44200
C  -1.21500 39.96900 29.34700
C  0.44200 43.29300 30.15500
C  1.20800 43.54700 31.44700
H  0.29700 43.62200 32.72400
N  -0.24300 41.57400 24.35900
C  -1.42100 41.37600 25.17100
C  -2.52600 41.07000 24.30500
C  -2.11800 41.29900 22.99000
C  -0.60200 41.47000 23.06000
C  -3.92900 40.77700 24.78000
C  -2.95600 41.30200 21.70600
O  -2.53200 41.47500 20.58700
C  -4.43000 41.21400 21.72700
N  2.44800 41.96500 23.11900
C  1.67600 41.83200 22.00700
C  2.36600 42.20100 20.76700
C  3.72300 42.82100 21.34500
C  3.66700 42.40500 22.78600
C  2.62900 40.99600 19.85200
C  3.80200 44.33200 21.15100
C  4.56600 44.79900 19.84900
N  3.51100 42.29700 25.76600
C  4.67000 42.58400 25.09000
C  5.77600 42.75500 26.06400
C  5.08100 42.52400 27.28100
C  3.72200 42.22100 27.05900
C  7.18700 43.04100 25.52400
C  5.35100 42.57700 28.71400
O  6.33600 42.76600 29.43000
C  3.94900 42.27100 29.31200
C  4.08500 40.96400 30.05500
O  4.64700 39.96700 29.56800
O  3.49900 41.01400 31.26700
C  3.14200 39.76900 31.94400
H  -2.45900 41.28800 26.95500
H  -0.18300 41.55200 21.01000
H  5.68100 42.83800 23.16400
H  1.08200 41.22200 30.23400
H  -1.48900 42.02700 29.18400
H  -1.07600 39.16100 28.62900
H  -2.27200 39.99400 29.61300
H  -0.75400 39.58700 30.25800
H  -0.58400 43.53700 30.43300
H  0.67000 44.10900 29.46900
H  1.87000 44.40000 31.30000
H  1.84800 42.70600 31.71400
H  -4.16500 39.85300 24.25300
H  -4.67000 41.54200 24.54700
H  -4.04900 40.74200 25.86200
H  -4.91400 41.41800 20.77200
H  -4.77600 41.99900 22.40000
H  -4.65300 40.24000 22.16200
H  1.84100 43.04800 20.32600
H  4.63200 42.37000 20.94900
H  1.87100 40.23100 20.02000
H  3.63700 40.60100 19.97800
H  2.46500 41.20100 18.79400
H  4.60800 44.58200 21.84100
H  2.88000 44.84300 21.42900
H  5.36900 45.45600 20.18300
H  3.88200 45.35700 19.21000
H  4.97000 43.97700 19.25900
H  7.64900 43.93200 25.94900
H  7.12200 43.16000 24.44200
H  7.84500 42.17700 25.62400
H  3.63100 43.02900 30.02700
H  3.57400 39.65100 32.93800
H  3.20900 38.87700 31.32100
H  2.09400 40.01300 32.11800

