158

Mg 8.62200 4.45000 27.58600
C  10.12000 2.72000 30.24700
C  6.70500 6.20600 29.77000
C  7.18200 5.94400 24.92200
C  10.22000 2.32800 25.43700
N  8.41000 4.42300 29.73600
C  9.11500 3.67200 30.67800
C  8.69000 3.89600 32.14900
C  7.51400 4.90200 31.89200
C  7.53300 5.25000 30.40300
C  6.12400 4.33000 32.33400
C  9.86100 4.43200 32.94700
C  9.61800 5.08300 34.38700
H  10.09400 4.38200 35.66100
N  7.17900 5.99300 27.35300
C  6.57200 6.64100 28.41400
C  5.68600 7.61300 27.88300
C  5.81600 7.57900 26.44700
C  6.73500 6.48600 26.15800
C  4.80800 8.54800 28.81500
C  5.03300 8.38200 25.43600
O  5.16500 8.09300 24.26300
C  4.10800 9.49900 25.82400
N  8.52000 4.07100 25.47500
C  7.94700 4.88200 24.58200
C  8.24200 4.47300 23.12800
C  9.33100 3.38700 23.35100
C  9.37000 3.21500 24.84200
C  6.90000 4.01700 22.41500
C  10.63000 3.51000 22.52500
C  11.15300 2.25700 21.79600
N  9.88100 2.88500 27.78300
C  10.43600 2.09600 26.77900
C  11.31500 1.10900 27.36700
C  11.23900 1.30400 28.74600
C  10.38200 2.41500 28.90200
C  12.04900 0.07100 26.65400
C  11.66600 0.89200 30.00100
O  12.38600 -0.04200 30.31500
C  10.90000 1.74300 31.11400
C  10.21900 0.90600 31.99500
O  9.21300 0.29400 31.66800
O  10.77300 0.94300 33.26300
C  10.11500 0.07400 34.34100
H  6.15800 6.83800 30.47300
H  6.78000 6.55500 24.11100
H  10.72400 1.58700 24.81300
H  8.41700 2.91600 32.54000
H  7.60800 5.86400 32.39400
H  5.58600 4.98500 33.01800
H  6.26100 3.36200 32.81500
H  5.69000 4.06900 31.36900
H  10.36100 5.22300 32.38900
H  10.69400 3.73300 33.01100
H  8.53400 5.18700 34.44800
H  9.98200 6.10900 34.33300
H  5.08800 9.59800 28.73700
H  4.97500 8.29300 29.86200
H  3.75100 8.47000 28.56000
H  3.91300 10.06700 24.91400
H  4.59100 10.13300 26.56700
H  3.18500 9.02900 26.16600
H  8.54100 5.36600 22.58000
H  8.86800 2.45200 23.03400
H  7.05400 3.09000 21.86100
H  6.58900 4.74700 21.66800
H  6.10500 3.96100 23.15800
H  11.38800 3.86800 23.22100
H  10.45000 4.12300 21.64100
H  10.49700 2.30500 20.92600
H  10.89700 1.39700 22.41500
H  12.17700 2.39900 21.45200
H  11.43100 -0.78900 26.39700
H  12.75100 -0.35000 27.37300
H  12.69400 0.49700 25.88600
H  11.62200 2.32500 31.68700
H  9.25700 -0.47500 33.95300
H  9.85300 0.78000 35.12900
H  10.79600 -0.69300 34.71000
Mg -9.92500 39.38900 39.94900
C  -9.20500 36.05600 39.03500
C  -6.75600 40.15000 38.93900
C  -10.80800 42.66800 39.90400
C  -13.21600 38.42500 40.37500
N  -8.24600 38.21300 39.17600
C  -8.12000 36.86100 38.87200
C  -6.73100 36.53900 38.37300
C  -5.87900 37.74500 38.74700
C  -7.03800 38.78000 39.00600
C  -4.87100 37.56400 39.94300
C  -6.64400 36.04300 36.82800
C  -7.14700 37.05800 35.76100
H  -8.08400 36.76500 34.49500
N  -8.86700 41.21200 39.58600
C  -7.61500 41.29100 39.19300
C  -7.35900 42.65800 38.86100
C  -8.56600 43.41800 38.95000
C  -9.53400 42.43600 39.47000
C  -6.05800 43.20900 38.36600
C  -8.74100 44.92200 38.56100
O  -7.76300 45.43600 38.03500
C  -9.99600 45.55100 38.57700
N  -11.71600 40.41400 40.19400
C  -11.75200 41.71100 40.21900
C  -13.18700 42.15200 40.61900
C  -13.98000 40.84900 40.76200
C  -12.94100 39.82300 40.45400
C  -13.21800 43.07600 41.83200
C  -15.26700 40.73400 39.85100
C  -16.59900 40.69700 40.60500
N  -11.03000 37.61200 39.89500
C  -12.38200 37.41400 40.05900
C  -12.70600 35.99400 39.85900
C  -11.50700 35.41900 39.45200
C  -10.54500 36.44000 39.49700
C  -14.00000 35.35800 40.23200
C  -10.92900 34.16500 38.94800
O  -11.40400 33.06600 38.63000
C  -9.42500 34.59600 38.66300
C  -8.55200 33.79800 39.51400
O  -8.48100 33.89200 40.75700
O  -7.71000 33.07300 38.73300
C  -6.44600 32.61500 39.30800
H  -5.73900 40.45000 38.67800
H  -11.09200 43.72100 39.85700
H  -14.26200 38.10900 40.37000
H  -6.26500 35.68400 38.86300
H  -5.30200 38.06600 37.88000
H  -5.29800 38.05400 40.81800
H  -3.90500 38.05100 39.81000
H  -4.69100 36.52400 40.21300
H  -7.10600 35.11400 36.49300
H  -5.56800 36.06500 36.65600
H  -6.28100 37.53500 35.30200
H  -7.71000 37.79600 36.33300
H  -5.70900 44.11300 38.86700
H  -6.01300 43.32400 37.28300
H  -5.30200 42.45800 38.59600
H  -10.74900 44.96600 38.04900
H  -9.85000 46.45600 37.98700
H  -10.32400 45.75400 39.59700
H  -13.61000 42.77400 39.83000
H  -14.39300 40.59100 41.73700
H  -12.19200 43.36500 42.05800
H  -13.65300 42.52700 42.66700
H  -13.80500 43.96100 41.58600
H  -15.20800 39.89700 39.15600
H  -15.32500 41.55200 39.13300
H  -17.30800 41.50100 40.41000
H  -16.41700 41.01400 41.63200
H  -17.06400 39.71300 40.55400
H  -14.75100 35.59000 39.47700
H  -14.43300 35.64100 41.19100
H  -13.80400 34.29300 40.36100
H  -9.22000 34.42100 37.60700
H  -5.64400 33.27400 38.97500
H  -6.31800 31.56500 39.04700
H  -6.37900 32.89500 40.35900

