158

Mg 2.17400 -1.08700 43.96300
C  5.57600 0.12800 43.49100
C  1.11500 1.65000 42.04400
C  -0.81400 -2.30400 44.07800
C  3.50800 -3.71900 45.71100
N  3.33800 0.63600 42.75700
C  4.65200 0.90600 42.74700
C  4.87200 2.10000 41.85700
C  3.41800 2.68100 41.61500
C  2.52800 1.61400 42.17400
C  3.30200 4.06100 42.33800
C  5.61200 1.46000 40.55600
C  6.85400 2.35500 40.07300
H  7.23800 2.31800 38.57600
N  0.35200 -0.45700 43.07100
C  0.08900 0.72600 42.46700
C  -1.35600 0.95500 42.32900
C  -1.92300 -0.17100 43.03800
C  -0.76600 -1.04900 43.38500
C  -2.06100 2.05800 41.47900
C  -3.43900 -0.42200 43.29200
O  -4.28000 0.30500 42.90900
C  -3.97700 -1.60800 43.99100
N  1.51800 -2.87200 44.56100
C  0.17500 -3.08900 44.63300
C  -0.10800 -4.45200 45.30600
C  1.33300 -5.01000 45.74400
C  2.21400 -3.85400 45.27100
C  -1.14800 -4.58900 46.39500
C  1.78400 -6.38600 45.13400
C  2.58600 -7.37100 46.02900
N  4.10300 -1.73000 44.49000
C  4.52600 -2.78000 45.25400
C  5.94500 -2.76600 45.53800
C  6.34300 -1.63800 44.85400
C  5.22500 -1.05100 44.22000
C  6.67900 -3.80600 46.40100
C  7.53600 -0.91900 44.62400
O  8.68200 -1.14700 44.97500
C  7.10300 0.26900 43.73000
C  7.42700 1.50600 44.40300
O  7.29500 1.74900 45.63600
O  8.06200 2.32500 43.48800
C  8.48900 3.68400 43.98100
H  0.75100 2.60100 41.64800
H  -1.82300 -2.69100 44.23000
H  3.94400 -4.64100 46.10100
H  5.48700 2.86200 42.33400
H  3.24100 2.75200 40.54200
H  4.26000 4.54200 42.53400
H  2.66200 3.88200 43.20200
H  2.72600 4.78000 41.75500
H  4.83500 1.42800 39.79200
H  5.88300 0.40500 40.59100
H  7.61300 2.29700 40.85200
H  6.54900 3.38900 40.23200
H  -2.61400 2.70600 42.15900
H  -2.78900 1.53000 40.86400
H  -1.40400 2.67800 40.86900
H  -4.99500 -1.40300 44.32200
H  -3.46900 -1.70200 44.95100
H  -3.82400 -2.52300 43.41900
H  -0.44600 -4.97800 44.41400
H  1.53300 -4.96200 46.81500
H  -0.79200 -5.14900 47.26000
H  -1.90100 -5.22100 45.92300
H  -1.47400 -3.59600 46.70600
H  2.34200 -6.21000 44.21500
H  0.86600 -6.93000 44.91000
H  2.44600 -7.36100 47.11000
H  3.66100 -7.24800 45.90400
H  2.24500 -8.37100 45.76200
H  7.52100 -3.40900 46.96800
H  7.23600 -4.53100 45.80800
H  6.04700 -4.42900 47.03400
H  7.60100 0.43500 42.77500
H  7.69700 4.34900 43.63500
H  9.45400 3.97000 43.56100
H  8.56400 3.92200 45.04300
Mg 17.17300 -0.56500 27.54200
C  16.06800 1.55900 30.06700
C  19.24200 -2.22700 29.60000
C  18.66400 -1.76600 24.77400
C  15.27100 1.68600 25.35800
N  17.66800 -0.27600 29.61600
C  17.09400 0.58600 30.45800
C  17.61900 0.34000 31.86700
C  18.68300 -0.88000 31.74700
C  18.56800 -1.15900 30.23400
C  20.15800 -0.62000 32.35800
C  16.55900 0.08800 32.91700
C  16.71700 0.68300 34.28400
H  18.03600 1.03800 34.85100
N  18.59000 -2.01900 27.24200
C  19.37400 -2.60800 28.23100
C  20.24200 -3.51700 27.63700
C  20.04000 -3.41100 26.21800
C  19.06000 -2.37100 25.98400
C  21.02100 -4.41700 28.53200
C  20.73100 -4.23200 25.07700
O  20.47100 -4.11700 23.86300
C  21.71900 -5.33300 25.43700
N  16.95600 -0.13800 25.39300
C  17.65600 -0.82900 24.50600
C  17.41400 -0.35100 23.11100
C  16.23200 0.61300 23.21700
C  16.20000 0.81600 24.74700
C  18.66600 0.16400 22.40600
C  14.88400 0.08100 22.61100
C  13.75700 -0.27900 23.56200
N  15.85800 1.17600 27.68300
C  15.10400 1.97600 26.69400
C  14.30100 3.01800 27.34700
C  14.72300 2.88100 28.68300
C  15.61400 1.80200 28.79200
C  13.39900 4.08900 26.86100
C  14.55400 3.51200 29.98000
O  13.93400 4.57900 30.27400
C  15.39500 2.63400 30.92000
C  16.35400 3.47200 31.67000
O  17.50800 3.62300 31.33100
O  15.75500 4.01400 32.74500
C  16.45500 5.06200 33.45800
H  19.84900 -2.85000 30.26000
H  19.16500 -2.08500 23.85800
H  14.56700 2.30000 24.79200
H  18.25800 1.20600 32.03500
H  18.36200 -1.81000 32.21500
H  20.12800 0.26900 32.98900
H  20.97500 -0.42000 31.66400
H  20.45700 -1.49000 32.94300
H  16.38900 -0.98800 32.93600
H  15.63700 0.52300 32.52900
H  16.42400 -0.08900 34.99500
H  16.11600 1.59200 34.33000
H  21.09500 -5.44100 28.16700
H  20.66000 -4.62400 29.53900
H  21.99600 -3.97300 28.73100
H  21.22400 -6.27000 25.69300
H  22.43700 -5.11500 26.22700
H  22.42000 -5.64500 24.66200
H  17.09100 -1.22200 22.54100
H  16.42000 1.56600 22.72100
H  19.41700 0.70600 22.98000
H  18.38200 0.77400 21.54800
H  19.24300 -0.73800 22.20400
H  15.07800 -0.52500 21.72600
H  14.34400 0.87400 22.09300
H  13.35400 0.60100 24.06500
H  14.09200 -0.95600 24.34700
H  12.94600 -0.73200 22.99000
H  12.63100 4.19600 27.62700
H  13.05500 3.99500 25.83200
H  13.95400 5.02700 26.88500
H  14.71200 2.26100 31.68300
H  17.34300 4.64400 33.93300
H  15.87300 5.50800 34.26500
H  16.69100 5.79400 32.68500

