158

Mg 16.33300 -1.75500 28.65600
C  15.65400 0.15400 31.59000
C  18.58100 -3.53600 30.59400
C  17.46200 -3.43800 25.92600
C  14.57500 0.47300 26.81100
N  17.00700 -1.72400 30.87700
C  16.51000 -0.88400 31.89300
C  17.02300 -1.40200 33.23500
C  18.20000 -2.37700 32.82400
C  17.95600 -2.56000 31.32700
C  19.70500 -1.80700 33.04900
C  16.01400 -2.14100 34.17700
C  15.84100 -1.61200 35.60800
H  17.02800 -0.84200 36.24100
N  17.76700 -3.28300 28.30400
C  18.44500 -3.95900 29.28500
C  19.17100 -5.04300 28.67100
C  19.06600 -4.89000 27.28800
C  18.03500 -3.84500 27.10700
C  20.18000 -6.01900 29.40000
C  19.71000 -5.69300 26.09900
O  19.46500 -5.47600 24.92600
C  20.64400 -6.87300 26.42400
N  15.97300 -1.55800 26.62900
C  16.50800 -2.39700 25.70200
C  16.40100 -1.75600 24.33700
C  15.27000 -0.57000 24.52300
C  15.25300 -0.52700 26.08100
C  17.71500 -1.15100 23.93100
C  13.86500 -0.88800 23.82900
C  13.69700 -0.10900 22.51700
N  15.21700 -0.11200 29.05400
C  14.60500 0.72800 28.18500
C  13.81100 1.70500 28.89400
C  14.21500 1.56900 30.23500
C  15.05500 0.43000 30.29900
C  12.93400 2.79300 28.29700
C  14.04900 2.08200 31.59100
O  13.42600 3.07600 32.00100
C  14.96300 1.19100 32.56600
C  15.82400 2.19400 33.22800
O  16.62400 2.85100 32.57900
O  15.38000 2.43300 34.51700
C  15.86100 3.76800 35.04300
H  19.28700 -4.14700 31.16000
H  17.88800 -3.96100 25.06700
H  14.08100 1.19200 26.15300
H  17.43800 -0.55900 33.78800
H  18.04700 -3.34200 33.30800
H  20.35600 -2.05700 32.21100
H  20.16700 -2.25900 33.92700
H  19.66200 -0.74000 33.26300
H  16.37800 -3.15900 34.31800
H  15.04000 -2.14700 33.68900
H  15.70900 -2.45500 36.28700
H  15.04600 -0.86700 35.59000
H  20.13600 -7.08900 29.19800
H  20.16100 -5.78800 30.46500
H  21.20100 -5.74800 29.12800
H  21.55900 -6.62800 26.96200
H  20.91100 -7.30300 25.45900
H  20.00800 -7.50000 27.05000
H  16.06500 -2.51100 23.62500
H  15.74200 0.36800 24.22800
H  18.16800 -0.57200 24.73500
H  17.57700 -0.43600 23.12100
H  18.27000 -2.04500 23.64600
H  13.11900 -0.55800 24.55200
H  13.70500 -1.95800 23.69600
H  14.57600 0.34100 22.05600
H  13.13100 0.79000 22.75900
H  13.22400 -0.65600 21.70100
H  13.34400 3.11500 27.34000
H  12.83000 3.56900 29.05600
H  11.97300 2.33800 28.05500
H  14.40900 0.61800 33.31000
H  15.68500 3.71400 36.11700
H  15.38400 4.56400 34.47100
H  16.94900 3.81900 35.01900
Mg 30.63900 57.59900 40.54900
C  27.61400 55.79600 39.53800
C  32.48400 54.96600 39.23400
C  33.29200 59.57700 40.53800
C  28.50100 60.40200 41.09300
N  30.12500 55.68600 39.56600
C  28.85400 55.13100 39.26700
C  28.96000 53.67100 38.83600
C  30.51900 53.36600 39.12600
C  31.09600 54.72900 39.39700
C  30.71000 52.42700 40.36300
C  28.58100 53.41000 37.31200
C  29.20600 54.33100 36.22500
H  28.60300 54.54100 34.73800
N  32.63000 57.37400 40.00300
C  33.15800 56.23000 39.50700
C  34.47300 56.39900 39.13500
C  34.81900 57.69700 39.58200
C  33.54600 58.27500 40.09600
C  35.34700 55.41700 38.41900
C  36.22100 58.22900 39.47000
O  37.09400 57.54100 38.92500
C  36.48500 59.63400 39.85300
N  30.83500 59.64900 40.83300
C  32.09300 60.22700 40.93100
C  32.00300 61.75600 41.06500
C  30.45800 61.95800 41.41800
C  29.83700 60.59700 41.05800
C  32.87000 62.45100 42.07900
C  29.93000 63.32400 40.75000
C  28.73800 64.06000 41.57700
N  28.53600 58.01500 40.45100
C  27.83500 59.16600 40.78400
C  26.45700 58.90900 40.67500
C  26.26100 57.56800 40.24500
C  27.58100 57.08700 40.07100
C  25.30000 59.85900 40.94300
C  25.28900 56.51300 39.70300
O  24.10400 56.53700 39.50600
C  26.20400 55.26700 39.23200
C  25.86300 54.14100 40.05700
O  26.45600 53.75800 41.08200
O  24.77300 53.57500 39.47400
C  24.36700 52.44300 40.18900
H  33.09600 54.12500 38.90300
H  34.05800 60.35200 40.46300
H  27.83500 61.25300 41.24900
H  28.30800 53.06800 39.46800
H  30.98600 52.88200 38.26700
H  31.09000 51.49000 39.95500
H  29.74900 52.32000 40.86500
H  31.48900 52.72600 41.06500
H  27.51600 53.18200 37.25700
H  29.10700 52.48500 37.07500
H  30.17700 53.87300 36.03500
H  29.46100 55.33000 36.58000
H  34.80600 54.61200 37.92100
H  35.99600 55.01500 39.19700
H  36.00800 55.89100 37.69300
H  37.51900 59.94200 39.70000
H  36.10000 59.88900 40.84000
H  36.02600 60.27400 39.09900
H  32.08000 62.08700 40.02900
H  30.29700 62.06600 42.49100
H  32.32800 62.95600 42.87800
H  33.46700 63.23700 41.61700
H  33.53300 61.71100 42.52800
H  29.61300 63.22100 39.71200
H  30.76200 64.02500 40.80600
H  28.53200 63.49100 42.48200
H  27.82700 64.00200 40.98200
H  28.97400 65.09800 41.81500
H  24.77700 59.72300 41.88900
H  24.59400 59.81200 40.11400
H  25.66100 60.88600 40.87700
H  26.17000 54.98600 38.18000
H  23.73600 51.79200 39.58300
H  23.76600 52.69500 41.06300
H  25.27100 51.89100 40.44700

