158

Mg 16.75300 -1.87600 27.54300
C  15.87300 0.53400 30.21000
C  18.42300 -3.63700 29.92300
C  18.10300 -3.57600 25.09900
C  15.69300 0.59700 25.26100
N  17.24100 -1.49100 29.87500
C  16.72800 -0.51200 30.69200
C  17.13400 -0.81200 32.13100
C  18.13900 -1.98300 31.94800
C  17.88300 -2.44800 30.51100
C  19.61300 -1.73400 32.13000
C  15.92700 -1.14700 33.06700
C  16.01700 -0.47500 34.43400
H  17.27500 -0.03800 35.08200
N  18.00400 -3.53000 27.49800
C  18.55300 -4.16700 28.60800
C  19.26200 -5.32500 28.10200
C  19.04200 -5.42800 26.68700
C  18.30300 -4.18400 26.33300
C  19.94600 -6.27100 29.08800
C  19.50400 -6.56000 25.64800
O  19.34800 -6.55100 24.44700
C  20.16000 -7.81200 26.16700
N  16.86700 -1.54500 25.46000
C  17.60000 -2.37200 24.70700
C  17.51600 -1.92200 23.24100
C  16.79000 -0.52400 23.29700
C  16.41500 -0.44700 24.76400
C  18.85400 -1.92500 22.54300
C  15.55900 -0.47700 22.34900
C  15.51700 0.59000 21.28300
N  15.78400 -0.00700 27.65700
C  15.35300 0.86400 26.63900
C  14.85400 2.16600 27.08000
C  15.00000 2.00000 28.47300
C  15.58800 0.71900 28.77500
C  14.26100 3.33100 26.25500
C  14.74300 2.69100 29.75000
O  14.28100 3.80800 29.96700
C  15.23700 1.71500 30.85400
C  16.19700 2.50600 31.69200
O  17.37000 2.61600 31.44700
O  15.55300 2.88100 32.86200
C  16.35600 3.54000 33.82700
H  18.99000 -4.26400 30.61400
H  18.46700 -4.20600 24.28500
H  15.51600 1.32700 24.46800
H  17.76400 -0.02600 32.54900
H  17.73800 -2.79500 32.55400
H  19.85200 -2.48500 32.88200
H  19.79100 -0.70800 32.45300
H  20.27500 -1.96900 31.29700
H  15.88900 -2.20300 33.33400
H  15.06000 -0.96900 32.43100
H  15.54800 -1.12300 35.17500
H  15.39800 0.42000 34.37000
H  19.43500 -6.06500 30.02800
H  21.01900 -6.09200 29.16200
H  19.60200 -7.30100 28.99200
H  21.16300 -7.65200 26.56200
H  20.28500 -8.58100 25.40500
H  19.50900 -8.13100 26.98100
H  16.84600 -2.62600 22.74800
H  17.63200 0.14700 23.12500
H  18.98400 -0.95400 22.06500
H  18.99800 -2.79600 21.90400
H  19.61800 -1.94200 23.32000
H  14.72800 -0.28400 23.02700
H  15.34400 -1.40900 21.82600
H  14.76100 1.29900 21.62300
H  15.06600 0.19500 20.37300
H  16.38400 1.20100 21.03400
H  13.17900 3.25100 26.35700
H  14.51200 3.13600 25.21200
H  14.51600 4.33500 26.59400
H  14.44400 1.48700 31.56700
H  15.98400 3.15900 34.77800
H  16.23500 4.62000 33.74800
H  17.41600 3.28900 33.78300
Mg -10.10700 17.34200 42.67700
C  -6.60200 16.94400 42.74100
C  -9.50200 20.59100 41.41600
C  -13.41000 17.68600 42.09600
C  -10.45500 13.81300 43.04700
N  -8.23300 18.69400 42.24000
C  -6.92100 18.25200 42.39600
C  -5.93400 19.39500 42.11300
C  -6.90200 20.63700 41.76600
C  -8.31400 19.91400 41.79900
C  -6.74600 21.79600 42.82900
C  -4.97900 19.06300 40.90500
C  -5.56900 18.25600 39.71700
H  -5.01000 18.45700 38.29600
N  -11.27500 18.92500 41.86300
C  -10.84200 20.16800 41.51300
C  -11.93800 20.97100 41.10900
C  -13.12600 20.18000 41.25800
C  -12.66200 18.84700 41.79000
C  -11.76200 22.40700 40.70000
C  -14.60100 20.62100 40.91900
O  -14.78900 21.66100 40.30300
C  -15.80800 19.74600 41.09700
N  -11.74900 15.86600 42.39900
C  -13.02900 16.32400 42.40600
C  -13.99600 15.20600 42.57700
C  -13.03800 13.96400 42.97400
C  -11.66300 14.55300 42.78900
C  -15.15700 15.40000 43.58500
C  -13.29200 12.69600 42.16800
C  -13.26200 12.79900 40.63100
N  -8.92400 15.63200 42.89900
C  -9.14600 14.31100 43.03900
C  -7.93200 13.65900 43.28600
C  -6.99500 14.61100 43.30400
C  -7.59900 15.81200 42.91800
C  -7.80500 12.15700 43.39900
C  -5.59400 14.81100 43.44500
O  -4.79300 13.91000 43.64400
C  -5.26900 16.27900 43.05800
C  -4.55200 16.91700 44.15500
O  -3.43900 17.43600 44.08900
O  -5.47300 17.12700 45.20900
C  -5.15000 17.87100 46.41700
H  -9.23400 21.57000 41.01300
H  -14.50200 17.70300 42.10400
H  -10.58300 12.74100 43.21300
H  -5.32400 19.61900 42.98700
H  -6.58600 20.92300 40.76300
H  -6.11200 21.65600 43.70400
H  -7.69600 21.95800 43.33700
H  -6.53300 22.71300 42.28000
H  -4.21000 18.44000 41.36200
H  -4.58800 20.02300 40.56600
H  -6.62400 18.50200 39.59500
H  -5.44600 17.20600 39.98000
H  -11.69600 22.42700 39.61200
H  -10.93700 22.92500 41.18800
H  -12.61100 22.95900 41.10500
H  -15.62500 18.81200 40.56600
H  -16.57400 20.35100 40.61200
H  -16.02200 19.54300 42.14700
H  -14.39500 14.94800 41.59600
H  -13.17900 13.76600 44.03700
H  -15.74400 16.30000 43.40300
H  -14.84400 15.47900 44.62600
H  -15.84600 14.56100 43.68300
H  -14.31200 12.39800 42.41200
H  -12.56700 11.91400 42.39700
H  -13.16200 13.84400 40.33400
H  -14.23000 12.55200 40.19600
H  -12.49100 12.15600 40.20500
H  -8.69300 11.55800 43.19800
H  -7.43500 11.91500 44.39500
H  -7.19400 11.75900 42.58900
H  -4.67100 16.38900 42.15300
H  -5.13400 18.93600 46.18700
H  -4.18300 17.61300 46.85100
H  -5.93800 17.62200 47.12700

