158

Mg -2.33700 34.41500 25.82300
C  -3.94800 32.51400 28.32600
C  -0.75000 36.03400 28.35200
C  -1.17600 36.50300 23.50600
C  -4.42900 32.85500 23.49800
N  -2.52600 34.37900 28.08000
C  -3.03300 33.42900 28.88800
C  -2.65200 33.65300 30.37000
C  -1.86000 34.99000 30.30300
C  -1.77900 35.19500 28.80100
C  -2.38500 36.14100 31.24300
C  -1.84400 32.46100 31.07200
C  -2.36300 31.95000 32.39600
H  -1.49200 32.12000 33.72800
N  -1.08200 35.93700 25.88000
C  -0.43100 36.44700 27.03700
C  0.60800 37.38200 26.56100
C  0.45500 37.58200 25.13200
C  -0.66700 36.65600 24.78800
C  1.54000 38.07900 27.47500
C  1.32300 38.37500 24.12600
O  1.19500 38.24700 22.95800
C  2.56200 39.14600 24.64500
N  -3.13300 34.95400 23.75200
C  -2.24900 35.72900 23.00000
C  -2.64300 35.58100 21.49400
C  -3.37200 34.21300 21.51700
C  -3.68600 33.94500 23.00500
C  -3.32900 36.83200 20.97500
C  -2.51500 33.02600 20.82600
C  -1.58900 32.25100 21.74400
N  -3.95900 33.01300 25.84500
C  -4.57200 32.38700 24.85100
C  -5.39600 31.30500 25.36100
C  -5.09000 31.30200 26.75600
C  -4.29600 32.41200 26.99000
C  -6.07000 30.20700 24.61000
C  -5.30600 30.53200 27.97300
O  -5.96800 29.50700 28.20600
C  -4.64800 31.32100 29.09100
C  -5.75900 31.79500 29.97900
O  -6.74500 32.37600 29.53000
O  -5.52900 31.50600 31.31300
C  -6.63400 31.92700 32.19600
H  -0.25200 36.54700 29.17800
H  -0.82000 37.11100 22.67200
H  -4.85500 32.14200 22.78900
H  -3.60900 33.81300 30.86500
H  -0.82200 34.84500 30.60200
H  -2.86000 36.95200 30.69000
H  -1.46600 36.50300 31.70500
H  -3.13800 35.73700 31.91900
H  -0.86700 32.91700 31.22700
H  -1.68800 31.65100 30.35900
H  -2.57700 30.89100 32.24800
H  -3.23400 32.51600 32.72700
H  1.55200 37.72500 28.50600
H  1.43700 39.16400 27.48900
H  2.57800 37.91200 27.18900
H  2.98000 39.82100 23.89800
H  3.17800 38.34800 25.06100
H  2.20100 39.82800 25.41500
H  -1.69800 35.56500 20.95000
H  -4.32000 34.23500 20.97900
H  -3.82800 37.33400 21.80500
H  -4.13300 36.57100 20.28700
H  -2.71400 37.60400 20.51300
H  -1.87700 33.40000 20.02500
H  -3.24900 32.33000 20.42000
H  -2.14200 31.33600 21.95400
H  -1.38700 32.74400 22.69500
H  -0.65100 32.01600 21.24200
H  -6.75500 30.70000 23.91900
H  -6.68200 29.76400 25.39600
H  -5.38400 29.50500 24.13700
H  -4.00100 30.67500 29.68300
H  -6.48800 32.89600 32.67400
H  -6.68800 31.10800 32.91200
H  -7.61000 31.86300 31.71300
Mg -11.52100 16.66500 41.50900
C  -8.41200 15.01400 41.12100
C  -10.25700 19.35200 39.62700
C  -14.57200 17.79700 41.42300
C  -12.73300 13.45300 42.58100
N  -9.56300 17.10100 40.47000
C  -8.43300 16.31000 40.52300
C  -7.22500 16.94800 39.83600
C  -7.73100 18.42600 39.42300
C  -9.26700 18.33700 39.86700
C  -6.98000 19.60700 39.91000
C  -6.76200 16.15800 38.62500
C  -5.27900 16.22700 38.32500
H  -4.88000 16.90800 37.03200
N  -12.32500 18.37300 40.69900
C  -11.67600 19.36400 39.95300
C  -12.67800 20.44200 39.68400
C  -13.85200 20.03600 40.22100
C  -13.61900 18.65400 40.83500
C  -12.47600 21.64800 38.76300
C  -15.15300 20.75300 40.08000
O  -15.21300 21.94100 39.73300
C  -16.52800 20.11700 40.37200
N  -13.34600 15.69500 41.67800
C  -14.46700 16.48400 41.81100
C  -15.66600 15.80100 42.41600
C  -15.03000 14.42600 42.78300
C  -13.63800 14.46400 42.24200
C  -16.34700 16.46500 43.67300
C  -15.85500 13.16700 42.37300
C  -16.53300 12.32500 43.52600
N  -10.76200 14.70700 42.04300
C  -11.33400 13.52100 42.43100
C  -10.39800 12.44000 42.55800
C  -9.20900 12.99500 42.10000
C  -9.49000 14.32000 41.69900
C  -10.69200 11.06000 43.12100
C  -7.80400 12.71800 41.93300
O  -7.25600 11.70600 42.15900
C  -7.19100 14.03100 41.24800
C  -6.10700 14.53000 42.16500
O  -6.09400 14.41800 43.37800
O  -5.03400 15.02900 41.47400
C  -3.94000 15.52800 42.26400
H  -9.88900 20.21100 39.06100
H  -15.58900 18.12600 41.64500
H  -13.11100 12.53600 43.03700
H  -6.41500 17.04300 40.55800
H  -7.81000 18.46800 38.33700
H  -6.63800 20.11600 39.00800
H  -6.08200 19.24100 40.40600
H  -7.58500 20.25800 40.54100
H  -7.24700 16.57600 37.74200
H  -7.04600 15.10900 38.54500
H  -5.04800 15.16200 38.30000
H  -4.84500 16.81700 39.13200
H  -11.40200 21.77500 38.89200
H  -12.89300 22.55000 39.21100
H  -12.73500 21.68600 37.70400
H  -17.30000 20.84000 40.10800
H  -16.62000 19.96700 41.44800
H  -16.62900 19.17000 39.84200
H  -16.40100 15.63300 41.62900
H  -14.99300 14.42900 43.87200
H  -16.38900 17.54800 43.55700
H  -15.76900 16.18200 44.55300
H  -17.32700 16.01700 43.84100
H  -15.24000 12.50200 41.76600
H  -16.68800 13.47900 41.74300
H  -17.60700 12.50300 43.47100
H  -16.18800 12.42600 44.55500
H  -16.45100 11.25100 43.36300
H  -9.82600 10.40400 43.03900
H  -11.49600 10.63800 42.51900
H  -11.03500 11.31400 44.12400
H  -6.65300 13.74400 40.34500
H  -3.04300 15.71400 41.67200
H  -3.66700 14.72100 42.94400
H  -4.40800 16.33500 42.82800

