158

Mg 40.85200 8.85600 29.93500
C  42.72700 9.99600 32.72200
C  38.67300 7.38900 31.89200
C  39.30000 7.59300 27.13000
C  43.67500 9.59600 28.00000
N  40.86800 8.61500 32.10200
C  41.66800 9.16600 33.07300
C  41.04000 8.88300 34.46100
C  39.83900 7.85400 34.13200
C  39.73600 7.90500 32.58600
C  39.98000 6.50900 34.81100
C  40.77200 10.17400 35.35400
C  41.22400 10.02500 36.80200
H  41.45600 11.35200 37.56800
N  39.18500 7.74800 29.62500
C  38.35400 7.25200 30.55000
C  37.19700 6.71300 29.97500
C  37.27900 6.91100 28.55600
C  38.66000 7.38100 28.40500
C  36.05200 6.08600 30.77100
C  36.35400 6.68500 27.43800
O  36.59500 6.73400 26.23800
C  35.06000 6.09700 27.79300
N  41.42600 8.69400 27.89000
C  40.53400 8.12200 26.91900
C  41.20100 8.13700 25.49800
C  42.63200 8.82700 25.87900
C  42.59700 9.02900 27.35000
C  41.35500 6.76500 24.68100
C  42.87400 10.16500 25.05800
C  41.97400 11.37200 25.41300
N  42.70100 9.74800 30.21500
C  43.67500 10.06700 29.27800
C  44.79900 10.74400 29.90000
C  44.36100 10.84200 31.22200
C  43.16400 10.14300 31.37500
C  46.18700 11.11400 29.35600
C  44.78000 11.34400 32.55600
O  45.72400 12.01500 32.81000
C  43.60800 10.91000 33.60800
C  44.31900 10.14800 34.70600
O  44.73000 9.00200 34.63300
O  44.57200 10.95400 35.78400
C  45.48200 10.41000 36.86100
H  37.96200 6.89400 32.55700
H  38.85500 7.21800 26.20500
H  44.52900 10.01600 27.46400
H  41.75300 8.31600 35.05900
H  38.93600 8.16600 34.65800
H  40.45700 5.71500 34.23700
H  39.06700 6.09500 35.23800
H  40.68000 6.47900 35.64600
H  39.69300 10.32800 35.33500
H  41.18600 11.10400 34.96500
H  42.25000 9.67100 36.70100
H  40.64200 9.27400 37.33600
H  35.95600 5.01900 30.57200
H  35.10700 6.62900 30.77400
H  36.39100 6.07600 31.80700
H  35.04600 5.04200 28.06400
H  34.45800 6.37200 26.92700
H  34.68000 6.71400 28.60700
H  40.54500 8.87900 25.04200
H  43.42000 8.07600 25.81400
H  42.26000 6.72500 24.07400
H  40.57100 6.74500 23.92400
H  41.30200 5.88000 25.31500
H  42.67300 9.93900 24.01100
H  43.93000 10.43200 25.10500
H  41.52100 11.25700 26.39700
H  41.23200 11.57200 24.64000
H  42.70600 12.16600 25.55900
H  46.56900 10.21300 28.87600
H  46.97100 11.44900 30.03500
H  45.86300 11.80700 28.58000
H  43.10100 11.77900 34.03000
H  46.33900 9.84200 36.49800
H  44.90900 9.75400 37.51600
H  45.88000 11.26500 37.40700
Mg 0.23400 44.10600 26.62400
C  2.51400 43.96500 29.27200
C  -2.22100 43.39400 29.03100
C  -1.88500 43.47000 24.03900
C  2.78200 44.64600 24.33900
N  0.17600 43.90200 28.99000
C  1.22300 43.84700 29.84200
C  0.83600 43.78000 31.28500
C  -0.62500 43.37000 31.13700
C  -0.93800 43.63300 29.60200
C  -0.84400 41.85100 31.50500
C  1.09400 45.08900 32.09700
C  1.39300 44.82500 33.60500
H  0.98300 43.58500 34.35600
N  -1.73600 43.46200 26.55600
C  -2.56000 43.20800 27.62300
C  -3.85900 42.77300 27.17900
C  -3.80000 42.85800 25.68000
C  -2.45800 43.36800 25.35200
C  -5.06500 42.49200 28.12500
C  -4.95000 42.55000 24.67000
O  -4.74800 42.44600 23.47600
C  -6.33700 42.21100 25.15200
N  0.40100 43.93400 24.50400
C  -0.58700 43.65900 23.64700
C  -0.14300 43.80900 22.16200
C  1.32400 44.28100 22.30700
C  1.52400 44.31400 23.82600
C  -0.24500 42.44600 21.44200
C  1.74600 45.47500 21.41800
C  0.73500 46.60500 21.43600
N  2.22600 44.26100 26.75500
C  3.15300 44.48700 25.73200
C  4.47800 44.37600 26.28300
C  4.25700 44.13500 27.68300
C  2.91700 44.05600 27.91900
C  5.81500 44.44000 25.54500
C  4.89200 43.78400 28.85800
O  6.07900 43.58400 29.10500
C  3.83600 43.85100 29.99700
C  4.04200 42.70500 30.95400
O  3.69400 41.55800 30.79600
O  4.81900 43.15100 32.00700
C  4.86900 42.16800 33.10600
H  -2.98700 43.12400 29.76000
H  -2.43300 43.37100 23.09900
H  3.57200 44.72100 23.58900
H  1.36700 42.94900 31.75000
H  -1.37200 44.01600 31.59700
H  0.01000 41.18900 31.65300
H  -1.41300 41.33700 30.73000
H  -1.54800 41.74100 32.33000
H  0.20000 45.70100 31.97800
H  1.95200 45.55700 31.61500
H  1.10600 45.75500 34.09500
H  2.48100 44.79200 33.66300
H  -5.27100 43.50200 28.48000
H  -4.62000 42.08400 29.03200
H  -5.89100 41.89000 27.74600
H  -6.37300 41.29400 25.74000
H  -7.01100 42.18200 24.29600
H  -6.71900 43.03300 25.75800
H  -0.85300 44.53000 21.75800
H  1.88900 43.44600 21.89200
H  -0.36900 41.63800 22.16300
H  0.61000 42.16100 20.82800
H  -1.13600 42.53600 20.82100
H  1.89500 45.03200 20.43300
H  2.76600 45.78000 21.65300
H  0.01200 46.48400 22.24300
H  0.15300 46.60900 20.51400
H  1.27900 47.51300 21.69600
H  6.02200 43.41700 25.22900
H  6.59000 44.69100 26.26900
H  5.79200 45.03400 24.63100
H  3.96900 44.79100 30.53200
H  4.99900 41.13300 32.79000
H  3.98500 42.16600 33.74200
H  5.73800 42.52600 33.65800

