158

Mg 17.15500 -0.72200 28.37300
C  16.17100 1.03300 31.06500
C  19.38900 -2.41700 30.26700
C  18.39000 -2.11100 25.56500
C  15.26400 1.49500 26.33000
N  17.61600 -0.69600 30.45400
C  16.92200 -0.05900 31.39300
C  17.22000 -0.53400 32.86000
C  18.38100 -1.55800 32.58200
C  18.47200 -1.59600 31.02400
C  19.65400 -1.41800 33.49300
C  15.99500 -0.97000 33.65600
C  15.59000 -0.25200 34.98500
H  16.81600 -0.03900 35.92100
N  18.62300 -2.14700 28.00200
C  19.50500 -2.71700 28.90500
C  20.38700 -3.61300 28.20900
C  20.08900 -3.54000 26.84600
C  18.93500 -2.58600 26.73400
C  21.27800 -4.55700 28.98900
C  20.76600 -4.25000 25.69300
O  20.44100 -4.14300 24.52100
C  21.91300 -5.17300 25.87600
N  16.96700 -0.29600 26.16100
C  17.49500 -1.10900 25.21300
C  17.19900 -0.56300 23.78800
C  16.00800 0.38900 24.06500
C  16.05200 0.57400 25.61300
C  18.44300 0.00800 23.01600
C  14.62200 -0.01700 23.37200
C  13.57600 -0.67700 24.26200
N  15.89300 0.87200 28.63500
C  15.09800 1.60000 27.71400
C  14.37400 2.58800 28.45000
C  14.72200 2.35000 29.77900
C  15.72100 1.31700 29.85600
C  13.27600 3.57600 28.04100
C  14.48500 2.87400 31.10500
O  13.72900 3.68800 31.56500
C  15.46900 1.98500 32.05800
C  16.43300 2.84100 32.74700
O  17.44300 3.27600 32.25600
O  15.95900 3.14400 34.07100
C  16.68200 4.09800 34.87800
H  20.06100 -3.00200 30.89800
H  18.85900 -2.51800 24.66600
H  14.58500 2.06900 25.69600
H  17.63100 0.33500 33.37400
H  18.07100 -2.53800 32.94400
H  19.48700 -0.48400 34.03000
H  20.65200 -1.29600 33.07300
H  19.78500 -2.19700 34.24400
H  16.05100 -2.01800 33.95000
H  15.13800 -0.84300 32.99400
H  14.97100 -0.94500 35.55400
H  14.97800 0.64300 34.88000
H  21.33600 -5.55500 28.55400
H  20.92700 -4.61800 30.01900
H  22.33900 -4.30600 29.00500
H  22.53100 -4.71400 26.64800
H  22.46500 -5.32800 24.94900
H  21.55500 -6.14900 26.20300
H  16.81500 -1.34000 23.12800
H  16.20300 1.37000 23.63300
H  18.18400 0.99600 22.63400
H  18.62700 -0.73600 22.24100
H  19.35400 0.09000 23.60900
H  14.77500 -0.73300 22.56500
H  14.34400 0.96300 22.98500
H  14.10800 -1.09400 25.11800
H  13.16200 -1.53100 23.72600
H  12.77300 0.03400 24.45400
H  13.74200 4.44600 27.57800
H  12.67400 3.83800 28.91000
H  12.78800 3.07700 27.20400
H  14.90300 1.33700 32.72700
H  16.06500 4.95600 34.60900
H  17.71100 4.16100 34.52300
H  16.67600 3.74300 35.90800
Mg 49.31700 45.14900 43.22800
C  46.39600 46.35900 41.84200
C  49.04800 42.18600 41.28900
C  52.62800 44.29500 43.76700
C  50.00400 48.43900 44.27800
N  47.97100 44.36200 41.77200
C  46.78000 45.09000 41.35300
C  46.12300 44.22700 40.26600
C  46.94200 42.92700 40.18500
C  48.05800 43.18700 41.17400
C  46.12500 41.55100 40.49600
C  45.97700 45.02400 38.90300
C  44.53800 45.21700 38.41000
H  44.42600 44.55500 37.00500
N  50.62000 43.39100 42.81800
C  50.31000 42.33300 41.95200
C  51.39400 41.43100 41.97500
C  52.42000 41.99500 42.77600
C  51.88100 43.25800 43.26600
C  51.35900 40.14100 41.24200
C  53.84300 41.34000 43.06500
O  54.10900 40.22700 42.62700
C  54.78100 41.98600 43.91200
N  51.04100 46.21900 44.02800
C  52.30500 45.61100 44.08800
C  53.36400 46.70200 44.40300
C  52.41000 47.93900 44.74600
C  51.05300 47.48500 44.29000
C  54.34300 46.24000 45.48800
C  52.91200 49.36000 44.20400
C  52.92800 50.49700 45.16400
N  48.31000 46.95000 43.33300
C  48.64600 48.20500 43.88000
C  47.51000 49.07500 43.80300
C  46.63500 48.39000 43.02300
C  47.12800 47.11500 42.74100
C  47.40200 50.50500 44.35500
C  45.32100 48.45600 42.36800
O  44.42600 49.24800 42.44000
C  45.21300 47.15900 41.49200
C  44.00500 46.38500 41.89800
O  42.95700 46.40700 41.32700
O  44.18600 45.58300 43.02800
C  42.95600 44.85700 43.56700
H  48.98300 41.42100 40.51200
H  53.71300 44.22300 43.86700
H  50.26900 49.46400 44.54500
H  45.17300 44.01700 40.75700
H  47.40000 42.88800 39.19700
H  45.05000 41.71100 40.57500
H  46.41500 41.03700 41.41200
H  46.26000 40.98600 39.57400
H  46.56400 44.60700 38.08500
H  46.37800 46.03000 39.02500
H  44.20400 46.25400 38.38200
H  43.92200 44.68000 39.13100
H  50.34900 39.76500 41.07800
H  51.74100 39.31900 41.84800
H  51.85100 40.27800 40.28000
H  54.33800 42.50300 44.76300
H  55.41600 42.70800 43.39900
H  55.42200 41.16400 44.23100
H  53.98600 46.86000 43.52200
H  52.24900 47.93400 45.82400
H  54.06300 45.25600 45.86400
H  54.33100 46.87400 46.37500
H  55.35500 46.35000 45.10000
H  52.20500 49.68600 43.44100
H  53.89400 49.28600 43.73600
H  52.49400 51.37900 44.69400
H  53.94000 50.69300 45.51900
H  52.36200 50.38900 46.08900
H  47.78500 51.15500 43.56800
H  48.08000 50.60600 45.20200
H  46.39800 50.81100 44.65200
H  45.13200 47.46700 40.44900
H  42.22900 45.58700 43.92200
H  43.24100 44.19300 44.38300
H  42.52200 44.29400 42.74100

