158

Mg 35.47600 2.45000 29.19700
C  33.55800 3.80800 31.94700
C  38.20500 2.48200 31.15800
C  37.21500 1.77500 26.44700
C  32.56300 2.99900 27.22500
N  35.80600 3.10600 31.32900
C  34.85400 3.38900 32.27900
C  35.56700 3.41500 33.67200
C  37.09500 3.15200 33.38500
C  37.05400 2.91400 31.82000
C  38.14200 4.19700 33.77000
C  34.88800 2.59700 34.87200
C  35.66500 1.63400 35.78500
H  36.65300 2.19300 36.76300
N  37.48400 1.97500 28.91100
C  38.45300 2.03100 29.81300
C  39.67100 1.52100 29.24600
C  39.46000 1.32500 27.83600
C  38.00600 1.71300 27.65900
C  40.85500 1.25500 30.06200
C  40.27000 1.01000 26.66300
O  39.95100 0.99700 25.50100
C  41.66500 0.67900 26.96400
N  34.95900 2.43000 27.16000
C  35.81000 1.99700 26.24500
C  35.19100 1.90300 24.89100
C  33.68600 2.00000 25.16400
C  33.72300 2.48400 26.61700
C  35.76300 2.87900 23.86700
C  32.93900 0.62100 25.12700
C  32.99100 -0.36700 23.90800
N  33.41100 3.16000 29.50700
C  32.44800 3.42300 28.57600
C  31.25100 3.97700 29.27900
C  31.71000 4.13800 30.67000
C  32.99600 3.61900 30.73100
C  29.83700 4.33600 28.74100
C  31.26500 4.43100 31.96000
O  30.17000 4.77700 32.28800
C  32.42800 4.17300 32.88900
C  32.66000 5.39300 33.73000
O  33.44900 6.26200 33.53600
O  31.71500 5.39900 34.75100
C  31.58400 6.70400 35.40200
H  39.09000 2.32100 31.77800
H  37.66000 1.49000 25.49200
H  31.71700 3.04900 26.53600
H  35.57800 4.44700 34.02500
H  37.52900 2.28700 33.88500
H  38.51900 4.80400 32.94700
H  39.04200 3.66000 34.07100
H  37.76900 4.79400 34.60200
H  34.17800 1.97400 34.32700
H  34.21300 3.16700 35.51000
H  36.09300 0.84000 35.17300
H  34.94400 1.06400 36.37200
H  41.00600 0.17800 30.13200
H  40.76900 1.58200 31.09800
H  41.74800 1.71400 29.63600
H  41.79800 -0.10200 27.71300
H  42.21100 1.59600 27.18500
H  42.05200 0.24100 26.04400
H  35.40400 0.90700 24.50300
H  33.18200 2.81300 24.64000
H  36.74800 3.25200 24.14800
H  35.22600 3.82300 23.76500
H  35.99100 2.40900 22.91000
H  31.96000 1.06700 24.95300
H  33.10100 0.09900 26.07000
H  31.98900 -0.76500 23.74400
H  33.66700 -1.18600 24.15400
H  33.45400 0.15400 23.07100
H  29.28400 3.44500 28.44400
H  30.02200 4.94500 27.85700
H  29.21900 4.79000 29.51600
H  32.23400 3.27300 33.47300
H  31.12400 7.30100 34.61500
H  32.45500 7.10200 35.92300
H  30.86800 6.67500 36.22300
Mg 16.64700 51.31400 27.09700
C  18.74300 50.15300 29.74200
C  14.39100 52.16300 29.31900
C  14.88500 52.36000 24.49200
C  19.15200 50.19100 24.88900
N  16.63200 51.25000 29.22600
C  17.56000 50.77800 30.16900
C  17.20900 51.05900 31.61600
C  15.70600 51.43800 31.48400
C  15.49900 51.61900 29.91400
C  14.64900 50.56000 32.16900
C  18.04500 52.23900 32.17800
C  18.37200 52.26600 33.67000
H  17.19600 51.79100 34.56300
N  14.89400 52.22500 26.89700
C  14.08100 52.50400 27.98000
C  12.98700 53.27900 27.55400
C  13.00400 53.33300 26.08500
C  14.27500 52.61300 25.75300
C  12.01600 53.96400 28.44700
C  12.02100 53.83400 25.01600
O  12.21100 53.77200 23.81000
C  10.80700 54.67500 25.52700
N  17.00800 51.21100 24.91900
C  16.09400 51.81400 24.04100
C  16.59700 51.86700 22.62900
C  17.98100 51.15800 22.75600
C  18.13400 50.92200 24.27400
C  15.66800 51.19300 21.59900
C  19.22800 51.87100 22.15900
C  19.68800 51.27100 20.80900
N  18.45600 50.29500 27.22200
C  19.31200 49.81600 26.26800
C  20.33800 49.05700 26.82900
C  20.20500 49.22800 28.22000
C  19.07600 49.99600 28.38100
C  21.45400 48.48600 26.02500
C  20.81100 48.89900 29.53500
O  21.81200 48.25100 29.74000
C  19.85200 49.53000 30.59300
C  19.32000 48.50700 31.53300
O  18.44000 47.70400 31.31700
O  20.07200 48.53300 32.71100
C  19.76700 47.43000 33.65600
H  13.62900 52.39200 30.06600
H  14.30700 52.83500 23.69600
H  19.96400 49.93700 24.20400
H  17.39500 50.18200 32.23600
H  15.66000 52.43900 31.91200
H  14.06800 50.01100 31.42800
H  13.96700 51.19200 32.73800
H  15.22000 49.89700 32.81900
H  17.53900 53.19900 32.07400
H  18.94700 52.32300 31.57200
H  18.59700 53.31100 33.88000
H  19.27200 51.67600 33.84100
H  11.10000 53.38000 28.53900
H  11.81200 55.00300 28.18900
H  12.39000 53.97200 29.47100
H  11.17700 55.60600 25.95500
H  10.27300 54.13800 26.31100
H  10.15800 54.88200 24.67700
H  16.76200 52.88700 22.28100
H  17.87400 50.16300 22.32300
H  15.00300 51.94300 21.17200
H  15.12800 50.48000 22.22200
H  16.15700 50.53000 20.88500
H  20.05900 51.74100 22.85200
H  19.23900 52.95700 22.06600
H  20.17600 52.08900 20.27900
H  18.87200 50.88100 20.20000
H  20.45900 50.52900 21.01500
H  21.08100 48.10500 25.07400
H  21.92800 47.70100 26.61400
H  22.09400 49.35800 25.88700
H  20.33200 50.21700 31.29000
H  20.13500 46.50500 33.21400
H  18.68600 47.36300 33.78100
H  20.32000 47.78400 34.52600

