158

Mg 47.71500 25.16900 28.31800
C  48.89300 27.14800 30.98500
C  46.85100 22.70100 30.57900
C  47.42500 23.04900 25.74000
C  49.07500 27.46700 26.07800
N  47.78100 25.05400 30.52700
C  48.33600 25.92000 31.43000
C  48.16300 25.39900 32.88700
C  47.42700 24.03800 32.68900
C  47.33400 23.92800 31.16600
C  48.12200 22.85000 33.40400
C  47.50400 26.33900 33.93400
C  46.47200 25.96700 34.94500
H  46.57000 26.55300 36.39500
N  47.13300 23.22100 28.18600
C  46.77100 22.35200 29.20500
C  46.24400 21.12300 28.69300
C  46.51400 21.15000 27.29800
C  46.98900 22.53700 26.99800
C  45.67000 20.06800 29.55400
C  46.31000 20.10500 26.23700
O  46.66700 20.26800 25.08700
C  45.82800 18.75800 26.72700
N  48.38000 25.18600 26.19000
C  47.91700 24.24300 25.30500
C  48.09500 24.60200 23.82600
C  48.42100 26.10200 23.96200
C  48.62100 26.29500 25.48900
C  49.24300 23.70800 23.27400
C  47.31800 27.04000 23.37300
C  46.04100 27.00800 24.13000
N  48.71100 26.96800 28.40100
C  49.15700 27.83800 27.38700
C  49.66100 28.98100 28.03000
C  49.45400 28.81300 29.34200
C  49.05700 27.47800 29.59600
C  50.22500 30.18900 27.49700
C  49.59500 29.52200 30.64000
O  49.96800 30.66900 30.89100
C  49.28000 28.40500 31.72100
C  50.53000 28.14700 32.46700
O  51.51200 27.61700 32.03600
O  50.37600 28.55700 33.74200
C  51.42400 28.16200 34.74200
H  46.36500 22.04800 31.30800
H  47.26500 22.37700 24.89400
H  49.31600 28.20700 25.31200
H  49.15800 25.18900 33.27800
H  46.43200 24.12400 33.12600
H  48.33000 23.17300 34.42400
H  48.98700 22.48000 32.85400
H  47.40000 22.03400 33.43800
H  47.21500 27.20600 33.34100
H  48.35400 26.55200 34.58300
H  46.44000 24.88500 35.08000
H  45.46000 26.23800 34.64500
H  44.59300 20.05600 29.38900
H  45.90200 20.17600 30.61400
H  46.09400 19.12500 29.20800
H  46.47300 18.10300 27.31400
H  45.50500 18.18000 25.86100
H  44.85600 18.94900 27.18000
H  47.13900 24.46800 23.31900
H  49.37600 26.36400 23.50700
H  49.73100 24.16100 22.41100
H  48.79700 22.76000 22.97300
H  50.02900 23.54400 24.01100
H  47.07200 26.89200 22.32100
H  47.82300 27.98300 23.58300
H  46.08400 26.45700 25.07000
H  45.33400 26.39800 23.56600
H  45.65900 28.01000 24.32400
H  51.10600 30.35900 28.11600
H  49.48500 30.98000 27.61600
H  50.60100 30.01900 26.48800
H  48.49600 28.66600 32.43100
H  52.32300 27.99200 34.15000
H  51.10600 27.21800 35.18600
H  51.58000 29.03400 35.37800
Mg 36.26600 48.87400 25.31700
C  36.84100 46.75300 28.23800
C  34.98100 51.25500 27.33500
C  35.84800 50.56900 22.66000
C  37.57500 46.12100 23.49200
N  35.88500 48.95300 27.51600
C  36.23300 48.09300 28.49800
C  35.92600 48.67300 29.87500
C  35.08300 49.95700 29.44800
C  35.32800 50.09100 28.01400
C  33.62900 49.93400 29.93100
C  37.13800 48.94700 30.84000
C  37.10100 48.42300 32.25300
H  35.88400 48.84800 33.05000
N  35.50600 50.74500 25.04200
C  35.17200 51.66400 26.00400
C  34.78600 52.88800 25.26300
C  35.14600 52.71600 23.88000
C  35.52100 51.32600 23.77700
C  34.09200 54.01200 25.90600
C  35.25500 53.72300 22.74100
O  35.76000 53.38000 21.68100
C  34.92300 55.05500 22.83100
N  36.37400 48.31900 23.32100
C  36.14100 49.27500 22.36200
C  36.59000 48.79800 20.95100
C  37.28200 47.44400 21.27900
C  37.08000 47.25300 22.76700
C  35.42100 48.61800 19.97000
C  38.74000 47.40700 20.81300
C  39.73800 48.25500 21.58500
N  36.94900 46.81700 25.66700
C  37.46100 45.90200 24.85800
C  37.83700 44.73000 25.56300
C  37.61300 45.00200 26.87900
C  37.07400 46.26900 26.91900
C  38.41400 43.47200 24.94400
C  37.70900 44.50600 28.22900
O  38.20000 43.42500 28.68900
C  37.15000 45.66500 29.18000
C  36.00800 45.14200 30.01400
O  34.88500 44.92600 29.62700
O  36.35100 44.87700 31.34700
C  35.24600 44.58800 32.24200
H  34.43700 52.01500 27.90000
H  35.79500 51.22500 21.78800
H  38.20000 45.48100 22.86600
H  35.29200 47.96700 30.41300
H  35.47500 50.83500 29.96100
H  33.37500 48.96400 30.35800
H  32.82000 50.07800 29.21600
H  33.48500 50.54800 30.82100
H  37.30500 50.01400 30.98800
H  38.05300 48.52100 30.42900
H  37.98100 48.77300 32.79400
H  37.16500 47.33500 32.23900
H  33.02800 53.81900 26.04600
H  34.23000 54.97900 25.42300
H  34.47100 54.08500 26.92600
H  33.86800 55.10600 23.10000
H  35.05200 55.61000 21.90200
H  35.48300 55.56700 23.61300
H  37.33200 49.51400 20.59900
H  36.70600 46.61500 20.86800
H  35.10300 49.61700 19.67300
H  34.63300 48.06000 20.47600
H  35.74600 48.10500 19.06600
H  38.73800 47.69500 19.76100
H  39.05900 46.36500 20.81400
H  40.70500 47.75200 21.59300
H  39.44800 48.51300 22.60400
H  39.89300 49.16700 21.00800
H  37.69000 42.82000 24.45300
H  39.03300 42.94700 25.67100
H  39.15800 43.78300 24.21000
H  37.83500 46.10900 29.90200
H  34.85200 43.57500 32.32100
H  34.34400 45.17500 32.06900
H  35.63900 44.84000 33.22700

