158

Mg 53.77000 24.15200 44.64100
C  51.14800 26.39300 44.01700
C  51.98700 21.67200 43.00500
C  56.41800 22.30500 44.92200
C  55.72500 26.95700 45.69200
N  51.85800 24.10700 43.53900
C  51.04200 25.16600 43.30500
C  49.89500 24.77400 42.32100
C  50.13100 23.25100 42.22800
C  51.33700 22.97400 42.98000
C  48.94700 22.35500 42.48500
C  49.88400 25.55800 40.89200
C  51.26000 26.18200 40.53400
H  52.09400 25.48000 39.49600
N  54.16000 22.21900 43.99400
C  53.23800 21.30900 43.50100
C  53.90400 20.08700 43.38100
C  55.11300 20.16900 44.08600
C  55.32600 21.58900 44.27800
C  53.31700 18.88000 42.71000
C  56.09100 18.97100 44.50000
O  55.75300 17.82400 44.27200
C  57.43800 19.17400 45.17100
N  55.85200 24.62900 45.03300
C  56.71900 23.63800 45.18500
C  58.10200 24.02900 45.78300
C  57.88800 25.54900 45.98500
C  56.38400 25.74200 45.56400
C  58.68100 23.13300 46.97900
C  58.83700 26.45600 45.15600
C  60.25400 26.38400 45.52800
N  53.56000 26.19700 44.82100
C  54.37800 27.17500 45.48600
C  53.61100 28.36100 45.68500
C  52.34000 28.08700 45.30300
C  52.40100 26.75000 44.71500
C  54.02700 29.66200 46.49400
C  50.96000 28.55500 45.24000
O  50.44700 29.59700 45.57700
C  50.18600 27.51600 44.30300
C  49.72700 28.21600 43.05200
O  50.40700 28.83300 42.22600
O  48.33800 28.20500 43.01500
C  47.77300 28.88500 41.86200
H  51.33100 20.93100 42.54500
H  57.20300 21.63000 45.26900
H  56.25800 27.75400 46.21500
H  48.97600 24.96700 42.87500
H  50.27600 22.98000 41.18300
H  49.20400 21.65600 43.28000
H  48.80000 21.69500 41.63000
H  48.12700 22.92700 42.92000
H  49.22700 26.41800 41.02000
H  49.56300 24.94200 40.05200
H  51.96500 26.39900 41.33700
H  50.98000 27.15200 40.12300
H  52.53300 19.15900 42.00600
H  52.76600 18.21000 43.36900
H  53.99200 18.13000 42.29800
H  57.87400 18.18900 45.33300
H  57.11600 19.66400 46.09000
H  58.01500 19.83300 44.52200
H  58.84000 23.93500 44.98700
H  57.90600 25.80900 47.04300
H  59.21400 22.24200 46.64500
H  57.80200 22.91300 47.58400
H  59.34800 23.79100 47.53600
H  58.46100 27.47300 45.04700
H  58.81500 25.99000 44.17000
H  60.17600 25.94500 46.52300
H  60.80600 27.32200 45.47600
H  60.87200 25.65400 45.00500
H  53.68700 30.50200 45.88700
H  55.11500 29.72800 46.48200
H  53.66600 29.56300 47.51800
H  49.28400 27.19400 44.82500
H  48.31300 28.67900 40.93700
H  47.77200 29.96700 42.00000
H  46.72200 28.62600 41.73700
Mg -11.77600 16.88900 40.41600
C  -8.70400 15.27200 40.24300
C  -10.18000 19.74000 39.22200
C  -14.78200 18.38300 40.01300
C  -13.36900 13.71900 40.51700
N  -9.64800 17.46900 39.91000
C  -8.63200 16.58400 39.80300
C  -7.34600 17.27600 39.30500
C  -7.74200 18.67600 39.18000
C  -9.29000 18.59500 39.35500
C  -7.12800 19.67800 40.21300
C  -6.75500 16.71900 37.89700
C  -5.17700 16.67300 37.87600
H  -4.52200 16.96100 36.54800
N  -12.37700 18.82200 39.90400
C  -11.54300 19.83300 39.49300
C  -12.32100 21.09100 39.23100
C  -13.65700 20.74300 39.42500
C  -13.68100 19.25900 39.77700
C  -11.68900 22.34700 38.81400
C  -14.82900 21.72200 39.27000
O  -14.54500 22.91200 39.13800
C  -16.32100 21.37100 39.39000
N  -13.73400 16.15100 40.20500
C  -14.87100 17.00600 40.15700
C  -16.20400 16.25800 40.24300
C  -15.67000 14.78200 40.46800
C  -14.15600 14.85100 40.31200
C  -17.26400 16.68000 41.34400
C  -16.27500 13.80200 39.48200
C  -17.41600 12.98300 39.99500
N  -11.20400 14.93700 40.59900
C  -11.99200 13.73300 40.65800
C  -11.08500 12.59200 40.75100
C  -9.79700 13.17200 40.56600
C  -9.87500 14.58100 40.44300
C  -11.38600 11.15300 40.81700
C  -8.35900 12.88600 40.59200
O  -7.79200 11.86500 40.74900
C  -7.58400 14.24700 40.30500
C  -6.59500 14.45600 41.43200
O  -6.81500 14.98300 42.47500
O  -5.44700 13.86500 41.06400
C  -4.29700 14.24700 41.88800
H  -9.57500 20.53300 38.77800
H  -15.75000 18.87100 39.88400
H  -13.85500 12.74100 40.53000
H  -6.50100 17.12600 39.97700
H  -7.68600 19.13900 38.19500
H  -7.95600 20.23000 40.65800
H  -6.33900 20.23300 39.70500
H  -6.53600 19.12900 40.94500
H  -7.00200 17.33200 37.03000
H  -7.17000 15.74100 37.65600
H  -4.94300 15.64400 38.14600
H  -4.84800 17.27800 38.72200
H  -12.13800 23.10900 39.45300
H  -12.00100 22.47600 37.77800
H  -10.61300 22.38700 38.98100
H  -16.84500 22.31600 39.24800
H  -16.58500 20.82800 40.29800
H  -16.56000 20.70600 38.56100
H  -16.65900 16.35600 39.25800
H  -15.93400 14.39300 41.45200
H  -17.65400 15.93500 42.03900
H  -18.18400 17.11200 40.95000
H  -16.75800 17.45000 41.92500
H  -15.62800 13.01500 39.09400
H  -16.69500 14.34700 38.63700
H  -17.42600 11.89600 39.91500
H  -18.35200 13.35000 39.57400
H  -17.57200 13.36900 41.00300
H  -12.41100 10.86300 40.58300
H  -11.32300 10.86800 41.86800
H  -10.70700 10.59700 40.17200
H  -7.08400 14.26400 39.33700
H  -4.10500 15.31100 42.02900
H  -3.46300 13.74700 41.39500
H  -4.36100 13.88600 42.91400

