158

Mg 29.78600 57.01000 40.09500
C  27.19500 55.06100 38.76700
C  31.96700 54.63800 38.97300
C  32.15700 59.28800 40.30000
C  27.28000 59.43500 40.95600
N  29.58100 55.23300 38.84500
C  28.46100 54.57900 38.50100
C  28.69000 53.20300 37.95300
C  30.14200 52.99000 38.21100
C  30.63200 54.37000 38.72300
C  30.56700 51.89400 39.26400
C  28.35200 52.92300 36.46500
C  28.12200 54.20400 35.59600
H  28.45400 54.28300 34.15000
N  31.78300 56.95900 39.78700
C  32.51600 55.91600 39.37800
C  33.91900 56.24300 39.33900
C  34.03700 57.59700 39.71100
C  32.62200 58.01300 39.94000
C  34.98100 55.19800 39.01400
C  35.28400 58.47600 39.70300
O  36.36300 57.94700 39.41300
C  35.23500 59.99300 40.01300
N  29.75100 59.01000 40.66700
C  30.87700 59.73700 40.64900
C  30.49700 61.25900 40.85100
C  29.03800 61.18600 41.49500
C  28.58400 59.82000 40.97100
C  31.57200 62.01600 41.70300
C  28.11300 62.41200 41.09200
C  27.38000 63.06700 42.23700
N  27.66600 57.17400 40.00700
C  26.82000 58.19700 40.38100
C  25.45500 57.79400 40.11400
C  25.53700 56.52700 39.57800
C  26.88700 56.22300 39.47500
C  24.16600 58.50600 40.34700
C  24.82900 55.45400 38.98200
O  23.65100 55.31400 38.82700
C  25.88400 54.39900 38.53000
C  25.60300 53.16500 39.34900
O  26.04900 52.91700 40.47400
O  24.76300 52.35200 38.67700
C  24.44300 51.07600 39.22400
H  32.66000 53.79600 38.93000
H  32.84900 60.13200 40.29100
H  26.54900 60.14800 41.34600
H  28.09200 52.47200 38.49800
H  30.64400 52.73600 37.27800
H  29.85100 51.09700 39.46700
H  30.80000 52.31500 40.24100
H  31.44000 51.47800 38.76200
H  27.50100 52.24400 36.41200
H  29.10800 52.25900 36.04600
H  28.59900 55.05000 36.08900
H  27.03300 54.23600 35.61200
H  35.25700 55.26400 37.96200
H  34.79900 54.16600 39.31600
H  35.85300 55.42000 39.62900
H  36.29200 60.25000 39.94900
H  34.81100 60.05700 41.01500
H  34.71500 60.57100 39.24900
H  30.44300 61.70100 39.85600
H  29.08100 61.05600 42.57600
H  32.14500 61.35600 42.35400
H  31.10400 62.68900 42.42200
H  32.23600 62.77500 41.29000
H  27.40600 62.09000 40.32800
H  28.54800 63.32900 40.69500
H  26.95500 64.02100 41.92600
H  28.03300 63.16100 43.10600
H  26.49800 62.48200 42.49900
H  23.37300 57.88300 39.93400
H  24.05400 59.44700 39.80800
H  24.06300 58.64900 41.42300
H  25.65500 54.22800 37.47800
H  25.22200 50.45400 39.66500
H  24.09800 50.50300 38.36300
H  23.68800 51.07800 40.01100
Mg 27.35900 49.88600 26.05800
C  25.34700 50.60600 28.84300
C  29.70800 48.57900 28.38000
C  29.38000 49.16900 23.49300
C  25.11800 51.48000 24.01000
N  27.48400 49.71700 28.43600
C  26.48300 50.02900 29.27500
C  26.83300 49.63700 30.69000
C  28.29400 49.20800 30.56000
C  28.58400 49.11600 29.03600
C  29.37400 50.03700 31.27000
C  25.89200 48.50500 31.25600
C  25.35900 48.56300 32.68300
H  26.16400 49.25500 33.81600
N  29.25500 49.02400 25.95700
C  30.04200 48.59900 27.00600
C  31.33200 48.23700 26.54300
C  31.34300 48.50500 25.12900
C  29.98000 48.94500 24.77900
C  32.48100 47.74800 27.40200
C  32.41200 48.29400 24.16400
O  32.30900 48.30600 22.93900
C  33.72400 47.93400 24.64900
N  27.23100 50.30800 24.07600
C  28.10400 49.75100 23.22500
C  27.74300 50.10500 21.75900
C  26.18900 50.52600 21.84800
C  26.14600 50.82800 23.39300
C  28.54400 51.22900 21.10800
C  25.19300 49.31400 21.45000
C  24.41000 49.44800 20.14500
N  25.61600 50.93700 26.33700
C  24.85400 51.61200 25.41800
C  23.72100 52.24600 26.15200
C  23.86000 51.79100 27.47900
C  25.03800 51.04500 27.57200
C  22.59200 52.93300 25.60200
C  23.19700 51.66400 28.71400
O  22.09200 52.12200 29.04600
C  24.16900 51.02700 29.67400
C  24.61400 52.15900 30.54600
O  25.29700 53.04500 30.18800
O  24.01200 51.93000 31.77100
C  24.31400 52.94100 32.75500
H  30.45100 48.19800 29.08400
H  30.08100 49.06500 22.66200
H  24.32000 51.87500 23.37700
H  26.82600 50.58400 31.22900
H  28.42600 48.21000 30.97700
H  29.91600 50.60000 30.51000
H  29.95800 49.30200 31.82500
H  28.86000 50.73900 31.92600
H  26.35500 47.51900 31.22600
H  25.04000 48.36900 30.59100
H  25.24700 47.54700 33.06100
H  24.38300 49.04800 32.66100
H  33.26100 48.50900 27.43300
H  32.84400 46.80400 26.99500
H  32.36800 47.53600 28.46500
H  33.62800 46.93500 25.07200
H  33.87300 48.75500 25.35100
H  34.41700 47.96000 23.80800
H  27.69000 49.18400 21.17900
H  25.99600 51.36300 21.17800
H  29.01300 50.87600 20.19000
H  29.36200 51.48100 21.78300
H  27.92200 52.07200 20.80600
H  24.49800 49.15700 22.27400
H  25.78000 48.39700 21.39300
H  24.67700 48.54600 19.59400
H  24.75800 50.30600 19.57000
H  23.33500 49.37600 20.31100
H  22.68000 53.28900 24.57500
H  22.29800 53.81700 26.16900
H  21.76000 52.22900 25.57100
H  23.74900 50.21100 30.26100
H  23.66000 52.79300 33.61500
H  24.05000 53.95400 32.45400
H  25.37200 52.87000 33.00700

