158

Mg 25.31600 1.78000 30.04100
C  27.59200 1.63700 32.94400
C  22.71200 2.18700 32.36500
C  23.33200 1.36300 27.60300
C  28.13600 1.18000 28.07400
N  25.26100 2.00300 32.31900
C  26.25500 1.91900 33.20300
C  25.73800 2.35900 34.65700
C  24.16000 2.39800 34.57600
C  24.02000 2.22000 32.98600
C  23.41400 1.27100 35.40800
C  26.48400 3.71000 35.06000
C  27.02000 3.71300 36.50500
H  26.40700 4.65400 37.55500
N  23.26200 1.94300 29.98000
C  22.33500 2.10500 31.02800
C  21.05700 2.10100 30.54200
C  21.15400 1.80500 29.11900
C  22.59100 1.66200 28.80400
C  19.85900 2.37000 31.38700
C  20.07700 1.58500 28.09800
O  20.24500 1.28300 26.96500
C  18.69300 1.72100 28.46100
N  25.71600 1.50600 28.11800
C  24.66800 1.35800 27.26300
C  25.12400 1.41500 25.67900
C  26.70000 1.59700 25.90500
C  26.89000 1.49600 27.44500
C  24.71400 0.14100 24.90700
C  27.22500 2.98000 25.43700
C  26.66800 3.51800 24.12800
N  27.40600 1.41800 30.37800
C  28.41300 1.14400 29.47600
C  29.63000 0.87600 30.15500
C  29.38000 1.09100 31.50400
C  28.02000 1.41600 31.60000
C  30.92900 0.64500 29.43000
C  29.96600 1.18500 32.82700
O  31.12300 0.99800 33.21800
C  28.82600 1.64200 33.80400
C  28.73200 0.63900 34.88000
O  28.20200 -0.48000 34.92700
O  29.30500 1.18500 36.03700
C  29.15300 0.35700 37.18000
H  22.03300 2.39900 33.19400
H  22.64100 1.33800 26.75800
H  28.93600 1.08700 27.33700
H  25.99000 1.60100 35.39800
H  23.62200 3.30800 34.83800
H  24.14100 0.90100 36.13200
H  23.15700 0.46700 34.71800
H  22.49800 1.60000 35.89800
H  25.74800 4.51100 34.98100
H  27.25400 3.95200 34.32800
H  28.09500 3.88200 36.56500
H  26.81300 2.76600 37.00400
H  19.90600 2.47700 32.47100
H  19.18100 1.52100 31.30100
H  19.30200 3.24800 31.06100
H  18.54700 2.71400 28.88800
H  18.51800 0.92100 29.18000
H  18.11600 1.65100 27.53900
H  24.61500 2.22300 25.15400
H  27.28700 0.83200 25.39700
H  24.13600 0.28900 23.99500
H  23.97200 -0.32500 25.55500
H  25.50200 -0.60200 24.78300
H  28.29400 2.94300 25.23000
H  26.91800 3.63600 26.25100
H  27.36800 4.21900 23.67300
H  25.82500 4.14900 24.40800
H  26.42000 2.75300 23.39200
H  31.52900 0.00600 30.07800
H  31.47100 1.54200 29.13100
H  30.66100 0.04300 28.56200
H  28.90200 2.64300 34.22900
H  30.06800 0.60000 37.72000
H  29.18900 -0.69500 36.89500
H  28.25800 0.61100 37.74800
Mg 17.58400 52.25100 26.26200
C  19.63500 50.65200 28.44700
C  15.29800 52.71400 28.84300
C  15.43100 53.50200 24.06700
C  19.57700 51.00800 23.68400
N  17.57700 51.90600 28.34500
C  18.52200 51.21100 29.12300
C  18.17800 51.22900 30.59700
C  16.58600 51.38700 30.40300
C  16.52600 52.15200 29.15100
C  15.81900 50.00100 30.48900
C  18.84700 52.42800 31.25900
C  18.85200 52.40800 32.82600
H  17.90700 51.51000 33.67400
N  15.62000 53.11700 26.47200
C  14.85900 53.22200 27.60300
C  13.66000 54.02300 27.24700
C  13.70700 54.28400 25.83400
C  14.89700 53.57300 25.33900
C  12.66700 54.51200 28.30200
C  12.73300 55.06800 24.96500
O  12.95000 55.18600 23.80400
C  11.42800 55.45700 25.64000
N  17.68200 52.43100 24.14600
C  16.56300 52.91300 23.48200
C  16.78900 52.79300 21.93600
C  18.16800 52.13400 21.87200
C  18.52400 51.83100 23.31700
C  15.66000 52.01200 21.25300
C  19.27600 52.96000 21.08200
C  20.53500 53.55700 21.69700
N  19.28700 51.11500 26.08000
C  19.88600 50.63900 25.02400
C  21.06600 49.85600 25.39100
C  20.93000 49.76100 26.75000
C  19.89900 50.64400 27.08000
C  21.94300 49.04700 24.48600
C  21.46600 49.14500 27.94700
O  22.38000 48.40800 28.16800
C  20.70000 49.84100 29.05400
C  20.27300 48.86000 30.04600
O  19.67300 47.82100 29.80200
O  20.78500 49.09100 31.28700
C  20.52500 48.12400 32.40700
H  14.66600 52.90400 29.71300
H  14.74700 53.81400 23.27500
H  20.20700 50.77900 22.82200
H  18.53100 50.30400 31.05200
H  16.28200 51.97800 31.26700
H  15.61600 49.80600 29.43600
H  15.01400 50.06400 31.22100
H  16.36400 49.07300 30.66300
H  18.33300 53.35800 31.01400
H  19.87500 52.47600 30.90100
H  18.60100 53.38900 33.23000
H  19.86600 52.15200 33.13500
H  13.03400 54.15400 29.26400
H  11.68500 54.07500 28.11900
H  12.57100 55.59700 28.26700
H  11.68800 56.13500 26.45300
H  10.87900 54.56600 25.94200
H  10.91800 56.00800 24.85000
H  16.81300 53.82300 21.58200
H  18.05700 51.14400 21.43100
H  15.82000 50.98100 20.93600
H  15.48500 52.57300 20.33400
H  14.68700 52.14800 21.72300
H  18.77300 53.83900 20.67800
H  19.47900 52.27900 20.25500
H  20.65900 54.55100 21.26500
H  21.38800 52.91500 21.47800
H  20.51300 53.56000 22.78600
H  22.98900 49.17900 24.76200
H  21.92200 49.38400 23.44900
H  21.63200 48.00700 24.58300
H  21.43800 50.49800 29.51600
H  20.65600 47.08700 32.09600
H  19.54400 48.35200 32.82400
H  21.35700 48.43200 33.04000

