158

Mg -10.49800 17.06100 41.33800
C  -7.11600 16.72900 41.33700
C  -10.23300 20.18900 40.07500
C  -13.83400 17.04100 40.70300
C  -10.66000 13.49900 41.56700
N  -8.84300 18.28400 40.74400
C  -7.51700 17.99600 40.92100
C  -6.68000 19.15200 40.41300
C  -7.71400 20.40200 40.62300
C  -9.04300 19.62100 40.47500
C  -7.64500 21.23800 41.91100
C  -6.23200 18.88100 38.90000
C  -4.66900 18.99200 38.61700
H  -4.07400 17.96600 37.64900
N  -11.92000 18.48200 40.56500
C  -11.58500 19.70000 40.10600
C  -12.71000 20.43100 39.62300
C  -13.83600 19.52500 39.91700
C  -13.20400 18.25300 40.37600
C  -12.68300 21.77500 39.07000
C  -15.31300 19.78100 39.75800
O  -15.75200 20.92600 39.42800
C  -16.48700 18.80400 39.95900
N  -12.05200 15.52600 41.28100
C  -13.36400 15.82600 41.12900
C  -14.28600 14.60100 41.43400
C  -13.27000 13.51500 41.22400
C  -11.87500 14.15600 41.36700
C  -14.99200 14.68700 42.79500
C  -13.47200 12.86900 39.81700
C  -13.56400 11.38100 39.85100
N  -9.14900 15.46200 41.65600
C  -9.37000 14.02200 41.71900
C  -8.06900 13.41500 41.95400
C  -7.13900 14.43900 41.80700
C  -7.87600 15.65000 41.59100
C  -7.87200 11.89600 42.02100
C  -5.67300 14.76100 41.71100
O  -4.72400 14.04800 41.91600
C  -5.65700 16.29700 41.34100
C  -4.84800 16.95200 42.36900
O  -3.63100 17.01800 42.35200
O  -5.62800 17.38300 43.46100
C  -4.76000 17.76600 44.65200
H  -10.14600 21.13900 39.54200
H  -14.91900 16.97600 40.59900
H  -10.76000 12.41200 41.56900
H  -5.86700 19.37000 41.10600
H  -7.73600 20.94700 39.67900
H  -6.85300 20.94200 42.60000
H  -8.60000 21.26300 42.43400
H  -7.40100 22.26100 41.62300
H  -6.72400 19.63100 38.28200
H  -6.63100 17.92200 38.56800
H  -4.10000 18.88900 39.54000
H  -4.37500 19.97400 38.24800
H  -13.52200 21.86300 38.37900
H  -11.80300 21.84600 38.43100
H  -12.64300 22.53300 39.85200
H  -16.30200 18.07400 39.17200
H  -17.48000 19.23300 39.82100
H  -16.46000 18.27200 40.91000
H  -15.07000 14.54900 40.67800
H  -13.43300 12.82600 42.05300
H  -14.46300 15.38300 43.44500
H  -15.23600 13.77100 43.33300
H  -15.94100 15.15100 42.52500
H  -12.60600 13.19000 39.23800
H  -14.30700 13.33400 39.29200
H  -12.73100 10.85200 39.38700
H  -14.50200 11.07200 39.39000
H  -13.74200 10.97300 40.84500
H  -8.60900 11.39100 42.64700
H  -6.86300 11.59800 42.30600
H  -7.99000 11.52600 41.00300
H  -5.23100 16.51900 40.36200
H  -5.40800 18.18700 45.42100
H  -4.05900 18.53600 44.32900
H  -4.23000 16.95700 45.15500
Mg -4.38800 25.50100 26.02300
C  -3.48200 27.34900 28.98600
C  -6.32600 23.57200 28.08100
C  -5.01300 23.75800 23.37500
C  -2.23100 27.57000 24.25100
N  -4.78700 25.40900 28.25500
C  -4.32500 26.23900 29.28000
C  -5.03700 25.89300 30.55900
C  -5.75000 24.50000 30.31600
C  -5.54400 24.42100 28.80400
C  -5.08800 23.29700 31.06200
C  -5.89900 27.12700 31.06900
C  -6.51900 26.90600 32.45100
H  -6.02300 25.86500 33.51400
N  -5.56200 23.92100 25.72300
C  -6.35700 23.31100 26.67100
C  -7.15900 22.32700 26.00500
C  -6.71300 22.24900 24.66200
C  -5.70300 23.27700 24.53200
C  -8.17500 21.48100 26.75600
C  -7.26800 21.42400 23.52400
O  -6.85700 21.51000 22.37000
C  -8.40900 20.53500 23.77100
N  -3.66000 25.56400 24.13200
C  -4.10400 24.78200 23.17700
C  -3.35500 25.04800 21.84800
C  -2.77800 26.43600 22.12600
C  -2.87200 26.51700 23.60300
C  -2.31300 23.93700 21.51400
C  -3.63900 27.55000 21.37900
C  -3.04700 27.93300 20.06100
N  -3.15800 27.28300 26.49200
C  -2.24700 27.97100 25.64400
C  -1.61700 29.08200 26.39200
C  -2.04600 28.88300 27.73500
C  -2.91100 27.74700 27.72600
C  -0.71000 30.18300 25.83300
C  -2.00300 29.40200 29.10600
O  -1.42100 30.37700 29.56100
C  -2.89100 28.38500 29.98800
C  -2.02500 27.69200 30.93800
O  -1.02700 27.09200 30.59400
O  -2.54900 27.67400 32.22000
C  -1.87500 26.84000 33.18800
H  -6.92100 22.88100 28.68100
H  -5.28000 23.13600 22.51900
H  -1.64800 28.27000 23.64900
H  -4.24200 25.73400 31.28700
H  -6.81500 24.43900 30.53800
H  -4.32000 22.84500 30.43500
H  -5.80200 22.52200 31.34100
H  -4.67300 23.53600 32.04100
H  -6.69200 27.14700 30.32100
H  -5.25700 28.00300 31.16100
H  -7.58600 26.85400 32.23800
H  -6.32200 27.84400 32.97100
H  -9.10400 21.44600 26.18700
H  -8.45600 21.87500 27.73300
H  -7.76000 20.48300 26.89800
H  -8.31700 19.82400 24.59200
H  -8.41600 19.95800 22.84600
H  -9.34000 21.09600 23.85600
H  -4.10900 25.06500 21.06100
H  -1.74400 26.62900 21.84100
H  -1.24900 24.16400 21.44800
H  -2.71700 23.56100 20.57400
H  -2.36800 23.11500 22.22700
H  -3.76300 28.38600 22.06800
H  -4.60200 27.08300 21.17200
H  -3.73600 27.78400 19.23000
H  -2.27300 27.18500 19.88900
H  -2.70500 28.96700 20.03500
H  -0.24200 29.79200 24.92900
H  0.13300 30.41500 26.48400
H  -1.31400 31.08200 25.71000
H  -3.69400 28.89200 30.52300
H  -2.44000 26.71800 34.11200
H  -0.90900 27.28200 33.43500
H  -1.91500 25.82100 32.80300

