158

Mg 30.07100 58.97800 38.64400
C  27.28200 56.92100 38.07200
C  32.03100 56.26200 37.76100
C  32.69200 61.01300 38.30000
C  27.93900 61.69600 38.81900
N  29.64900 56.74600 38.23600
C  28.45200 56.20800 37.87600
C  28.67500 54.88400 37.24700
C  30.18500 54.52800 37.60000
C  30.67300 55.91400 37.90500
C  30.42500 53.52500 38.83700
C  28.36800 54.82900 35.65100
C  27.16000 53.93600 35.19400
H  26.14400 54.55700 34.27600
N  32.13400 58.68900 38.28100
C  32.71600 57.46200 37.95700
C  34.11700 57.56400 37.96600
C  34.42600 58.97100 38.10600
C  33.11700 59.66000 38.26600
C  35.09400 56.43700 37.79800
C  35.84600 59.57500 38.20000
O  36.91500 58.95500 38.20100
C  35.89000 61.10400 38.28200
N  30.28600 61.04800 38.53600
C  31.50900 61.63800 38.55400
C  31.37700 63.23900 38.78500
C  29.80600 63.37400 38.79300
C  29.26100 61.96000 38.58500
C  32.17500 63.77700 40.01900
C  29.10700 64.42600 37.89000
C  28.38500 65.54800 38.61400
N  28.08000 59.30700 38.55300
C  27.34000 60.40100 38.79900
C  25.92800 60.06000 38.78600
C  25.87000 58.72000 38.51200
C  27.19800 58.27300 38.38900
C  24.76100 60.95300 38.87600
C  24.96800 57.62400 38.29900
O  23.74300 57.48600 38.37300
C  25.84100 56.43100 37.93800
C  25.63500 55.25000 38.78900
O  26.20100 55.01200 39.81300
O  24.63900 54.54300 38.25800
C  24.47400 53.27200 39.00000
H  32.71100 55.45300 37.48200
H  33.56700 61.65900 38.19900
H  27.27300 62.54900 38.96800
H  28.05800 54.21000 37.84200
H  30.69400 54.12300 36.72500
H  29.48600 53.06600 39.14600
H  30.84100 54.08600 39.67500
H  31.17100 52.78000 38.56000
H  29.24600 54.56800 35.06000
H  28.10500 55.84000 35.33900
H  26.64000 53.55800 36.07400
H  27.51600 53.06400 34.64500
H  34.75600 55.46100 38.14500
H  36.04800 56.67800 38.26800
H  35.34100 56.39400 36.73700
H  36.93300 61.42000 38.25700
H  35.40800 61.38500 39.21900
H  35.46100 61.54700 37.38300
H  31.65900 63.80700 37.89800
H  29.59400 63.68300 39.81600
H  32.58700 62.93000 40.56700
H  31.57300 64.44500 40.63400
H  33.05100 64.27700 39.60800
H  28.43400 63.85500 37.25100
H  29.90000 64.88300 37.29700
H  27.33000 65.65400 38.36200
H  28.85200 66.49800 38.35500
H  28.49400 65.41900 39.69100
H  25.01900 61.99000 38.65900
H  24.30900 60.91300 39.86700
H  24.04200 60.74000 38.08500
H  25.60200 56.04900 36.94600
H  24.26200 53.51400 40.04100
H  25.41300 52.71900 39.01700
H  23.64700 52.63100 38.69500
Mg -10.09900 39.34100 42.59800
C  -8.72000 36.38600 41.52600
C  -7.33100 41.03100 41.28600
C  -11.68700 42.43300 43.14700
C  -13.08000 37.75600 43.42400
N  -8.22400 38.70400 41.36500
C  -7.82800 37.41800 41.24100
C  -6.38200 37.36200 40.68600
C  -5.96800 38.87700 40.85600
C  -7.20600 39.63100 41.21600
C  -4.86600 39.19800 41.93800
C  -6.45400 36.87200 39.15900
C  -5.60400 35.71000 38.89900
H  -4.86500 35.61100 37.57300
N  -9.68600 41.35100 42.23000
C  -8.46700 41.78700 41.72600
C  -8.46700 43.25300 41.64500
C  -9.70700 43.68100 42.20700
C  -10.43600 42.47900 42.56600
C  -7.40400 44.24100 41.03000
C  -10.13100 45.14000 42.22200
O  -9.28700 46.06400 42.06000
C  -11.54200 45.61700 42.34400
N  -12.01900 39.98200 43.30500
C  -12.41700 41.29400 43.45100
C  -13.99100 41.48200 43.77600
C  -14.36400 39.90900 43.98200
C  -13.13400 39.15200 43.46700
C  -14.27000 42.48800 44.95500
C  -15.67600 39.51400 43.35500
C  -16.82800 39.18600 44.33800
N  -10.76600 37.49900 42.60000
C  -11.96100 36.97900 43.06900
C  -11.94600 35.51000 42.85700
C  -10.69700 35.27000 42.23300
C  -10.02400 36.49100 42.13000
C  -13.07600 34.65200 43.13800
C  -9.88000 34.18300 41.77500
O  -10.12000 32.96500 41.73800
C  -8.45700 34.91400 41.36900
C  -7.41600 34.45500 42.31700
O  -7.43000 34.56800 43.54200
O  -6.48800 33.77400 41.60700
C  -5.62100 32.83500 42.36900
H  -6.40600 41.57400 41.07900
H  -12.16300 43.38400 43.39500
H  -13.98000 37.19100 43.67600
H  -5.68000 36.72300 41.22300
H  -5.68900 39.16800 39.84300
H  -4.07800 39.81300 41.50100
H  -4.48100 38.28600 42.39300
H  -5.28400 39.74700 42.78200
H  -5.98200 37.71100 38.64700
H  -7.47700 36.80800 38.78800
H  -6.14900 34.81000 39.18500
H  -4.73500 35.79500 39.55200
H  -6.91200 44.92400 41.72300
H  -7.88900 44.92900 40.33800
H  -6.65200 43.63600 40.52300
H  -11.75400 46.13200 43.28100
H  -12.39900 44.95700 42.20500
H  -11.64700 46.57800 41.84100
H  -14.34000 41.87600 42.82100
H  -14.33200 39.75800 45.06100
H  -13.30900 42.62600 45.44900
H  -15.00800 42.00000 45.59200
H  -14.54300 43.43500 44.49000
H  -15.61900 38.59500 42.77100
H  -15.95400 40.29300 42.64500
H  -17.74800 39.69600 44.05100
H  -16.62300 39.53500 45.35000
H  -17.05700 38.12100 44.28900
H  -13.82100 34.81000 42.35800
H  -13.58000 34.88300 44.07600
H  -12.84400 33.59600 43.00000
H  -8.12700 34.76700 40.34100
H  -5.26100 33.24000 43.31400
H  -4.69500 32.74200 41.80100
H  -6.14100 31.89000 42.52600

