158

Mg 25.51100 1.87600 29.15900
C  27.63800 1.48200 31.85100
C  22.88500 2.17800 31.32000
C  23.35100 1.62500 26.58500
C  28.21800 1.13300 27.09400
N  25.33700 1.87400 31.26800
C  26.34200 1.76700 32.19200
C  25.87800 1.83800 33.66600
C  24.35000 2.09100 33.49600
C  24.17200 1.93700 31.94200
C  23.39800 1.07800 34.28600
C  26.55700 2.89600 34.63200
C  25.67400 3.58200 35.70700
H  26.24100 4.02100 37.07600
N  23.36500 2.06500 28.97300
C  22.41000 2.14900 30.01700
C  21.07900 2.21400 29.48300
C  21.24900 1.86100 28.09300
C  22.72300 1.83400 27.81800
C  19.84700 2.53100 30.38500
C  20.25100 1.58800 27.07800
O  20.42600 1.11200 25.92900
C  18.80000 1.87600 27.41500
N  25.78400 1.53600 27.07100
C  24.70900 1.56700 26.23100
C  25.17700 1.26300 24.77400
C  26.71800 1.27100 24.88900
C  26.92900 1.25300 26.41300
C  24.50600 -0.04000 24.15000
C  27.45200 2.47300 24.37300
C  28.12000 2.17000 22.97800
N  27.55300 1.40500 29.34800
C  28.50800 1.10700 28.46700
C  29.72400 0.86400 29.12900
C  29.43600 1.03700 30.47700
C  28.08900 1.30000 30.55300
C  31.05100 0.37600 28.56000
C  29.99700 0.92600 31.81100
O  31.10500 0.72000 32.21000
C  28.76100 1.24400 32.76500
C  28.62000 0.12500 33.72700
O  27.92900 -0.85300 33.42400
O  29.05200 0.40700 34.98700
C  28.85300 -0.53400 36.04800
H  22.12400 2.22300 32.10200
H  22.70500 1.50200 25.71400
H  29.08000 1.03100 26.43200
H  25.98300 0.81200 34.02100
H  23.98900 3.06100 33.83500
H  23.20000 0.16000 33.73300
H  22.42900 1.57500 34.23600
H  23.76400 0.82100 35.28000
H  27.11600 3.59400 34.01000
H  27.38000 2.46100 35.19900
H  24.86500 2.95900 36.08700
H  25.11700 4.46400 35.38900
H  20.06600 2.55500 31.45200
H  19.09900 1.74300 30.30300
H  19.38400 3.47200 30.08600
H  18.26800 2.16900 26.51000
H  18.80800 2.71200 28.11500
H  18.26800 1.04100 27.87000
H  24.73500 2.12900 24.28200
H  27.13500 0.31900 24.56000
H  25.31500 -0.56600 23.64400
H  23.87600 0.25300 23.31100
H  24.00400 -0.70500 24.85300
H  28.22000 2.76700 25.08800
H  26.81300 3.33800 24.19700
H  27.61100 2.69900 22.17200
H  27.96700 1.14400 22.64200
H  29.18000 2.42200 22.97800
H  30.80100 -0.35300 27.78900
H  31.61200 -0.22500 29.27500
H  31.59500 1.15900 28.03100
H  28.93000 2.15800 33.33500
H  28.96900 -1.57400 35.74100
H  27.89400 -0.33100 36.52400
H  29.62600 -0.45400 36.81300
Mg -12.30100 16.79800 41.45100
C  -9.37300 14.95200 41.15300
C  -10.63200 19.54900 40.02500
C  -15.27600 18.16800 40.89100
C  -13.96100 13.77700 42.32200
N  -10.17400 17.14000 40.57600
C  -9.15600 16.25900 40.64200
C  -7.84200 16.83500 40.05400
C  -8.24700 18.36400 39.81100
C  -9.76600 18.37600 40.19000
C  -7.41400 19.37800 40.55200
C  -7.23900 16.08600 38.76200
C  -5.74600 16.28500 38.45400
H  -5.35500 16.95600 37.15900
N  -12.91700 18.63400 40.66600
C  -12.05600 19.62400 40.09800
C  -12.89800 20.70500 39.65200
C  -14.22900 20.43400 40.01100
C  -14.18400 19.02300 40.51800
C  -12.30200 21.92700 38.90400
C  -15.47100 21.37500 39.78800
O  -15.29200 22.44200 39.14400
C  -16.84400 21.12000 40.48900
N  -14.30900 16.10900 41.67800
C  -15.37300 16.90900 41.49500
C  -16.73200 16.16300 41.65900
C  -16.21700 14.83000 42.18800
C  -14.71000 14.88700 42.04800
C  -17.85400 16.83200 42.42600
C  -16.77600 13.53000 41.56000
C  -17.17100 12.35900 42.48200
N  -11.79100 14.74500 41.78200
C  -12.61700 13.64800 42.03200
C  -11.77200 12.49900 42.09200
C  -10.52300 12.94100 41.71500
C  -10.60800 14.30700 41.46400
C  -12.13800 11.15000 42.68000
C  -9.09600 12.53400 41.66200
O  -8.58400 11.46100 41.71200
C  -8.30100 13.83300 41.23400
C  -7.09400 14.13900 42.18500
O  -7.20900 14.17200 43.42800
O  -5.94000 14.37200 41.49600
C  -4.75900 14.80000 42.26100
H  -10.19100 20.48700 39.68400
H  -16.21500 18.66700 40.64300
H  -14.38400 12.84200 42.69500
H  -7.10300 16.81500 40.85500
H  -8.02200 18.65400 38.78500
H  -6.96500 18.88300 41.41300
H  -7.94400 20.28400 40.84400
H  -6.63200 19.78500 39.91100
H  -7.85000 16.43000 37.92800
H  -7.48200 15.06000 39.04100
H  -5.20700 15.35100 38.61100
H  -5.29600 16.88900 39.24200
H  -12.71800 21.89200 37.89700
H  -11.23200 22.13100 38.86500
H  -12.72000 22.82600 39.35700
H  -17.39200 22.06200 40.52000
H  -16.55000 20.85200 41.50400
H  -17.52700 20.42500 40.00100
H  -17.07500 16.01900 40.63500
H  -16.40100 14.81800 43.26200
H  -18.68800 17.13200 41.79100
H  -17.52100 17.75100 42.90800
H  -18.18300 16.19000 43.24400
H  -16.20800 13.27400 40.66600
H  -17.70600 13.98900 41.22300
H  -16.53200 11.51100 42.23400
H  -18.21400 12.15400 42.24200
H  -17.11000 12.60200 43.54300
H  -12.89100 11.19700 43.46700
H  -11.15300 10.80400 42.99300
H  -12.51000 10.38400 42.00000
H  -7.91700 13.52000 40.26300
H  -4.19200 14.02500 42.77700
H  -4.99500 15.44900 43.10500
H  -4.16600 15.40200 41.57300

