158

Mg 49.31700 34.55100 26.30900
C  47.30800 33.49500 28.83900
C  49.41200 37.76400 27.54600
C  51.24100 35.35300 23.69000
C  48.89100 31.23900 24.81700
N  48.43400 35.48700 27.94900
C  47.68800 34.85900 28.91500
C  47.37200 35.91700 29.98500
C  47.92800 37.23400 29.52500
C  48.58300 36.78200 28.21300
C  46.82500 38.33600 29.38300
C  47.91700 35.52900 31.44000
C  46.81200 35.43400 32.58400
H  47.04500 36.15300 33.91900
N  50.24900 36.34900 25.69000
C  50.22000 37.53500 26.41200
C  50.99500 38.46800 25.61700
C  51.50400 37.77700 24.44900
C  51.01600 36.42700 24.55900
C  51.24700 39.89400 26.02400
C  52.50200 38.29500 23.38400
O  53.07400 37.56900 22.60300
C  52.84700 39.77700 23.23500
N  49.80400 33.50600 24.39100
C  50.79800 34.06900 23.59600
C  51.06600 33.26700 22.34800
C  50.37800 31.89600 22.78400
C  49.55500 32.22700 24.06800
C  50.61700 33.90700 21.00000
C  51.29000 30.74300 22.98900
C  51.18700 29.62200 21.99300
N  48.26900 32.75900 26.66900
C  48.20800 31.50000 26.03000
C  47.30100 30.65700 26.74900
C  46.90300 31.36100 27.88900
C  47.54800 32.55900 27.83100
C  46.95900 29.19500 26.43100
C  46.08800 31.33400 29.08900
O  45.26300 30.39700 29.46800
C  46.42000 32.69000 29.86300
C  47.00100 32.16400 31.14600
O  48.15000 31.72900 31.35000
O  46.00900 32.18400 32.07300
C  46.20900 31.68700 33.44300
H  49.60300 38.74000 27.99600
H  51.77500 35.65700 22.78700
H  48.75400 30.28600 24.30400
H  46.29100 36.01700 30.08500
H  48.69500 37.52200 30.24400
H  46.29800 38.34200 30.33700
H  46.08800 38.05700 28.63000
H  47.22800 39.34100 29.25200
H  48.66200 36.21100 31.84800
H  48.37500 34.55500 31.26800
H  46.56900 34.37700 32.68800
H  45.89000 35.87900 32.21100
H  50.99300 40.10400 27.06300
H  50.83700 40.68600 25.39700
H  52.32300 40.01900 25.89900
H  53.40100 39.93800 22.31000
H  53.45000 39.97000 24.12300
H  51.95800 40.40600 23.18200
H  52.15000 33.20400 22.44200
H  49.63000 31.61100 22.04400
H  51.48600 34.43900 20.61300
H  49.83600 34.64700 21.16800
H  50.11300 33.20400 20.33700
H  51.23300 30.34000 24.00000
H  52.27500 31.20800 22.93700
H  52.14500 29.31900 21.56900
H  50.59300 29.88300 21.11800
H  50.81200 28.73500 22.50300
H  46.28500 29.14500 25.57600
H  46.38900 28.74600 27.24400
H  47.87400 28.65900 26.18300
H  45.57300 33.36800 29.96900
H  46.43000 32.47900 34.15900
H  47.05700 31.00500 33.49800
H  45.30100 31.20500 33.80700
Mg 42.21100 40.81700 26.30600
C  41.35000 43.33300 28.74900
C  43.21000 38.79600 28.70600
C  43.04700 38.67800 23.87000
C  41.35900 43.24100 23.88400
N  42.37100 41.19800 28.41700
C  41.81200 42.14300 29.30900
C  41.93300 41.75100 30.73100
C  42.75100 40.36400 30.68000
C  42.71100 40.04500 29.12100
C  44.16700 40.39600 31.37000
C  40.57900 41.69700 31.50500
C  40.45700 42.67900 32.71200
H  39.99700 42.13700 34.07700
N  43.01400 39.00200 26.27200
C  43.38100 38.25600 27.36200
C  43.79800 37.01700 26.89000
C  43.97200 37.04000 25.49600
C  43.34200 38.31200 25.15400
C  44.31500 35.93100 27.76200
C  44.49900 36.01300 24.48400
O  44.47000 36.14500 23.28100
C  45.11900 34.76400 24.96700
N  42.02400 40.89900 24.22500
C  42.52500 39.88800 23.44800
C  42.21600 40.12800 21.95600
C  41.73100 41.56700 21.94900
C  41.65600 41.95000 23.42400
C  43.41400 39.98800 20.92700
C  40.32800 41.85400 21.27800
C  40.20200 43.27400 20.53900
N  41.59000 42.92200 26.28500
C  41.25500 43.76900 25.20100
C  40.86800 45.08300 25.68300
C  40.76800 44.89400 27.09300
C  41.28500 43.59800 27.41600
C  40.62000 46.23600 24.80300
C  40.37700 45.57400 28.33100
O  39.79000 46.61800 28.49400
C  40.80100 44.52200 29.51400
C  41.80200 45.17900 30.40600
O  42.93700 45.51900 30.09300
O  41.22500 45.60300 31.59800
C  42.04400 46.32800 32.58900
H  43.54800 38.23700 29.58100
H  43.31200 37.93000 23.12000
H  41.13200 43.94700 23.08200
H  42.64500 42.51600 31.04000
H  42.11500 39.52700 30.96800
H  44.92800 40.41700 30.58900
H  44.31900 39.47600 31.93500
H  44.27300 41.17200 32.12800
H  40.44300 40.65100 31.78200
H  39.82800 42.07200 30.81000
H  39.79700 43.50000 32.42900
H  41.41500 43.14800 32.93500
H  44.11500 36.09200 28.82100
H  45.38000 35.71700 27.66500
H  43.75600 35.00600 27.62100
H  44.34800 34.30500 25.58500
H  45.98100 35.11400 25.53500
H  45.47200 34.17800 24.11800
H  41.42100 39.40500 21.77400
H  42.50600 42.23100 21.56500
H  43.01000 39.40100 20.10200
H  44.28400 39.39700 21.21400
H  43.80700 40.94300 20.57800
H  39.58000 41.76700 22.06600
H  40.02300 41.09900 20.55300
H  40.34500 43.19800 19.46200
H  40.97600 43.91400 20.96300
H  39.19200 43.65300 20.69600
H  41.30400 46.46300 23.98500
H  40.76200 47.08600 25.46900
H  39.67300 46.25500 24.26200
H  39.86000 44.26500 30.00200
H  41.35900 46.91400 33.20200
H  42.63900 47.08700 32.08100
H  42.68400 45.65400 33.15800

