158

Mg 17.08400 -1.76400 27.82300
C  15.88000 0.20800 30.47500
C  19.14000 -3.39800 29.91400
C  18.56600 -3.16400 25.09000
C  15.28300 0.38000 25.57100
N  17.63400 -1.48000 29.90400
C  16.90100 -0.66200 30.83200
C  17.30300 -1.01200 32.20900
C  18.50700 -2.04400 32.00000
C  18.48000 -2.28700 30.50800
C  19.89900 -1.55900 32.55400
C  16.17400 -1.60700 33.10500
C  15.91700 -0.87300 34.45100
H  17.14400 -0.18400 35.14900
N  18.48000 -3.22500 27.53700
C  19.22600 -3.78700 28.53900
C  20.00100 -4.87700 27.96300
C  19.82000 -4.90100 26.57500
C  18.96300 -3.68200 26.34800
C  20.91700 -5.68900 28.73100
C  20.40600 -5.81500 25.47700
O  20.28200 -5.57300 24.23300
C  21.26800 -6.96000 25.84100
N  17.11900 -1.25500 25.67100
C  17.74900 -2.07600 24.78800
C  17.40600 -1.67900 23.33900
C  16.31800 -0.59800 23.55000
C  16.20600 -0.50000 25.03900
C  18.67900 -1.23100 22.58700
C  14.99200 -0.95000 22.78100
C  13.92700 -1.90000 23.50700
N  15.80700 -0.12900 27.94500
C  15.01800 0.60400 26.95300
C  14.19100 1.53400 27.71400
C  14.47400 1.38800 29.01300
C  15.46500 0.38200 29.13400
C  13.21100 2.41200 27.04800
C  13.98800 1.88400 30.25600
O  13.17900 2.73100 30.54200
C  14.87600 1.12600 31.32700
C  15.59200 2.14800 32.17400
O  16.75700 2.37200 31.99500
O  14.80300 2.60700 33.18000
C  15.32600 3.50000 34.17600
H  19.47500 -4.12400 30.65800
H  18.96700 -3.70000 24.22700
H  14.80300 0.95400 24.77500
H  17.66700 -0.11200 32.70400
H  18.22500 -2.96400 32.51300
H  19.93300 -0.52400 32.21400
H  20.76000 -2.00100 32.05100
H  19.98400 -1.69600 33.63200
H  16.33000 -2.64900 33.38400
H  15.30600 -1.57400 32.44700
H  15.55200 -1.65300 35.12000
H  15.18300 -0.07800 34.31800
H  21.06500 -5.33300 29.75100
H  21.91400 -5.70600 28.29200
H  20.60800 -6.73300 28.78300
H  21.49700 -7.47200 24.90700
H  20.68600 -7.58200 26.52100
H  22.18400 -6.53900 26.25500
H  16.91300 -2.51400 22.84000
H  16.54900 0.30600 22.98600
H  19.28500 -0.61400 23.25100
H  18.37200 -0.61700 21.74100
H  19.34800 -2.06000 22.35600
H  15.21700 -1.37100 21.80000
H  14.52300 -0.04100 22.40500
H  13.09200 -1.35500 23.94800
H  14.37400 -2.60900 24.20400
H  13.59300 -2.38800 22.59100
H  12.70000 1.91900 26.22100
H  13.83700 3.22500 26.68000
H  12.51900 2.76300 27.81400
H  14.22600 0.48000 31.91800
H  16.35800 3.23800 34.40800
H  14.70200 3.33400 35.05500
H  15.34200 4.52100 33.79500
Mg 10.65700 47.09100 25.95100
C  8.42400 47.49200 28.57500
C  13.03400 48.55200 27.92700
C  12.79600 46.71800 23.43800
C  7.95200 46.18700 23.85700
N  10.66400 47.95100 28.02400
C  9.73500 47.84200 29.01800
C  10.32600 48.28900 30.34200
C  11.60600 49.06000 29.87200
C  11.79100 48.47100 28.50800
C  11.32900 50.54400 29.76000
C  10.54400 47.18100 31.32700
C  9.98300 47.58500 32.68600
H  9.95500 46.55700 33.81200
N  12.59700 47.51100 25.75500
C  13.44400 48.04500 26.67300
C  14.82100 47.92800 26.24300
C  14.77800 47.53700 24.93300
C  13.33000 47.23200 24.66100
C  15.94500 48.35600 27.16800
C  15.90900 47.42400 23.83700
O  15.70200 46.89000 22.76900
C  17.19400 48.00500 24.15400
N  10.32500 46.67500 23.88800
C  11.42100 46.49400 23.06200
C  10.95100 46.08200 21.68700
C  9.40900 45.75400 21.82500
C  9.22100 46.27400 23.26900
C  11.41900 46.99800 20.50800
C  9.05300 44.32700 21.40800
C  9.43100 43.12800 22.31400
N  8.58800 46.99200 26.06900
C  7.63600 46.56500 25.13400
C  6.34500 46.53400 25.75600
C  6.57500 46.82000 27.15900
C  7.98900 47.18100 27.25900
C  5.01200 46.06500 25.09400
C  5.99600 46.89600 28.46400
O  4.87900 46.72600 28.85100
C  7.16300 47.22500 29.47700
C  7.29100 46.08400 30.41300
O  8.04400 45.15600 30.21500
O  6.50400 46.20000 31.53900
C  6.53300 45.09100 32.49900
H  13.80800 49.04900 28.51700
H  13.43500 46.57500 22.56400
H  7.14300 45.91100 23.17800
H  9.66100 49.01900 30.80400
H  12.40400 48.96200 30.60800
H  10.26800 50.79000 29.74400
H  11.76500 50.91200 28.83100
H  11.74200 51.06800 30.62200
H  11.62900 47.10800 31.39500
H  9.98900 46.26300 31.13700
H  8.96300 47.94500 32.55200
H  10.57600 48.44700 32.99300
H  16.76200 47.65200 27.32800
H  15.56300 48.66300 28.14200
H  16.32200 49.24900 26.67000
H  17.77200 47.24800 24.68400
H  17.09900 48.89500 24.77600
H  17.65500 48.30100 23.21100
H  11.43900 45.13400 21.46100
H  8.88100 46.38400 21.10800
H  11.59100 47.99800 20.90700
H  10.57800 47.11300 19.82500
H  12.28000 46.68500 19.91800
H  9.44200 44.10500 20.41500
H  7.96500 44.37300 21.35800
H  9.51900 43.39500 23.36700
H  10.39900 42.78300 21.94900
H  8.68300 42.33900 22.23700
H  5.17000 45.44300 24.21300
H  4.50200 46.98700 24.81700
H  4.37500 45.48700 25.76300
H  7.06600 48.22100 29.90900
H  5.65200 44.48300 32.29400
H  6.51700 45.43600 33.53300
H  7.36300 44.39600 32.37800

