158

Mg 49.08100 35.17900 27.45300
C  47.33900 33.61300 30.01200
C  49.78000 37.77700 29.88800
C  50.14700 36.97100 25.06300
C  48.03500 32.68600 25.23700
N  48.51500 35.68500 29.66100
C  47.96000 34.75000 30.49800
C  47.90000 35.19400 31.98900
C  48.55300 36.62000 31.89700
C  48.96900 36.77400 30.40800
C  47.55100 37.70400 32.28500
C  48.93200 34.32200 32.77900
C  48.61100 34.09600 34.29100
H  47.57700 35.00300 35.03300
N  49.99700 37.03400 27.48200
C  50.27500 37.92800 28.53800
C  51.07600 38.99300 28.02200
C  51.09300 38.75600 26.62400
C  50.37100 37.55300 26.35200
C  51.71000 40.03400 28.92700
C  51.71400 39.65200 25.56300
O  51.71700 39.27100 24.35600
C  52.37600 40.91800 26.01900
N  48.94200 34.92600 25.39200
C  49.53500 35.83100 24.59700
C  49.40800 35.36500 23.16900
C  48.83400 33.87100 23.27000
C  48.65300 33.85700 24.73900
C  48.64500 36.27700 22.30200
C  49.83300 32.74000 22.71300
C  49.18300 31.59400 21.78200
N  47.99500 33.44900 27.54600
C  47.64400 32.58800 26.57100
C  46.87600 31.53500 27.08700
C  46.60200 31.99800 28.39100
C  47.41100 33.12300 28.68500
C  46.39100 30.30300 26.40900
C  45.79700 31.71100 29.58700
O  44.93100 30.88000 29.84300
C  46.27400 32.68300 30.65300
C  46.70100 31.89400 31.85500
O  47.59000 31.10500 31.94300
O  45.77400 32.13100 32.83300
C  45.83900 31.28800 34.02000
H  50.03200 38.55100 30.61600
H  50.52900 37.44900 24.15800
H  47.68900 31.88000 24.58600
H  46.85100 35.20600 32.28500
H  49.49600 36.82600 32.40400
H  46.89600 37.29600 33.05400
H  47.06700 38.15000 31.41600
H  48.17100 38.53900 32.61000
H  49.92900 34.76100 32.81500
H  48.90200 33.35100 32.28500
H  49.53200 34.01900 34.86900
H  48.40400 33.02600 34.30800
H  52.79400 39.93000 28.87200
H  51.44900 39.86600 29.97200
H  51.42700 41.05900 28.68600
H  51.61300 41.49400 26.54300
H  52.85700 41.58100 25.29900
H  53.08700 40.50000 26.73200
H  50.42400 35.25500 22.78900
H  47.85500 33.78100 22.79800
H  47.62500 35.89100 22.28300
H  49.08600 36.37500 21.31000
H  48.62900 37.22800 22.83400
H  50.23400 32.24300 23.59600
H  50.71400 33.15200 22.22000
H  49.77500 31.54200 20.86900
H  48.15100 31.80900 21.50300
H  49.26700 30.67100 22.35600
H  45.62300 29.90900 27.07400
H  47.11700 29.50000 26.53400
H  46.21700 30.44300 25.34200
H  45.45500 33.39900 30.72400
H  45.26500 30.37500 33.86500
H  45.60300 31.81800 34.94300
H  46.83400 30.90900 34.25200
Mg 42.63100 41.17100 26.09100
C  41.63900 43.41300 28.72100
C  43.56600 39.00900 28.53900
C  43.65000 39.15800 23.66600
C  41.93500 43.65600 23.83600
N  42.65500 41.26500 28.50700
C  42.07200 42.17200 29.28000
C  42.10500 41.61800 30.77800
C  42.92000 40.27000 30.68600
C  43.07500 40.18700 29.18100
C  44.22700 40.18000 31.58200
C  40.71800 41.66100 31.53800
C  40.77400 41.24300 33.02000
H  40.64200 42.32700 34.00900
N  43.50300 39.32500 26.08100
C  43.81800 38.59000 27.20000
C  44.46800 37.38000 26.76500
C  44.42100 37.31900 25.33300
C  43.80300 38.60300 24.97000
C  45.13800 36.50600 27.77200
C  44.92100 36.20500 24.37300
O  44.88600 36.27000 23.19000
C  45.60300 34.94600 24.93100
N  42.97300 41.45000 23.99700
C  43.24300 40.41000 23.23500
C  43.15200 40.84800 21.73300
C  42.43900 42.27100 21.83400
C  42.45600 42.50000 23.31700
C  44.55500 40.65700 21.12600
C  41.11400 42.37800 21.15000
C  40.00900 41.50100 21.61200
N  41.96000 43.11500 26.22700
C  41.84100 43.98900 25.21200
C  41.40400 45.29800 25.76100
C  41.25100 45.08700 27.11000
C  41.64900 43.72300 27.33200
C  41.19800 46.57700 24.95000
C  40.75700 45.67800 28.43000
O  40.22700 46.75700 28.66300
C  40.93800 44.54800 29.46900
C  41.85600 44.97800 30.53600
O  43.11900 44.86800 30.52700
O  41.10700 45.69900 31.50100
C  41.92600 46.26300 32.56800
H  43.60800 38.23300 29.30700
H  43.97700 38.66300 22.74900
H  41.65200 44.40900 23.09700
H  42.74600 42.31900 31.31100
H  42.17100 39.52200 30.94500
H  44.42900 41.11800 32.10000
H  45.06100 40.05500 30.89200
H  44.14800 39.39100 32.32900
H  40.10200 40.88200 31.08900
H  40.17600 42.58600 31.34200
H  41.67800 40.66600 33.21600
H  39.94800 40.54900 33.17600
H  44.57500 35.58700 27.93300
H  45.21900 37.02700 28.72700
H  46.14900 36.18400 27.52600
H  45.65700 34.11700 24.22500
H  44.91500 34.57800 25.69100
H  46.50800 35.24800 25.45900
H  42.43400 40.18900 21.24500
H  43.17400 42.99100 21.47200
H  44.68000 39.84100 20.41400
H  45.17300 40.38100 21.98000
H  44.89200 41.60600 20.71000
H  41.24700 42.14100 20.09500
H  40.73400 43.39500 21.25100
H  39.30500 42.12500 22.16200
H  40.46300 40.72900 22.23400
H  39.40200 41.12200 20.78900
H  41.40700 46.47300 23.88500
H  41.95400 47.20600 25.42000
H  40.21500 46.91500 25.27600
H  39.98500 44.22300 29.88800
H  42.37300 45.44400 33.13100
H  41.39300 47.04100 33.11500
H  42.80200 46.77500 32.17000

