158

Mg -1.75600 17.52600 26.31600
C  -2.25100 15.41800 29.09700
C  -1.87600 20.22100 28.61300
C  -1.75700 19.63000 23.84200
C  -2.30300 14.84700 24.29800
N  -1.86400 17.80700 28.64200
C  -1.94500 16.77300 29.52600
C  -2.19300 17.34500 30.97400
C  -2.28200 18.83400 30.75800
C  -2.03100 18.98700 29.23800
C  -3.50600 19.60000 31.31000
C  -1.08100 16.91400 32.06600
C  -0.92700 17.78200 33.33400
H  -0.90200 17.00700 34.66500
N  -1.62500 19.62800 26.30000
C  -1.62400 20.53300 27.28600
C  -1.23900 21.82900 26.71900
C  -1.10900 21.66500 25.34600
C  -1.53200 20.25300 25.09100
C  -1.30400 23.09200 27.58300
C  -0.71800 22.72500 24.26600
O  -0.53500 22.38800 23.08500
C  -0.43200 24.08800 24.71200
N  -2.21800 17.29700 24.31900
C  -2.16200 18.33000 23.46400
C  -2.44700 17.82300 22.02300
C  -2.13700 16.26700 22.17800
C  -2.23600 16.06600 23.67400
C  -3.87100 18.10900 21.55000
C  -0.79600 15.77300 21.43600
C  0.52000 15.69800 22.24100
N  -2.00500 15.58000 26.61600
C  -2.23300 14.58600 25.68700
C  -2.34700 13.30000 26.24900
C  -2.42900 13.58700 27.67000
C  -2.21900 14.99100 27.77200
C  -2.46500 11.99800 25.60200
C  -2.60600 13.03400 28.97300
O  -2.80300 11.86700 29.37100
C  -2.50000 14.21400 29.93700
C  -1.43300 13.88800 30.90100
O  -0.23600 14.09800 30.65600
O  -1.99100 13.32300 31.99100
C  -0.92000 13.05400 32.97800
H  -1.90600 21.05300 29.31900
H  -1.73400 20.34000 23.01200
H  -2.35900 14.00800 23.60100
H  -3.12900 17.04200 31.44200
H  -1.41600 19.37400 31.14000
H  -4.03100 20.06100 30.47300
H  -3.18100 20.37800 32.00100
H  -4.14200 18.95600 31.91800
H  -0.11200 16.68300 31.62500
H  -1.21500 15.87000 32.34800
H  -1.69100 18.55900 33.29500
H  -0.00700 18.36200 33.25900
H  -0.30300 23.51300 27.49600
H  -1.35100 22.92200 28.65900
H  -2.01900 23.79200 27.15200
H  0.39800 24.14100 25.41700
H  -1.29800 24.59500 25.13500
H  -0.04300 24.64500 23.85900
H  -1.86000 18.28700 21.23100
H  -3.02500 15.72800 21.84700
H  -4.47800 17.20400 21.49900
H  -3.83100 18.55900 20.55800
H  -4.46700 18.77800 22.17000
H  -0.55200 16.47600 20.63900
H  -0.90900 14.83000 20.90100
H  0.47600 16.01200 23.28400
H  1.14100 16.49000 21.82400
H  1.00000 14.72000 22.24600
H  -1.57800 11.86900 24.98300
H  -3.36500 12.14500 25.00500
H  -2.70800 11.21200 26.31800
H  -3.51500 14.37700 30.29800
H  -1.49600 12.69200 33.82900
H  -0.37200 13.97600 33.17300
H  -0.13500 12.37600 32.64100
Mg 7.71300 2.34400 27.83400
C  8.87700 1.21900 30.93600
C  5.37900 4.34000 29.59300
C  6.61500 3.56700 24.90800
C  9.71200 0.07600 26.25200
N  7.04000 2.58300 30.08100
C  7.87300 2.17100 31.12900
C  7.54200 2.98900 32.40500
C  6.20200 3.70700 31.95100
C  6.20100 3.54800 30.44200
C  4.82400 3.16000 32.70600
C  8.74000 3.96800 32.77500
C  8.51600 5.04900 33.95100
H  9.34400 4.82900 35.18800
N  6.26600 3.76900 27.31700
C  5.34600 4.40500 28.14100
C  4.40900 5.21400 27.34300
C  4.94300 5.16400 26.01400
C  5.96700 4.12700 26.01100
C  3.34500 6.05200 27.92400
C  4.51900 5.86600 24.76900
O  5.15700 5.81800 23.78100
C  3.40400 6.87200 24.81900
N  8.08300 1.88200 25.98800
C  7.55900 2.54500 24.90400
C  7.95100 1.88000 23.58500
C  8.98200 0.88700 23.95900
C  8.92900 0.89300 25.46600
C  6.72200 1.38600 22.69600
C  10.47300 1.21900 23.42000
C  11.31500 0.01000 22.95800
N  8.96300 0.92000 28.43300
C  9.73000 0.02800 27.67100
C  10.66200 -0.67400 28.47400
C  10.37700 -0.29500 29.77600
C  9.35100 0.74200 29.69100
C  11.62300 -1.60700 27.98200
C  10.72700 -0.43300 31.17300
O  11.61100 -1.14300 31.65100
C  9.88800 0.62200 31.99200
C  9.25500 -0.07600 33.11000
O  8.79400 -1.21300 32.96300
O  9.56800 0.44600 34.31300
C  9.10000 -0.48000 35.41300
H  4.68900 4.94400 30.18600
H  6.30100 3.87800 23.91000
H  10.55500 -0.52100 25.89800
H  7.31900 2.32300 33.23800
H  6.25500 4.78500 32.09900
H  4.21700 2.61700 31.98200
H  4.22400 4.00900 33.03400
H  5.04100 2.44700 33.50100
H  8.85600 4.49800 31.82900
H  9.61100 3.35900 33.01500
H  7.45500 5.04600 34.19900
H  8.73600 6.04400 33.56400
H  3.45300 7.05100 27.50000
H  3.37100 6.04700 29.01400
H  2.31600 5.73800 27.74700
H  2.59200 6.35400 25.33000
H  3.21800 7.17200 23.78800
H  3.82900 7.71900 25.35800
H  8.42000 2.67400 23.00500
H  8.69100 -0.14300 23.75100
H  5.76200 1.73200 23.07800
H  6.70300 0.30200 22.81000
H  6.89000 1.60300 21.64100
H  10.95400 1.80000 24.20700
H  10.27500 1.84600 22.55100
H  12.20000 -0.20200 23.55900
H  11.74100 0.23400 21.98000
H  10.68100 -0.86500 22.81600
H  12.37800 -1.81000 28.74100
H  12.05000 -1.19700 27.06600
H  11.07000 -2.53500 27.84200
H  10.54400 1.43300 32.30700
H  9.57000 -1.45200 35.26100
H  8.01600 -0.51300 35.51600
H  9.55100 -0.23000 36.37400

