158

Mg 41.17000 9.06500 29.66000
C  43.09300 10.24600 32.31700
C  39.02600 7.69000 31.92900
C  39.55200 7.56300 27.15700
C  43.68700 10.02700 27.45800
N  41.10700 8.94200 31.92300
C  41.85600 9.72300 32.75100
C  41.34600 9.73500 34.24800
C  40.13100 8.83200 34.02200
C  40.01800 8.49400 32.57000
C  39.98900 7.68400 34.98800
C  41.20100 11.18100 34.80900
C  42.09200 11.43300 36.10400
H  41.35500 12.01700 37.34400
N  39.56500 7.77600 29.55300
C  38.85500 7.33700 30.60700
C  37.72700 6.54600 30.11900
C  37.77600 6.60600 28.70400
C  39.04500 7.26300 28.40000
C  36.68100 5.85000 31.00700
C  36.78600 6.21900 27.68000
O  36.98600 6.31000 26.49000
C  35.45000 5.66100 28.09400
N  41.60700 8.79000 27.62200
C  40.68700 8.31700 26.77600
C  41.14600 8.46900 25.27600
C  42.35100 9.47300 25.40100
C  42.56200 9.42200 26.92200
C  41.56600 7.07800 24.76600
C  42.20200 10.99200 24.94100
C  40.86500 11.74600 25.07700
N  43.04800 9.85500 29.80800
C  43.97100 10.16800 28.82300
C  45.07900 10.75200 29.44300
C  44.79500 10.92000 30.82400
C  43.51400 10.28700 30.95300
C  46.30900 11.40800 28.81800
C  45.26700 11.44300 32.08600
O  46.28300 12.10900 32.36100
C  44.17800 10.92900 33.10000
C  44.78700 10.00400 34.08700
O  44.98600 8.79900 34.00500
O  45.06000 10.72300 35.26300
C  45.57200 9.93900 36.37000
H  38.23100 7.49800 32.65300
H  39.16700 6.87800 26.39900
H  44.42800 10.43300 26.76700
H  42.07900 9.15000 34.80300
H  39.26900 9.47700 34.19400
H  40.23400 6.76100 34.46300
H  38.96300 7.47600 35.29200
H  40.59600 7.80800 35.88400
H  40.15200 11.23400 35.10000
H  41.39300 11.98900 34.10200
H  42.83400 12.14300 35.73800
H  42.59000 10.50900 36.39800
H  36.86600 4.82200 30.69800
H  35.65500 6.19000 30.86400
H  36.82800 5.99900 32.07700
H  35.71200 4.67500 28.48000
H  34.76800 5.54200 27.25200
H  34.95400 6.35800 28.77000
H  40.28200 8.77500 24.68700
H  43.21300 8.97700 24.95500
H  41.00200 6.82700 23.86800
H  41.27500 6.32400 25.49800
H  42.61500 6.91600 24.51700
H  42.43300 11.12700 23.88400
H  43.02500 11.64700 25.22800
H  40.27600 11.08600 25.71400
H  40.47300 11.84700 24.06500
H  41.08400 12.72500 25.50400
H  46.47100 11.08700 27.79000
H  47.19600 11.18000 29.40900
H  46.19800 12.48900 28.91000
H  43.78500 11.80500 33.61600
H  46.62400 9.77900 36.13400
H  44.98900 9.10300 36.75600
H  45.44100 10.50400 37.29200
Mg 30.57000 57.23100 40.18900
C  27.78700 55.13200 38.97600
C  32.58900 54.76700 39.27700
C  32.98000 59.46000 40.03500
C  28.21400 59.69900 40.81300
N  30.16600 55.22900 39.19700
C  29.05300 54.52200 38.78500
C  29.50200 53.14800 38.31800
C  30.89800 52.87900 38.95900
C  31.28600 54.37100 39.17600
C  30.91200 52.06400 40.32100
C  29.43800 53.02600 36.76300
C  28.12200 52.23800 36.20700
H  27.28700 53.03600 35.16400
N  32.60800 57.13400 39.85300
C  33.23200 55.99600 39.46100
C  34.62500 56.33300 39.21300
C  34.80800 57.67000 39.56000
C  33.47300 58.15800 39.92000
C  35.69400 55.34400 38.74900
C  36.11100 58.43200 39.60400
O  37.15700 57.88700 39.37200
C  36.17500 59.79900 39.97500
N  30.52500 59.35400 40.21900
C  31.71100 60.00700 40.18500
C  31.50600 61.43400 40.63500
C  30.05700 61.45900 41.20400
C  29.54000 60.09800 40.72700
C  32.51400 62.00900 41.64300
C  29.15700 62.66600 40.71800
C  28.31900 63.47700 41.80200
N  28.36900 57.44000 39.99200
C  27.55600 58.52100 40.31400
C  26.15400 58.24300 39.96200
C  26.24800 56.88800 39.50800
C  27.60200 56.49800 39.48300
C  24.99300 59.07700 40.08600
C  25.42400 55.72900 39.07800
O  24.24800 55.54800 39.00600
C  26.40200 54.59800 38.85100
C  26.15200 53.53400 39.81300
O  26.19800 53.57400 40.99500
O  25.82700 52.42900 39.00600
C  25.47400 51.32000 39.87500
H  33.30900 53.95700 39.14300
H  33.77400 60.20300 39.93000
H  27.54200 60.53800 41.00500
H  28.74100 52.44100 38.64700
H  31.68500 52.42300 38.35800
H  30.90500 52.80500 41.12100
H  31.87200 51.55800 40.41700
H  30.10200 51.33500 40.31300
H  30.19800 52.28000 36.53100
H  29.55800 53.97800 36.24600
H  27.41900 52.04000 37.01600
H  28.44500 51.26500 35.83700
H  36.17600 55.74200 37.85600
H  35.32900 54.34100 38.52700
H  36.42800 55.16600 39.53500
H  35.67700 60.27800 39.13200
H  37.18200 60.18500 40.13400
H  35.58800 59.91500 40.88600
H  31.64400 62.10300 39.78500
H  30.13600 61.44300 42.29100
H  33.24900 61.27600 41.97500
H  32.05900 62.67300 42.37700
H  33.12600 62.69100 41.05200
H  28.46800 62.20600 40.01000
H  29.70700 63.25900 39.98700
H  27.30600 63.73300 41.49000
H  28.84200 64.40200 42.04400
H  28.22100 62.85100 42.68900
H  24.37800 59.05900 39.18700
H  25.24400 60.10500 40.35000
H  24.26900 58.65900 40.78500
H  26.32600 54.22500 37.82900
H  26.40900 50.84300 40.16800
H  24.94600 50.60900 39.23900
H  24.85700 51.62600 40.72000

