158

Mg 46.89900 25.54900 29.08800
C  48.02200 27.70200 31.61500
C  45.82700 23.44200 31.61000
C  46.27600 23.13400 26.66000
C  48.53300 27.38300 26.63100
N  46.89300 25.62100 31.39100
C  47.39400 26.63800 32.15700
C  47.06100 26.37300 33.62600
C  46.55700 24.90300 33.64700
C  46.38000 24.61300 32.12400
C  47.47900 23.79800 34.23600
C  46.02300 27.50200 34.18700
C  46.50100 28.13800 35.51600
H  45.29500 28.19200 36.54800
N  46.08000 23.66400 29.12700
C  45.64700 23.03200 30.27200
C  45.06100 21.74500 29.88600
C  45.06600 21.73300 28.43900
C  45.86000 22.86300 27.98300
C  44.39300 20.84100 30.90600
C  44.51600 20.73000 27.53400
O  44.70000 20.80400 26.32000
C  43.57500 19.64000 28.00300
N  47.41700 25.25500 26.91400
C  46.99500 24.22600 26.16800
C  47.56500 24.26300 24.77900
C  47.89900 25.84200 24.67300
C  47.96200 26.21600 26.14300
C  48.83500 23.37700 24.63200
C  46.80000 26.75000 23.92200
C  47.42400 27.32300 22.63100
N  48.08000 27.25300 29.01500
C  48.61400 27.92400 27.98400
C  49.24400 29.08400 28.51700
C  49.02200 29.06700 29.88200
C  48.25200 27.96300 30.15800
C  49.99900 30.06700 27.72000
C  49.25600 29.73800 31.16400
O  49.98700 30.70700 31.35800
C  48.60500 28.96400 32.33900
C  49.62200 28.63500 33.39700
O  50.54200 27.91200 33.26400
O  49.28400 29.25000 34.55300
C  50.02800 29.05000 35.75000
H  45.60800 22.84100 32.49500
H  46.07800 22.46900 25.81700
H  49.03900 28.02500 25.90700
H  47.93600 26.41200 34.27500
H  45.55900 24.82100 34.07800
H  48.26400 24.26600 34.82900
H  47.90800 23.18100 33.44700
H  46.87700 23.26400 34.97200
H  45.03400 27.04600 34.22700
H  45.97000 28.35900 33.51500
H  46.77500 29.15500 35.23500
H  47.31900 27.55500 35.93800
H  43.45900 20.37300 30.59400
H  44.10200 21.36800 31.81500
H  44.95800 19.92500 31.07400
H  42.66600 20.19300 28.24000
H  43.92900 18.98700 28.80000
H  43.31600 18.99200 27.16600
H  46.81300 23.96300 24.04900
H  48.90300 25.96300 24.26700
H  48.60500 22.37000 24.28400
H  49.34800 23.39700 25.59300
H  49.50100 23.86500 23.92000
H  46.40400 27.52700 24.57600
H  45.98200 26.05000 23.74800
H  46.81800 27.07500 21.76000
H  48.44800 27.03600 22.39200
H  47.44100 28.41100 22.69000
H  49.63900 30.04900 26.69100
H  51.05100 29.79700 27.62800
H  49.89300 31.11800 27.99000
H  47.85700 29.68500 32.66900
H  49.57000 29.57700 36.58800
H  51.02200 29.48800 35.65500
H  50.23100 27.98400 35.85200
Mg 17.47100 51.45400 25.82000
C  19.21800 50.06100 28.59700
C  14.76100 52.16600 28.00800
C  15.60100 52.37600 23.24000
C  19.89500 50.12900 23.76700
N  16.98200 51.00500 28.04700
C  17.94700 50.65200 28.94400
C  17.52800 50.98500 30.40200
C  15.99200 51.47400 30.20300
C  15.81700 51.51000 28.64300
C  14.87700 50.57500 30.80000
C  18.41800 52.12800 30.98300
C  18.49300 52.12600 32.51300
H  17.47200 51.31700 33.24300
N  15.51700 52.28200 25.66900
C  14.59300 52.53600 26.67300
C  13.51500 53.33400 26.08700
C  13.72600 53.46000 24.66100
C  14.96600 52.66800 24.45700
C  12.35700 53.78800 26.99500
C  12.87500 54.09300 23.55500
O  13.19900 54.03300 22.35100
C  11.55600 54.74700 23.87900
N  17.64100 51.13500 23.80300
C  16.77700 51.64800 22.93200
C  17.16600 51.31700 21.55700
C  18.73900 50.97900 21.73600
C  18.78300 50.75300 23.21600
C  16.34400 50.15900 20.95600
C  19.70100 52.15500 21.23700
C  19.40400 53.51800 21.82900
N  19.21800 50.35200 26.04100
C  20.11300 49.95700 25.12700
C  21.21300 49.18600 25.75300
C  20.86800 49.28000 27.12400
C  19.70800 50.01600 27.20300
C  22.37000 48.46300 25.10600
C  21.33000 48.88400 28.41400
O  22.30900 48.33600 28.89100
C  20.22400 49.31700 29.40800
C  19.73800 48.14100 30.20700
O  19.13800 47.18000 29.85400
O  20.09800 48.28300 31.46700
C  19.64700 47.41000 32.54100
H  13.97100 52.36400 28.73500
H  15.10100 52.76900 22.35200
H  20.62800 49.86100 23.00400
H  17.62800 50.04400 30.94200
H  15.87600 52.49600 30.56400
H  14.27000 51.22400 31.43000
H  15.33600 49.73800 31.32700
H  14.26400 50.10900 30.02800
H  18.18200 53.11200 30.57900
H  19.45500 51.95400 30.69800
H  18.19500 53.14000 32.78000
H  19.51100 51.97300 32.87000
H  11.60100 54.38400 26.48400
H  12.84100 54.37700 27.77300
H  11.94100 52.89800 27.46700
H  10.79000 54.08700 24.28700
H  11.25200 55.29200 22.98600
H  11.68700 55.65000 24.47600
H  17.05100 52.22600 20.96700
H  18.98000 50.03500 21.24700
H  15.60500 50.62400 20.30300
H  15.80600 49.49000 21.62800
H  16.97200 49.57400 20.28400
H  19.75600 52.05800 20.15300
H  20.62700 51.75600 21.65000
H  20.32200 53.85100 22.31200
H  18.44400 53.55400 22.34400
H  19.40400 54.24800 21.01900
H  21.99400 48.05800 24.16700
H  22.60100 47.59400 25.72300
H  23.18300 49.18900 25.08200
H  20.68100 50.06500 30.05500
H  19.45100 48.06300 33.39200
H  20.37300 46.63300 32.78000
H  18.75300 46.81300 32.36100

