158

Mg 9.29600 47.86600 27.42300
C  7.52000 47.44700 30.35100
C  12.10900 48.49700 29.28800
C  10.88200 48.53600 24.55400
C  6.18300 47.92600 25.58500
N  9.69300 48.13600 29.57700
C  8.87900 47.66100 30.58500
C  9.55900 47.98700 31.93400
C  11.07600 48.09000 31.57400
C  10.94500 48.20700 30.07100
C  11.68000 49.31700 32.26300
C  9.26800 46.92400 32.99600
C  10.33000 46.49300 34.06700
H  9.83800 45.80200 35.35300
N  11.24900 48.54300 26.96600
C  12.27000 48.68800 27.88100
C  13.46500 48.97500 27.20100
C  13.22200 48.90200 25.80400
C  11.75900 48.69500 25.73800
C  14.87500 49.08600 27.85800
C  14.16200 49.01600 24.60600
O  13.80300 48.95700 23.44800
C  15.60700 49.06500 24.89000
N  8.57400 48.14600 25.33000
C  9.52300 48.38700 24.35900
C  8.79000 48.59800 22.98100
C  7.29100 48.33800 23.29600
C  7.33800 48.06800 24.80000
C  9.14700 50.11400 22.49800
C  6.72400 47.18200 22.45600
C  6.66600 47.52600 20.95600
N  7.27400 47.51200 27.83200
C  6.18300 47.62500 26.99700
C  4.97300 47.37900 27.84000
C  5.48200 47.28700 29.13100
C  6.85300 47.38500 29.06800
C  3.51700 47.46400 27.47600
C  5.10500 47.09300 30.48200
O  3.95000 46.89700 30.90700
C  6.42100 47.19800 31.37700
C  6.48700 45.87200 32.11100
O  7.02500 44.86800 31.70300
O  5.66400 46.00500 33.24400
C  5.66500 44.85900 34.19800
H  13.10100 48.54900 29.74000
H  11.48200 48.60900 23.64400
H  5.19200 48.02800 25.13600
H  9.03000 48.90600 32.18500
H  11.56900 47.13000 31.73100
H  12.75200 49.32300 32.46300
H  11.09700 49.43100 33.17700
H  11.53500 50.14100 31.56500
H  9.03700 46.04200 32.39700
H  8.33900 47.23300 33.47500
H  10.70200 47.45900 34.40900
H  11.14100 45.96300 33.56800
H  15.45900 48.24200 27.49300
H  14.93300 49.04600 28.94500
H  15.22400 50.10400 27.68200
H  15.83500 49.88400 25.57200
H  16.09000 49.19900 23.92200
H  15.86300 48.05900 25.22100
H  9.31900 47.94600 22.28600
H  6.82500 49.31500 23.16900
H  9.88800 50.13700 21.69900
H  9.50800 50.70600 23.33900
H  8.23600 50.57800 22.12000
H  5.67500 47.04300 22.71800
H  7.12100 46.21900 22.77900
H  6.84400 46.64300 20.34200
H  7.35500 48.34500 20.74800
H  5.68200 47.81700 20.58700
H  3.11400 48.46100 27.65200
H  2.93400 46.76900 28.08100
H  3.40700 47.27900 26.40800
H  6.36700 48.02500 32.08500
H  5.62300 45.14400 35.24900
H  6.44800 44.10100 34.15800
H  4.64200 44.51100 34.05100
Mg -4.33500 25.06100 26.03800
C  -2.78800 26.83200 28.65300
C  -5.41600 22.67300 28.28100
C  -5.50100 23.49100 23.50600
C  -2.46800 27.15800 23.73500
N  -4.18100 24.82300 28.27000
C  -3.54300 25.72400 29.06200
C  -3.94600 25.46400 30.52300
C  -4.53700 23.93900 30.37700
C  -4.71800 23.72800 28.89400
C  -3.66200 22.81700 31.00800
C  -5.09400 26.51500 30.94200
C  -5.45900 26.62300 32.40100
H  -5.06300 25.44100 33.33100
N  -5.32900 23.32500 25.90700
C  -5.76600 22.51000 26.93500
C  -6.66800 21.55000 26.36200
C  -6.50700 21.59600 24.93100
C  -5.73700 22.82000 24.70600
C  -7.50300 20.67300 27.19100
C  -7.09400 20.65000 23.82700
O  -6.91900 20.82100 22.65900
C  -7.88600 19.46500 24.16000
N  -3.96700 25.27100 23.86400
C  -4.83800 24.65100 23.11800
C  -4.84500 25.18500 21.54800
C  -3.77500 26.28600 21.66200
C  -3.41700 26.28200 23.15500
C  -4.51500 24.01900 20.63900
C  -4.30900 27.69200 21.15900
C  -4.29400 27.88600 19.67400
N  -2.90400 26.68300 26.12100
C  -2.18800 27.43300 25.09700
C  -1.37400 28.45700 25.70700
C  -1.61000 28.26900 27.10000
C  -2.51000 27.17800 27.28400
C  -0.63500 29.50500 25.09800
C  -1.33900 28.83600 28.38700
O  -0.69800 29.84900 28.74700
C  -2.12700 27.95400 29.36900
C  -1.32100 27.46900 30.56800
O  -0.23700 26.92200 30.52100
O  -1.98700 27.82200 31.72200
C  -1.27000 27.46500 32.90200
H  -5.79700 21.98900 29.04300
H  -5.95100 23.04200 22.61800
H  -1.87700 27.78700 23.06600
H  -3.03700 25.43600 31.12400
H  -5.52100 24.01700 30.83900
H  -2.68400 23.26300 31.19300
H  -3.51700 22.01700 30.28200
H  -4.07000 22.41500 31.93500
H  -5.95000 26.17800 30.35700
H  -4.82200 27.50400 30.57300
H  -6.53500 26.76800 32.50500
H  -5.16500 27.62800 32.70300
H  -7.22600 19.63000 27.03500
H  -8.50000 20.83100 26.77900
H  -7.43500 20.88600 28.25800
H  -8.64100 19.67900 24.91600
H  -7.31500 18.60000 24.50000
H  -8.40900 19.15100 23.25700
H  -5.78400 25.64200 21.23600
H  -2.96400 26.03700 20.97800
H  -4.44800 23.04300 21.12100
H  -3.66100 24.19500 19.98500
H  -5.34200 23.88800 19.94100
H  -3.78000 28.53900 21.59500
H  -5.35400 27.71200 21.46900
H  -3.97200 26.96900 19.18000
H  -3.82400 28.80500 19.32500
H  -5.35700 27.96900 19.44500
H  -0.66800 29.51100 24.00800
H  0.40200 29.41000 25.42100
H  -1.06500 30.45300 25.42200
H  -2.87900 28.60400 29.81600
H  -1.81900 27.87300 33.75100
H  -0.27600 27.90900 32.86500
H  -1.26500 26.37900 32.99600

