158

Mg 47.06400 24.96500 28.31800
C  48.29800 27.05600 30.74200
C  46.23100 22.73300 30.81300
C  46.41400 22.67700 25.95100
C  48.06400 27.16300 25.89300
N  47.18800 24.91500 30.55100
C  47.76800 25.90700 31.33600
C  47.62200 25.62900 32.87000
C  47.07500 24.11500 32.85000
C  46.84200 23.86800 31.30500
C  48.04900 23.15700 33.50000
C  46.60600 26.67000 33.53700
C  47.21100 27.36900 34.75100
H  46.36300 27.48700 35.94700
N  46.46100 22.93500 28.37500
C  46.12800 22.22900 29.52100
C  45.66100 20.86900 29.15400
C  45.79200 20.84700 27.72700
C  46.27300 22.18700 27.29400
C  45.29600 19.74300 30.20800
C  45.62200 19.67600 26.73800
O  45.74200 19.78100 25.50600
C  45.42100 18.27400 27.23500
N  47.33400 24.89000 26.22200
C  46.87900 23.95200 25.48400
C  46.71500 24.29600 24.00200
C  47.07700 25.83000 24.05500
C  47.49700 25.99500 25.45200
C  47.80200 23.56900 23.09900
C  45.85900 26.75400 23.74900
C  46.00400 27.68600 22.50400
N  48.00600 26.79600 28.26800
C  48.35000 27.56700 27.23700
C  49.12400 28.71600 27.71100
C  48.96500 28.64800 29.08500
C  48.44100 27.39500 29.36200
C  49.63800 29.80600 26.85900
C  49.22300 29.32900 30.34700
O  49.66900 30.45000 30.59300
C  48.86800 28.26700 31.48100
C  50.00900 27.94000 32.35700
O  50.84400 27.02800 32.13800
O  50.05400 28.71600 33.42400
C  51.13100 28.46700 34.42000
H  45.99100 21.93700 31.52100
H  45.98900 22.04600 25.16800
H  48.31700 27.80900 25.05000
H  48.62900 25.70000 33.27900
H  46.07600 24.11100 33.28500
H  48.47600 22.45800 32.78100
H  47.45400 22.47000 34.10200
H  48.82000 23.64700 34.09600
H  45.71300 26.21600 33.96600
H  46.39600 27.51200 32.87800
H  47.33800 28.42700 34.52100
H  48.21300 26.96200 34.88500
H  45.30800 20.13100 31.22600
H  46.11400 19.02700 30.12100
H  44.26600 19.58200 29.89000
H  46.39600 17.96800 27.61400
H  45.07300 17.57900 26.47000
H  44.67500 18.26500 28.03000
H  45.69700 24.02300 23.72200
H  47.94800 26.06700 23.44400
H  47.44700 22.54200 23.02000
H  48.72700 23.75400 23.64600
H  47.75500 24.02000 22.10800
H  45.27200 27.15900 24.57300
H  45.15500 26.05900 23.29100
H  45.44000 28.59700 22.70300
H  45.48900 27.15100 21.70600
H  47.01700 27.92800 22.18200
H  49.79500 29.63400 25.79400
H  50.64400 30.12600 27.13100
H  48.94800 30.63400 27.02200
H  48.18900 28.74700 32.18500
H  51.98400 28.00300 33.92600
H  50.85800 27.73200 35.17700
H  51.54700 29.33400 34.93500
Mg 9.48800 48.62600 25.47600
C  7.37100 49.29700 28.16000
C  12.12300 49.98000 27.26200
C  11.63100 48.14400 22.77200
C  6.81100 48.03100 23.45500
N  9.73400 49.52200 27.45200
C  8.73400 49.57700 28.42000
C  9.38700 49.94900 29.73400
C  10.66600 50.72500 29.24500
C  10.88200 50.01700 27.90100
C  10.56600 52.30900 29.28800
C  9.61800 48.61600 30.56000
C  9.18700 48.77900 32.02100
H  8.97200 47.44000 32.88300
N  11.57900 48.86900 25.22000
C  12.48900 49.49300 26.01500
C  13.80600 49.35800 25.38900
C  13.65700 48.66500 24.16900
C  12.25600 48.52700 24.03100
C  15.07500 49.77900 26.15400
C  14.74400 48.06000 23.19700
O  14.46300 47.36600 22.24900
C  16.12000 48.32700 23.41100
N  9.20400 48.19500 23.37700
C  10.22800 47.91900 22.48300
C  9.69300 47.41500 21.15300
C  8.15400 47.38200 21.46900
C  8.01900 47.83700 22.83400
C  10.10300 48.25100 19.89500
C  7.48700 45.94300 21.22200
C  6.02300 45.90300 20.65700
N  7.45600 48.76100 25.68600
C  6.45700 48.46100 24.76800
C  5.20100 48.56800 25.37000
C  5.53000 48.80300 26.78200
C  6.92000 48.97800 26.87100
C  3.86800 48.22400 24.72200
C  4.97100 48.90000 28.09900
O  3.91100 48.65300 28.42000
C  6.09200 49.35100 29.06500
C  5.97500 48.23000 30.16100
O  6.46800 47.12300 30.04300
O  5.14400 48.64500 31.12800
C  4.76300 47.70200 32.20500
H  12.87300 50.33500 27.97100
H  12.24000 47.91000 21.89600
H  5.90900 47.90400 22.85300
H  8.76400 50.70400 30.21400
H  11.49000 50.45200 29.90500
H  10.70100 52.69600 30.29700
H  9.58400 52.67700 28.99300
H  11.31900 52.75600 28.63800
H  10.63400 48.22200 30.54800
H  9.03800 47.81900 30.09400
H  8.30400 49.41400 32.10500
H  9.86900 49.47700 32.50600
H  15.49000 48.81600 26.45300
H  14.80400 50.38500 27.01900
H  15.74300 50.36700 25.52600
H  16.27600 49.38200 23.18200
H  16.69800 47.67100 22.76000
H  16.14100 48.16100 24.48800
H  10.18100 46.44100 21.20400
H  7.60400 48.14500 20.91900
H  10.77400 49.09700 20.04700
H  9.20100 48.66300 19.44300
H  10.49900 47.66600 19.06500
H  7.35700 45.43400 22.17800
H  8.12200 45.31700 20.59600
H  5.75900 46.94400 20.47300
H  5.42500 45.50700 21.47800
H  5.88500 45.28800 19.76700
H  3.26500 47.46700 25.22400
H  3.94800 47.95900 23.66700
H  3.22100 49.10100 24.71900
H  5.85200 50.32100 29.50100
H  4.98600 46.65400 32.00700
H  3.68500 47.84800 32.27400
H  5.01000 47.94000 33.24000

