158

Mg 1.34300 -0.74900 43.87100
C  4.76300 -0.18800 43.23400
C  0.65100 2.13900 42.25100
C  -1.70700 -1.74100 43.57700
C  2.37200 -4.04900 44.88800
N  2.65400 0.71400 42.91000
C  4.02800 0.81500 42.78700
C  4.39600 2.12500 42.02600
C  3.07400 2.85100 41.81900
C  1.99900 1.84500 42.38900
C  2.95100 4.14000 42.68700
C  5.35300 2.00800 40.77700
C  5.09000 0.88500 39.74900
H  5.41700 1.26400 38.31200
N  -0.33000 0.12500 43.19100
C  -0.42700 1.28500 42.56600
C  -1.79900 1.63800 42.39800
C  -2.55200 0.52500 42.87500
C  -1.48500 -0.42900 43.21000
C  -2.34400 2.91300 41.78800
C  -4.04100 0.46500 43.09100
O  -4.72700 1.46800 43.04400
C  -4.94000 -0.72900 43.61800
N  0.55200 -2.65200 43.88100
C  -0.79200 -2.68100 43.92500
C  -1.24600 -4.08800 44.34800
C  -0.03900 -4.70300 45.07500
C  1.00600 -3.78300 44.52100
C  -2.59600 -4.19900 45.23100
C  0.14500 -6.24700 44.92100
C  0.37200 -7.05600 46.21200
N  3.19100 -1.86900 44.24300
C  3.42000 -3.10200 44.72500
C  4.81700 -3.28400 44.99800
C  5.36000 -2.13500 44.40000
C  4.34500 -1.32400 43.89100
C  5.55700 -4.45600 45.61300
C  6.63300 -1.53900 44.07500
O  7.79500 -1.90100 44.29300
C  6.28100 -0.28000 43.25800
C  7.03400 0.89300 43.88500
O  6.57100 1.50300 44.82600
O  8.27800 1.05100 43.41800
C  9.19100 1.85900 44.26000
H  0.35300 3.09300 41.80900
H  -2.77600 -1.95300 43.64500
H  2.64300 -4.93900 45.46100
H  5.03500 2.57000 42.78900
H  3.05800 2.98700 40.73800
H  2.16500 4.03000 43.43400
H  2.63900 4.98100 42.06900
H  3.90900 4.39900 43.13800
H  6.36700 1.84200 41.14000
H  5.31200 3.02500 40.38900
H  4.09000 0.45800 39.83200
H  5.63500 -0.01200 40.04300
H  -3.36900 2.73300 41.46400
H  -1.70800 3.24000 40.96500
H  -2.63800 3.70600 42.47500
H  -4.80700 -1.57100 42.93800
H  -5.98800 -0.44600 43.51600
H  -4.55400 -0.87800 44.62600
H  -1.47500 -4.66100 43.45000
H  -0.14000 -4.31700 46.08900
H  -2.53500 -3.32700 45.88300
H  -2.38200 -5.07300 45.84500
H  -3.59700 -4.22700 44.80100
H  1.06800 -6.49100 44.39400
H  -0.65800 -6.73300 44.36600
H  0.41000 -6.39600 47.07900
H  1.20300 -7.76000 46.25500
H  -0.52600 -7.66000 46.34100
H  5.32400 -5.31800 44.98800
H  5.04800 -4.59600 46.56700
H  6.63500 -4.30200 45.63800
H  6.68400 -0.35500 42.24800
H  9.86800 2.49600 43.69000
H  9.71800 1.09900 44.83600
H  8.74200 2.60400 44.91700
Mg 46.78400 44.80800 43.51400
C  43.36800 44.15900 42.96200
C  47.30800 41.41000 43.27400
C  50.07600 45.38700 43.41600
C  46.06600 48.22000 43.22400
N  45.42700 43.01800 43.18600
C  44.13200 43.00000 42.98900
C  43.64900 41.56600 42.67400
C  44.85800 40.72800 43.15400
C  45.94600 41.76200 43.30400
C  44.51000 40.01100 44.53600
C  43.09900 41.20100 41.23100
C  43.33300 42.16000 39.95700
H  43.15600 41.46600 38.61300
N  48.43000 43.54700 43.50100
C  48.45100 42.19500 43.34200
C  49.86200 41.80300 43.49700
C  50.73600 42.92200 43.45000
C  49.76400 44.03300 43.48100
C  50.35600 40.34700 43.57700
C  52.27500 42.96500 43.30900
O  52.88000 41.97500 42.97700
C  53.10100 44.22300 43.51800
N  47.89500 46.52200 43.10200
C  49.26800 46.51100 43.38400
C  49.78200 48.00000 43.52600
C  48.51600 48.83500 43.27400
C  47.38100 47.79500 43.23600
C  50.49800 48.32700 44.87500
C  48.63400 49.79100 42.08000
C  47.83000 51.07500 42.18700
N  45.10900 45.99900 43.07800
C  44.94100 47.35200 43.11100
C  43.44400 47.72100 42.99200
C  42.81600 46.49300 42.91200
C  43.83500 45.52300 43.02700
C  42.89300 49.09900 42.91800
C  41.56700 45.84300 42.71300
O  40.41700 46.26000 42.56700
C  41.84900 44.29900 42.90200
C  41.13100 43.80800 44.08200
O  40.25900 42.94900 44.16900
O  41.65300 44.43700 45.22600
C  41.15300 43.96900 46.48200
H  47.56000 40.34800 43.28000
H  51.09500 45.64800 43.70900
H  45.83600 49.28300 43.32500
H  42.80000 41.49100 43.35300
H  45.08300 39.94700 42.42700
H  45.19800 40.47700 45.24100
H  44.78000 38.97500 44.33500
H  43.47300 39.95700 44.87000
H  42.01200 41.13300 41.23700
H  43.48300 40.21100 40.98200
H  44.32300 42.61500 39.93800
H  42.51700 42.88300 39.97500
H  49.56800 39.84400 44.13700
H  51.16900 40.33900 44.30200
H  50.57200 39.96600 42.57900
H  53.07400 45.05900 42.81900
H  54.15300 43.93600 43.51300
H  52.90300 44.54400 44.54000
H  50.41000 48.01300 42.63500
H  48.35600 49.33600 44.22900
H  51.56800 48.42900 44.69500
H  50.43400 47.46000 45.53400
H  50.03200 49.16200 45.39900
H  48.38700 49.19600 41.20100
H  49.69400 50.02700 41.98800
H  46.97500 50.93900 41.52500
H  48.50400 51.87700 41.88500
H  47.46600 51.25300 43.19900
H  43.59500 49.82000 42.49900
H  42.74200 49.46900 43.93200
H  41.96200 49.05900 42.35300
H  41.42100 43.82900 42.01600
H  40.20600 44.49900 46.58000
H  41.84000 44.40100 47.20900
H  41.05000 42.89800 46.65500

