158

Mg 40.51400 9.63400 28.82200
C  42.23500 10.82900 31.59800
C  38.23900 8.10200 30.95400
C  39.05300 8.13800 26.25100
C  43.36300 10.26400 26.86900
N  40.22300 9.45900 30.95700
C  40.98800 10.17900 31.89000
C  40.43100 9.96700 33.29700
C  39.28300 8.88700 33.10500
C  39.24500 8.77200 31.56000
C  39.52900 7.50400 33.83500
C  39.99900 11.17100 34.12800
C  39.93800 11.01300 35.63000
H  40.63400 12.16500 36.44200
N  38.74600 8.48000 28.60300
C  37.89100 8.03200 29.55800
C  36.83000 7.22500 29.00500
C  36.94400 7.40100 27.61800
C  38.31400 8.04600 27.42100
C  35.85900 6.43400 29.87000
C  36.02400 6.85600 26.49400
O  36.21300 7.01000 25.29200
C  34.69800 6.17000 26.78600
N  41.03500 9.34000 26.76500
C  40.27100 8.68600 25.90800
C  40.85800 8.70700 24.51300
C  42.28600 9.39900 24.77100
C  42.27600 9.63300 26.24500
C  41.17900 7.26400 23.91100
C  42.39900 10.66100 23.81200
C  41.68200 11.99200 24.18100
N  42.39200 10.38900 29.13200
C  43.41400 10.68100 28.23400
C  44.38600 11.43700 28.89300
C  43.88700 11.63500 30.22500
C  42.75400 10.87100 30.31100
C  45.67700 11.90100 28.29000
C  44.18400 12.27700 31.50900
O  45.13900 12.90400 31.90000
C  43.08600 11.71900 32.47400
C  43.79000 10.97600 33.60700
O  44.66500 10.17000 33.58700
O  43.24300 11.47300 34.71900
C  43.81700 10.87500 36.00600
H  37.53000 7.56100 31.58300
H  38.70500 7.55100 25.39800
H  44.19100 10.61300 26.24800
H  41.17000 9.46300 33.91900
H  38.37800 9.33500 33.51400
H  40.57600 7.40100 34.11800
H  39.25600 6.77400 33.07300
H  38.90000 7.40300 34.72000
H  39.01100 11.44900 33.76000
H  40.60900 12.04400 33.89500
H  40.45900 10.09100 35.88500
H  38.87700 10.99700 35.88000
H  36.35800 5.91300 30.68700
H  35.47200 5.73000 29.13300
H  35.17300 7.15900 30.30800
H  34.09900 6.40400 25.90600
H  34.16000 6.59300 27.63400
H  34.94700 5.13600 27.02600
H  40.19800 9.25200 23.83900
H  43.19300 8.80900 24.63500
H  40.39900 7.11200 23.16500
H  41.02300 6.56700 24.73500
H  42.22900 7.19600 23.62600
H  41.99100 10.27400 22.87800
H  43.46300 10.89500 23.78000
H  41.08900 11.72500 25.05600
H  41.11900 12.45200 23.36900
H  42.37200 12.76600 24.51700
H  46.25600 12.63000 28.85700
H  45.49800 12.39700 27.33600
H  46.35500 11.07200 28.08800
H  42.42000 12.53000 32.76900
H  44.89300 10.70600 36.05400
H  43.35900 9.89200 36.11200
H  43.43000 11.52000 36.79600
Mg -11.37700 16.00100 41.29700
C  -8.17500 14.59800 41.08600
C  -10.14300 18.81600 39.73000
C  -14.52400 17.24200 41.04000
C  -12.47800 12.93000 42.34500
N  -9.42200 16.60900 40.51800
C  -8.28600 15.91100 40.52200
C  -7.11300 16.65100 39.74500
C  -7.77500 18.10700 39.51000
C  -9.22600 17.76400 39.84000
C  -7.15900 19.05800 40.52400
C  -6.74000 15.97300 38.44400
C  -5.26400 15.85700 38.00500
H  -4.87300 16.72700 36.87900
N  -12.23400 17.71500 40.38000
C  -11.52300 18.79800 39.88100
C  -12.41100 19.88700 39.52900
C  -13.73900 19.54400 39.94200
C  -13.57900 18.10500 40.46700
C  -12.00600 21.23200 39.06900
C  -15.04400 20.39100 39.90600
O  -14.95600 21.54400 39.56500
C  -16.35200 19.92400 40.40800
N  -13.29600 15.12000 41.50600
C  -14.39900 15.94100 41.57400
C  -15.64100 15.16100 42.08700
C  -14.97000 13.83300 42.65100
C  -13.52300 13.92900 42.07000
C  -16.48500 16.06900 43.11000
C  -15.69900 12.54700 42.35100
C  -16.56300 11.89200 43.46200
N  -10.52800 14.11400 41.65900
C  -11.12600 12.95900 42.12100
C  -10.12800 11.94100 42.31300
C  -8.99900 12.53000 41.87900
C  -9.26500 13.85100 41.51000
C  -10.32100 10.61600 42.83600
C  -7.56400 12.32600 41.73600
O  -6.94400 11.33100 41.88400
C  -6.91100 13.72700 41.24300
C  -5.95200 14.34600 42.18600
O  -6.21100 15.03700 43.16500
O  -4.72500 13.79600 41.90900
C  -3.63400 14.28600 42.67500
H  -9.79600 19.67300 39.14900
H  -15.55600 17.57900 41.16000
H  -12.78500 12.01600 42.85800
H  -6.18600 16.68300 40.31600
H  -7.71300 18.43100 38.47100
H  -7.98300 19.44700 41.12200
H  -6.63600 19.89400 40.05900
H  -6.54900 18.52500 41.25300
H  -7.24800 16.44200 37.60100
H  -7.07900 14.93800 38.48200
H  -4.93900 14.82400 37.88200
H  -4.63500 16.35100 38.74500
H  -11.85100 21.94500 39.87900
H  -12.70800 21.78200 38.44200
H  -11.08300 21.12700 38.50000
H  -17.11300 20.67600 40.19900
H  -16.20700 19.70400 41.46600
H  -16.65600 18.98100 39.95400
H  -16.33500 14.88800 41.29100
H  -14.81700 13.96300 43.72200
H  -17.50000 16.24000 42.75300
H  -16.10900 17.09200 43.12900
H  -16.44000 15.51200 44.04700
H  -14.93500 11.85700 41.99400
H  -16.28300 12.80500 41.46700
H  -16.22900 10.87000 43.64000
H  -17.56900 11.78000 43.05800
H  -16.47200 12.33400 44.45400
H  -11.35400 10.29300 42.70300
H  -10.23900 10.70400 43.91900
H  -9.58600 9.89200 42.48400
H  -6.39200 13.58700 40.29500
H  -3.22700 15.14200 42.13700
H  -2.93800 13.47500 42.89100
H  -3.92200 14.58700 43.68300

