158

Mg 17.44300 52.22400 25.80800
C  19.08400 50.70000 28.54500
C  15.09700 53.24500 27.91400
C  15.98600 53.47600 23.10300
C  20.00500 50.75200 23.76900
N  17.18900 52.08800 28.00000
C  18.08000 51.59600 28.87100
C  17.62600 51.84800 30.29300
C  16.19300 52.48800 30.13000
C  16.11400 52.61500 28.56700
C  14.98600 51.73400 30.71500
C  18.61300 52.61600 31.20300
C  18.65300 52.32100 32.69400
H  17.50800 51.66600 33.47700
N  15.78200 53.31600 25.56900
C  14.91100 53.62000 26.58600
C  13.76500 54.33700 25.99600
C  14.03900 54.41300 24.59900
C  15.32300 53.71700 24.34500
C  12.59600 54.91200 26.86000
C  13.18100 55.08400 23.53800
O  13.56400 55.23800 22.36500
C  11.86400 55.56000 23.85600
N  17.93700 52.10900 23.68000
C  17.11300 52.72700 22.78100
C  17.66900 52.57900 21.31300
C  19.05500 51.91300 21.70300
C  19.03200 51.62800 23.18300
C  16.69400 51.72400 20.46300
C  20.32600 52.67400 21.33800
C  21.29600 51.96100 20.48300
N  19.05100 50.75700 26.04100
C  20.02900 50.31300 25.11900
C  21.06200 49.52200 25.81100
C  20.66700 49.61100 27.14800
C  19.48100 50.35100 27.28200
C  22.33000 48.85300 25.12500
C  21.16600 49.20500 28.49000
O  22.02400 48.49500 28.88200
C  20.17300 49.93200 29.40600
C  19.52300 48.88000 30.27700
O  19.06600 47.82600 29.87900
O  19.45100 49.26100 31.61200
C  18.89000 48.27300 32.53800
H  14.39100 53.62900 28.65300
H  15.54800 54.04100 22.27700
H  20.85300 50.34400 23.21400
H  17.38000 50.85500 30.66900
H  16.15400 53.45600 30.63000
H  15.14000 50.78200 31.22300
H  14.41800 51.49500 29.81600
H  14.48500 52.42200 31.39600
H  18.36000 53.67100 31.09200
H  19.57500 52.34100 30.77000
H  18.91600 53.23700 33.22400
H  19.52900 51.71300 32.92000
H  12.63000 55.99100 26.71200
H  12.94800 54.90400 27.89200
H  11.61400 54.45500 26.73600
H  11.86600 56.47800 24.44300
H  11.46400 54.64600 24.29500
H  11.33300 55.64100 22.90700
H  17.82500 53.58100 20.91400
H  19.01500 50.90900 21.28000
H  15.86700 51.49600 21.13500
H  17.11500 50.75400 20.20200
H  16.35700 52.31900 19.61400
H  20.81600 52.94100 22.27500
H  19.98400 53.64500 20.98200
H  21.35400 52.35600 19.46800
H  21.14900 50.88300 20.42100
H  22.27300 52.09300 20.94800
H  22.48200 49.37500 24.18100
H  21.91500 47.84600 25.06600
H  23.12900 48.74500 25.85800
H  20.72100 50.57400 30.09600
H  17.80100 48.22200 32.51300
H  19.23600 48.47600 33.55100
H  19.21300 47.26800 32.26700
Mg -12.28700 15.50200 42.14200
C  -9.04700 14.35900 41.49600
C  -11.50600 18.51800 40.44600
C  -15.61600 16.28500 41.93700
C  -13.19300 12.26800 43.11000
N  -10.60900 16.22700 40.96700
C  -9.33100 15.63100 40.97500
C  -8.26500 16.49600 40.27200
C  -9.00100 17.90500 40.32400
C  -10.49300 17.53600 40.58200
C  -8.37100 19.00300 41.29200
C  -7.77700 16.01400 38.86800
C  -6.24400 15.92500 38.73200
H  -5.58100 16.58700 37.55300
N  -13.42500 17.23600 41.36300
C  -12.92800 18.36200 40.71900
C  -13.97600 19.29900 40.44400
C  -15.23500 18.69600 40.92300
C  -14.78600 17.39100 41.48900
C  -13.72900 20.64600 39.82700
C  -16.58000 19.33600 40.86900
O  -16.75300 20.34900 40.15800
C  -17.71100 18.89500 41.66400
N  -14.11900 14.48500 42.63000
C  -15.31600 15.03100 42.39800
C  -16.46500 14.06000 42.68000
C  -15.71500 12.70100 43.14000
C  -14.22100 13.13400 42.94500
C  -17.61200 14.48500 43.67900
C  -16.12500 11.42900 42.42100
C  -16.72800 10.31900 43.26400
N  -11.42300 13.69100 42.27800
C  -11.85700 12.51100 42.86200
C  -10.75100 11.56800 43.01600
C  -9.63900 12.28300 42.42400
C  -10.07000 13.52600 42.01100
C  -10.76600 10.10400 43.55300
C  -8.20000 12.20900 42.12200
O  -7.42700 11.38600 42.50800
C  -7.77100 13.58900 41.47400
C  -6.62400 14.15300 42.22500
O  -6.70700 14.54800 43.36700
O  -5.43700 14.13800 41.51900
C  -4.25500 14.41200 42.36000
H  -11.13300 19.48300 40.09600
H  -16.66300 16.56900 41.81100
H  -13.34700 11.30400 43.60000
H  -7.42500 16.55500 40.96400
H  -8.85500 18.40200 39.36500
H  -8.30300 19.94700 40.75200
H  -7.35300 18.70700 41.54300
H  -8.97000 19.08400 42.19900
H  -8.23100 16.76800 38.22400
H  -8.22300 15.04100 38.65800
H  -6.13200 14.84000 38.72600
H  -5.82300 16.37300 39.63200
H  -12.72100 21.06100 39.85300
H  -14.34700 21.37300 40.35400
H  -14.07800 20.66100 38.79400
H  -18.30400 18.31500 40.95700
H  -18.30000 19.77700 41.91500
H  -17.45200 18.29900 42.54000
H  -17.03300 14.00000 41.75100
H  -15.74900 12.59700 44.22400
H  -17.62900 13.82100 44.54200
H  -18.51900 14.32600 43.09500
H  -17.55600 15.53300 43.97600
H  -15.23200 11.09700 41.89200
H  -16.80200 11.71800 41.61700
H  -16.29500 9.39500 42.88200
H  -17.81400 10.22800 43.24900
H  -16.41400 10.37400 44.30700
H  -9.80300 9.59400 43.58600
H  -11.36200 9.45900 42.90700
H  -11.21500 9.95500 44.53500
H  -7.42300 13.53200 40.44300
H  -4.14500 15.43200 42.72800
H  -3.43900 14.12600 41.69600
H  -4.21200 13.70700 43.19000

