158

Mg 46.48900 24.84300 28.57900
C  46.97300 26.88700 31.41100
C  45.12500 22.53400 30.69100
C  46.67000 22.70900 26.05200
C  47.78000 27.36500 26.54800
N  46.29500 24.73500 30.84300
C  46.43000 25.67500 31.72100
C  45.96400 25.30500 33.19800
C  45.41800 23.82500 32.87900
C  45.61300 23.73900 31.35500
C  46.12100 22.67000 33.63900
C  44.90200 26.31100 33.78300
C  45.05600 26.94600 35.16700
H  44.05100 26.71900 36.26500
N  45.90200 22.85300 28.39500
C  45.31600 22.11000 29.36000
C  44.92500 20.87300 28.65900
C  45.61900 20.76700 27.41000
C  46.07900 22.18000 27.23000
C  44.16800 19.78400 29.37300
C  45.62900 19.53300 26.41300
O  46.04600 19.61900 25.27200
C  45.08200 18.21000 26.84300
N  47.18300 25.08000 26.57800
C  47.12500 23.97500 25.69000
C  47.82600 24.37400 24.32900
C  47.87800 25.94400 24.43800
C  47.53800 26.15300 25.91600
C  49.18400 23.71400 24.03600
C  46.99300 26.72800 23.38300
C  45.45200 26.71300 23.41600
N  47.20100 26.74300 28.85400
C  47.70700 27.68000 27.93000
C  48.06500 28.88600 28.52700
C  47.83000 28.60900 29.94600
C  47.31200 27.30200 30.09700
C  48.67300 30.03100 27.85900
C  47.91700 29.23000 31.21800
O  48.24500 30.38800 31.53300
C  47.52500 28.02300 32.28500
C  48.75300 27.70100 32.99900
O  49.73200 27.09000 32.49500
O  48.62000 27.78400 34.39200
C  49.70900 27.17600 35.19300
H  44.70900 21.75600 31.33400
H  46.74400 21.86400 25.36300
H  48.31500 28.07100 25.90900
H  46.91700 25.32900 33.72500
H  44.36700 23.65800 33.11700
H  45.49200 22.25400 34.42600
H  47.00700 23.12700 34.08200
H  46.41600 21.91700 32.90800
H  43.89000 25.90500 33.77000
H  44.86300 27.17200 33.11600
H  45.34800 27.98900 35.03800
H  45.92400 26.42700 35.57200
H  43.45700 19.35300 28.66900
H  43.50500 20.14000 30.16100
H  44.78000 18.97600 29.77500
H  45.36600 17.79000 27.80800
H  45.53000 17.45400 26.19800
H  43.99500 18.20100 26.77000
H  47.10400 24.12100 23.55200
H  48.91200 26.29000 24.41600
H  49.86800 24.25300 23.37900
H  49.05800 22.71100 23.62900
H  49.75300 23.62800 24.96100
H  47.42900 26.45000 22.42400
H  47.29500 27.77400 23.32900
H  45.12600 25.99100 24.16400
H  45.23200 26.44000 22.38400
H  45.03800 27.68900 23.66500
H  49.50500 29.72600 27.22400
H  49.05700 30.70500 28.62500
H  47.95200 30.65800 27.33400
H  46.73100 28.37100 32.94500
H  49.68900 27.60400 36.19500
H  50.68500 27.31800 34.72700
H  49.35700 26.14500 35.16700
Mg 36.16600 49.48200 25.98500
C  35.67600 47.61300 28.97700
C  35.84200 52.34500 27.65200
C  35.90900 51.00600 23.06700
C  36.54700 46.47200 24.26100
N  35.76500 49.93300 28.06300
C  35.64300 49.04000 29.14300
C  35.38800 49.82700 30.44100
C  35.70300 51.37800 30.01600
C  35.89200 51.17400 28.48800
C  34.53900 52.35600 30.47500
C  36.33100 49.37600 31.64000
C  35.70200 48.82000 32.86900
H  34.23700 49.17700 33.17900
N  35.85500 51.42200 25.42000
C  35.79400 52.45200 26.28900
C  35.64400 53.66800 25.55400
C  35.60100 53.34900 24.15000
C  35.83500 51.86200 24.16400
C  35.47500 55.01500 26.13700
C  35.41300 54.17600 22.90600
O  35.53800 53.78100 21.77900
C  35.33100 55.71300 23.05400
N  36.00800 48.78500 23.94700
C  35.89000 49.65500 22.94700
C  36.09000 48.97000 21.57300
C  36.50900 47.51200 21.96300
C  36.26700 47.58700 23.46500
C  34.92500 49.01800 20.50900
C  38.00400 47.15800 21.61200
C  38.12300 45.97700 20.60000
N  36.16400 47.38500 26.48200
C  36.39600 46.30900 25.65500
C  36.42600 45.10800 26.45800
C  36.13500 45.56500 27.83000
C  36.01000 46.97900 27.75000
C  36.67100 43.68300 26.08300
C  36.06200 45.12000 29.21100
O  36.27400 44.01600 29.75600
C  35.62500 46.53000 30.01600
C  34.33400 46.28700 30.66700
O  33.29300 46.69200 30.17000
O  34.49700 45.48600 31.78100
C  33.32600 45.18000 32.50000
H  35.92600 53.26500 28.23400
H  35.94400 51.52600 22.10700
H  36.75300 45.63400 23.59100
H  34.34200 49.77500 30.74500
H  36.61600 51.83500 30.39700
H  34.98900 53.16900 31.04600
H  33.93400 51.81200 31.20100
H  33.88500 52.70600 29.67700
H  36.94800 50.19900 31.99900
H  36.86700 48.52700 31.21500
H  36.23800 49.22300 33.72900
H  35.76400 47.73200 32.90100
H  36.29700 55.68100 25.87600
H  35.37700 55.02500 27.22200
H  34.59200 55.45500 25.67400
H  36.26500 56.04600 23.50500
H  34.43600 56.10500 23.53600
H  35.33900 56.05000 22.01700
H  36.94600 49.50600 21.16300
H  35.79700 46.83500 21.49000
H  34.96200 49.86600 19.82400
H  33.92200 49.07000 20.93200
H  35.00900 48.11400 19.90500
H  38.58500 46.90700 22.50000
H  38.42800 48.06600 21.18200
H  38.80700 46.36000 19.84200
H  37.20200 45.81400 20.04000
H  38.39700 45.03500 21.07700
H  37.70300 43.53200 26.40000
H  36.52900 43.48700 25.02100
H  36.04400 43.06200 26.72400
H  36.35700 46.56300 30.82300
H  32.82900 46.12100 32.73500
H  33.54300 44.59300 33.39300
H  32.60800 44.57500 31.94700

