158

Mg 24.65100 -5.83300 45.29400
C  27.08200 -3.76700 44.00700
C  22.33900 -4.69000 43.33800
C  22.72500 -8.56500 46.15000
C  27.21400 -7.23400 47.29500
N  24.77200 -4.49900 43.67200
C  25.82600 -3.62600 43.40900
C  25.37000 -2.46400 42.56700
C  23.77700 -2.64100 42.50300
C  23.60000 -4.01400 43.24500
C  23.00000 -1.37600 43.07800
C  26.04900 -2.62300 41.17800
C  26.18900 -1.46300 40.28000
H  25.65300 -1.66300 38.82500
N  22.73200 -6.46800 44.94300
C  21.94000 -5.82400 44.06100
C  20.64900 -6.47400 43.96200
C  20.74600 -7.62800 44.73300
C  22.13800 -7.62200 45.32400
C  19.59000 -6.08800 43.04300
C  19.65700 -8.68000 44.99100
O  18.57600 -8.57600 44.43600
C  19.79100 -9.87400 45.90700
N  24.92700 -7.60800 46.47100
C  24.01500 -8.64200 46.66800
C  24.54900 -9.79000 47.53300
C  25.91400 -9.24400 48.06100
C  26.03600 -7.94400 47.24700
C  23.56100 -10.40600 48.59800
C  27.16900 -10.15800 48.03100
C  28.15700 -10.04400 49.22100
N  26.70800 -5.49400 45.69400
C  27.54300 -6.10400 46.54700
C  28.90400 -5.58900 46.44900
C  28.70500 -4.61600 45.48600
C  27.36900 -4.62100 45.00800
C  30.19400 -5.77000 47.25400
C  29.33200 -3.48200 44.71500
O  30.49000 -3.02200 44.74700
C  28.28000 -2.92600 43.76000
C  28.22300 -1.45100 44.08400
O  28.18000 -0.96800 45.19500
O  28.35300 -0.73200 42.92300
C  28.35500 0.70600 43.11700
H  21.70500 -3.99600 42.78200
H  22.21200 -9.50700 46.35900
H  28.01600 -7.51100 47.98300
H  25.63300 -1.55800 43.11300
H  23.41000 -2.73700 41.48200
H  23.56600 -0.44600 43.03100
H  22.80500 -1.48500 44.14500
H  22.01300 -1.32700 42.61900
H  25.71600 -3.46900 40.57600
H  27.08600 -2.82700 41.44500
H  27.21800 -1.10400 40.30000
H  25.58100 -0.66600 40.70800
H  19.77500 -5.14400 42.53000
H  18.56100 -6.06500 43.40000
H  19.56500 -6.79400 42.21300
H  20.56200 -10.51000 45.47200
H  18.83100 -10.38000 46.00400
H  20.01500 -9.56100 46.92800
H  24.73500 -10.61900 46.85000
H  25.65600 -9.01600 49.09500
H  23.94900 -10.28800 49.61000
H  23.51500 -11.47200 48.37800
H  22.60100 -9.88800 48.58500
H  27.72500 -9.85700 47.14300
H  26.80900 -11.18400 47.94600
H  29.07000 -9.74400 48.70700
H  28.22800 -10.90200 49.89000
H  27.80700 -9.36700 50.00100
H  30.06600 -6.62700 47.91500
H  30.40600 -4.79600 47.69700
H  30.94300 -5.90000 46.47300
H  28.68800 -3.01400 42.75300
H  28.00500 1.06800 44.08400
H  27.70800 1.09800 42.33200
H  29.38000 1.01400 42.91000
Mg -5.62800 25.27100 25.61500
C  -4.16200 26.25100 28.70100
C  -7.54800 22.83900 27.44800
C  -6.76400 23.95000 22.74300
C  -3.48500 27.26200 24.01800
N  -5.70600 24.50200 27.84000
C  -5.03700 25.13000 28.90700
C  -5.54700 24.64100 30.24000
C  -6.49500 23.43300 29.76200
C  -6.57900 23.54100 28.23500
C  -5.89500 22.10200 30.25100
C  -6.35800 25.71200 31.07100
C  -6.13700 25.82600 32.59300
H  -5.23300 24.76500 33.24000
N  -7.13400 23.70900 25.18600
C  -7.85300 22.90800 26.05700
C  -8.90600 22.25900 25.34300
C  -8.68200 22.57600 23.91900
C  -7.40600 23.39700 23.91500
C  -10.00200 21.57600 26.13000
C  -9.46100 22.18400 22.68700
O  -9.18800 22.50200 21.55400
C  -10.57900 21.28700 22.82100
N  -5.08500 25.46300 23.72800
C  -5.67100 24.80200 22.63700
C  -5.06300 25.21500 21.31700
C  -4.19100 26.49100 21.70400
C  -4.24300 26.41500 23.25100
C  -4.20900 23.90700 20.77900
C  -4.63300 27.84100 21.07500
C  -3.45900 28.54500 20.40400
N  -4.19000 26.53200 26.13000
C  -3.46900 27.43200 25.35600
C  -2.62100 28.22600 26.17300
C  -2.85700 27.79900 27.46700
C  -3.84500 26.73200 27.41400
C  -1.64700 29.26500 25.83600
C  -2.45700 28.10300 28.80400
O  -1.72600 28.90500 29.26800
C  -3.34300 27.01700 29.64000
C  -2.46900 26.29400 30.66900
O  -1.80500 25.27500 30.43500
O  -2.46800 27.00300 31.83500
C  -1.39500 26.46200 32.75100
H  -8.16500 22.12300 27.99500
H  -6.96100 23.52300 21.75700
H  -2.83400 27.91400 23.43300
H  -4.63800 24.30500 30.74000
H  -7.51300 23.52900 30.14000
H  -6.64100 21.44600 30.69900
H  -5.10100 22.22800 30.98600
H  -5.59300 21.62600 29.31800
H  -7.43700 25.56600 31.01800
H  -6.23600 26.73800 30.72500
H  -7.01800 25.84000 33.23400
H  -5.68300 26.81000 32.70600
H  -9.75400 20.51400 26.11300
H  -10.96000 21.66000 25.61700
H  -10.14100 21.99400 27.12700
H  -11.12000 21.20000 21.87900
H  -11.30600 21.64100 23.55300
H  -10.20500 20.29000 23.05300
H  -5.80800 25.52000 20.58200
H  -3.20200 26.24000 21.32200
H  -4.75000 23.36400 20.00400
H  -3.97400 23.22100 21.59400
H  -3.25300 24.28000 20.41200
H  -4.94500 28.48000 21.90100
H  -5.49400 27.86400 20.40800
H  -3.72000 29.17500 19.55400
H  -2.63500 27.84400 20.26800
H  -2.99700 29.18700 21.15300
H  -1.75300 29.63200 24.81500
H  -0.66100 28.80600 25.90500
H  -1.82000 30.18900 26.38600
H  -4.11400 27.52000 30.22400
H  -1.32000 27.01000 33.69000
H  -0.41100 26.62100 32.31000
H  -1.53100 25.38100 32.78700

