158

Mg 24.59600 -6.99900 46.98900
C  26.95600 -4.50900 45.86700
C  22.21700 -5.39500 45.13800
C  22.65900 -9.57100 47.62900
C  27.37200 -8.72000 48.22300
N  24.66800 -5.08900 45.67800
C  25.69200 -4.35800 45.26100
C  25.33500 -3.33300 44.13600
C  23.76500 -3.56200 44.03700
C  23.54800 -4.76700 44.99600
C  22.95000 -2.30900 44.40500
C  26.11800 -3.56400 42.79000
C  27.14600 -2.45100 42.19900
H  27.04400 -2.04300 40.62800
N  22.64900 -7.40300 46.58000
C  21.83200 -6.60800 45.80100
C  20.56700 -7.21600 45.71600
C  20.62400 -8.38900 46.50500
C  21.99000 -8.51700 46.97200
C  19.32900 -6.62800 44.97500
C  19.53100 -9.39400 46.65800
O  18.37700 -9.12500 46.26800
C  19.70400 -10.80400 47.30400
N  24.96200 -8.88600 47.78200
C  23.95600 -9.79000 48.01700
C  24.52200 -11.05900 48.70100
C  26.09000 -10.81200 48.63800
C  26.13500 -9.41100 48.13900
C  24.06400 -11.16700 50.14300
C  26.94700 -11.84500 47.84300
C  27.32300 -13.13900 48.61400
N  26.71000 -6.66000 47.16700
C  27.71300 -7.44700 47.74600
C  28.94200 -6.80800 47.80300
C  28.67700 -5.62700 47.06100
C  27.34100 -5.58100 46.65900
C  30.23400 -7.24300 48.36700
C  29.25400 -4.40600 46.55400
O  30.27800 -3.83700 46.83300
C  28.20400 -3.69100 45.65000
C  27.99200 -2.36400 46.33000
O  27.50700 -2.06100 47.37700
O  28.32000 -1.43200 45.39900
C  28.02900 -0.06200 45.68200
H  21.44400 -4.96700 44.49600
H  21.93800 -10.33100 47.93500
H  28.26500 -9.27800 48.51400
H  25.61100 -2.37200 44.57000
H  23.41100 -3.88700 43.05900
H  23.33800 -1.53300 43.74500
H  23.02700 -2.10000 45.47200
H  21.88300 -2.37900 44.19300
H  25.35200 -3.80200 42.05200
H  26.70000 -4.45900 43.01200
H  28.16400 -2.81000 42.35000
H  27.14600 -1.50100 42.73400
H  19.16800 -7.05800 43.98700
H  19.42500 -5.56000 44.77700
H  18.43600 -6.71900 45.59300
H  18.75900 -11.31900 47.13000
H  19.76500 -10.67400 48.38400
H  20.50300 -11.39000 46.84900
H  24.29800 -11.93400 48.09000
H  26.61300 -10.87900 49.59200
H  24.39100 -12.11400 50.57200
H  22.97600 -11.22800 50.16000
H  24.35500 -10.28100 50.70800
H  27.90400 -11.45700 47.49600
H  26.41200 -12.16600 46.94900
H  26.75600 -13.27200 49.53600
H  28.37800 -13.16800 48.88500
H  27.05900 -13.91900 47.90000
H  30.74700 -6.32000 48.63600
H  30.75700 -7.73000 47.54300
H  30.13800 -7.95700 49.18500
H  28.61800 -3.62800 44.64400
H  26.99800 0.23200 45.48600
H  28.66400 0.53700 45.02900
H  28.33000 0.17000 46.70300
Mg 17.02700 -2.20500 27.90100
C  15.60500 -0.16200 30.49100
C  18.81200 -3.81800 30.29600
C  18.74100 -3.73300 25.38700
C  15.35600 -0.21700 25.64600
N  17.41800 -1.84800 30.15700
C  16.57600 -1.08000 30.99000
C  17.13900 -1.25100 32.44600
C  18.20700 -2.32600 32.32800
C  18.21300 -2.66600 30.83500
C  19.60400 -2.16700 32.90900
C  15.94400 -1.46500 33.48800
C  16.16400 -0.87900 34.92300
H  16.98300 -1.75600 35.91800
N  18.50700 -3.62700 27.88600
C  19.09800 -4.13500 28.93300
C  19.99800 -5.26800 28.57700
C  19.79300 -5.38800 27.19200
C  19.09100 -4.16900 26.71800
C  20.86100 -6.12700 29.60200
C  20.20900 -6.53700 26.33100
O  20.13600 -6.48600 25.16200
C  20.76800 -7.78800 26.83700
N  17.02900 -2.07600 25.83800
C  17.87000 -2.76000 25.02300
C  17.66400 -2.31600 23.60700
C  16.60300 -1.13100 23.64200
C  16.28600 -1.14700 25.14900
C  19.00600 -1.91800 22.99400
C  15.27600 -1.24500 22.72600
C  15.39700 -0.72600 21.31900
N  15.64900 -0.57400 27.99800
C  15.02600 0.05900 27.00100
C  14.23500 1.22000 27.56500
C  14.53800 1.18700 28.94500
C  15.34800 0.08900 29.14100
C  13.57800 2.35000 26.85200
C  14.28500 1.85400 30.17400
O  13.54300 2.84500 30.37200
C  15.01100 1.05600 31.32200
C  16.04500 1.92000 31.92800
O  17.06300 2.22300 31.37600
O  15.79400 2.20900 33.22900
C  16.64800 3.23300 33.89500
H  19.45900 -4.20400 31.08700
H  19.20700 -4.35700 24.62200
H  14.91700 0.50100 24.95000
H  17.60400 -0.32000 32.77100
H  17.71000 -3.21200 32.72100
H  19.67800 -3.07900 33.50200
H  19.67200 -1.22200 33.44700
H  20.20800 -2.12800 32.00300
H  15.86700 -2.55100 33.55100
H  14.98700 -1.09800 33.11600
H  15.16800 -0.66700 35.31100
H  16.67800 0.07800 34.84000
H  21.13400 -5.46200 30.42100
H  21.80900 -6.50400 29.21700
H  20.33100 -6.99700 29.99100
H  21.79400 -7.65600 27.18100
H  20.75700 -8.48000 25.99500
H  20.18200 -8.29300 27.60500
H  17.25500 -3.21400 23.14300
H  16.99900 -0.14800 23.38700
H  19.55200 -2.79700 22.65400
H  19.78000 -1.71500 23.73400
H  18.90200 -1.09700 22.28400
H  14.39600 -0.77300 23.16400
H  15.13800 -2.32000 22.60800
H  16.31800 -0.77000 20.73800
H  15.00200 0.28700 21.25400
H  14.83200 -1.43200 20.71100
H  12.68500 1.92600 26.39500
H  14.23900 2.73300 26.07400
H  13.33500 3.20100 27.48900
H  14.27900 0.68200 32.03800
H  16.14900 3.91200 34.58600
H  17.17400 3.85100 33.16700
H  17.52600 2.72500 34.29300

