158

Mg 34.89400 3.30800 29.15800
C  32.79200 4.19400 31.82500
C  37.46300 3.05400 31.41800
C  36.83500 2.76900 26.54100
C  32.12500 3.77100 26.96800
N  35.01900 3.53200 31.36700
C  34.04700 3.82200 32.28800
C  34.56700 3.90900 33.72400
C  36.09000 3.74500 33.49200
C  36.21300 3.44400 31.98900
C  36.98500 4.96800 33.86600
C  33.98700 2.83800 34.69900
C  34.75000 2.62600 36.03800
H  35.54300 3.70200 36.71800
N  36.88800 2.97100 29.03800
C  37.76400 2.89400 30.03700
C  39.03500 2.46200 29.49000
C  38.85100 2.31600 28.08800
C  37.49400 2.79000 27.81300
C  40.25200 2.17600 30.34300
C  39.85900 1.81700 27.06700
O  39.65600 1.98900 25.88400
C  41.17800 1.22500 27.50800
N  34.46800 3.35500 27.01600
C  35.45600 3.02400 26.17700
C  34.97100 3.14800 24.72000
C  33.41400 3.12600 24.95500
C  33.29300 3.47600 26.39200
C  35.58700 4.52900 24.19000
C  32.74100 1.76400 24.59400
C  31.45500 1.73400 23.83400
N  32.84700 3.81800 29.29500
C  31.89400 3.93300 28.36900
C  30.66500 4.29500 28.94600
C  30.94100 4.42400 30.33700
C  32.29900 4.12200 30.48800
C  29.43200 4.52500 28.22500
C  30.41300 4.76900 31.61500
O  29.31300 5.18500 31.88300
C  31.53100 4.48300 32.68500
C  31.66900 5.53600 33.64500
O  32.27200 6.57300 33.48500
O  30.96600 5.19700 34.80300
C  30.84300 6.16300 35.91800
H  38.23700 2.95500 32.18100
H  37.49700 2.54600 25.70100
H  31.21300 3.89100 26.38000
H  34.30300 4.92900 34.00200
H  36.38400 2.86100 34.05700
H  36.47000 5.64000 34.55200
H  37.22400 5.56700 32.98800
H  37.92700 4.63800 34.30500
H  34.00500 1.91000 34.12600
H  32.97200 3.20600 34.84700
H  35.33600 1.72000 35.88600
H  34.01700 2.28200 36.76700
H  40.33100 1.08900 30.31500
H  40.12800 2.48700 31.38100
H  41.14600 2.73200 30.05900
H  41.84900 1.18500 26.65100
H  40.93200 0.25000 27.93000
H  41.70600 1.78500 28.28000
H  35.27600 2.33400 24.06200
H  32.98200 3.85600 24.26900
H  35.77300 5.22200 25.01000
H  34.97600 5.00600 23.42400
H  36.55900 4.31100 23.74800
H  32.59000 1.13300 25.46900
H  33.40300 1.29600 23.86500
H  30.81100 2.57900 24.07800
H  30.99000 0.78700 24.10700
H  31.56500 1.67100 22.75200
H  29.35300 5.45800 27.66600
H  28.65000 4.52400 28.98500
H  29.25500 3.67000 27.57200
H  31.26500 3.63600 33.31800
H  31.11200 7.16500 35.58400
H  31.55300 5.97600 36.72400
H  29.78600 6.23200 36.17200
Mg 47.75000 16.68200 28.98100
C  45.74800 16.50300 32.01100
C  49.95400 18.63100 30.86800
C  49.41700 17.20100 26.26000
C  45.23700 14.96700 27.28800
N  47.77500 17.60100 31.20800
C  46.93400 17.20500 32.24900
C  47.60300 17.51600 33.65700
C  48.91200 18.33400 33.26400
C  48.98200 18.08900 31.71700
C  48.85100 19.80400 33.70800
C  47.86500 16.18600 34.54900
C  47.36500 16.19900 35.96500
H  47.12300 17.53900 36.70900
N  49.41600 17.80100 28.55100
C  50.21300 18.46400 29.44900
C  51.41600 18.85600 28.78600
C  51.37400 18.41100 27.39100
C  49.98700 17.77700 27.34000
C  52.67400 19.44100 29.48500
C  52.36700 18.57500 26.25200
O  52.29900 18.17700 25.04500
C  53.63900 19.33400 26.58000
N  47.23700 16.34000 27.03100
C  48.17400 16.57500 26.03500
C  47.53300 16.18800 24.71300
C  46.43500 15.13400 25.08800
C  46.21000 15.51200 26.50400
C  47.07100 17.47800 24.01400
C  46.93400 13.61000 24.90000
C  45.95500 12.80700 23.90200
N  45.82700 15.94800 29.52000
C  44.96000 15.25700 28.71200
C  43.88500 14.75900 29.50400
C  44.05400 15.30600 30.79600
C  45.26600 15.97700 30.75300
C  42.69000 14.02300 28.95200
C  43.57100 15.44000 32.08500
O  42.52300 14.96900 32.47500
C  44.66400 16.21000 32.97500
C  43.89800 17.32500 33.54900
O  43.46700 18.27900 32.91800
O  43.64000 17.10700 34.89500
C  42.82000 18.03600 35.67800
H  50.69800 19.13600 31.48800
H  50.16800 17.12200 25.47100
H  44.51500 14.33800 26.76200
H  46.99100 18.19600 34.25000
H  49.79600 17.90100 33.73200
H  47.87300 20.03500 34.13100
H  48.94600 20.57600 32.94400
H  49.60300 19.98600 34.47600
H  48.90500 15.88400 34.41900
H  47.32500 15.35700 34.09300
H  48.04400 15.67000 36.63400
H  46.46300 15.60200 36.10100
H  53.00200 20.38100 29.04100
H  53.47800 18.71800 29.34600
H  52.52700 19.57800 30.55600
H  54.34300 19.24700 25.75200
H  54.23600 18.89700 27.38100
H  53.35300 20.36800 26.76800
H  48.30400 15.76900 24.06600
H  45.62300 15.22800 24.36600
H  45.99700 17.59000 24.16500
H  47.42900 17.61300 22.99400
H  47.43600 18.30000 24.63200
H  46.96500 13.09900 25.86200
H  47.92400 13.63900 24.44400
H  46.30200 12.99600 22.88600
H  44.94100 13.20100 23.97800
H  45.98200 11.73200 24.08300
H  42.82300 13.06800 28.44500
H  42.33500 14.69900 28.17400
H  41.86900 13.87600 29.65400
H  44.87400 15.61700 33.86500
H  42.71800 19.01800 35.21600
H  43.28200 18.13000 36.66000
H  41.77700 17.73300 35.77700

