158

Mg 26.35300 0.86700 29.17300
C  28.16700 0.73800 32.22000
C  23.42700 1.15700 31.09200
C  24.51300 0.86200 26.24700
C  29.22400 -0.05900 27.46200
N  25.83400 1.03900 31.48500
C  26.80600 0.94400 32.52000
C  26.01500 1.01000 33.85400
C  24.49000 1.07300 33.44500
C  24.57600 1.08300 31.88000
C  23.56600 -0.08600 33.96500
C  26.38000 2.23900 34.74100
C  25.68100 2.52700 36.05300
H  26.51700 2.76100 37.33800
N  24.30600 1.03900 28.70200
C  23.30400 1.23600 29.65400
C  22.04100 1.41300 28.91200
C  22.36400 1.24700 27.51600
C  23.79700 1.09200 27.42900
C  20.67300 1.48700 29.64400
C  21.40400 1.29500 26.31100
O  21.71800 1.09500 25.15500
C  20.07300 1.76700 26.54100
N  26.73500 0.22200 27.20000
C  25.88100 0.47300 26.19600
C  26.51800 0.17600 24.85700
C  28.00800 -0.14300 25.23300
C  28.03700 0.07100 26.72700
C  25.84800 -0.94100 24.13900
C  28.99700 0.73300 24.51600
C  29.49900 0.35000 23.09800
N  28.29200 0.51100 29.68000
C  29.37800 0.11500 28.89200
C  30.60000 -0.09900 29.67600
C  30.10200 0.14200 30.98300
C  28.75000 0.52600 30.94500
C  31.91700 -0.63500 29.12800
C  30.50400 0.25500 32.36400
O  31.60800 0.13200 32.83500
C  29.24800 0.55600 33.21100
C  28.97600 -0.54100 34.18000
O  28.19400 -1.48700 34.03900
O  29.47500 -0.13800 35.36700
C  29.22300 -1.03100 36.52100
H  22.51100 1.24500 31.67900
H  24.01000 0.87800 25.27800
H  30.12500 -0.32500 26.90400
H  26.24700 0.10200 34.41200
H  24.06600 2.04000 33.71700
H  22.98200 -0.63600 33.22700
H  22.84900 0.31500 34.68200
H  24.18500 -0.86700 34.40600
H  26.33800 3.11800 34.09800
H  27.42600 2.15800 35.03800
H  25.06300 1.63700 36.17100
H  25.06700 3.42000 35.93100
H  20.03200 0.65500 29.35600
H  20.03100 2.29400 29.28900
H  20.70700 1.51600 30.73400
H  19.60300 1.98200 25.58100
H  20.16500 2.64100 27.18500
H  19.56300 0.94500 27.04300
H  26.24200 1.04700 24.26300
H  28.16900 -1.21400 25.10900
H  25.32200 -1.53000 24.89100
H  26.53600 -1.61700 23.63100
H  25.13100 -0.60900 23.38800
H  29.92600 0.92400 25.05300
H  28.52400 1.70800 24.39400
H  30.57300 0.53400 23.05600
H  29.00600 0.99100 22.36700
H  29.49000 -0.72400 22.91100
H  31.76100 -1.40300 28.37100
H  32.37500 -1.08300 30.01000
H  32.46600 0.22500 28.74400
H  29.26700 1.49300 33.76900
H  29.42500 -2.05100 36.19700
H  28.30800 -0.85500 37.08700
H  29.92600 -0.88100 37.34100
Mg 36.59400 49.25500 25.81600
C  36.50500 47.04500 28.66700
C  35.72900 51.83900 28.14800
C  36.18700 51.23100 23.26900
C  37.03400 46.38200 23.83800
N  36.08500 49.44500 28.13400
C  36.19000 48.41800 29.09500
C  35.98100 48.89100 30.52600
C  35.53500 50.41100 30.28300
C  35.83600 50.61700 28.78100
C  34.01300 50.72700 30.70700
C  37.22800 48.87700 31.46200
C  36.81300 48.58200 32.97600
H  35.35500 48.75300 33.59200
N  36.23200 51.31500 25.71700
C  35.84600 52.19200 26.73700
C  35.74000 53.49200 26.15300
C  36.03900 53.37000 24.73100
C  36.14200 51.95700 24.49600
C  35.48100 54.86600 26.98500
C  36.26900 54.46900 23.74300
O  36.41800 54.18500 22.55600
C  36.32200 55.98600 24.16700
N  36.52100 48.79100 23.85600
C  36.37300 49.84200 22.93700
C  36.66900 49.35000 21.47400
C  37.17700 47.82200 21.71400
C  36.86300 47.66600 23.20700
C  35.49400 49.54800 20.52300
C  38.63700 47.46100 21.40000
C  38.85900 46.05800 20.75800
N  36.68200 47.15600 26.13200
C  36.83500 46.11000 25.22800
C  37.08900 44.87300 25.91600
C  37.01700 45.23400 27.28700
C  36.70400 46.60600 27.34100
C  37.32900 43.56300 25.28900
C  36.96700 44.65300 28.62700
O  37.27400 43.58500 29.08200
C  36.52500 45.80500 29.58300
C  35.28200 45.48300 30.31100
O  34.18300 45.90000 30.03100
O  35.56500 44.83600 31.42800
C  34.42100 44.56700 32.35100
H  35.50900 52.66900 28.82200
H  36.27600 51.93500 22.43900
H  37.56900 45.53200 23.40900
H  35.26600 48.22100 31.00400
H  36.15600 51.11000 30.84100
H  34.01200 51.48700 31.48800
H  33.44800 49.87700 31.09000
H  33.45700 51.20500 29.90000
H  37.81000 49.79100 31.34000
H  37.73500 48.08800 30.90700
H  37.46900 49.19000 33.59900
H  37.00900 47.51400 33.07100
H  35.08600 54.62200 27.97100
H  34.83400 55.58700 26.48400
H  36.50500 55.22300 27.08900
H  36.96400 56.20200 25.02100
H  35.28000 56.26600 24.31600
H  36.73700 56.54200 23.32500
H  37.58800 49.82500 21.13000
H  36.46600 47.13900 21.24900
H  35.26500 48.57900 20.07900
H  35.74300 50.15300 19.65100
H  34.67200 49.77000 21.20300
H  39.26200 47.40000 22.29100
H  39.18100 48.07300 20.68100
H  39.44800 46.16400 19.84700
H  37.91700 45.61300 20.43900
H  39.29900 45.44100 21.54100
H  36.53900 43.35100 24.56900
H  37.21800 42.78000 26.04000
H  38.32100 43.47900 24.84400
H  37.31300 45.92300 30.32600
H  34.69900 44.58700 33.40500
H  34.11600 43.52500 32.25100
H  33.52300 45.16300 32.18900

