158

Mg 49.10400 47.35900 43.22200
C  45.72800 47.58200 42.00600
C  49.31600 44.35200 41.45600
C  52.38700 47.35900 43.85300
C  48.93200 50.76200 43.88700
N  47.74400 46.20600 41.67000
C  46.37200 46.46400 41.52400
C  45.63000 45.40100 40.76900
C  46.79000 44.30700 40.56400
C  48.04400 44.97300 41.28200
C  46.46200 42.84100 40.95600
C  44.94900 45.89100 39.47400
C  43.49000 45.61800 39.20400
H  43.06400 45.30800 37.76900
N  50.57200 45.96000 42.90000
C  50.47100 44.85100 42.07800
C  51.79500 44.28400 41.98500
C  52.65800 45.02100 42.86200
C  51.91500 46.18700 43.24100
C  52.05000 43.07900 41.06800
C  54.11200 44.71500 43.11600
O  54.60500 43.70600 42.63000
C  54.95500 45.64300 43.94300
N  50.46000 48.82200 43.80300
C  51.73600 48.54800 44.11100
C  52.43900 49.76600 44.77800
C  51.44300 50.92200 44.35000
C  50.19400 50.14000 43.94000
C  52.58600 49.56600 46.34800
C  51.94600 51.69600 43.05600
C  51.68400 53.23200 43.12500
N  47.63200 48.90300 43.24100
C  47.71900 50.23100 43.52400
C  46.49300 50.88100 43.32200
C  45.64900 49.84000 42.87200
C  46.36400 48.63300 42.70600
C  46.25300 52.37900 43.42000
C  44.27400 49.49600 42.48800
O  43.21100 50.11800 42.53700
C  44.29700 48.01500 41.94200
C  43.27800 47.18800 42.67200
O  43.39400 46.79000 43.80600
O  42.25000 46.81900 41.89500
C  41.28600 45.90500 42.50200
H  49.26300 43.31300 41.12400
H  53.37600 47.49800 44.29500
H  48.92200 51.80500 44.20900
H  44.89700 44.93900 41.43100
H  47.10200 44.27600 39.52000
H  45.41400 42.54500 40.91100
H  46.90300 42.69500 41.94200
H  47.03900 42.10300 40.39900
H  45.59600 45.62300 38.63900
H  45.21500 46.94300 39.37000
H  43.05200 46.60200 39.37100
H  43.09300 44.85000 39.86800
H  51.31400 42.89100 40.28600
H  52.11800 42.19200 41.69900
H  52.95200 43.31100 40.50100
H  55.13300 46.56200 43.38500
H  55.91000 45.14300 44.10800
H  54.39300 45.75800 44.87000
H  53.37900 49.75200 44.22600
H  51.30900 51.56000 45.22400
H  52.43800 48.52500 46.63600
H  51.81900 50.10600 46.90400
H  53.52800 49.97800 46.71100
H  51.48300 51.31100 42.14700
H  53.02200 51.73200 42.88800
H  50.97500 53.48400 42.33600
H  52.66200 53.71100 43.15300
H  51.21300 53.51900 44.06500
H  45.19900 52.65200 43.48200
H  46.62100 52.90900 42.54100
H  46.77900 52.81800 44.26800
H  43.89700 48.25300 40.95600
H  41.88700 45.06000 42.83900
H  40.63400 45.38700 41.80000
H  40.59300 46.42900 43.16000
Mg 29.65500 58.02700 40.63300
C  26.91200 56.34500 39.26300
C  31.71600 55.59200 39.21900
C  32.32600 60.16600 40.71800
C  27.51400 60.85200 41.54900
N  29.31200 56.22600 39.27700
C  28.13800 55.70400 38.82300
C  28.32300 54.34600 38.13300
C  29.83600 54.15700 38.25000
C  30.36200 55.37300 38.99900
C  30.38800 52.84900 38.87500
C  27.67700 54.01900 36.68400
C  27.50400 55.23000 35.65700
H  28.02300 55.15700 34.20400
N  31.74400 57.80000 40.32700
C  32.41600 56.68800 39.79000
C  33.77400 56.90100 39.87200
C  34.00500 58.28500 40.17100
C  32.64100 58.84400 40.38600
C  34.90500 55.91200 39.53700
C  35.39700 59.05000 40.09600
O  36.43700 58.44000 39.76200
C  35.52100 60.49300 40.23300
N  29.93000 60.17900 41.27500
C  31.14500 60.77800 41.14600
C  31.06600 62.29400 41.54400
C  29.52000 62.49400 41.77500
C  28.90100 61.05100 41.60400
C  32.05600 62.82600 42.67700
C  28.79600 63.63600 40.98300
C  28.18200 64.80600 41.72200
N  27.64300 58.47300 40.59500
C  26.93800 59.58000 41.10400
C  25.51300 59.32200 40.87900
C  25.46200 58.09000 40.21100
C  26.79100 57.63400 40.01200
C  24.35500 60.20400 41.22800
C  24.63300 57.07200 39.54400
O  23.41900 57.14200 39.36500
C  25.46300 55.94200 38.88100
C  25.10900 54.63400 39.46800
O  25.53500 54.20400 40.53700
O  24.15600 53.96100 38.73900
C  23.35500 52.82900 39.34100
H  32.29400 54.69600 38.98300
H  33.13900 60.87900 40.56400
H  26.86500 61.67300 41.86200
H  27.85400 53.56100 38.72600
H  30.16100 54.26300 37.21500
H  29.52100 52.21300 39.05500
H  30.94000 52.96900 39.80800
H  31.04300 52.44900 38.10200
H  26.67800 53.59500 36.78200
H  28.32400 53.24800 36.26600
H  27.91000 56.10200 36.16900
H  26.43100 55.42300 35.66400
H  35.49600 56.36500 38.74100
H  34.49400 55.01700 39.06900
H  35.45000 55.53100 40.40000
H  36.56700 60.76400 40.37100
H  34.95200 60.77600 41.11900
H  35.08400 61.00800 39.37700
H  31.34700 62.85300 40.65100
H  29.30300 62.75100 42.81200
H  32.53500 61.88800 42.95800
H  31.60200 63.11000 43.62700
H  32.82700 63.53600 42.37800
H  28.10200 63.20700 40.26000
H  29.56900 64.14200 40.40600
H  28.48200 65.83100 41.50400
H  28.45700 64.76100 42.77600
H  27.10300 64.86100 41.57400
H  24.26000 60.59100 42.24300
H  23.40300 59.68200 41.13200
H  24.38600 61.11900 40.63700
H  25.40600 56.02600 37.79500
H  23.73700 52.56600 40.32700
H  23.50900 51.93900 38.73000
H  22.30400 53.09100 39.46400

