158

Mg 48.98800 46.87700 43.01800
C  45.61500 47.21500 42.37400
C  49.16500 44.18200 41.04000
C  52.38300 46.96600 43.37900
C  48.83200 50.18300 44.42400
N  47.58200 46.02400 41.60800
C  46.22900 46.19400 41.65800
C  45.58000 45.34000 40.61500
C  46.65900 44.22400 40.31700
C  47.89300 44.77900 41.06400
C  46.22400 42.85800 40.83300
C  45.12800 46.20300 39.42200
C  43.56600 46.12700 39.15400
H  43.02100 45.45700 37.77000
N  50.50600 45.62300 42.42100
C  50.39500 44.53500 41.59600
C  51.68700 43.81100 41.45300
C  52.60600 44.54600 42.32200
C  51.85900 45.77400 42.75000
C  51.96800 42.54800 40.62900
C  54.03300 44.08300 42.77500
O  54.61900 43.14100 42.17300
C  54.74700 44.71500 44.06500
N  50.44400 48.36200 43.68600
C  51.74400 48.04800 43.93400
C  52.47200 49.29600 44.55400
C  51.30400 50.22700 44.88300
C  50.10800 49.58600 44.25000
C  53.36000 48.99400 45.72200
C  51.48900 51.65500 44.56900
C  50.99400 52.06800 43.18600
N  47.52500 48.40500 43.43200
C  47.60100 49.66100 43.97700
C  46.29900 50.29200 43.90200
C  45.37400 49.28900 43.42000
C  46.24700 48.22100 43.08300
C  46.03200 51.67000 44.31600
C  43.97400 48.92600 43.01200
O  42.88400 49.51900 43.10200
C  44.15800 47.45900 42.41000
C  43.39400 46.46600 43.15900
O  43.73800 45.90300 44.21300
O  42.12600 46.38100 42.60700
C  41.28100 45.31100 43.20400
H  49.11500 43.39300 40.28600
H  53.47300 47.02200 43.42000
H  48.76600 51.21200 44.78400
H  44.71900 44.80700 41.01800
H  46.75300 44.18100 39.23100
H  46.50800 42.06800 40.13700
H  45.18200 42.59300 41.01200
H  46.77300 42.74000 41.76700
H  45.63500 45.88700 38.51100
H  45.37300 47.25100 39.59900
H  43.39100 47.20100 39.09100
H  42.85200 45.75300 39.88800
H  52.88300 42.49200 40.03900
H  51.13200 42.46000 39.93400
H  51.86200 41.68600 41.28700
H  55.34900 45.58500 43.80400
H  55.37700 43.89700 44.41500
H  53.99800 45.02500 44.79400
H  53.04500 49.69100 43.71500
H  51.11300 50.08900 45.94700
H  53.28300 47.94000 45.98900
H  53.29200 49.73200 46.52000
H  54.36300 49.06100 45.30000
H  52.54100 51.93600 44.61500
H  50.90000 52.14900 45.34200
H  51.60800 52.90700 42.86000
H  49.97700 52.45700 43.14700
H  51.19000 51.25300 42.48800
H  45.03400 51.89500 43.93800
H  46.72200 52.38100 43.86200
H  46.07400 51.75300 45.40200
H  43.62600 47.54600 41.46200
H  41.87300 44.42000 43.41300
H  40.43300 45.00100 42.59200
H  40.77500 45.57200 44.13300
Mg -5.23400 24.52600 25.68200
C  -4.09200 25.77700 28.70700
C  -7.35700 22.51300 27.40800
C  -6.50200 23.42300 22.68700
C  -3.21900 26.78200 23.95800
N  -5.57800 24.15800 27.83400
C  -5.16900 24.88200 28.82900
C  -5.85200 24.66300 30.16400
C  -6.71200 23.43400 29.76100
C  -6.58100 23.31400 28.26300
C  -6.55800 22.13100 30.50100
C  -6.58800 25.92000 30.77700
C  -6.37700 26.09400 32.37100
H  -5.71600 25.06300 33.24700
N  -6.68300 23.06300 25.15000
C  -7.44800 22.42600 26.01900
C  -8.30400 21.59700 25.33800
C  -8.12500 21.81900 23.91300
C  -7.10700 22.87600 23.84700
C  -9.36400 20.73100 26.00100
C  -8.78700 21.18000 22.73500
O  -8.69900 21.59500 21.58800
C  -9.74200 19.97700 22.94300
N  -4.96200 25.12600 23.61300
C  -5.42200 24.38700 22.57000
C  -5.02100 25.06900 21.19500
C  -4.05800 26.18000 21.65000
C  -4.14200 26.06600 23.19400
C  -4.27400 24.04000 20.28200
C  -4.46700 27.49700 21.00000
C  -3.31700 28.41200 20.63100
N  -3.89400 25.98000 26.19200
C  -3.13500 26.77400 25.38900
C  -2.31900 27.63500 26.24200
C  -2.64300 27.24300 27.55100
C  -3.59800 26.18900 27.46300
C  -1.40300 28.65600 25.76200
C  -2.46900 27.58100 29.00100
O  -1.82600 28.47600 29.46600
C  -3.40100 26.53400 29.81800
C  -2.53600 25.74900 30.77100
O  -2.00500 24.66400 30.50800
O  -2.36700 26.39700 31.98900
C  -1.42600 25.84300 32.95900
H  -8.00200 21.84200 27.97900
H  -6.90800 23.12100 21.71900
H  -2.51400 27.45600 23.46700
H  -5.02900 24.36700 30.81500
H  -7.75500 23.71600 29.90700
H  -7.16700 21.29200 30.16400
H  -6.64500 22.30600 31.57300
H  -5.53200 21.77300 30.42300
H  -7.65400 25.74300 30.62900
H  -6.21200 26.74600 30.17300
H  -7.38000 26.32000 32.73400
H  -5.70700 26.92300 32.60200
H  -9.13900 19.68500 25.79000
H  -10.35000 20.89600 25.56600
H  -9.49600 20.78600 27.08200
H  -9.25500 19.32000 23.66300
H  -9.96100 19.63400 21.93200
H  -10.62400 20.43600 23.39000
H  -5.99000 25.30100 20.75300
H  -3.05600 25.99800 21.26100
H  -3.48300 24.53000 19.71400
H  -4.99600 23.63300 19.57300
H  -3.89500 23.24500 20.92400
H  -5.08600 28.05400 21.70300
H  -4.96200 27.32100 20.04500
H  -3.10300 28.26500 19.57200
H  -2.37400 28.05100 21.04300
H  -3.44600 29.44700 20.94700
H  -0.65400 28.37800 25.02000
H  -0.89500 29.11900 26.60800
H  -1.98200 29.39100 25.20300
H  -4.11700 27.18600 30.31900
H  -1.91600 24.99200 33.43200
H  -1.05000 26.48100 33.75800
H  -0.63600 25.35500 32.38800

