158

Mg 53.85500 23.77700 45.21700
C  51.16200 25.76700 43.94000
C  52.08100 21.02400 43.80600
C  56.66000 21.97700 45.74400
C  55.50500 26.73200 46.01300
N  51.81100 23.42400 44.12400
C  50.98700 24.43200 43.55900
C  49.91900 23.87700 42.51800
C  50.02000 22.35000 42.97700
C  51.35500 22.22000 43.67000
C  48.90300 21.85700 43.93300
C  50.42300 24.08000 41.01300
C  51.96300 24.34600 40.77100
H  52.91400 23.14000 40.79100
N  54.31400 21.71200 44.88100
C  53.43900 20.77500 44.32400
C  54.16700 19.50800 44.45400
C  55.45100 19.72000 45.07500
C  55.52300 21.17000 45.27000
C  53.56000 18.20000 43.91400
C  56.42700 18.70000 45.53600
O  56.22700 17.43800 45.43800
C  57.70100 19.01900 46.27400
N  55.83100 24.29800 45.70600
C  56.80200 23.36000 45.86700
C  58.13200 23.99600 46.02900
C  57.74900 25.51600 46.32400
C  56.24700 25.55500 46.01500
C  59.07900 23.37100 47.04200
C  58.63800 26.56200 45.67000
C  58.26800 27.05800 44.22400
N  53.38800 25.80800 45.15500
C  54.15700 26.90000 45.61800
C  53.36000 28.08200 45.60400
C  52.17900 27.73300 44.86500
C  52.25400 26.33600 44.64500
C  53.72400 29.43100 45.93000
C  50.92100 28.16400 44.35900
O  50.51100 29.29300 44.38900
C  50.26100 26.93900 43.70100
C  50.01300 27.32800 42.28000
O  50.86900 27.46100 41.44100
O  48.63100 27.39300 42.08300
C  48.13500 27.77200 40.75200
H  51.65400 20.12000 43.36700
H  57.65800 21.54600 45.84500
H  56.05200 27.65300 46.22600
H  48.97400 24.37700 42.72900
H  49.92700 21.70500 42.10300
H  48.23800 22.69300 44.14900
H  49.32500 21.46000 44.85700
H  48.25600 21.13800 43.43000
H  49.81000 24.87100 40.58000
H  50.15600 23.20000 40.42900
H  52.34000 25.24000 41.26800
H  52.08900 24.66900 39.73800
H  54.23300 17.89100 43.11400
H  52.54000 18.31400 43.54700
H  53.56400 17.43600 44.69200
H  58.08000 18.17800 46.85400
H  57.64500 19.83300 46.99700
H  58.55600 19.31500 45.66500
H  58.68800 24.01100 45.09200
H  57.82600 25.64800 47.40300
H  59.99500 23.11400 46.51100
H  58.75700 22.52100 47.64300
H  59.39500 24.20300 47.67200
H  59.67100 26.21300 45.67400
H  58.62200 27.48500 46.25100
H  59.10100 26.76500 43.58500
H  58.12100 28.13600 44.28900
H  57.31900 26.64600 43.88200
H  53.59200 30.03400 45.03100
H  54.75400 29.35400 46.27800
H  53.19200 29.90400 46.75500
H  49.31100 26.84600 44.22700
H  48.96600 27.82900 40.04900
H  47.55000 28.69100 40.80300
H  47.46200 26.98700 40.40600
Mg -11.99700 37.68100 42.24900
C  -9.91200 35.02400 41.28200
C  -9.96300 39.97200 40.63500
C  -14.46400 39.97400 42.62700
C  -14.32000 35.25700 43.25000
N  -10.21500 37.45500 41.00700
C  -9.44100 36.31500 40.82600
C  -8.14400 36.57800 40.06000
C  -8.16300 38.17700 39.92200
C  -9.50700 38.62600 40.63700
C  -6.93200 38.99800 40.30500
C  -8.06000 35.79700 38.66700
C  -6.84400 34.95500 38.37200
H  -5.84600 35.52100 37.32900
N  -12.20500 39.70400 41.72200
C  -11.22900 40.49800 41.10600
C  -11.63200 41.86000 41.15800
C  -12.96700 41.91200 41.62900
C  -13.27900 40.49900 41.95500
C  -10.80800 43.04300 40.58800
C  -13.78800 43.19400 41.80500
O  -13.27300 44.23600 41.37500
C  -15.14200 43.14600 42.36400
N  -14.04000 37.59000 42.96700
C  -14.82500 38.67700 43.06300
C  -16.20100 38.37000 43.63200
C  -16.22800 36.83700 43.61600
C  -14.79800 36.51000 43.23500
C  -16.48600 38.98800 45.00200
C  -17.33900 36.33000 42.65900
C  -18.78900 36.43400 43.20800
N  -12.13700 35.54000 42.33100
C  -13.11000 34.75900 42.81300
C  -12.65900 33.36100 42.87500
C  -11.42800 33.40800 42.23500
C  -11.16000 34.77600 41.91000
C  -13.33400 32.09000 43.45500
C  -10.29700 32.63900 41.85700
O  -10.04700 31.46100 41.96700
C  -9.22000 33.72000 41.36100
C  -8.01900 33.67600 42.27000
O  -6.88600 33.29800 41.97900
O  -8.35500 34.01000 43.60800
C  -7.33900 34.08300 44.67000
H  -9.21100 40.70100 40.32500
H  -15.26500 40.70500 42.75500
H  -15.08600 34.50800 43.46100
H  -7.28400 36.39700 40.70500
H  -8.24000 38.38600 38.85500
H  -7.14000 39.82200 40.98900
H  -6.49900 39.45600 39.41600
H  -6.18400 38.29000 40.66100
H  -8.15300 36.42300 37.78000
H  -8.91400 35.12000 38.64800
H  -7.10900 33.91500 38.17900
H  -6.26800 34.95000 39.29800
H  -9.96600 42.64800 40.02100
H  -10.36300 43.75800 41.28000
H  -11.37500 43.61600 39.85400
H  -15.53900 44.14200 42.55900
H  -15.10400 42.79000 43.39300
H  -15.85800 42.60700 41.74300
H  -16.92200 38.79500 42.93400
H  -16.34700 36.46900 44.63500
H  -15.61900 39.53300 45.37400
H  -16.72300 38.25900 45.77700
H  -17.31500 39.68900 44.90500
H  -17.13400 35.31300 42.32500
H  -17.37800 36.86100 41.70800
H  -19.30400 35.47400 43.23900
H  -19.33500 37.26400 42.75900
H  -18.64400 36.56700 44.28000
H  -13.43500 31.33400 42.67700
H  -14.35000 32.31000 43.78200
H  -12.67800 31.71900 44.24300
H  -8.94000 33.44100 40.34500
H  -6.92500 35.08700 44.58600
H  -6.64800 33.24100 44.61500
H  -7.85500 33.89900 45.61200

