158

Mg 0.29000 43.97400 25.45900
C  2.08500 43.60900 28.41600
C  -2.52700 42.90900 27.12100
C  -1.34100 43.81700 22.55000
C  3.12200 44.83700 23.88600
N  -0.16500 43.56000 27.57300
C  0.74300 43.42500 28.61000
C  0.07200 43.03700 29.94900
C  -1.43800 42.95400 29.52300
C  -1.42300 43.11700 27.99100
C  -2.05000 41.53800 29.74400
C  0.25100 44.10100 31.07800
C  0.54300 43.57500 32.51800
H  0.23900 42.16100 32.92200
N  -1.72300 43.62300 24.90200
C  -2.65100 43.09800 25.73100
C  -3.86400 42.81400 25.01000
C  -3.58900 43.27100 23.66100
C  -2.14500 43.63400 23.69600
C  -5.04600 42.17700 25.64400
C  -4.45200 43.19300 22.48700
O  -4.10900 43.75900 21.45600
C  -5.73900 42.47000 22.60200
N  0.86800 44.11900 23.49300
C  -0.02100 43.98700 22.47900
C  0.72900 44.22200 21.08400
C  2.13100 44.83200 21.54200
C  2.04600 44.65700 23.11200
C  0.79400 42.88800 20.19000
C  2.47900 46.28800 21.10200
C  1.26100 47.28600 20.85900
N  2.23800 44.05300 25.98200
C  3.29900 44.42800 25.21700
C  4.51700 44.45600 25.97700
C  4.06300 44.14600 27.27400
C  2.68300 43.94400 27.23300
C  5.92100 44.99600 25.59200
C  4.53000 43.96300 28.64000
O  5.64100 44.08200 29.23200
C  3.19100 43.63200 29.39200
C  3.37800 42.43400 30.20200
O  3.32000 41.31200 29.81900
O  3.60600 42.78800 31.50000
C  4.00700 41.73000 32.47200
H  -3.43400 42.94100 27.72900
H  -1.82900 43.58700 21.60100
H  3.99000 45.23800 23.35900
H  0.53000 42.10200 30.27200
H  -1.99700 43.73300 30.04200
H  -1.38300 40.90100 30.32500
H  -2.30900 41.00600 28.82800
H  -3.03700 41.46600 30.20100
H  -0.54200 44.83400 31.23000
H  1.02400 44.82400 30.81700
H  0.03600 44.15200 33.29200
H  1.58700 43.71500 32.79500
H  -5.34700 41.16200 25.38400
H  -5.79900 42.95500 25.52300
H  -4.96300 42.08300 26.72700
H  -6.22100 42.45800 21.62500
H  -6.39900 42.86800 23.37400
H  -5.68500 41.41100 22.85200
H  0.07300 44.88900 20.52500
H  2.91300 44.21500 21.10000
H  0.32700 42.96000 19.20700
H  0.23200 42.15200 20.76500
H  1.83100 42.58500 20.04900
H  3.03800 46.29400 20.16700
H  3.10700 46.87900 21.76900
H  0.74500 47.24600 19.90000
H  1.63300 48.29000 21.06300
H  0.50500 47.09600 21.62200
H  6.52700 45.47400 26.36100
H  5.68300 45.83400 24.93600
H  6.40200 44.18000 25.05400
H  3.16800 44.47800 30.07800
H  5.07100 41.57000 32.29600
H  3.48500 40.79800 32.25400
H  3.71600 42.06900 33.46600
Mg -11.27900 17.15900 42.90400
C  -7.67700 17.77600 43.14100
C  -11.51800 20.48700 42.42100
C  -14.40800 16.55800 42.33600
C  -10.45700 13.68500 43.05500
N  -9.65300 18.83300 42.52500
C  -8.41000 18.95500 42.89600
C  -7.79400 20.29500 42.68100
C  -9.09800 21.11700 42.86000
C  -10.19500 20.08500 42.64500
C  -9.26900 21.83000 44.29100
C  -7.12200 20.44800 41.22600
C  -5.85600 21.22500 41.15300
H  -4.71900 20.71400 40.23300
N  -12.81100 18.39200 42.37400
C  -12.69200 19.78400 42.25600
C  -14.02800 20.35000 42.04900
C  -14.93600 19.19300 41.94600
C  -14.08800 17.96300 42.29500
C  -14.26300 21.80000 41.78200
C  -16.35100 19.23300 41.54300
O  -16.88700 20.28300 41.28300
C  -17.23900 18.03300 41.37600
N  -12.22700 15.41800 42.60800
C  -13.58200 15.42000 42.53800
C  -14.13200 14.00500 42.58600
C  -12.86000 13.11400 42.68400
C  -11.75400 14.14900 42.74900
C  -15.28200 13.91200 43.69100
C  -12.74200 12.05200 41.48200
C  -12.79200 10.50000 41.89400
N  -9.43200 15.89900 43.06000
C  -9.31200 14.47200 43.12200
C  -7.92400 14.15000 43.37600
C  -7.28500 15.41300 43.33600
C  -8.24400 16.42000 43.16700
C  -7.27700 12.78300 43.50600
C  -6.00900 16.08800 43.34000
O  -4.85100 15.66400 43.34300
C  -6.20700 17.57500 43.32900
C  -5.80700 18.24200 44.57800
O  -5.94600 17.75600 45.70800
O  -5.01700 19.34800 44.35700
C  -4.42900 19.97100 45.54200
H  -11.72400 21.55500 42.33100
H  -15.42700 16.30400 42.03700
H  -10.40500 12.59400 43.03300
H  -7.08800 20.50900 43.48400
H  -9.02100 21.80900 42.02100
H  -8.32500 21.70700 44.82300
H  -10.00600 21.22800 44.82200
H  -9.67600 22.84000 44.24600
H  -7.83400 20.79500 40.47800
H  -6.85100 19.42600 40.96000
H  -5.47500 21.30300 42.17200
H  -6.16500 22.20600 40.79300
H  -14.03400 22.06200 40.74900
H  -13.46300 22.29500 42.33100
H  -15.28700 22.11700 41.97900
H  -18.24500 18.42100 41.21800
H  -17.23900 17.65700 42.39900
H  -16.93900 17.28100 40.64700
H  -14.47200 13.87700 41.55800
H  -12.80300 12.58200 43.63400
H  -14.90400 13.20400 44.42900
H  -16.21400 13.53400 43.27100
H  -15.40100 14.91600 44.09700
H  -11.82800 12.22400 40.91300
H  -13.46200 12.19100 40.67500
H  -12.63100 10.29800 42.95300
H  -12.02700 9.99600 41.30300
H  -13.78400 10.17900 41.57600
H  -6.56800 12.55500 42.71000
H  -8.05000 12.02000 43.59700
H  -6.63900 12.68200 44.38400
H  -5.63800 17.97500 42.49000
H  -5.18500 20.25100 46.27500
H  -3.92000 20.86400 45.17900
H  -3.75000 19.24400 45.98800

