158

Mg 49.84300 46.94500 43.63200
C  46.37000 47.07700 43.00300
C  49.84800 43.81300 42.08400
C  53.21600 47.17500 43.43000
C  49.72400 50.35300 44.32700
N  48.25800 45.58800 42.73200
C  46.95300 45.87800 42.51500
C  46.22900 44.63900 41.93700
C  47.25000 43.45700 42.21600
C  48.55400 44.28500 42.30300
C  46.98000 42.69700 43.55900
C  45.71900 44.88500 40.50700
C  44.16800 44.72900 40.37400
H  43.58600 45.24000 39.03900
N  51.37600 45.61700 42.99700
C  51.11700 44.43400 42.34000
C  52.36900 43.82600 41.84200
C  53.37200 44.77700 42.27900
C  52.66200 45.93700 42.92200
C  52.47200 42.45800 41.17700
C  54.93800 44.63900 42.03200
O  55.33400 43.60600 41.43400
C  55.91400 45.65900 42.53800
N  51.25300 48.45100 43.94800
C  52.57100 48.26300 43.99400
C  53.28300 49.41900 44.61800
C  52.32500 50.56000 44.75700
C  50.99500 49.75200 44.40000
C  54.01800 49.03900 45.90300
C  52.73700 51.81600 43.93000
C  52.30500 53.19700 44.64900
N  48.38300 48.47700 43.61300
C  48.47100 49.79600 43.96800
C  47.12900 50.36700 44.04000
C  46.30400 49.35700 43.63200
C  47.10500 48.23300 43.41800
C  46.72800 51.77400 44.31900
C  44.96900 48.98900 43.31600
O  43.89200 49.58800 43.33400
C  44.93200 47.48800 42.93100
C  44.17800 46.73900 43.96400
O  44.63500 46.03300 44.86500
O  42.88800 46.79100 43.55600
C  41.88700 45.94000 44.21000
H  49.82200 42.75100 41.83100
H  54.29800 47.31800 43.38300
H  49.71500 51.36600 44.73500
H  45.36700 44.38700 42.55500
H  47.30200 42.76000 41.38000
H  47.78200 42.68200 44.29800
H  46.93300 41.61800 43.41600
H  45.97200 42.96300 43.87700
H  46.23000 44.15500 39.87900
H  46.01800 45.85800 40.11500
H  43.70600 45.27200 41.19800
H  43.96100 43.66700 40.50400
H  53.34200 41.99500 41.64300
H  52.84000 42.47300 40.15100
H  51.63100 41.77500 41.29700
H  55.67100 46.57600 42.00000
H  56.93100 45.29700 42.39000
H  55.67600 45.87400 43.58000
H  54.06500 49.72300 43.92200
H  52.02000 50.80600 45.77400
H  53.80600 48.03000 46.25700
H  53.83400 49.68500 46.76200
H  55.07400 49.10000 45.64000
H  52.26800 51.78400 42.94600
H  53.81500 51.83700 43.77200
H  51.67400 53.68800 43.90900
H  53.12900 53.90300 44.75800
H  51.64100 53.15800 45.51300
H  47.30200 52.21600 45.13300
H  45.65400 51.75000 44.50200
H  46.89500 52.51000 43.53200
H  44.60900 47.28500 41.91000
H  41.34100 45.45900 43.39900
H  41.25800 46.59200 44.81700
H  42.23800 45.09500 44.80100
Mg 1.18800 42.08800 25.72700
C  1.97500 42.36900 28.96600
C  -1.75700 40.74100 26.68600
C  0.52000 41.17300 22.46900
C  4.38800 43.05500 24.78200
N  0.16900 41.81300 27.60500
C  0.71000 42.07900 28.81900
C  -0.33700 41.95900 29.96100
C  -1.49100 41.22100 29.16300
C  -0.98200 41.14500 27.72800
C  -1.91100 39.88100 29.82000
C  -0.79300 43.33000 30.46800
C  -0.82700 43.33500 31.98300
H  -1.68800 42.30400 32.71700
N  -0.55800 41.25800 24.65500
C  -1.57800 40.69500 25.27100
C  -2.45200 40.09900 24.22200
C  -1.91200 40.29700 22.98400
C  -0.59600 40.96900 23.33800
C  -3.79300 39.45700 24.49900
C  -2.42000 39.99600 21.60800
O  -1.81600 40.30100 20.62100
C  -3.70200 39.26900 21.48200
N  2.28900 42.06100 23.94600
C  1.75800 41.72600 22.72300
C  2.67100 42.19800 21.57600
C  3.76800 43.03000 22.28000
C  3.49800 42.73300 23.76300
C  3.30600 40.99200 20.73300
C  3.73100 44.51900 21.89000
C  4.87800 45.06400 21.11100
N  2.91900 42.47500 26.66800
C  4.11300 42.91300 26.20900
C  4.94100 43.32200 27.29700
C  4.20400 43.07600 28.48500
C  2.96900 42.57400 27.96300
C  6.39700 43.65900 27.19300
C  4.17600 42.99000 29.88300
O  5.09600 43.24300 30.66100
C  2.78400 42.51900 30.34200
C  2.84500 41.25500 31.07600
O  3.47600 40.19700 30.73800
O  2.03000 41.34100 32.11500
C  2.04000 40.35200 33.16300
H  -2.65700 40.28200 27.10100
H  0.33500 40.95400 21.41500
H  5.33700 43.45200 24.41500
H  0.04200 41.28500 30.72900
H  -2.41400 41.77600 28.99600
H  -1.34400 39.05800 29.38600
H  -2.98500 39.69400 29.79700
H  -1.63400 39.96600 30.87100
H  -1.83200 43.41200 30.14900
H  -0.25600 44.17300 30.03500
H  -1.20100 44.33800 32.19300
H  0.21700 43.22300 32.27500
H  -3.89500 39.41400 25.58400
H  -3.67400 38.44200 24.12200
H  -4.64400 40.06900 24.19700
H  -3.71600 38.41100 22.15400
H  -3.81400 39.02300 20.42600
H  -4.39200 40.08100 21.71100
H  2.16800 42.86100 20.87200
H  4.65900 42.50900 21.93000
H  3.09000 40.04400 21.22600
H  4.36800 40.95300 20.49000
H  3.01300 41.08100 19.68700
H  3.61100 45.03700 22.84100
H  2.89000 44.75500 21.23800
H  5.64400 44.29700 20.99600
H  5.32600 45.95500 21.55100
H  4.50000 45.33100 20.12400
H  7.12800 42.85500 27.28100
H  6.55900 44.32500 28.04100
H  6.52600 44.11000 26.20900
H  2.36400 43.29700 30.97900
H  2.64400 39.48300 32.90200
H  1.04300 39.93800 33.31400
H  2.40000 40.78900 34.09400

