158

Mg 8.60900 3.11500 28.07800
C  10.12600 1.76700 30.88200
C  7.16300 5.49200 30.13800
C  7.22100 4.49900 25.34000
C  10.00600 0.56900 26.23800
N  8.30000 3.28300 30.41100
C  9.18200 2.76500 31.27000
C  9.00100 3.47900 32.65600
C  7.90600 4.54600 32.39200
C  7.77400 4.46500 30.81300
C  6.59000 4.31700 33.11800
C  10.38300 4.19700 32.96200
C  10.90900 4.03200 34.33800
H  10.02100 3.66800 35.47500
N  7.26400 4.73600 27.83700
C  6.84200 5.65100 28.77200
C  6.13300 6.75600 28.14400
C  6.18400 6.57400 26.67300
C  6.84300 5.20000 26.57500
C  5.44300 7.81400 28.92800
C  5.72100 7.46200 25.60200
O  5.68400 7.06500 24.44700
C  5.19600 8.89100 25.92400
N  8.38800 2.48700 26.13800
C  7.83400 3.22600 25.16300
C  8.24900 2.77200 23.81000
C  9.07500 1.41200 24.07200
C  9.16800 1.50800 25.59700
C  7.10800 2.52800 22.82200
C  10.41400 1.19000 23.26700
C  10.34300 0.93600 21.74200
N  9.68200 1.43000 28.43200
C  10.38800 0.55800 27.52800
C  11.26200 -0.33900 28.21300
C  11.29100 0.16800 29.51800
C  10.31500 1.18100 29.56500
C  12.09800 -1.44400 27.59300
C  11.95500 0.09800 30.83700
O  12.89600 -0.56500 31.23200
C  11.15700 1.00800 31.77000
C  10.37700 0.15300 32.83000
O  9.22400 -0.27400 32.74400
O  11.17600 -0.02300 33.91300
C  10.61300 -0.85600 35.03900
H  6.98200 6.37300 30.75800
H  7.06400 5.00700 24.38600
H  10.40900 -0.28000 25.68400
H  8.67700 2.72500 33.37300
H  8.28900 5.54500 32.60000
H  5.81300 4.79800 32.52400
H  6.71600 4.92800 34.01200
H  6.33100 3.28400 33.35300
H  10.34600 5.28500 32.90100
H  11.11600 3.89600 32.21300
H  11.50400 4.93500 34.47300
H  11.75700 3.34800 34.33200
H  5.86200 8.80300 28.74300
H  5.35500 7.70100 30.00800
H  4.46500 7.95400 28.46700
H  4.21000 8.70200 26.34800
H  5.19700 9.41400 24.96800
H  5.77800 9.53800 26.58000
H  8.86700 3.50400 23.29000
H  8.51500 0.48900 23.91800
H  7.38800 1.68000 22.19800
H  6.80500 3.39300 22.23200
H  6.25200 2.10500 23.34800
H  10.84500 0.33300 23.78500
H  11.07100 2.03300 23.48300
H  11.12800 1.52000 21.26200
H  9.40100 1.35700 21.39000
H  10.30300 -0.10500 21.42100
H  13.02200 -1.51100 28.16800
H  12.18400 -1.21700 26.53000
H  11.58700 -2.40100 27.69900
H  11.75700 1.70600 32.35400
H  11.50500 -1.39700 35.35600
H  9.85000 -1.57300 34.73600
H  10.17800 -0.20500 35.79700
Mg -1.94000 34.15700 26.81600
C  -3.27500 32.55000 29.65200
C  -0.42200 36.46400 28.89100
C  -1.40600 36.21700 24.16000
C  -4.00400 32.15500 24.83900
N  -1.86300 34.44400 28.96400
C  -2.45600 33.64600 29.94700
C  -1.97200 33.98900 31.33100
C  -1.18200 35.35400 31.02500
C  -1.18900 35.47100 29.53500
C  -1.44800 36.66200 31.87000
C  -1.06600 32.88100 31.92900
C  -0.43400 33.33200 33.27500
H  -0.85200 32.40000 34.41600
N  -0.85800 35.99800 26.56000
C  -0.27300 36.72400 27.51300
C  0.43100 37.85700 26.85100
C  0.16300 37.77500 25.44300
C  -0.69600 36.58600 25.31100
C  1.04300 38.95200 27.64300
C  0.79800 38.56700 24.29000
O  0.65100 38.21400 23.13200
C  1.54300 39.84200 24.54200
N  -2.66800 34.22900 24.83300
C  -2.26500 35.09900 23.94900
C  -2.79200 34.77900 22.55700
C  -3.43500 33.39300 22.71800
C  -3.36500 33.20200 24.22900
C  -3.69400 35.96700 22.05600
C  -2.67700 32.22100 22.01600
C  -1.22700 31.82900 22.47100
N  -3.31200 32.60900 27.15400
C  -4.06900 31.91600 26.22700
C  -4.81100 30.84300 26.93000
C  -4.53000 31.07500 28.28800
C  -3.63900 32.14700 28.31900
C  -5.61600 29.75200 26.36900
C  -4.81100 30.59900 29.62800
O  -5.43900 29.58200 30.07900
C  -4.06800 31.63200 30.57600
C  -4.97400 32.36400 31.46300
O  -5.89400 33.13700 31.11500
O  -4.82200 31.80600 32.74700
C  -5.79500 32.31300 33.80200
H  0.13200 37.16700 29.51600
H  -1.17600 36.62200 23.17200
H  -4.63900 31.51200 24.22600
H  -2.77800 34.32000 31.98500
H  -0.11900 35.15600 31.16100
H  -2.05400 36.71400 32.77500
H  -1.64600 37.43200 31.12500
H  -0.44200 36.88800 32.22200
H  -0.30400 32.61400 31.19700
H  -1.56700 31.92500 32.07700
H  -0.65600 34.33700 33.63400
H  0.65000 33.26300 33.18900
H  0.44300 39.85100 27.50000
H  2.00200 39.17300 27.17400
H  1.06900 38.67900 28.69800
H  1.55500 40.36000 23.58400
H  2.50500 39.60100 24.99500
H  0.97800 40.38800 25.29800
H  -1.91700 34.64200 21.92200
H  -4.46200 33.51400 22.37400
H  -3.61600 36.79400 22.76000
H  -4.72900 35.68800 21.85900
H  -3.27300 36.28300 21.10100
H  -2.67300 32.44700 20.94900
H  -3.28000 31.31300 21.98400
H  -1.10300 30.77900 22.20300
H  -1.05200 32.03300 23.52700
H  -0.47600 32.36800 21.89400
H  -5.92200 29.07800 27.16900
H  -5.03900 29.21900 25.61400
H  -6.44200 30.33000 25.95400
H  -3.31100 31.11600 31.16600
H  -6.17000 31.40200 34.26800
H  -6.66200 32.86900 33.44500
H  -5.18600 32.88200 34.50500

