158

Mg 1.48500 -1.84400 43.42800
C  4.82400 -0.79700 43.18800
C  0.66700 0.83000 41.50200
C  -1.62500 -3.04600 43.24100
C  2.57500 -4.80800 44.93800
N  2.65800 -0.10100 42.59400
C  3.98500 0.14100 42.59100
C  4.29000 1.37500 41.67000
C  2.87200 2.05300 41.59200
C  1.99400 0.80900 41.92000
C  2.63100 3.15600 42.65600
C  5.03300 1.13800 40.33900
C  6.18500 2.11600 40.15700
H  6.19000 2.86400 38.87300
N  -0.27400 -1.09900 42.48900
C  -0.43100 0.01800 41.73200
C  -1.84400 0.29000 41.45100
C  -2.51800 -0.88300 42.00100
C  -1.49400 -1.74600 42.64300
C  -2.41800 1.49100 40.74200
C  -3.92400 -1.02200 41.93900
O  -4.70900 -0.19200 41.48400
C  -4.58200 -2.16000 42.48900
N  0.60600 -3.67400 43.96500
C  -0.72100 -3.90300 43.88600
C  -1.14100 -5.27900 44.54200
C  0.14300 -5.80000 45.14400
C  1.18900 -4.70400 44.68700
C  -2.28400 -5.01400 45.56600
C  0.65300 -7.26500 44.70300
C  0.49100 -8.41300 45.79300
N  3.28100 -2.72900 43.84800
C  3.60600 -3.92500 44.48000
C  5.06400 -4.01700 44.76000
C  5.57400 -2.86500 44.13900
C  4.42600 -2.08700 43.76800
C  5.85900 -5.17500 45.35000
C  6.78200 -2.20900 43.81600
O  7.96500 -2.56200 43.94500
C  6.35800 -0.80400 43.16600
C  7.02700 0.35700 43.83700
O  6.99200 0.50700 45.04300
O  7.79400 1.05900 42.92600
C  8.55300 2.17200 43.54400
H  0.28900 1.67100 40.91600
H  -2.64200 -3.44600 43.23100
H  2.85000 -5.65400 45.57200
H  4.87700 2.06200 42.28000
H  2.70900 2.46600 40.59700
H  3.55200 3.58800 43.04600
H  2.15900 2.80700 43.57500
H  2.01200 3.86900 42.11100
H  4.36600 1.23600 39.48300
H  5.38900 0.11100 40.41700
H  7.17700 1.66300 40.15800
H  6.28200 2.83900 40.96600
H  -2.80700 2.16700 41.50300
H  -3.28300 1.20800 40.14100
H  -1.68900 2.04000 40.14700
H  -5.63800 -2.05200 42.24400
H  -4.38500 -2.25500 43.55700
H  -4.25100 -3.01000 41.89000
H  -1.46900 -5.94900 43.74800
H  0.16700 -5.74300 46.23200
H  -2.19400 -3.98600 45.91800
H  -2.09000 -5.70100 46.38900
H  -3.24800 -5.27200 45.12700
H  1.71400 -7.23800 44.45600
H  0.19700 -7.61200 43.77600
H  -0.35700 -8.97200 45.39700
H  0.16100 -7.97800 46.73700
H  1.40600 -8.99800 45.87700
H  6.78300 -5.38700 44.81400
H  5.26400 -6.08000 45.23000
H  6.06100 -5.06800 46.41600
H  6.68200 -0.82100 42.12500
H  7.95900 3.08500 43.51300
H  9.37100 2.23300 42.82600
H  8.95400 2.13100 44.55700
Mg 40.18900 9.45900 29.65900
C  42.31800 10.37500 32.30100
C  37.99300 8.34500 32.02400
C  38.34400 8.29000 27.16700
C  42.98600 9.71400 27.49900
N  40.21500 9.16100 31.98300
C  41.10800 9.80200 32.79800
C  40.69900 9.72800 34.28200
C  39.23800 8.94000 34.15700
C  39.12600 8.76300 32.61600
C  39.14400 7.56600 34.89400
C  40.54000 11.06600 35.01100
C  41.39400 11.23200 36.28500
H  40.55400 11.73500 37.55400
N  38.37300 8.53900 29.62200
C  37.60500 8.17400 30.68500
C  36.36100 7.57600 30.18600
C  36.40000 7.67200 28.72100
C  37.71900 8.21600 28.42700
C  35.34600 6.93700 31.13700
C  35.36000 7.28500 27.67200
O  35.58100 7.32200 26.47200
C  33.98800 6.77500 28.14600
N  40.66400 8.92300 27.67200
C  39.62600 8.62700 26.81600
C  40.08900 8.54200 25.33400
C  41.48500 9.25400 25.36400
C  41.76500 9.24200 26.94500
C  40.15100 7.05000 24.77800
C  41.38300 10.68100 24.76000
C  40.21900 11.51800 25.12100
N  42.21200 10.01600 29.77100
C  43.20100 10.06100 28.83600
C  44.43800 10.56400 29.45300
C  43.99300 10.82900 30.74200
C  42.68700 10.35700 30.93500
C  45.71800 10.85200 28.73800
C  44.45700 11.35000 32.02800
O  45.54100 11.73600 32.33600
C  43.38600 11.03600 33.09300
C  44.08500 10.14300 34.05300
O  44.19200 8.94300 33.86200
O  44.44900 10.78700 35.18600
C  45.03300 10.01400 36.27100
H  37.27700 8.08700 32.80700
H  37.79300 7.90300 26.30700
H  43.76200 9.93400 26.76300
H  41.47100 9.12000 34.75500
H  38.33600 9.45300 34.49100
H  38.98800 6.85000 34.08800
H  38.25700 7.67100 35.51900
H  40.07900 7.36600 35.41800
H  39.49000 11.20500 35.27000
H  40.84300 11.93400 34.42700
H  42.22500 11.91600 36.10800
H  41.90700 10.30000 36.52100
H  34.41300 7.46400 30.93800
H  35.50000 7.21600 32.18000
H  35.38700 5.86000 30.97900
H  33.43400 7.51700 28.72100
H  34.25600 5.97100 28.83200
H  33.32600 6.30800 27.41700
H  39.38300 9.14800 24.76600
H  42.24000 8.82800 24.70400
H  41.18700 6.76400 24.59600
H  39.51900 6.72500 23.95100
H  39.81300 6.45200 25.62400
H  41.41900 10.70600 23.67100
H  42.27700 11.19300 25.11700
H  40.45900 12.40500 25.70700
H  39.47000 11.14100 25.81800
H  39.72200 11.95100 24.25300
H  46.03100 10.07200 28.04400
H  46.50300 11.05500 29.46700
H  45.62900 11.71100 28.07200
H  43.10800 12.01400 33.48600
H  45.57300 10.59300 37.02000
H  45.66200 9.17900 35.96500
H  44.13200 9.56500 36.68900

