158

Mg 1.39700 7.64000 26.14800
C  2.14600 9.77300 28.79100
C  1.49300 4.93900 28.35700
C  0.71700 5.67100 23.57000
C  1.71700 10.40700 23.90600
N  1.71300 7.44800 28.33800
C  1.97500 8.45800 29.18900
C  1.88300 7.96000 30.59800
C  1.73400 6.39700 30.49100
C  1.63100 6.23100 28.97900
C  2.96200 5.58700 30.99700
C  0.65000 8.58800 31.33600
C  0.73700 8.77300 32.91200
H  1.85500 7.95400 33.56800
N  1.26400 5.61800 25.98000
C  1.39100 4.66100 26.95500
C  1.19400 3.33300 26.38500
C  0.86200 3.55700 25.03000
C  0.95500 4.99500 24.76500
C  1.15300 2.03300 27.23300
C  0.70800 2.50700 23.97700
O  0.58800 2.81100 22.78300
C  0.55600 1.05200 24.32800
N  1.38600 8.00000 23.98200
C  0.92400 6.95300 23.21500
C  0.87100 7.37200 21.67700
C  0.77100 8.92400 21.91300
C  1.32600 9.14300 23.31300
C  2.16100 6.84900 20.95700
C  -0.55200 9.70600 21.56700
C  -0.76600 10.67300 20.37500
N  1.65700 9.68600 26.23100
C  1.78600 10.68300 25.27000
C  2.11000 11.98200 25.87000
C  2.22200 11.63000 27.27100
C  2.06600 10.20700 27.45600
C  1.91100 13.36700 25.33400
C  2.48200 12.14600 28.62900
O  2.69000 13.28600 29.05600
C  2.37200 11.02200 29.63700
C  3.56300 11.08900 30.58600
O  4.63400 10.59000 30.33100
O  3.12600 11.70000 31.77700
C  4.04300 11.95200 32.92700
H  1.37900 4.05500 28.98700
H  0.56700 5.01800 22.70800
H  1.87800 11.22700 23.20200
H  2.78900 8.25700 31.12800
H  0.83100 6.12600 31.03800
H  2.61500 4.55800 31.09200
H  3.47900 5.97400 31.87500
H  3.69500 5.60400 30.18900
H  -0.31000 8.17500 31.02700
H  0.60400 9.59400 30.91800
H  -0.21800 8.41200 33.29500
H  0.79400 9.82500 33.19100
H  1.75900 1.29100 26.71300
H  0.13700 1.64500 27.30700
H  1.47300 2.16100 28.26600
H  1.54200 0.64000 24.54200
H  0.22200 0.48400 23.45900
H  -0.05300 0.95400 25.22600
H  -0.07700 7.14000 21.19100
H  1.58200 9.29900 21.29000
H  2.75500 6.27800 21.67100
H  2.75800 7.66000 20.54000
H  1.84100 6.09400 20.23900
H  -0.78000 10.25900 22.47800
H  -1.34100 8.95800 21.48300
H  0.10800 10.77000 19.73000
H  -0.91600 11.65200 20.83000
H  -1.64600 10.51900 19.75200
H  1.61400 13.46500 24.28900
H  2.94200 13.71400 25.28300
H  1.23400 13.96100 25.94800
H  1.47600 11.32000 30.18100
H  4.78300 12.71000 32.67000
H  4.79500 11.17000 33.03400
H  3.61400 12.12000 33.91500
Mg -0.26100 43.52800 26.67500
C  2.09600 43.17500 29.31700
C  -2.67500 42.92300 28.88400
C  -2.36300 43.36200 24.13100
C  2.52500 43.96300 24.38600
N  -0.30700 43.20500 28.89500
C  0.74300 43.04700 29.78600
C  0.26000 42.98500 31.21600
C  -1.30300 42.73200 30.97200
C  -1.42800 42.99000 29.49600
C  -1.79500 41.37500 31.53700
C  0.77600 44.27100 32.01800
C  1.57400 44.04000 33.28500
H  1.11600 43.05000 34.35100
N  -2.26200 43.29300 26.47400
C  -3.13500 43.03900 27.54200
C  -4.51700 42.86700 27.04400
C  -4.44500 43.06300 25.62500
C  -3.03300 43.28100 25.32300
C  -5.70200 42.71600 28.01300
C  -5.60100 43.21100 24.62700
O  -5.36900 43.57000 23.48400
C  -7.02700 43.10700 25.03200
N  0.03400 43.76500 24.57100
C  -0.99800 43.54900 23.71000
C  -0.54700 43.39300 22.29300
C  0.96200 43.74700 22.35000
C  1.21600 43.88500 23.86000
C  -0.74800 41.90000 21.79700
C  1.24400 45.18300 21.67300
C  2.61900 45.37800 21.05400
N  1.84900 43.68600 26.79000
C  2.82500 43.90500 25.78300
C  4.17900 43.80700 26.38800
C  3.94000 43.57400 27.76200
C  2.51500 43.44800 27.94400
C  5.56700 44.01200 25.76500
C  4.58500 43.37600 29.09000
O  5.75300 43.39000 29.48200
C  3.35700 43.10800 30.02200
C  3.56400 41.87200 30.85000
O  3.35800 40.73800 30.46800
O  4.17400 42.25600 31.95100
C  4.78400 41.15400 32.80700
H  -3.50300 42.74200 29.57300
H  -2.90600 43.17200 23.20300
H  3.25000 44.14300 23.59000
H  0.58500 42.10900 31.77700
H  -1.74300 43.49300 31.61700
H  -2.80800 41.37800 31.93800
H  -1.13800 41.00100 32.32300
H  -1.65600 40.67300 30.71400
H  -0.06300 44.89800 32.31800
H  1.36100 44.93900 31.38700
H  1.63700 45.03100 33.73300
H  2.61300 43.87000 33.00400
H  -6.48200 42.19200 27.46100
H  -6.04600 43.67800 28.39200
H  -5.38400 42.08500 28.84300
H  -7.23800 42.06900 25.28700
H  -7.70600 43.34300 24.21300
H  -7.38600 43.82400 25.77000
H  -0.95700 44.16000 21.63500
H  1.53400 42.99000 21.81400
H  0.13400 41.34000 21.48700
H  -1.35700 42.14000 20.92500
H  -1.43100 41.25500 22.35000
H  1.05600 45.87000 22.49800
H  0.41300 45.33800 20.98600
H  2.45600 45.37300 19.97700
H  3.28700 44.54100 21.25800
H  2.95300 46.38700 21.29700
H  5.56400 44.71100 24.92900
H  5.94300 43.08400 25.33500
H  6.34900 44.26700 26.48000
H  3.41600 43.90400 30.76400
H  5.20800 40.32900 32.23500
H  3.94300 40.66400 33.29800
H  5.55400 41.52400 33.48400

