158

Mg 16.39300 52.88300 26.51200
C  18.42400 51.34000 29.15300
C  14.12200 53.68300 28.98800
C  14.56400 54.02000 24.18000
C  18.69700 51.53900 24.23600
N  16.24300 52.45700 28.83200
C  17.25800 51.96700 29.61400
C  16.89500 52.31100 31.03100
C  15.36300 52.59200 30.90800
C  15.26200 52.98700 29.50200
C  14.44400 51.32400 31.25500
C  17.79900 53.44300 31.48400
C  17.87600 53.77300 33.01700
H  16.96100 53.01400 34.02800
N  14.63300 53.85300 26.59700
C  13.84700 54.11200 27.67800
C  12.66700 54.83500 27.26300
C  12.74900 54.92800 25.85600
C  13.99900 54.28600 25.43900
C  11.49200 55.19800 28.16800
C  11.68000 55.42000 24.81900
O  11.94000 55.46200 23.60900
C  10.25500 55.92000 25.30000
N  16.54700 52.68900 24.51000
C  15.63900 53.30300 23.76300
C  15.80100 53.01600 22.28900
C  17.28800 52.37700 22.29900
C  17.62300 52.25500 23.75000
C  14.72000 52.20700 21.69700
C  18.40200 53.16700 21.52900
C  19.29600 52.24200 20.73700
N  18.22000 51.71700 26.60400
C  19.04200 51.23100 25.59100
C  20.21300 50.62100 26.09700
C  20.00700 50.64400 27.48800
C  18.78400 51.30400 27.75300
C  21.36600 49.96300 25.36600
C  20.67500 50.26000 28.70900
O  21.78800 49.78000 28.85900
C  19.71800 50.80300 29.91000
C  19.35400 49.68100 30.84000
O  19.07700 48.53300 30.53400
O  19.49600 50.03000 32.16400
C  19.55300 48.92500 33.17600
H  13.32100 53.79300 29.72200
H  13.95200 54.42600 23.37100
H  19.51300 51.28300 23.55600
H  17.16900 51.51500 31.72400
H  15.02800 53.35700 31.60800
H  14.29900 51.22700 32.33100
H  15.03400 50.53500 30.78800
H  13.50800 51.42500 30.70500
H  17.53300 54.37200 30.97700
H  18.81800 53.35500 31.10900
H  17.49400 54.79400 33.01700
H  18.87900 53.84000 33.43800
H  10.76000 54.39200 28.22100
H  10.90600 56.05700 27.84100
H  11.98800 55.45100 29.10500
H  10.35300 56.88000 25.80700
H  9.95300 55.13000 25.98700
H  9.63800 56.12200 24.42400
H  15.85300 54.01100 21.84800
H  17.25200 51.34600 21.94700
H  15.23400 51.54300 21.00300
H  13.91500 52.74900 21.20000
H  14.21700 51.61600 22.46300
H  19.03700 53.80500 22.14500
H  17.91400 53.87700 20.86100
H  19.27000 51.20700 21.07700
H  20.34300 52.43700 20.96700
H  19.14500 52.37700 19.66600
H  22.30300 49.96300 25.92400
H  21.60200 50.49700 24.44600
H  21.18400 48.88800 25.33600
H  20.17600 51.59600 30.50000
H  19.54200 49.45300 34.13000
H  20.42600 48.28100 33.07500
H  18.62300 48.36800 33.06200
Mg -1.94400 35.32100 27.12400
C  -3.98700 34.07600 29.67100
C  -1.02900 37.93900 29.07800
C  -0.34600 36.72500 24.41000
C  -3.15000 32.80400 24.97900
N  -2.46200 35.91400 29.23800
C  -3.27900 35.23100 30.06700
C  -3.30000 35.89400 31.48700
C  -2.40600 37.20700 31.23700
C  -1.95400 37.02100 29.72800
C  -3.13700 38.55900 31.44100
C  -2.68000 35.00000 32.65100
C  -3.30400 35.11300 33.99900
H  -2.70100 36.18700 34.85700
N  -0.93700 37.05400 26.77800
C  -0.67900 38.04100 27.69000
C  0.09500 39.12200 27.12800
C  0.27000 38.80500 25.73500
C  -0.32100 37.46800 25.59000
C  0.43100 40.36200 27.96000
C  0.95800 39.67600 24.66500
O  0.78700 39.46400 23.49400
C  1.82400 40.92700 25.04200
N  -1.76100 34.85600 24.95800
C  -0.97500 35.50600 24.12000
C  -0.86800 34.88200 22.73100
C  -1.91500 33.75300 22.87400
C  -2.28900 33.77700 24.36400
C  -0.93400 35.83800 21.47200
C  -1.42500 32.41700 22.35000
C  -2.14100 32.04600 21.03800
N  -3.14400 33.73100 27.25800
C  -3.59100 32.79100 26.34900
C  -4.54400 31.90400 26.92200
C  -4.64500 32.37800 28.24400
C  -3.81800 33.51200 28.39100
C  -5.28700 30.82100 26.21100
C  -5.23700 31.93700 29.48300
O  -5.92700 31.01200 29.84900
C  -4.75300 33.10000 30.44100
C  -5.95800 33.72700 31.02100
O  -6.53100 34.66900 30.50100
O  -6.28000 33.08300 32.17400
C  -7.46600 33.65800 32.78500
H  -0.81700 38.70400 29.82800
H  0.26700 37.14700 23.61100
H  -3.59300 31.99700 24.39100
H  -4.31200 36.26000 31.65900
H  -1.52700 37.16400 31.88100
H  -2.56900 39.10400 32.19500
H  -4.17300 38.41300 31.74500
H  -3.36900 39.07700 30.51000
H  -1.66200 35.28800 32.91400
H  -2.72200 33.96800 32.30200
H  -3.19800 34.15100 34.50100
H  -4.36600 35.27500 33.81900
H  1.41300 40.33400 28.43100
H  -0.36200 40.52400 28.68900
H  0.52200 41.25000 27.33500
H  2.36900 40.83900 25.98100
H  1.09000 41.72300 25.17100
H  2.55000 41.10700 24.24900
H  0.09900 34.38000 22.72900
H  -2.81300 34.16700 22.41700
H  -1.50000 36.74300 21.69700
H  -1.59600 35.35300 20.75600
H  0.05400 36.04300 21.05900
H  -1.74200 31.63400 23.03900
H  -0.36000 32.18800 22.29700
H  -2.97300 31.39400 21.30600
H  -1.36600 31.55500 20.44900
H  -2.42600 32.95400 20.50600
H  -6.20600 30.58400 26.74600
H  -4.83100 29.85300 26.00000
H  -5.57600 31.32900 25.29100
H  -4.28000 32.61800 31.29700
H  -8.16800 33.80700 31.96500
H  -7.21200 34.53700 33.37700
H  -8.02200 32.99500 33.44700

