158

Mg 17.32900 -1.47900 27.77800
C  16.16200 0.42200 30.57600
C  19.42300 -3.08500 29.72700
C  18.78800 -2.73200 24.96300
C  15.57300 0.87300 25.76900
N  17.77900 -1.28600 29.91400
C  17.12500 -0.59700 30.84400
C  17.63800 -0.93000 32.24300
C  18.88200 -1.87200 31.95400
C  18.66100 -2.11000 30.44400
C  20.31600 -1.27200 32.23900
C  16.49000 -1.46700 33.11300
C  16.33900 -0.84400 34.52500
H  17.65600 -0.29600 35.23700
N  18.71100 -2.94100 27.41200
C  19.43100 -3.51300 28.39800
C  20.20500 -4.60400 27.75100
C  20.12600 -4.42900 26.32900
C  19.18600 -3.33600 26.16300
C  20.96100 -5.57000 28.55500
C  20.69800 -5.26700 25.18700
O  20.62900 -5.06200 23.98000
C  21.55400 -6.44900 25.54100
N  17.16700 -0.98200 25.72600
C  17.94000 -1.63900 24.72300
C  17.67400 -1.03000 23.36200
C  16.39400 -0.17600 23.65400
C  16.37500 -0.04300 25.14300
C  18.91400 -0.36700 22.65100
C  15.13700 -0.91100 23.09800
C  13.81200 -0.10500 23.02200
N  16.10700 0.35300 28.05700
C  15.38200 1.05500 27.12600
C  14.50700 1.98500 27.79300
C  14.78900 1.79400 29.19800
C  15.79600 0.78800 29.27000
C  13.52900 3.01900 27.23500
C  14.44500 2.21600 30.53800
O  13.60900 2.96700 30.94700
C  15.40100 1.32000 31.54400
C  16.23600 2.28400 32.22300
O  17.40400 2.51800 32.04400
O  15.49500 2.91400 33.22400
C  16.29400 3.82500 34.04400
H  20.17800 -3.59800 30.32700
H  19.32100 -3.04500 24.06300
H  15.16600 1.69200 25.17300
H  18.00200 0.01300 32.65100
H  18.82500 -2.77800 32.55700
H  20.65000 -1.71400 33.17800
H  20.31200 -0.18300 32.28500
H  21.08400 -1.46800 31.49100
H  16.35200 -2.54800 33.10800
H  15.59600 -1.25500 32.52600
H  15.79200 -1.65500 35.00700
H  15.70000 0.03600 34.44900
H  20.52700 -6.57000 28.54500
H  21.04300 -5.17600 29.56800
H  21.94200 -5.58600 28.08100
H  22.60500 -6.16200 25.55600
H  21.54000 -7.14600 24.70400
H  21.12100 -7.05600 26.33600
H  17.34700 -1.93900 22.85800
H  16.45900 0.76600 23.11100
H  18.79200 0.71300 22.72600
H  18.96800 -0.59000 21.58600
H  19.87100 -0.64500 23.09300
H  14.91000 -1.74600 23.76000
H  15.38500 -1.28200 22.10300
H  13.89100 0.89400 23.45200
H  13.02800 -0.56900 23.62100
H  13.39400 -0.09900 22.01500
H  13.80800 3.08600 26.18400
H  13.66500 3.97100 27.74800
H  12.50200 2.67600 27.36300
H  14.75100 0.80800 32.25400
H  15.68800 4.16500 34.88400
H  16.59300 4.72400 33.50500
H  17.21200 3.40200 34.45100
Mg -5.03900 26.31500 26.55200
C  -3.75200 27.59700 29.51400
C  -7.13000 24.28800 28.57800
C  -6.13900 24.69400 23.79800
C  -2.78000 28.22300 24.69700
N  -5.18700 25.82100 28.78800
C  -4.57500 26.54100 29.77500
C  -5.07500 26.01000 31.20500
C  -5.88600 24.72800 30.89700
C  -6.12700 24.92700 29.30600
C  -5.33000 23.34100 31.32800
C  -5.90700 27.12200 31.99400
C  -5.98000 27.10300 33.54500
H  -5.68300 25.76200 34.19400
N  -6.27600 24.61100 26.24200
C  -7.18400 24.10400 27.16700
C  -8.21300 23.30000 26.47000
C  -7.84700 23.21900 25.09100
C  -6.74000 24.17800 24.96900
C  -9.29200 22.62600 27.27800
C  -8.41300 22.43500 23.93200
O  -7.92700 22.44900 22.80100
C  -9.48100 21.57100 24.14000
N  -4.49600 26.40500 24.59500
C  -5.16300 25.71200 23.61300
C  -4.68300 26.16300 22.21200
C  -3.61200 27.25300 22.49900
C  -3.62100 27.33600 24.01800
C  -4.16000 25.04200 21.30100
C  -3.85800 28.59600 21.67100
C  -2.84100 28.88700 20.53600
N  -3.48000 27.66400 26.96900
C  -2.71200 28.39500 26.11200
C  -1.92800 29.34200 26.84500
C  -2.31500 29.09700 28.17900
C  -3.24700 28.01800 28.19700
C  -0.93500 30.34000 26.27000
C  -2.03900 29.42200 29.57100
O  -1.29800 30.29200 30.05700
C  -3.03800 28.51500 30.44600
C  -2.14600 27.69800 31.27200
O  -1.37100 26.89400 30.75200
O  -2.09500 28.09400 32.53200
C  -0.90300 27.63400 33.23900
H  -7.93700 23.88000 29.19000
H  -6.55000 24.28300 22.87400
H  -2.09900 28.89800 24.17300
H  -4.24000 25.76600 31.86200
H  -6.84200 24.81200 31.41400
H  -5.19800 22.69400 30.46100
H  -6.03300 22.85200 32.00200
H  -4.37600 23.29000 31.85300
H  -6.94700 27.01300 31.68500
H  -5.51800 28.11000 31.75000
H  -7.02800 27.38000 33.65400
H  -5.39000 27.85100 34.07600
H  -8.91100 21.83700 27.92600
H  -10.03600 22.11700 26.66500
H  -9.85200 23.34300 27.87900
H  -10.25500 22.32600 24.27200
H  -9.27800 21.02500 25.06100
H  -9.76000 20.96900 23.27500
H  -5.54800 26.68600 21.80400
H  -2.65400 26.88700 22.13100
H  -4.44800 24.10400 21.77600
H  -3.07400 25.11300 21.23900
H  -4.56300 24.97700 20.29100
H  -3.92300 29.44100 22.35600
H  -4.87200 28.67000 21.27900
H  -3.38400 28.73200 19.60400
H  -1.99100 28.20600 20.58700
H  -2.57400 29.94100 20.46900
H  -1.31000 31.36100 26.34300
H  -0.60600 30.11400 25.25600
H  -0.00800 30.34800 26.84400
H  -3.75900 29.02100 31.08800
H  -1.14600 26.58200 33.38700
H  -0.76100 28.26100 34.11900
H  0.02000 27.67200 32.66100

