158

Mg 45.80400 3.88700 47.94600
C  43.80100 6.68800 47.05200
C  43.15900 1.94700 47.17900
C  47.97800 1.30500 47.83000
C  48.63200 6.17500 48.10400
N  43.68500 4.27800 47.04600
C  43.03500 5.46100 47.01400
C  41.62800 5.34800 46.53700
C  41.35100 3.78900 46.75400
C  42.82500 3.31600 47.02200
C  40.22100 3.47300 47.70300
C  41.42100 5.66700 45.00700
C  40.26000 6.58600 44.68100
H  40.47400 7.54600 43.47600
N  45.57900 1.85900 47.67700
C  44.35000 1.24300 47.46000
C  44.51000 -0.12100 47.54200
C  45.90100 -0.38200 47.75500
C  46.56900 0.93100 47.77600
C  43.43900 -1.03700 47.20200
C  46.59300 -1.76000 47.86900
O  45.90000 -2.74500 47.91800
C  48.04000 -1.94400 48.16200
N  47.99500 3.79800 47.89300
C  48.58400 2.55100 47.99000
C  50.11500 2.67500 48.15200
C  50.29300 4.27000 48.19000
C  48.89600 4.81800 48.07500
C  50.68400 2.02300 49.37400
C  51.15900 4.76000 47.08200
C  52.28900 5.68000 47.58800
N  46.18700 5.96300 47.65800
C  47.33900 6.77200 47.84200
C  47.00900 8.17600 47.66300
C  45.62500 8.09800 47.36800
C  45.18900 6.80600 47.40800
C  47.85600 9.34400 47.66100
C  44.54200 9.02100 47.06200
O  44.65200 10.21400 46.87000
C  43.29800 8.09500 46.93800
C  42.35800 8.44800 48.00000
O  42.14100 7.82500 49.03300
O  41.67100 9.55200 47.54500
C  40.59100 10.08100 48.37900
H  42.26300 1.35600 46.98200
H  48.75300 0.54100 47.92300
H  49.41200 6.93700 48.16100
H  40.99500 5.93400 47.20200
H  41.10900 3.20200 45.86800
H  40.27400 4.07900 48.60800
H  40.19700 2.41800 47.97300
H  39.24900 3.66500 47.25000
H  41.06400 4.70300 44.64600
H  42.36400 6.00500 44.57700
H  40.13400 7.32900 45.46800
H  39.42300 5.93900 44.41600
H  42.50200 -0.59100 46.86700
H  43.29500 -1.70800 48.04900
H  43.74000 -1.59000 46.31200
H  48.29700 -2.93600 48.53400
H  48.28100 -1.25800 48.97400
H  48.68100 -1.71700 47.31000
H  50.50200 2.22700 47.23700
H  50.58100 4.70100 49.14900
H  49.80300 1.76300 49.96000
H  51.40100 2.63700 49.91900
H  51.26300 1.21400 48.92800
H  50.59600 5.45500 46.45800
H  51.61200 3.95300 46.50700
H  52.45700 6.57200 46.98400
H  53.15600 5.02500 47.49800
H  52.13600 5.86100 48.65200
H  47.29600 10.17200 47.22600
H  48.66600 9.34900 46.93200
H  48.33700 9.48500 48.62900
H  42.73800 8.26800 46.01800
H  39.59800 9.92000 47.95800
H  40.66500 11.16200 48.49700
H  40.52400 9.73000 49.40900
Mg 41.30300 8.82700 30.51900
C  43.11700 10.31000 33.07100
C  38.87600 8.11800 32.80300
C  39.63200 7.49800 28.02800
C  43.80400 9.75900 28.34200
N  41.17000 9.12500 32.76300
C  41.98600 9.72600 33.65000
C  41.37800 9.87200 35.05700
C  40.07100 9.03900 34.97300
C  40.04300 8.66600 33.40600
C  40.00400 7.70800 35.86300
C  41.08800 11.37800 35.47500
C  40.07200 11.59000 36.65400
H  40.60900 12.50300 37.82000
N  39.52800 7.81700 30.51500
C  38.57100 7.73600 31.50500
C  37.38900 7.09600 31.01200
C  37.57600 6.97300 29.59800
C  38.98500 7.39400 29.31600
C  36.22800 6.68800 31.95500
C  36.64400 6.42700 28.56600
O  36.98900 6.16000 27.45600
C  35.14600 6.34800 28.86800
N  41.77100 8.41500 28.45800
C  40.89800 7.91000 27.62100
C  41.31500 7.92500 26.13000
C  42.71800 8.72800 26.26100
C  42.76300 9.01100 27.76300
C  41.29600 6.48900 25.43700
C  42.89300 10.04000 25.37600
C  41.85600 11.12700 25.54500
N  43.08000 9.76600 30.64300
C  44.01100 10.07900 29.68300
C  45.06800 10.90300 30.17600
C  44.74100 10.98900 31.58200
C  43.50400 10.27500 31.77400
C  46.26600 11.56900 29.49300
C  45.16900 11.63400 32.71400
O  46.14800 12.35000 32.98300
C  44.11300 11.26900 33.78900
C  44.84800 10.78300 34.99000
O  45.59000 9.80600 34.95500
O  44.38200 11.35800 36.09100
C  45.09200 10.93100 37.32500
H  38.04300 7.99500 33.49900
H  39.12300 7.24700 27.09500
H  44.56400 10.17400 27.67700
H  42.00400 9.53200 35.88200
H  39.20200 9.67300 35.15400
H  39.13800 7.68800 36.52500
H  40.90600 7.67400 36.47300
H  39.92100 6.75300 35.34400
H  40.52600 11.72300 34.60800
H  42.00000 11.96300 35.59100
H  39.83000 10.65400 37.15800
H  39.14800 12.01600 36.26100
H  35.33900 7.31900 31.93400
H  36.51800 6.56500 32.99900
H  35.81300 5.71600 31.68800
H  34.95800 7.25600 29.44100
H  34.81200 5.43100 29.35400
H  34.57500 6.37700 27.93900
H  40.61600 8.55200 25.57700
H  43.58800 8.16300 25.92500
H  40.47200 5.91700 25.86500
H  42.26200 6.01500 25.60800
H  41.15500 6.61700 24.36400
H  42.87500 9.68800 24.34500
H  43.91000 10.42700 25.43000
H  42.43400 11.99100 25.87300
H  41.07800 10.82200 26.24400
H  41.40000 11.50100 24.62800
H  46.98000 10.75500 29.36200
H  46.62200 12.34700 30.16800
H  46.09200 12.05100 28.53100
H  43.61900 12.19000 34.09800
H  44.36500 10.37700 37.91800
H  45.22400 11.81000 37.95600
H  46.07100 10.46500 37.21800

