158

Mg 9.43300 3.90100 27.92100
C  10.90200 2.40600 30.73600
C  7.36100 5.64100 30.05800
C  7.75300 5.08100 25.32000
C  11.16000 1.78000 25.82000
N  9.17400 3.92300 30.20000
C  9.87600 3.31700 31.09100
C  9.59700 3.88200 32.45800
C  8.22100 4.65600 32.25200
C  8.20100 4.72400 30.72100
C  6.94700 4.14200 32.99400
C  10.78700 4.74900 33.15500
C  11.33900 4.10500 34.41400
H  11.64500 5.04000 35.61000
N  7.95600 5.31000 27.75300
C  7.22300 5.92000 28.73000
C  6.32500 6.86100 28.13900
C  6.51100 6.84700 26.76000
C  7.46100 5.69200 26.57200
C  5.46900 7.75100 28.94800
C  5.87300 7.70400 25.65700
O  6.11200 7.44400 24.45400
C  4.98900 8.86000 25.91400
N  9.40300 3.38200 25.76400
C  8.61800 4.06700 24.88900
C  8.79800 3.58900 23.41000
C  9.93900 2.55300 23.61200
C  10.20000 2.58200 25.10600
C  7.47400 2.93400 22.82500
C  11.18300 2.73400 22.69400
C  11.91900 1.45500 22.12500
N  10.80000 2.33500 28.18500
C  11.52100 1.60200 27.20600
C  12.38900 0.73700 27.87700
C  12.23800 1.07200 29.28400
C  11.20300 2.03500 29.39700
C  13.20800 -0.34700 27.16600
C  12.75300 0.75600 30.58300
O  13.53500 -0.06300 30.95500
C  11.92000 1.70100 31.57900
C  11.26000 0.79600 32.58000
O  10.16500 0.30100 32.37500
O  11.98700 0.67400 33.71700
C  11.43100 -0.06400 34.85500
H  6.72200 6.24800 30.70300
H  7.26800 5.53800 24.45500
H  11.82500 1.12300 25.25600
H  9.36800 3.00200 33.05800
H  8.28700 5.63600 32.72500
H  6.16500 3.76100 32.33800
H  6.43000 5.00100 33.42200
H  7.09700 3.32600 33.70100
H  10.38700 5.73500 33.39400
H  11.55200 4.68900 32.38100
H  12.28100 3.60100 34.19600
H  10.78200 3.25500 34.80700
H  5.40800 7.51900 30.01200
H  4.51300 7.70600 28.42600
H  5.93400 8.73500 28.87400
H  5.40700 9.55300 26.64300
H  4.11800 8.44000 26.41600
H  4.61900 9.34400 25.01000
H  9.13400 4.40600 22.77100
H  9.63800 1.52300 23.42100
H  6.60400 3.40300 23.28500
H  7.55900 1.85100 22.90700
H  7.33700 3.32500 21.81600
H  11.91600 3.22200 23.33600
H  10.88300 3.30000 21.81200
H  11.29200 1.00700 21.35400
H  12.03400 0.64600 22.84700
H  12.86200 1.82200 21.72000
H  12.53600 -1.19400 27.02600
H  14.15700 -0.65200 27.60500
H  13.47200 0.12800 26.22100
H  12.61100 2.40900 32.03800
H  11.05400 0.64600 35.59100
H  12.28900 -0.54700 35.32200
H  10.71200 -0.87600 34.75200
Mg 25.93800 -6.13500 47.19200
C  27.34300 -3.14700 46.05200
C  23.27300 -5.52200 44.97500
C  24.83900 -9.21100 47.88000
C  29.05000 -6.75600 48.84700
N  25.46800 -4.52200 45.60300
C  26.11700 -3.39700 45.31900
C  25.44900 -2.50600 44.21500
C  23.99600 -3.20900 44.24800
C  24.29600 -4.52200 44.92200
C  22.85200 -2.40600 44.89600
C  26.19700 -2.78300 42.87600
C  26.71700 -1.64900 41.96000
H  25.87000 -1.35600 40.72300
N  24.30900 -7.26800 46.47200
C  23.30200 -6.80900 45.68300
C  22.22600 -7.73200 45.73200
C  22.63200 -8.77200 46.52900
C  23.99200 -8.47600 46.98900
C  20.82400 -7.47000 45.06900
C  21.60300 -9.94900 46.77700
O  20.51400 -10.09400 46.34000
C  22.06300 -11.00800 47.63300
N  26.76800 -7.65900 48.30100
C  26.11000 -8.90100 48.41800
C  26.90600 -9.94500 49.26100
C  28.24600 -9.11400 49.61500
C  28.05600 -7.78200 48.78200
C  26.19900 -10.54700 50.50400
C  29.57400 -9.85500 49.12700
C  30.77300 -9.84000 50.20000
N  27.84100 -5.15800 47.40700
C  28.95800 -5.49500 48.12200
C  29.86300 -4.38400 48.13900
C  29.24500 -3.44900 47.36700
C  28.02600 -3.98600 46.92600
C  31.19100 -4.53900 48.74500
C  29.33200 -2.10800 46.96800
O  30.16400 -1.22400 47.21900
C  28.15600 -1.85000 45.89200
C  27.43200 -0.57100 46.22200
O  27.34200 0.37600 45.46900
O  26.86600 -0.65500 47.44700
C  25.92100 0.36300 47.83600
H  22.39600 -5.43000 44.33000
H  24.46700 -10.21600 48.08800
H  29.98600 -7.03200 49.33700
H  25.35800 -1.44700 44.45700
H  23.52400 -3.42500 43.28900
H  22.42600 -2.88800 45.77600
H  22.07600 -2.41300 44.13100
H  23.23800 -1.42500 45.17100
H  25.48800 -3.38600 42.30800
H  27.02100 -3.46200 43.09600
H  27.72400 -1.82100 41.58100
H  26.92800 -0.67700 42.40700
H  20.13800 -7.41700 45.91500
H  20.64100 -8.29400 44.38000
H  20.92400 -6.56100 44.47700
H  23.04100 -11.24700 47.21600
H  21.41400 -11.87200 47.49000
H  22.23400 -10.86500 48.70000
H  27.11600 -10.74000 48.54600
H  28.27400 -8.84200 50.67000
H  26.18700 -11.63400 50.57300
H  25.12900 -10.34700 50.46500
H  26.49600 -10.03100 51.41700
H  29.86600 -9.41300 48.17400
H  29.32400 -10.87600 48.83800
H  31.68100 -10.09100 49.65200
H  30.62800 -10.61500 50.95300
H  30.94100 -8.85800 50.64200
H  31.93600 -4.76900 47.98300
H  31.23700 -5.26700 49.55400
H  31.51100 -3.53500 49.02200
H  28.54900 -1.71100 44.88400
H  26.12400 0.52900 48.89400
H  24.90200 -0.01700 47.91100
H  25.96300 1.26700 47.22800

