158

Mg -11.21300 38.16800 42.60800
C  -8.95000 35.46400 42.21100
C  -9.00400 40.32200 41.08500
C  -13.67500 40.44900 42.29700
C  -13.58500 35.74200 43.68100
N  -9.22300 37.82200 41.57700
C  -8.52900 36.65600 41.56700
C  -7.29000 36.84400 40.69600
C  -7.16500 38.46500 40.58400
C  -8.50400 38.96900 41.15000
C  -5.84600 39.03900 41.08300
C  -7.34100 36.14100 39.28400
C  -6.20000 35.05700 39.10100
H  -5.12200 35.58800 38.16600
N  -11.24900 40.10500 42.06500
C  -10.24900 40.83000 41.46800
C  -10.67800 42.17700 41.25000
C  -12.05100 42.29400 41.55100
C  -12.41100 40.91300 42.00000
C  -9.70000 43.14700 40.71900
C  -12.91300 43.54200 41.34800
O  -12.36500 44.53900 40.91200
C  -14.38200 43.62900 41.68800
N  -13.33500 38.09500 42.86300
C  -14.13000 39.13300 42.67800
C  -15.65600 38.76900 43.00000
C  -15.50100 37.25000 43.35300
C  -14.01300 37.02000 43.41300
C  -16.35800 39.69500 44.11000
C  -16.14000 36.23700 42.41900
C  -16.79800 34.96600 42.97200
N  -11.28200 36.00100 42.92200
C  -12.29500 35.19300 43.43900
C  -11.81900 33.77100 43.48400
C  -10.45300 33.93800 43.15400
C  -10.20100 35.27000 42.77800
C  -12.59700 32.56000 43.99100
C  -9.15400 33.23000 43.00200
O  -8.84300 32.09800 43.28000
C  -8.19600 34.13500 42.29000
C  -6.89100 34.22100 43.00800
O  -6.04300 33.35500 42.91200
O  -6.63700 35.49200 43.56600
C  -5.29400 35.66000 44.21600
H  -8.22500 40.98900 40.71000
H  -14.46800 41.19900 42.25900
H  -14.33200 34.99700 43.96300
H  -6.40400 36.56900 41.26800
H  -7.11700 38.71600 39.52400
H  -5.10100 39.18300 40.30000
H  -5.33100 38.41200 41.81000
H  -6.02600 39.95500 41.64600
H  -7.43500 36.79000 38.41300
H  -8.22000 35.50300 39.19000
H  -6.51100 34.08600 38.71500
H  -5.79400 34.82800 40.08600
H  -9.62400 42.82000 39.68200
H  -8.73500 43.01200 41.20700
H  -10.07100 44.16100 40.86800
H  -14.51800 43.61500 42.76900
H  -15.04700 42.88300 41.25300
H  -14.73000 44.58900 41.30700
H  -16.22500 38.76400 42.07100
H  -15.94600 37.02000 44.32100
H  -17.24700 40.24900 43.80900
H  -15.74300 40.55300 44.38100
H  -16.44900 38.97400 44.92200
H  -15.39500 35.78100 41.76600
H  -16.96800 36.67400 41.86200
H  -17.86200 35.04800 42.74800
H  -16.68600 34.87600 44.05200
H  -16.34400 34.10600 42.48000
H  -12.70400 31.82600 43.19300
H  -13.61400 32.93100 44.11900
H  -12.09900 32.13800 44.86400
H  -8.00700 33.69800 41.31000
H  -4.50900 35.65500 43.45900
H  -5.15100 34.84900 44.92900
H  -5.33700 36.60800 44.75300
Mg 1.36600 42.44800 25.35100
C  2.68600 42.57300 28.78600
C  -1.48800 41.18300 26.60300
C  0.61000 41.71100 22.26900
C  4.38700 43.82300 24.40400
N  0.70000 41.84900 27.52500
C  1.33800 42.13800 28.73900
C  0.38300 41.79700 29.86200
C  -0.89400 41.24900 29.09700
C  -0.58900 41.43500 27.66000
C  -1.21000 39.74600 29.27600
C  0.04600 42.96600 30.80800
C  0.13800 42.74900 32.30700
H  -0.34400 41.30400 32.71900
N  -0.31000 41.65500 24.55500
C  -1.42700 41.18700 25.20900
C  -2.40800 40.77400 24.24500
C  -1.81900 40.89800 22.95800
C  -0.44800 41.49500 23.20100
C  -3.87500 40.44400 24.68100
C  -2.38400 40.57100 21.62000
O  -1.82100 40.84100 20.55000
C  -3.74200 39.96100 21.62100
N  2.34200 42.76400 23.59200
C  1.80300 42.22900 22.42800
C  2.92000 42.25000 21.40200
C  3.99200 43.18200 21.99400
C  3.56100 43.34500 23.44200
C  3.39100 40.84600 20.93700
C  4.40200 44.57000 21.28900
C  3.35600 45.75500 21.41000
N  3.15800 43.12000 26.28800
C  4.28000 43.64200 25.81100
C  5.20200 44.04100 26.84500
C  4.60700 43.61700 28.01400
C  3.35200 43.10500 27.65500
C  6.64800 44.61500 26.68000
C  4.81500 43.41800 29.46900
O  5.79600 43.59800 30.15400
C  3.51000 42.77600 30.02300
C  3.85000 41.48600 30.69200
O  4.31000 40.48800 30.21100
O  3.32100 41.47700 31.90300
C  3.40500 40.25000 32.67900
H  -2.44100 40.78200 26.95300
H  0.24500 41.40400 21.28700
H  5.36500 44.14500 24.04100
H  0.89700 40.95800 30.33100
H  -1.84200 41.74700 29.29900
H  -0.51900 39.28600 29.98200
H  -1.16500 39.23500 28.31500
H  -2.20500 39.69500 29.71900
H  -0.84800 43.53800 30.55700
H  0.78800 43.73800 30.60900
H  -0.33500 43.54800 32.87700
H  1.21700 42.69900 32.45100
H  -4.02100 39.36600 24.76200
H  -4.64300 40.96100 24.10600
H  -4.08400 40.85700 25.66800
H  -4.38200 40.77800 21.95500
H  -3.65700 39.04000 22.19700
H  -3.95300 39.76000 20.57000
H  2.55400 42.76900 20.51600
H  4.88800 42.56600 22.07000
H  2.72600 40.11300 21.39300
H  4.43800 40.77100 21.23100
H  3.14600 40.85800 19.87500
H  4.71000 44.37200 20.26200
H  5.28300 44.82000 21.88000
H  2.45400 45.21400 21.69500
H  3.20100 46.34800 20.50900
H  3.67700 46.46500 22.17200
H  6.99200 44.97800 27.64900
H  6.79900 45.39200 25.93000
H  7.30600 43.76200 26.51300
H  3.06300 43.44200 30.76000
H  2.70700 39.52800 32.25600
H  3.08200 40.34800 33.71500
H  4.41800 39.85600 32.76700

