158

Mg -1.10200 17.76700 26.85000
C  -1.66100 15.23600 29.40300
C  -1.74600 20.10800 29.30000
C  -0.50300 19.88000 24.47100
C  -1.27600 15.15500 24.52700
N  -1.75300 17.65000 29.11400
C  -1.69300 16.52400 29.94000
C  -2.18900 16.97300 31.38300
C  -2.23800 18.52700 31.27700
C  -1.91800 18.81500 29.80600
C  -3.57400 19.25600 31.63300
C  -1.18900 16.44400 32.53800
C  -1.20400 17.24800 33.89900
H  -0.72600 16.50200 35.11900
N  -1.02400 19.64400 26.87200
C  -1.31200 20.50900 27.96500
C  -1.16600 21.84200 27.58300
C  -0.81600 21.79600 26.18700
C  -0.72800 20.39500 25.79600
C  -1.32100 23.00600 28.59100
C  -0.56600 22.93300 25.29600
O  -0.07800 22.83700 24.21200
C  -0.91100 24.28800 25.68600
N  -1.09300 17.58400 24.74900
C  -0.63200 18.60000 24.02800
C  -0.50200 18.14000 22.53200
C  -0.53000 16.60500 22.65000
C  -1.00900 16.40700 24.04300
C  -1.60700 18.75300 21.62500
C  0.85400 15.96000 22.29700
C  1.99900 16.12000 23.30600
N  -1.39600 15.68800 26.89900
C  -1.46200 14.77300 25.87300
C  -1.70500 13.47100 26.35500
C  -1.64000 13.56900 27.74900
C  -1.57100 14.94400 28.05800
C  -1.89300 12.22400 25.52200
C  -1.82700 12.78500 28.96300
O  -2.07600 11.62100 29.19100
C  -1.79600 13.90800 30.13500
C  -0.62500 13.56400 30.91100
O  0.52000 13.69100 30.43500
O  -0.93600 13.03000 32.13300
C  0.21100 12.82200 33.07300
H  -1.78100 20.78900 30.15300
H  -0.24400 20.60400 23.69500
H  -1.37900 14.31200 23.84000
H  -3.15200 16.47100 31.47900
H  -1.47400 19.00900 31.88700
H  -4.15600 18.56100 32.23700
H  -4.08100 19.50500 30.70100
H  -3.22400 20.16500 32.12100
H  -0.18100 16.22500 32.18700
H  -1.60000 15.47800 32.83000
H  -2.11800 17.79400 34.13300
H  -0.46600 18.02700 33.70700
H  -0.52300 23.74100 28.48800
H  -1.28300 22.77100 29.65500
H  -2.27100 23.53500 28.50200
H  -1.92400 24.35000 26.08500
H  -0.84600 25.05800 24.91700
H  -0.15400 24.60900 26.40000
H  0.36400 18.38700 21.91800
H  -1.18500 16.05400 21.97500
H  -2.08500 17.92000 21.10900
H  -1.28400 19.53900 20.94200
H  -2.36800 19.19400 22.26900
H  1.15900 16.51700 21.41100
H  0.79600 14.88800 22.10700
H  1.74400 15.67100 24.26600
H  2.19100 17.16800 23.53600
H  2.95800 15.69000 23.01800
H  -0.95900 11.82700 25.12500
H  -2.56800 12.50000 24.71200
H  -2.38000 11.43300 26.09200
H  -2.72500 13.90800 30.70600
H  1.09500 13.41100 32.82800
H  0.44400 11.76600 33.20800
H  -0.13500 13.26800 34.00600
Mg 17.31300 -2.88600 28.45700
C  16.12300 -0.77500 31.06000
C  19.38200 -4.53600 30.83100
C  18.73200 -4.36900 25.95000
C  15.41400 -0.80700 26.25100
N  17.81700 -2.58300 30.71500
C  16.99300 -1.84500 31.55800
C  17.33300 -2.17100 33.03500
C  18.49600 -3.19600 32.98700
C  18.63300 -3.46600 31.43300
C  19.79200 -2.69600 33.74200
C  16.17200 -2.73300 33.89200
C  16.03700 -2.21500 35.32600
H  17.26500 -1.86900 36.12700
N  18.80600 -4.30100 28.35900
C  19.50700 -4.87700 29.42000
C  20.27900 -5.94700 28.83600
C  20.18200 -5.86200 27.39700
C  19.20700 -4.78800 27.16300
C  21.07500 -6.95400 29.60400
C  20.91100 -6.69600 26.25600
O  20.66200 -6.60600 25.02000
C  21.81200 -7.71500 26.58800
N  17.00900 -2.67900 26.40900
C  17.72500 -3.42900 25.55300
C  17.50100 -2.99400 24.06500
C  16.26700 -2.04100 24.17000
C  16.20200 -1.89200 25.75900
C  18.77800 -2.50000 23.40000
C  14.97300 -2.46900 23.41400
C  14.11600 -1.32700 22.78000
N  16.03900 -1.13700 28.56100
C  15.42500 -0.43000 27.59200
C  14.62500 0.54500 28.18600
C  14.92400 0.49100 29.53000
C  15.78100 -0.54500 29.74400
C  13.72700 1.42100 27.46100
C  14.63700 1.07400 30.79900
O  13.86300 1.98000 31.13900
C  15.47800 0.29800 31.89000
C  16.47400 1.20600 32.54600
O  17.14300 2.06100 32.06800
O  16.35200 1.09400 33.93700
C  16.78900 2.16600 34.78200
H  20.06900 -5.12700 31.44000
H  19.23300 -4.98400 25.19900
H  14.67300 -0.33100 25.60500
H  17.70500 -1.25800 33.50100
H  18.16900 -4.18900 33.29600
H  19.90500 -1.62100 33.87700
H  20.66600 -3.04800 33.19400
H  19.98100 -3.20600 34.68700
H  16.21000 -3.82200 33.90500
H  15.20800 -2.48100 33.44800
H  15.57000 -3.09900 35.76000
H  15.29800 -1.44100 35.11700
H  20.66100 -7.89800 29.24800
H  20.93400 -6.85900 30.68100
H  22.11800 -6.85200 29.30600
H  22.15000 -8.26600 25.71000
H  21.32500 -8.40200 27.27900
H  22.77600 -7.41100 26.99700
H  17.20400 -3.88400 23.50900
H  16.66600 -1.07200 23.86800
H  18.52900 -1.67400 22.73400
H  19.25500 -3.35600 22.92100
H  19.37100 -2.11200 24.22800
H  14.46700 -3.06600 24.17300
H  15.21700 -3.23800 22.68100
H  13.18900 -1.11200 23.31300
H  13.99600 -1.46300 21.70500
H  14.69100 -0.40800 22.88700
H  13.50800 2.31300 28.04900
H  12.76600 0.91800 27.35900
H  14.12100 1.70200 26.48500
H  14.73700 -0.09700 32.58500
H  17.02100 1.75900 35.76600
H  15.87300 2.72400 34.97800
H  17.51000 2.83300 34.31000

