158

Mg 45.75100 3.91200 47.08500
C  43.41800 6.63300 46.54600
C  43.17100 1.79400 46.54000
C  48.01000 1.63700 46.80200
C  48.37700 6.40700 47.13500
N  43.58300 4.23100 46.51600
C  42.81900 5.42300 46.41300
C  41.33900 5.04500 46.00200
C  41.26900 3.51500 46.19600
C  42.71400 3.11800 46.42400
C  40.23400 2.98800 47.23800
C  41.05500 5.48000 44.51400
C  40.34500 6.78000 44.21500
H  40.86900 7.61900 43.02200
N  45.59900 1.96400 46.87100
C  44.41100 1.23800 46.65500
C  44.74400 -0.12300 46.70700
C  46.18600 -0.20100 46.66200
C  46.67700 1.16000 46.82500
C  43.68400 -1.19300 46.55500
C  47.01500 -1.53900 46.60800
O  46.47800 -2.61300 46.56200
C  48.58700 -1.58100 46.70300
N  47.91200 4.03700 46.78300
C  48.61100 2.89000 46.74400
C  50.15500 3.12200 46.75300
C  50.29500 4.63200 46.92500
C  48.76100 5.08600 46.93200
C  50.94400 2.21500 47.68600
C  51.22700 5.36000 45.91400
C  52.52500 5.99400 46.35300
N  45.89800 6.05600 46.94000
C  47.06000 6.86800 47.00900
C  46.64700 8.32300 47.01000
C  45.18600 8.23600 46.91800
C  44.79100 6.88100 46.75700
C  47.46500 9.60500 46.82600
C  43.94300 9.02400 46.88800
O  43.75100 10.22600 47.00400
C  42.76200 8.00400 46.73500
C  41.92800 8.09100 47.99300
O  42.19800 7.58600 49.06300
O  40.86000 8.95400 47.78200
C  40.07300 9.34300 48.97800
H  42.33000 1.10700 46.42900
H  48.80900 0.92300 46.59300
H  49.20800 7.09700 47.29500
H  40.71200 5.67500 46.63400
H  40.87700 2.97300 45.33600
H  39.39400 2.71000 46.60200
H  39.96900 3.82800 47.88000
H  40.66100 2.13000 47.75800
H  40.59700 4.65900 43.96200
H  41.98800 5.52400 43.95200
H  40.31600 7.41400 45.10200
H  39.28600 6.64300 43.99600
H  43.78300 -1.62300 45.55800
H  42.62900 -0.92300 46.60900
H  43.82100 -1.93500 47.34100
H  48.84900 -0.95800 47.55900
H  48.97300 -1.19400 45.76000
H  48.87300 -2.61800 46.87500
H  50.50100 2.88000 45.74800
H  50.73400 4.83200 47.90200
H  50.37600 2.07600 48.60600
H  51.92000 2.67400 47.84300
H  51.13300 1.25400 47.20700
H  50.65100 6.18400 45.49300
H  51.40200 4.69700 45.06600
H  52.28400 7.04100 46.53500
H  53.32300 6.09300 45.61700
H  52.97700 5.49200 47.20800
H  48.33800 9.50300 47.47000
H  46.84100 10.37600 47.27800
H  47.72900 9.76200 45.78000
H  42.18400 8.25700 45.84600
H  40.68500 9.89000 49.69500
H  39.81800 8.44400 49.54100
H  39.19400 9.91200 48.67500
Mg -10.03800 39.68200 39.89200
C  -9.09600 36.33500 39.18200
C  -6.95500 40.70100 38.79700
C  -11.30200 42.92500 39.61300
C  -13.16400 38.59900 40.74100
N  -8.30900 38.57100 38.85900
C  -8.07100 37.24800 38.76300
C  -6.66800 36.95700 38.24900
C  -5.91900 38.34000 38.52300
C  -7.13500 39.23500 38.76300
C  -5.08300 38.30800 39.86400
C  -6.52900 36.38700 36.78200
C  -6.64100 37.28700 35.57500
H  -7.82400 37.16000 34.62900
N  -9.27000 41.50500 39.28500
C  -7.92900 41.71300 38.96200
C  -7.69300 43.12500 38.92900
C  -8.90400 43.77600 39.06900
C  -9.91700 42.73000 39.31900
C  -6.32400 43.77100 38.74400
C  -9.06100 45.34000 38.94200
O  -8.20300 46.10000 38.58000
C  -10.36900 45.95700 39.39600
N  -11.92300 40.66500 40.01900
C  -12.25600 41.98100 39.87600
C  -13.71700 42.39000 40.14400
C  -14.28700 40.95900 40.53500
C  -13.02800 39.98800 40.44600
C  -13.89200 43.52000 41.22500
C  -15.54300 40.61600 39.67400
C  -16.88300 40.84500 40.21600
N  -10.97200 37.82900 40.11100
C  -12.29500 37.56000 40.45700
C  -12.49900 36.13600 40.37400
C  -11.25800 35.62900 39.90100
C  -10.42900 36.68400 39.65400
C  -13.70300 35.33800 40.68300
C  -10.54600 34.39300 39.57100
O  -11.03900 33.26800 39.55300
C  -9.13600 34.76800 39.06000
C  -8.09000 34.04800 39.81800
O  -7.98300 33.99800 41.03100
O  -7.15600 33.61900 38.97600
C  -5.83700 33.10000 39.41300
H  -5.90400 40.96800 38.67300
H  -11.68300 43.93700 39.45900
H  -14.16900 38.32200 41.06500
H  -6.40800 36.14200 38.92400
H  -5.27300 38.75600 37.75100
H  -5.11300 37.32300 40.33000
H  -5.27300 39.04000 40.64900
H  -4.02600 38.56800 39.79400
H  -7.33500 35.65300 36.77400
H  -5.62600 35.77600 36.77100
H  -5.68600 37.15200 35.06800
H  -6.61700 38.30300 35.97100
H  -6.29200 44.20400 37.74400
H  -5.51000 43.05100 38.83100
H  -6.14600 44.59200 39.43900
H  -10.58700 45.71700 40.43700
H  -11.21400 45.82900 38.72000
H  -10.26300 47.04200 39.40900
H  -14.07600 42.78800 39.19500
H  -14.56100 40.96000 41.59000
H  -12.85300 43.69200 41.50500
H  -14.45200 43.21900 42.11000
H  -14.26300 44.42600 40.74500
H  -15.35600 39.64300 39.22000
H  -15.56700 41.34400 38.86400
H  -17.55100 39.98600 40.15900
H  -17.40400 41.69000 39.76500
H  -16.84200 41.01800 41.29100
H  -14.46400 35.34300 39.90200
H  -14.01700 35.74900 41.64200
H  -13.33700 34.31400 40.61700
H  -9.07100 34.49700 38.00600
H  -5.78800 33.18000 40.49900
H  -4.99000 33.54600 38.89300
H  -5.72600 32.04900 39.14400

