158

Mg 17.08400 -1.76400 27.82300
C  15.88000 0.20800 30.47500
C  19.14000 -3.39800 29.91400
C  18.56600 -3.16400 25.09000
C  15.28300 0.38000 25.57100
N  17.63400 -1.48000 29.90400
C  16.90100 -0.66200 30.83200
C  17.30300 -1.01200 32.20900
C  18.50700 -2.04400 32.00000
C  18.48000 -2.28700 30.50800
C  19.89900 -1.55900 32.55400
C  16.17400 -1.60700 33.10500
C  15.91700 -0.87300 34.45100
H  17.14400 -0.18400 35.14900
N  18.48000 -3.22500 27.53700
C  19.22600 -3.78700 28.53900
C  20.00100 -4.87700 27.96300
C  19.82000 -4.90100 26.57500
C  18.96300 -3.68200 26.34800
C  20.91700 -5.68900 28.73100
C  20.40600 -5.81500 25.47700
O  20.28200 -5.57300 24.23300
C  21.26800 -6.96000 25.84100
N  17.11900 -1.25500 25.67100
C  17.74900 -2.07600 24.78800
C  17.40600 -1.67900 23.33900
C  16.31800 -0.59800 23.55000
C  16.20600 -0.50000 25.03900
C  18.67900 -1.23100 22.58700
C  14.99200 -0.95000 22.78100
C  13.92700 -1.90000 23.50700
N  15.80700 -0.12900 27.94500
C  15.01800 0.60400 26.95300
C  14.19100 1.53400 27.71400
C  14.47400 1.38800 29.01300
C  15.46500 0.38200 29.13400
C  13.21100 2.41200 27.04800
C  13.98800 1.88400 30.25600
O  13.17900 2.73100 30.54200
C  14.87600 1.12600 31.32700
C  15.59200 2.14800 32.17400
O  16.75700 2.37200 31.99500
O  14.80300 2.60700 33.18000
C  15.32600 3.50000 34.17600
H  19.47500 -4.12400 30.65800
H  18.96700 -3.70000 24.22700
H  14.80300 0.95400 24.77500
H  17.66700 -0.11200 32.70400
H  18.22500 -2.96400 32.51300
H  19.93300 -0.52400 32.21400
H  20.76000 -2.00100 32.05100
H  19.98400 -1.69600 33.63200
H  16.33000 -2.64900 33.38400
H  15.30600 -1.57400 32.44700
H  15.55200 -1.65300 35.12000
H  15.18300 -0.07800 34.31800
H  21.06500 -5.33300 29.75100
H  21.91400 -5.70600 28.29200
H  20.60800 -6.73300 28.78300
H  21.49700 -7.47200 24.90700
H  20.68600 -7.58200 26.52100
H  22.18400 -6.53900 26.25500
H  16.91300 -2.51400 22.84000
H  16.54900 0.30600 22.98600
H  19.28500 -0.61400 23.25100
H  18.37200 -0.61700 21.74100
H  19.34800 -2.06000 22.35600
H  15.21700 -1.37100 21.80000
H  14.52300 -0.04100 22.40500
H  13.09200 -1.35500 23.94800
H  14.37400 -2.60900 24.20400
H  13.59300 -2.38800 22.59100
H  12.70000 1.91900 26.22100
H  13.83700 3.22500 26.68000
H  12.51900 2.76300 27.81400
H  14.22600 0.48000 31.91800
H  16.35800 3.23800 34.40800
H  14.70200 3.33400 35.05500
H  15.34200 4.52100 33.79500
Mg 30.56400 58.23800 40.60000
C  27.93700 56.07400 39.61800
C  32.76100 55.87400 39.32100
C  32.98400 60.58500 40.64800
C  28.21200 60.83400 40.69800
N  30.32900 56.14300 39.61700
C  29.23600 55.47300 39.30900
C  29.55700 54.13900 38.56500
C  31.04500 53.97200 38.96500
C  31.40100 55.39900 39.37300
C  31.31800 53.07000 40.24400
C  29.35000 54.29400 37.04800
C  28.25700 53.32200 36.46700
H  27.33200 53.92400 35.40700
N  32.64900 58.22300 40.02500
C  33.31800 57.18500 39.44900
C  34.65900 57.61700 39.21400
C  34.76400 58.99800 39.55200
C  33.38700 59.32900 40.10300
C  35.69500 56.79700 38.58300
C  36.01700 59.87200 39.34400
O  37.07000 59.31200 38.95400
C  36.07500 61.40700 39.52800
N  30.53200 60.50900 40.63600
C  31.68800 61.11400 40.88400
C  31.49700 62.55100 41.39800
C  29.93900 62.69400 41.28100
C  29.50800 61.24000 40.88200
C  32.15700 62.80200 42.80700
C  29.42500 63.81700 40.32200
C  28.76200 64.94800 41.13300
N  28.48400 58.44600 40.43800
C  27.66400 59.56100 40.47100
C  26.29900 59.18200 40.38400
C  26.28400 57.77400 40.05000
C  27.69700 57.39300 40.05000
C  25.19500 60.15400 40.42600
C  25.53800 56.61100 39.63900
O  24.33400 56.38400 39.45800
C  26.55100 55.39900 39.52800
C  26.28200 54.43600 40.59500
O  26.11500 54.74300 41.77000
O  26.11200 53.19800 40.09200
C  25.65900 52.15900 40.96400
H  33.40000 55.11900 38.85800
H  33.85900 61.16100 40.95800
H  27.41100 61.56100 40.84000
H  29.06600 53.25700 38.97600
H  31.67400 53.71400 38.11300
H  30.41100 53.14000 40.84500
H  32.21300 53.39300 40.77600
H  31.62500 52.04400 40.04500
H  30.21400 54.12000 36.40700
H  29.00500 55.31000 36.85600
H  27.60600 53.03500 37.29200
H  28.81300 52.54900 35.93800
H  36.72700 57.07700 38.79400
H  35.49200 56.84900 37.51300
H  35.63800 55.73600 38.82300
H  36.28900 61.63900 40.57200
H  35.05700 61.77700 39.40600
H  36.85400 61.98900 39.03600
H  32.15300 63.17900 40.79500
H  29.44200 62.84000 42.24000
H  32.73400 61.91100 43.05500
H  31.28900 62.94700 43.45100
H  32.70800 63.74000 42.74200
H  28.65500 63.46600 39.63500
H  30.27200 64.20400 39.75700
H  28.64100 65.79500 40.45800
H  29.35900 65.21000 42.00700
H  27.74600 64.65000 41.39200
H  25.12900 60.50700 41.45500
H  24.34700 59.51400 40.18500
H  25.22800 61.02200 39.76700
H  26.55200 54.84800 38.58700
H  25.49600 51.31700 40.29100
H  24.80200 52.58400 41.48600
H  26.43300 51.81900 41.65100

