158

Mg 42.99300 42.11800 25.76600
C  42.55600 44.11000 28.69700
C  44.50600 39.81800 27.95200
C  43.93200 40.33300 23.15300
C  41.94300 44.77100 23.83100
N  43.39300 41.99800 28.09800
C  43.11100 42.85300 29.04700
C  43.56900 42.46100 30.48100
C  44.43800 41.24900 30.13200
C  44.13400 40.96800 28.66600
C  45.93800 41.42100 30.45100
C  42.34700 42.14300 31.38300
C  42.24000 42.96100 32.70400
H  40.83100 43.43200 33.14400
N  43.88800 40.16400 25.57600
C  44.33900 39.40700 26.61500
C  44.85200 38.15200 26.12600
C  44.71600 38.20800 24.65600
C  44.22400 39.59300 24.35400
C  45.22000 36.95500 27.00200
C  44.88200 37.17100 23.63000
O  44.60800 37.40300 22.45400
C  45.40900 35.72900 23.92400
N  42.95200 42.50200 23.88700
C  43.40400 41.61100 22.93800
C  43.19700 42.01100 21.46800
C  42.30800 43.21400 21.68300
C  42.39200 43.56700 23.25100
C  44.44700 42.21000 20.62700
C  40.85400 43.04000 21.18600
C  39.92200 42.08900 21.97600
N  42.27800 44.03400 26.15900
C  41.93700 45.02900 25.18900
C  41.46400 46.22900 25.94700
C  41.78300 45.92200 27.31500
C  42.22800 44.53800 27.35500
C  41.22800 47.58000 25.43600
C  41.58600 46.39900 28.65800
O  41.12900 47.44900 29.09200
C  42.05200 45.29700 29.60200
C  43.10900 45.76400 30.47500
O  44.28700 45.63700 30.24600
O  42.64200 46.22400 31.67000
C  43.65500 46.67500 32.63400
H  44.98700 39.11400 28.63400
H  44.20800 39.80700 22.23700
H  41.62300 45.53700 23.12300
H  44.08300 43.27100 31.00100
H  44.14400 40.43800 30.79800
H  46.39500 40.45100 30.64200
H  46.05200 42.01500 31.35800
H  46.49900 41.84400 29.61700
H  42.34000 41.10900 31.72700
H  41.37900 42.22300 30.88800
H  42.97700 43.76400 32.69200
H  42.53600 42.33700 33.54800
H  46.30600 36.86500 27.00700
H  44.64800 36.09900 26.64300
H  44.96900 37.01000 28.06200
H  45.63100 35.11400 23.05200
H  44.53500 35.25800 24.37500
H  46.27400 35.77500 24.58600
H  42.59900 41.27700 20.92800
H  42.74300 44.11900 21.25900
H  45.28600 41.85300 21.22400
H  44.78000 43.22300 20.40200
H  44.35800 41.66600 19.68700
H  40.92700 42.67900 20.16000
H  40.42900 44.04400 21.15600
H  39.15400 41.65000 21.33900
H  39.53900 42.66900 22.81500
H  40.52000 41.31300 22.45500
H  40.97000 47.52600 24.37900
H  42.05300 48.27500 25.59400
H  40.30400 47.90900 25.91200
H  41.26800 44.88200 30.23500
H  44.00300 45.84100 33.24300
H  43.07700 47.34700 33.27000
H  44.39100 47.40100 32.28800
Mg -12.01300 16.76000 41.49700
C  -9.04200 14.91900 41.07400
C  -10.49300 19.42800 40.11600
C  -14.99000 18.05800 41.26000
C  -13.53100 13.52200 42.16100
N  -10.10600 17.01600 40.59800
C  -8.93800 16.19600 40.65100
C  -7.65400 16.82100 40.09100
C  -8.21000 18.29000 39.82000
C  -9.71400 18.25200 40.18300
C  -7.50800 19.49800 40.43700
C  -7.30500 16.17200 38.69000
C  -5.97000 15.32700 38.59600
H  -5.02500 15.70300 37.47800
N  -12.64300 18.59200 40.83600
C  -11.86200 19.55300 40.36100
C  -12.71900 20.73600 40.13200
C  -14.01700 20.33400 40.44400
C  -13.91000 18.91200 40.89500
C  -12.25200 22.07100 39.61300
C  -15.18800 21.27400 40.39100
O  -15.10100 22.44600 39.95000
C  -16.63400 20.86900 40.72400
N  -13.93800 15.90800 41.83000
C  -15.05000 16.70600 41.65100
C  -16.38900 15.93600 41.85600
C  -15.80700 14.58400 42.28800
C  -14.33100 14.69600 42.07800
C  -17.39100 16.55100 42.79800
C  -16.34300 13.32500 41.51800
C  -16.75300 12.21600 42.52200
N  -11.45300 14.64400 41.67300
C  -12.14500 13.50400 41.96200
C  -11.30000 12.39000 42.15700
C  -10.05700 12.96500 41.86900
C  -10.22000 14.31500 41.54200
C  -11.60300 10.98500 42.47200
C  -8.65300 12.57500 41.67100
O  -8.14600 11.48800 41.80000
C  -7.99300 13.82100 41.25700
C  -7.05400 14.09700 42.33400
O  -7.23700 14.61000 43.43700
O  -5.79200 13.62000 41.92600
C  -4.70000 14.24100 42.67300
H  -10.02400 20.37800 39.85200
H  -15.98100 18.51300 41.21300
H  -14.01800 12.61700 42.53100
H  -6.78400 16.82000 40.74800
H  -8.21700 18.52000 38.75400
H  -7.58900 20.33500 39.74300
H  -6.50000 19.33000 40.81800
H  -7.98600 19.77200 41.37800
H  -7.37100 16.88000 37.86400
H  -8.09100 15.53500 38.28500
H  -6.21000 14.29200 38.35200
H  -5.43000 15.47700 39.53100
H  -12.30800 22.07000 38.52400
H  -11.18300 22.28200 39.65500
H  -12.67900 22.99800 39.99500
H  -17.25900 21.76100 40.77200
H  -16.68400 20.35600 41.68400
H  -16.95200 20.17300 39.94800
H  -16.85200 15.83400 40.87500
H  -15.98000 14.52400 43.36300
H  -18.39700 16.67300 42.39700
H  -16.93300 17.47700 43.14600
H  -17.49600 15.93000 43.68700
H  -15.76800 12.92700 40.68100
H  -17.27800 13.63100 41.04800
H  -17.28800 11.40500 42.02800
H  -17.27800 12.58500 43.40400
H  -15.85700 11.68800 42.84900
H  -10.69300 10.38900 42.54000
H  -12.16200 10.43200 41.71700
H  -12.10700 10.96600 43.43900
H  -7.51000 13.71200 40.28600
H  -4.00100 14.23000 41.83700
H  -4.36300 13.60600 43.49200
H  -4.78700 15.27100 43.01800

