158

Mg 9.23600 2.80500 27.83500
C  10.20900 1.21000 30.76600
C  7.11600 4.74200 29.90300
C  7.91200 4.10400 25.06300
C  10.38100 0.01500 26.06600
N  8.73700 2.91900 30.17900
C  9.40200 2.30600 31.14700
C  8.97200 2.84100 32.51700
C  7.87700 3.85900 32.18400
C  7.90600 3.86600 30.63300
C  6.36700 3.66100 32.74500
C  10.24100 3.44700 33.31600
C  10.03500 4.33100 34.54600
H  10.85900 3.95300 35.76800
N  7.88300 4.34600 27.54300
C  7.09000 5.00400 28.50500
C  6.32200 5.95900 27.86800
C  6.52100 5.76800 26.40900
C  7.48800 4.70900 26.29900
C  5.33700 6.88800 28.56800
C  5.95400 6.54600 25.20700
O  6.12100 6.26000 24.00400
C  5.10200 7.79600 25.52400
N  9.11600 2.12200 25.81100
C  8.60900 2.87400 24.82200
C  8.92800 2.33200 23.41300
C  9.57000 0.92000 23.76300
C  9.72600 0.99300 25.29500
C  7.75800 2.33600 22.41000
C  10.77000 0.38100 22.98000
C  10.60100 -1.00000 22.34900
N  10.30000 1.07000 28.20200
C  10.72000 0.07900 27.42600
C  11.55700 -0.80600 28.14800
C  11.43000 -0.40000 29.48600
C  10.49800 0.67500 29.48300
C  12.35200 -1.98100 27.51500
C  11.85900 -0.68200 30.89300
O  12.68700 -1.50200 31.31700
C  10.99400 0.31300 31.80700
C  10.17000 -0.28500 32.81900
O  9.46000 -1.24600 32.69100
O  10.59700 0.18500 34.02800
C  10.08500 -0.53600 35.26000
H  6.66100 5.39700 30.64900
H  7.66200 4.53000 24.08900
H  10.75400 -0.80200 25.44400
H  8.67600 2.01600 33.16500
H  8.14000 4.87600 32.47600
H  5.65000 3.76400 31.93000
H  6.15800 4.46200 33.45400
H  6.45500 2.69400 33.24000
H  10.86800 4.08200 32.69000
H  10.95900 2.68000 33.60400
H  8.97800 4.47900 34.76800
H  10.33400 5.36200 34.35900
H  4.40000 6.79800 28.01900
H  5.74600 7.89100 28.68200
H  5.04500 6.60000 29.57700
H  4.14900 7.53000 25.98000
H  4.95100 8.29800 24.56900
H  5.78300 8.34100 26.17900
H  9.64700 2.99400 22.93100
H  8.68300 0.28700 23.75700
H  6.85200 2.69200 22.90100
H  7.60600 1.28100 22.18300
H  8.04600 2.85000 21.49300
H  11.61500 0.37400 23.66900
H  10.99400 1.06600 22.16300
H  10.74600 -0.88200 21.27500
H  9.66100 -1.48700 22.60600
H  11.37300 -1.72000 22.62200
H  11.69800 -2.52300 26.83300
H  12.48600 -2.56600 28.42500
H  13.33500 -1.70600 27.13300
H  11.58200 1.00900 32.40700
H  10.74900 -1.35100 35.54800
H  9.12100 -1.03900 35.17800
H  9.95300 0.12900 36.11400
Mg 40.83000 41.53100 26.75800
C  40.25000 43.90500 29.28100
C  41.79700 39.32800 29.14800
C  41.84900 39.41500 24.26400
C  39.93300 44.00000 24.34500
N  40.86100 41.56500 29.00800
C  40.60600 42.66700 29.76300
C  40.70900 42.25000 31.22500
C  41.26800 40.77100 31.21600
C  41.32600 40.54700 29.73000
C  42.64300 40.39100 31.90800
C  39.32800 42.43000 31.95400
C  39.18000 41.66800 33.22300
H  38.73500 42.53500 34.44000
N  41.57500 39.59700 26.67600
C  42.00500 38.84400 27.81800
C  42.55900 37.63700 27.30100
C  42.61000 37.70300 25.90900
C  42.02900 38.97300 25.58800
C  42.87400 36.45900 28.19500
C  43.13200 36.66600 24.85600
O  42.98400 36.82500 23.67500
C  43.75500 35.46600 25.40900
N  40.83800 41.73000 24.60100
C  41.13400 40.59600 23.80900
C  40.89300 40.93600 22.33600
C  40.05700 42.28300 22.43700
C  40.15100 42.70100 23.87300
C  42.25800 41.21000 21.60000
C  38.58300 42.17700 21.93800
C  37.42900 41.73600 22.88300
N  40.25100 43.60400 26.74200
C  39.97700 44.46500 25.75000
C  39.66900 45.77200 26.28100
C  39.71000 45.57900 27.68000
C  40.15200 44.29500 27.92600
C  39.34700 47.06800 25.48000
C  39.70900 46.28100 28.95900
O  39.42300 47.38500 29.31500
C  39.95200 45.14800 30.04600
C  41.11500 45.61700 30.76600
O  42.23900 45.61200 30.29400
O  40.77200 46.28600 31.89300
C  41.85200 46.94300 32.56100
H  41.95100 38.53200 29.88000
H  42.06800 38.82000 23.37500
H  39.56700 44.72300 23.61400
H  41.54100 42.86500 31.56900
H  40.47200 40.11300 31.56300
H  42.52600 39.57300 32.61900
H  43.00100 41.23700 32.49500
H  43.40900 40.10000 31.19000
H  38.59600 42.13200 31.20200
H  39.26400 43.48600 32.21400
H  40.07400 41.11200 33.50700
H  38.45100 40.88800 33.00500
H  42.14200 35.72200 27.86600
H  42.69300 36.70900 29.24100
H  43.93500 36.39900 27.95400
H  42.89400 34.91900 25.79300
H  44.56500 35.73800 26.08600
H  44.06100 34.81000 24.59400
H  40.20800 40.26600 21.81800
H  40.52900 43.03200 21.80000
H  43.10100 41.01000 22.26100
H  42.27200 42.12500 21.00700
H  42.31200 40.46100 20.81000
H  38.54200 41.41300 21.16100
H  38.37300 43.14100 21.47300
H  36.78900 42.60100 23.05700
H  37.86200 41.39800 23.82400
H  36.91100 40.86700 22.47600
H  39.06300 46.83500 24.45400
H  40.26400 47.65100 25.40000
H  38.51900 47.58700 25.96300
H  39.10600 45.17600 30.73300
H  42.21800 47.77000 31.95200
H  42.70000 46.32900 32.86500
H  41.38100 47.39300 33.43500

