158

Mg 26.23300 1.63000 29.68600
C  28.23900 1.17200 32.58200
C  23.51400 2.34500 31.69100
C  24.27700 1.74900 26.94700
C  28.95100 0.48900 27.81200
N  26.00000 1.84700 31.90100
C  26.93600 1.65300 32.86700
C  26.29600 1.90900 34.23000
C  24.77100 2.18300 33.84900
C  24.76400 2.07700 32.38300
C  23.72700 1.28300 34.54700
C  26.88000 2.96800 35.20000
C  26.09400 3.21700 36.50700
H  27.02200 3.34300 37.81400
N  24.18400 1.80000 29.34400
C  23.26900 2.27000 30.32300
C  21.93500 2.40300 29.71200
C  22.13000 2.05200 28.33500
C  23.58800 1.85900 28.16200
C  20.76700 2.74200 30.61400
C  21.14800 1.90300 27.20800
O  21.49100 1.58000 26.07700
C  19.74200 2.19700 27.43000
N  26.60200 1.29700 27.57500
C  25.62200 1.46000 26.67500
C  26.04700 0.90800 25.34500
C  27.55600 0.57000 25.55900
C  27.74600 0.77100 27.06900
C  25.08800 -0.16700 24.68900
C  28.62200 1.36200 24.69900
C  29.18500 0.59500 23.57400
N  28.17100 1.03500 30.03300
C  29.18500 0.69400 29.17600
C  30.41000 0.41700 29.92200
C  30.08700 0.63600 31.27200
C  28.67300 0.95300 31.30200
C  31.81600 0.02300 29.31600
C  30.58900 0.71200 32.60600
O  31.78100 0.57100 33.01100
C  29.43100 1.03300 33.49400
C  29.31600 -0.22800 34.39300
O  28.56000 -1.22300 34.13200
O  30.14400 -0.15800 35.43100
C  30.07200 -1.21200 36.43800
H  22.68100 2.68000 32.31200
H  23.86800 1.86900 25.94100
H  29.76400 -0.01400 27.28400
H  26.24400 0.94800 34.74200
H  24.66600 3.18600 34.26100
H  24.14000 1.12800 35.54400
H  23.63500 0.30100 34.08200
H  22.80900 1.80600 34.81600
H  27.12000 3.80000 34.53900
H  27.84700 2.59500 35.53900
H  25.32200 2.49500 36.77500
H  25.58500 4.17100 36.36900
H  20.37400 3.61100 30.08500
H  20.81900 3.02500 31.66600
H  20.03200 1.97000 30.38900
H  19.20500 1.91700 26.52400
H  19.57800 3.26400 27.57600
H  19.36700 1.61800 28.27500
H  26.03500 1.77700 24.68700
H  27.71500 -0.49400 25.38400
H  24.39900 0.36300 24.03100
H  24.61200 -0.73700 25.48700
H  25.72500 -0.90200 24.19700
H  29.28000 1.81700 25.43900
H  28.16900 2.14800 24.09500
H  30.23700 0.35100 23.72600
H  29.26800 1.13300 22.63000
H  28.72700 -0.37400 23.37700
H  32.33300 0.86500 28.85700
H  31.62200 -0.77700 28.60200
H  32.46300 -0.32200 30.12300
H  29.56700 1.87300 34.17500
H  30.20800 -2.16300 35.92300
H  29.17200 -1.07300 37.03700
H  30.96900 -1.06800 37.04000
Mg 50.18100 46.39500 43.03800
C  46.75600 46.73700 42.31400
C  50.09100 43.44800 41.37900
C  53.60500 46.39900 43.29300
C  50.13700 49.80500 44.10500
N  48.64800 45.23900 41.93200
C  47.29400 45.55300 41.85600
C  46.54000 44.53000 41.07400
C  47.52100 43.32500 41.18900
C  48.85700 43.97100 41.52000
C  47.22900 42.17600 42.32100
C  46.08700 44.89100 39.62200
C  44.55900 44.81900 39.36900
H  44.01200 43.85400 38.28300
N  51.64400 44.90800 42.52400
C  51.37800 43.79300 41.83000
C  52.57300 43.08600 41.78600
C  53.60300 43.85800 42.43600
C  52.99900 45.16100 42.79600
C  52.61900 41.65400 41.26700
C  55.10900 43.47500 42.53500
O  55.41900 42.34300 42.24200
C  56.28800 44.41900 42.88900
N  51.65100 47.94700 43.51900
C  52.97000 47.60100 43.68100
C  53.73400 48.72300 44.33500
C  52.61500 49.84500 44.56000
C  51.35900 49.11400 44.06800
C  54.51400 48.35300 45.65700
C  52.88500 51.16400 43.74500
C  52.90700 52.55900 44.54400
N  48.70700 48.11400 43.17100
C  48.84400 49.39700 43.65600
C  47.49800 49.92300 43.77200
C  46.61800 48.93900 43.22400
C  47.43000 47.86600 42.87600
C  47.15100 51.24800 44.31500
C  45.17500 48.60200 42.92900
O  44.11000 49.21000 43.14300
C  45.27300 47.21400 42.17100
C  44.21200 46.25800 42.76400
O  43.14700 46.03000 42.25600
O  44.63600 45.78600 43.93700
C  43.80700 44.72200 44.48300
H  50.11500 42.46100 40.91400
H  54.66700 46.48400 43.53100
H  50.18100 50.80100 44.54900
H  45.63600 44.11100 41.51600
H  47.66100 42.78400 40.25300
H  46.32300 42.27600 42.91900
H  47.97300 42.09400 43.11300
H  47.13500 41.25700 41.74200
H  46.50000 44.07300 39.03300
H  46.56600 45.86200 39.49700
H  44.33800 45.84700 39.08200
H  43.98900 44.42400 40.20900
H  52.51100 41.65300 40.18300
H  51.76200 41.18600 41.75200
H  53.44400 40.99800 41.54700
H  56.24400 44.66500 43.95000
H  56.20100 45.29900 42.25200
H  57.20800 43.90100 42.61600
H  54.51400 49.14200 43.69900
H  52.38200 50.04100 45.60600
H  54.10600 47.36400 45.86800
H  54.35800 49.10500 46.43000
H  55.59100 48.23000 45.53700
H  52.24300 51.34600 42.88400
H  53.83100 50.97400 43.23800
H  53.91500 52.95100 44.40700
H  52.79700 52.41500 45.61900
H  52.22500 53.33000 44.18700
H  47.70200 51.99200 43.74100
H  47.50600 51.31000 45.34300
H  46.06400 51.33300 44.34300
H  45.02100 47.39300 41.12600
H  42.75100 44.98900 44.53300
H  44.14200 44.38300 45.46300
H  43.99500 43.84600 43.86200

