158

Mg 49.46300 35.43000 26.77600
C  47.43900 33.98700 29.17200
C  49.22300 38.52500 28.53000
C  50.93900 37.05100 24.15300
C  49.06400 32.61900 24.91300
N  48.47000 36.18600 28.56800
C  47.84700 35.29900 29.49500
C  47.85300 35.99900 30.88600
C  48.12800 37.44000 30.60700
C  48.63600 37.37600 29.15200
C  46.93300 38.43500 30.82200
C  49.08600 35.43700 31.62500
C  49.09600 35.30900 33.18800
H  47.95300 36.14800 33.76200
N  50.10800 37.42800 26.52100
C  49.92500 38.48300 27.34600
C  50.72500 39.62900 26.79300
C  51.30300 39.17500 25.62200
C  50.77100 37.85600 25.41600
C  50.76800 40.91100 27.53500
C  52.26100 39.92800 24.67500
O  52.74400 39.39200 23.66300
C  52.82300 41.27800 25.07500
N  49.90800 34.91900 24.81700
C  50.65300 35.70400 23.92900
C  50.87600 35.03600 22.54700
C  50.58800 33.54000 22.97100
C  49.73600 33.64200 24.26300
C  50.12500 35.59400 21.43100
C  51.86900 32.56300 23.16500
C  51.76500 31.14700 22.62500
N  48.49400 33.61800 26.97500
C  48.48500 32.54400 26.14600
C  47.52400 31.60000 26.57600
C  47.12600 32.10600 27.85000
C  47.71700 33.34700 27.98800
C  47.12400 30.25600 26.00600
C  46.29800 31.82000 29.01700
O  45.64600 30.84200 29.36100
C  46.41000 33.09700 29.95100
C  46.81800 32.69700 31.28300
O  47.90900 32.39100 31.71800
O  45.67700 32.68600 32.00600
C  45.69400 32.32000 33.40500
H  49.29300 39.45300 29.10100
H  51.35200 37.42700 23.21500
H  48.92500 31.78300 24.22400
H  46.90900 35.85500 31.41000
H  48.92300 37.78800 31.26600
H  47.15000 38.91300 31.77700
H  45.97100 37.93500 30.70800
H  46.88300 39.21800 30.06500
H  49.96400 36.05800 31.44400
H  49.31000 34.46100 31.19300
H  50.05400 35.64100 33.58700
H  48.89300 34.29900 33.54400
H  50.68400 41.78800 26.89400
H  51.76900 40.84900 27.96300
H  50.01200 41.06100 28.30600
H  53.47200 41.64600 24.28000
H  53.35800 41.01000 25.98600
H  52.07100 42.06100 25.17600
H  51.94400 35.09400 22.33500
H  49.89800 33.14400 22.22600
H  49.62600 36.51700 21.72600
H  49.38200 34.89600 21.04500
H  50.81600 35.97400 20.67800
H  52.15200 32.41500 24.20700
H  52.57000 33.12700 22.55000
H  50.72800 30.92500 22.37400
H  52.17000 30.49400 23.39800
H  52.26400 31.07400 21.65800
H  47.96100 29.81400 25.46600
H  46.24900 30.51100 25.40900
H  46.83400 29.57600 26.80700
H  45.39900 33.49400 30.03700
H  45.64300 31.23300 33.34200
H  44.85800 32.73500 33.96700
H  46.65200 32.62200 33.82900
Mg -2.08900 34.36300 26.93500
C  -3.63000 32.54100 29.48800
C  -0.74400 36.41800 29.27100
C  -0.72900 36.01400 24.40600
C  -3.94800 32.43300 24.61400
N  -2.30600 34.64500 29.16500
C  -2.75500 33.57700 29.94900
C  -2.42900 33.89200 31.39100
C  -1.67100 35.29300 31.38600
C  -1.55300 35.50500 29.85600
C  -2.17700 36.45800 32.21500
C  -1.74300 32.68800 32.14300
C  -1.35200 32.88600 33.64200
H  -1.83900 31.88600 34.71900
N  -0.93900 35.95500 26.79200
C  -0.46200 36.67900 27.87500
C  0.47600 37.60500 27.33200
C  0.61300 37.42100 25.97100
C  -0.30600 36.40700 25.62500
C  1.11300 38.52700 28.33100
C  1.45100 38.22200 24.94600
O  1.41400 38.03500 23.76700
C  2.40700 39.21500 25.38200
N  -2.42000 34.28100 24.78500
C  -1.70800 35.07000 23.98300
C  -1.90100 34.73500 22.48100
C  -2.94800 33.55900 22.52100
C  -3.22900 33.44200 24.02900
C  -2.35400 36.00800 21.74700
C  -2.46600 32.18200 21.89500
C  -1.33400 31.39300 22.52200
N  -3.53000 32.83000 27.00200
C  -4.03400 32.07300 25.96600
C  -4.91700 31.09800 26.48200
C  -4.83300 31.24400 27.87700
C  -3.89200 32.27400 28.13200
C  -5.71000 30.10900 25.69800
C  -5.31400 30.77300 29.13700
O  -6.15500 29.97500 29.41700
C  -4.45900 31.49600 30.24700
C  -5.29300 32.08700 31.26600
O  -5.92500 33.10300 30.97600
O  -5.32700 31.38800 32.47900
C  -6.44700 31.73200 33.37200
H  -0.34000 37.04700 30.06600
H  -0.39000 36.60900 23.55500
H  -4.56100 31.79400 23.97400
H  -3.39300 34.14100 31.83600
H  -0.70500 35.06300 31.83400
H  -2.91500 36.06000 32.91100
H  -2.73400 36.99400 31.44700
H  -1.53700 37.17400 32.73000
H  -0.93800 32.32200 31.50700
H  -2.51000 31.91300 32.14300
H  -1.85000 33.82200 33.89600
H  -0.26600 32.94500 33.71200
H  1.93900 39.12500 27.94600
H  1.52700 37.89500 29.11700
H  0.31500 39.06900 28.83800
H  1.95600 40.14100 25.73800
H  2.89700 39.59400 24.48500
H  3.14000 38.86100 26.10700
H  -0.95500 34.41400 22.04600
H  -3.89500 33.88200 22.09000
H  -2.42700 36.87300 22.40500
H  -3.31600 35.89700 21.24600
H  -1.56800 36.17600 21.01000
H  -2.07700 32.54100 20.94100
H  -3.35800 31.56600 21.78800
H  -0.54200 31.29300 21.77900
H  -1.75400 30.43200 22.81700
H  -0.84400 31.81100 23.40100
H  -6.63200 30.48300 25.25200
H  -5.86200 29.19100 26.26600
H  -5.02100 29.69500 24.96200
H  -3.80200 30.79200 30.75800
H  -6.56400 32.80900 33.48600
H  -6.26000 31.30500 34.35700
H  -7.35000 31.21500 33.04700

