158

Mg 8.59000 3.06900 27.59600
C  9.84100 1.57800 30.52600
C  6.64400 5.01700 29.66100
C  7.18400 4.34300 24.92200
C  10.15400 0.58000 25.79200
N  8.13900 3.04200 29.87400
C  8.90900 2.42700 30.86400
C  8.58600 2.90000 32.29900
C  7.33000 3.94600 31.98400
C  7.41000 4.03500 30.40300
C  5.92500 3.66300 32.57200
C  9.85700 3.55700 32.92200
C  9.62000 4.31600 34.24000
H  10.49100 4.07700 35.45300
N  7.21100 4.54100 27.35300
C  6.52100 5.25800 28.30600
C  5.70200 6.27200 27.68500
C  5.91100 6.15000 26.28100
C  6.79900 4.96800 26.10900
C  4.83400 7.20800 28.38200
C  5.27500 6.91900 25.21100
O  5.46400 6.68400 24.03800
C  4.21400 7.85200 25.44800
N  8.67800 2.55000 25.70900
C  8.02400 3.23000 24.71800
C  8.28300 2.54600 23.24400
C  9.27700 1.41500 23.62600
C  9.40100 1.54700 25.15300
C  6.99100 1.97900 22.58700
C  10.55200 1.49900 22.78300
C  10.94500 0.13500 22.18200
N  9.80200 1.38700 27.98800
C  10.36900 0.47100 27.14600
C  11.21300 -0.49100 27.84500
C  11.02500 -0.09600 29.21500
C  10.19500 1.06800 29.21100
C  12.10000 -1.64600 27.28000
C  11.30800 -0.47400 30.56600
O  12.07300 -1.34900 30.96900
C  10.54900 0.54700 31.44000
C  9.73500 -0.18100 32.37900
O  8.87000 -1.03600 32.07700
O  10.14200 0.20000 33.64400
C  9.44500 -0.60100 34.73400
H  6.06100 5.66800 30.31600
H  6.76300 4.72300 23.98900
H  10.74600 -0.01200 25.09100
H  8.25800 2.08600 32.94700
H  7.56100 4.92200 32.41100
H  5.74800 4.43800 33.31800
H  5.96400 2.73900 33.14900
H  5.15700 3.70100 31.80000
H  10.26900 4.31100 32.25200
H  10.61500 2.81000 33.15600
H  8.57700 4.34500 34.55600
H  9.79900 5.35600 33.96700
H  4.79000 7.03500 29.45800
H  3.78700 7.06700 28.11300
H  5.11500 8.18700 27.99400
H  4.58300 8.70500 26.01700
H  3.42300 7.32200 25.97800
H  3.66000 8.18500 24.57100
H  8.71500 3.29300 22.57800
H  8.72700 0.49700 23.41600
H  6.24800 1.88100 23.37800
H  7.06200 0.98300 22.14900
H  6.55100 2.65300 21.85300
H  11.39300 1.64700 23.46000
H  10.45100 2.29300 22.04300
H  11.69800 -0.32400 22.82200
H  11.43100 0.43300 21.25300
H  10.06600 -0.49200 22.03300
H  11.81900 -1.86000 26.24900
H  11.99100 -2.60000 27.79600
H  13.14000 -1.33300 27.36800
H  11.33600 0.98900 32.05200
H  9.99600 -1.53900 34.79800
H  8.40100 -0.82400 34.51400
H  9.38500 -0.08400 35.69200
Mg 17.07200 51.77400 25.50000
C  18.72500 50.31100 28.38500
C  14.52500 52.38700 27.63800
C  15.47400 52.87800 22.93400
C  19.61600 50.45800 23.57400
N  16.79800 51.55900 27.81900
C  17.60700 50.97700 28.76800
C  17.05700 51.23200 30.19600
C  15.57200 51.78700 29.85300
C  15.57400 51.90700 28.34900
C  14.36800 51.03200 30.44600
C  18.03300 52.32100 30.90500
C  18.05600 52.37600 32.41600
H  17.15900 51.35200 33.13700
N  15.25700 52.51400 25.29100
C  14.32200 52.74700 26.25200
C  13.10800 53.38800 25.70200
C  13.36200 53.55400 24.28200
C  14.67200 52.91300 24.06800
C  12.00700 53.91200 26.50100
C  12.54700 54.32400 23.30600
O  12.80800 54.48300 22.11700
C  11.35300 55.14800 23.77400
N  17.41000 51.60200 23.46400
C  16.63800 52.17100 22.54100
C  17.29300 52.15500 21.18000
C  18.73200 51.51400 21.48300
C  18.51400 51.08500 22.91100
C  16.40200 51.59900 20.00800
C  19.98400 52.42800 21.27700
C  20.95100 52.00400 20.09400
N  18.72900 50.58600 25.82300
C  19.72400 50.14000 24.91500
C  20.72400 49.42100 25.56000
C  20.36800 49.46300 26.92800
C  19.13200 50.17100 27.02600
C  21.88200 48.78600 24.86300
C  20.81600 49.04300 28.29300
O  21.83900 48.49000 28.63400
C  19.69900 49.52300 29.26400
C  19.13200 48.28900 29.99800
O  18.80200 47.24400 29.46300
O  19.18100 48.48600 31.32700
C  18.88300 47.27100 32.12400
H  13.66800 52.56100 28.29200
H  14.93500 53.32700 22.09700
H  20.55900 50.30700 23.04400
H  17.00000 50.37100 30.86200
H  15.50400 52.78600 30.28600
H  13.64300 51.65400 30.97000
H  14.73400 50.27300 31.13800
H  13.87600 50.46500 29.65500
H  17.58300 53.28400 30.66500
H  19.01500 52.26400 30.43500
H  17.82500 53.40600 32.68900
H  19.07800 52.06600 32.63200
H  12.07200 54.99500 26.39300
H  12.20300 53.64900 27.54000
H  11.02400 53.55900 26.18800
H  10.85300 55.67600 22.96200
H  11.74500 55.91000 24.44800
H  10.62500 54.48800 24.24500
H  17.34600 53.23900 21.07300
H  18.81900 50.65300 20.82000
H  15.68900 50.96800 20.53800
H  17.04600 51.02100 19.34500
H  16.02800 52.42200 19.39900
H  20.57500 52.43200 22.19300
H  19.62300 53.45500 21.21100
H  20.78200 52.74800 19.31600
H  20.92900 51.01300 19.63900
H  21.98900 52.08400 20.41700
H  22.01600 49.20500 23.86500
H  21.73100 47.70800 24.80000
H  22.84900 49.04800 25.29200
H  20.16700 50.15300 30.02100
H  17.94100 46.82300 31.80600
H  18.96000 47.39900 33.20300
H  19.63400 46.50200 31.94300

