158

Mg 26.43200 -0.10800 28.60700
C  27.88300 -0.61200 31.78900
C  23.44100 0.01200 30.30400
C  25.04500 0.26300 25.71500
C  29.50700 -1.11000 27.09700
N  25.69000 -0.47800 30.85700
C  26.53100 -0.42900 31.93700
C  25.78800 -0.21300 33.28200
C  24.32400 -0.19000 32.77800
C  24.42700 -0.29100 31.22600
C  23.41600 -1.33400 33.28300
C  26.33600 1.01600 34.11700
C  26.77300 0.75300 35.58000
H  26.57600 1.87500 36.62400
N  24.55400 0.13100 28.05900
C  23.43200 0.21900 28.90500
C  22.26100 0.59700 28.11000
C  22.70600 0.68100 26.78200
C  24.14200 0.41900 26.79800
C  20.84800 0.72700 28.65700
C  21.85900 0.93300 25.47200
O  22.44200 0.99900 24.39500
C  20.36100 1.03300 25.52100
N  27.16200 -0.23000 26.63900
C  26.36700 -0.05800 25.61400
C  27.17900 -0.04200 24.32000
C  28.45300 -0.80700 24.75400
C  28.41700 -0.72300 26.26300
C  26.40300 -0.76500 23.15900
C  29.71300 -0.09600 24.17000
C  30.93300 -1.00500 23.84800
N  28.31300 -0.66400 29.24600
C  29.41500 -1.05700 28.53200
C  30.48900 -1.21600 29.42600
C  29.99900 -1.00200 30.69400
C  28.60700 -0.78800 30.57400
C  31.99000 -1.55900 29.14200
C  30.35200 -1.01400 32.12800
O  31.40400 -1.29600 32.67800
C  29.00900 -0.72800 32.84600
C  28.81900 -1.84700 33.83100
O  28.14200 -2.88800 33.63900
O  29.45500 -1.48700 35.01500
C  29.11500 -2.25200 36.21000
H  22.53400 0.08800 30.90800
H  24.51100 0.32400 24.76400
H  30.41700 -1.45200 26.60100
H  26.16400 -1.10400 33.78400
H  23.90400 0.80100 32.95000
H  22.55100 -0.95800 33.82900
H  23.92000 -1.99600 33.98800
H  23.00200 -1.90900 32.45400
H  25.54600 1.76700 34.13300
H  27.20700 1.59500 33.80900
H  27.83600 0.52900 35.67100
H  26.26800 -0.09100 36.04900
H  20.10500 0.09700 28.16800
H  20.47500 1.73100 28.45500
H  20.69800 0.51200 29.71500
H  20.02300 1.87400 26.12600
H  20.10400 0.06300 25.94800
H  20.06400 1.22900 24.49100
H  27.40500 0.98600 24.03900
H  28.45100 -1.85700 24.45800
H  26.95900 -1.67400 22.93200
H  26.34900 -0.07700 22.31500
H  25.39500 -1.07600 23.43500
H  30.11800 0.61800 24.88700
H  29.51800 0.40500 23.22200
H  31.04600 -1.71900 24.66400
H  31.87900 -0.48900 23.68500
H  30.78700 -1.56500 22.92500
H  32.06300 -1.77900 28.07700
H  32.26000 -2.41700 29.75800
H  32.58700 -0.73500 29.53300
H  29.06700 0.19100 33.42900
H  28.91700 -3.29400 35.95700
H  28.24600 -1.74900 36.63500
H  29.94200 -2.14900 36.91200
Mg 52.47300 24.19900 44.47200
C  49.75600 26.34200 44.02600
C  50.27600 21.52700 44.11400
C  55.13300 22.26600 43.90600
C  54.51900 27.05100 44.81900
N  50.31500 23.99400 43.83700
C  49.41000 25.04200 43.75000
C  47.97400 24.48600 43.59900
C  48.13200 22.98300 43.91000
C  49.71000 22.78200 44.01200
C  47.40100 22.30300 45.11800
C  47.17700 24.71300 42.26900
C  47.95700 24.58500 40.95000
H  47.40700 25.21400 39.72500
N  52.68100 22.10300 44.16400
C  51.65700 21.20600 44.29800
C  52.25100 19.90900 44.31400
C  53.68800 20.00100 44.22900
C  53.88300 21.48600 44.04100
C  51.40600 18.61800 44.58000
C  54.70700 18.90800 44.38500
O  54.39400 17.74800 44.58900
C  56.12600 19.30000 44.36000
N  54.46800 24.64000 44.30100
C  55.37200 23.62400 44.12700
C  56.82200 24.27800 43.94200
C  56.60800 25.81300 44.25100
C  55.10500 25.84800 44.42600
C  57.94100 23.50700 44.71800
C  57.20000 26.93300 43.30900
C  57.75100 28.22600 43.96700
N  52.21300 26.22800 44.50100
C  53.12800 27.25500 44.89400
C  52.35600 28.47400 45.11900
C  51.06900 28.11800 44.80000
C  51.05400 26.78400 44.37200
C  52.68500 29.75300 45.75300
C  49.71200 28.69000 44.79100
O  49.26000 29.68700 45.25500
C  48.84200 27.62700 44.11900
C  48.30000 28.06200 42.83200
O  48.89100 28.01400 41.74100
O  47.05100 28.54200 42.97700
C  46.40600 29.10800 41.80500
H  49.56300 20.71200 44.25300
H  56.02000 21.73000 43.56100
H  55.14600 27.93000 44.98100
H  47.43300 24.90900 44.44600
H  47.84200 22.31600 43.09900
H  47.15300 21.31600 44.72600
H  46.45600 22.76800 45.39900
H  48.05700 22.30000 45.98800
H  46.55900 25.60700 42.35800
H  46.49000 23.86800 42.29800
H  47.82000 23.54000 40.67400
H  48.96500 24.84600 41.27100
H  51.35100 17.86400 43.79500
H  50.45400 18.96800 44.97900
H  51.75700 18.01000 45.41300
H  56.67900 18.40200 44.63600
H  56.25700 20.04200 45.14800
H  56.48000 19.71800 43.41800
H  57.19000 24.17000 42.92200
H  57.08400 25.98300 45.21600
H  58.72000 24.23300 44.95200
H  58.22500 22.62300 44.14700
H  57.57400 23.12100 45.66900
H  56.34700 27.22300 42.69700
H  57.97900 26.51900 42.66900
H  57.86700 28.13300 45.04700
H  57.04400 29.02700 43.75300
H  58.63700 28.55200 43.42200
H  52.31300 30.63400 45.23100
H  53.76800 29.84000 45.84700
H  52.37800 29.80200 46.79700
H  47.94800 27.44900 44.71600
H  45.35300 29.31800 41.99300
H  46.41900 28.46900 40.92200
H  46.98000 29.95700 41.43500

