158

Mg 1.71900 -1.39800 44.35200
C  4.95300 -0.39200 43.70200
C  0.63300 1.55100 42.53500
C  -1.24300 -2.70400 43.96400
C  2.97900 -4.35600 45.70900
N  2.70900 0.32100 43.22500
C  4.05500 0.52300 43.11400
C  4.32500 1.73400 42.12400
C  2.97400 2.48900 42.18500
C  2.03700 1.43200 42.73700
C  3.09500 3.76900 43.10000
C  4.76700 1.28800 40.68600
C  5.97700 2.11500 40.13800
H  6.04800 2.60900 38.67300
N  -0.05700 -0.67500 43.44100
C  -0.34500 0.58100 42.87000
C  -1.81200 0.74200 42.67900
C  -2.30600 -0.60600 42.95100
C  -1.20000 -1.36700 43.46400
C  -2.34900 1.96400 41.98400
C  -3.83900 -0.92900 42.81700
O  -4.58100 -0.16100 42.25500
C  -4.41600 -2.31000 43.09700
N  0.99000 -3.33100 44.67600
C  -0.34200 -3.54500 44.59300
C  -0.75300 -4.87600 45.18900
C  0.56800 -5.38300 45.79400
C  1.61300 -4.29100 45.37700
C  -1.91700 -4.90000 46.15300
C  0.94600 -6.81100 45.41600
C  1.42600 -7.69500 46.62800
N  3.51500 -2.13000 44.85300
C  3.89000 -3.32400 45.34700
C  5.31700 -3.36900 45.64300
C  5.87600 -2.20600 44.93800
C  4.65600 -1.54200 44.50100
C  6.05200 -4.42600 46.43000
C  7.06400 -1.51700 44.55800
O  8.25400 -1.75200 44.64400
C  6.44500 -0.26500 43.70300
C  6.95700 1.01400 44.30200
O  6.37800 1.50200 45.23100
O  8.09100 1.47600 43.67500
C  8.52000 2.78700 44.02600
H  0.27200 2.50700 42.15000
H  -2.21600 -3.19700 43.91400
H  3.44600 -5.25900 46.10700
H  5.10300 2.31900 42.61500
H  2.60000 2.92800 41.25900
H  4.10700 3.97500 43.44800
H  2.48200 3.69000 43.99800
H  2.75400 4.66400 42.58100
H  3.96500 1.31800 39.94900
H  5.21400 0.31400 40.89000
H  6.90400 1.54700 40.21000
H  6.11100 2.94600 40.83000
H  -1.90800 2.84700 42.44600
H  -3.41600 2.03300 42.19200
H  -2.12400 2.01300 40.91900
H  -3.88000 -3.01300 42.46000
H  -5.45100 -2.30600 42.75700
H  -4.42400 -2.60300 44.14700
H  -1.11500 -5.44600 44.33300
H  0.45700 -5.26900 46.87300
H  -1.65100 -5.55100 46.98600
H  -2.79100 -5.23700 45.59700
H  -2.21000 -3.92800 46.55100
H  1.73100 -6.66400 44.67500
H  0.07200 -7.33500 45.03000
H  1.64400 -7.01600 47.45200
H  2.32100 -8.20200 46.26800
H  0.65100 -8.45700 46.70700
H  5.84300 -4.35300 47.49800
H  7.13200 -4.36300 46.29600
H  5.71300 -5.40600 46.09300
H  6.82800 -0.21000 42.68400
H  8.50800 2.99300 45.09600
H  8.06300 3.56200 43.41100
H  9.57900 2.85300 43.77400
Mg 0.41100 7.56800 26.63200
C  1.20200 9.29200 29.55300
C  0.59300 4.56800 28.53300
C  -0.01500 5.81300 23.81700
C  1.34400 10.39900 24.77000
N  0.82400 7.07400 28.78700
C  0.91100 7.97900 29.79900
C  0.72400 7.36300 31.18100
C  0.93200 5.81900 30.88500
C  0.84600 5.80500 29.29500
C  2.12500 4.97700 31.45900
C  -0.67600 7.74300 31.75300
C  -0.78500 8.04000 33.23900
H  0.31700 7.63200 34.23900
N  0.15600 5.51400 26.26100
C  0.09800 4.47900 27.14400
C  -0.16800 3.19400 26.50300
C  -0.28800 3.52700 25.10400
C  0.02400 4.99000 24.99400
C  -0.07000 1.85800 27.28700
C  -0.50700 2.63400 23.93100
O  -0.44000 3.06800 22.75100
C  -0.89500 1.24000 24.06700
N  0.59100 8.05600 24.62600
C  0.21700 7.18800 23.64900
C  0.30600 7.81600 22.24600
C  0.58600 9.32300 22.62200
C  0.83300 9.30100 24.13200
C  1.39300 7.22700 21.28900
C  -0.77100 10.31900 22.40200
C  -0.56400 11.64400 21.69300
N  1.00600 9.49900 27.00300
C  1.36500 10.53200 26.17400
C  1.74600 11.62200 26.94200
C  1.63600 11.22300 28.26000
C  1.25400 9.87800 28.26900
C  2.14900 12.99400 26.42100
C  1.82500 11.66400 29.62400
O  2.17500 12.75200 29.98800
C  1.45900 10.44400 30.51700
C  2.61000 10.26600 31.39000
O  3.58100 9.49500 31.25000
O  2.56500 11.26300 32.33300
C  3.76900 11.51900 33.11000
H  0.55100 3.68900 29.18000
H  -0.29900 5.33800 22.87600
H  1.49900 11.33000 24.22100
H  1.49600 7.83500 31.78900
H  0.06700 5.31400 31.31500
H  1.70000 4.06100 31.87000
H  2.67900 5.53200 32.21700
H  2.76900 4.81000 30.59600
H  -1.42100 6.95900 31.61900
H  -0.88600 8.59200 31.10200
H  -1.70400 7.48600 33.42600
H  -1.11500 9.06900 33.37400
H  0.96900 1.67700 27.56200
H  -0.55600 0.97700 26.86700
H  -0.63400 2.11400 28.18300
H  -1.83200 1.16700 24.61800
H  -0.17700 0.65900 24.64500
H  -1.13200 0.76000 23.11700
H  -0.64000 7.75800 21.70700
H  1.46200 9.73500 22.12200
H  1.99200 7.96400 20.75400
H  1.10100 6.46500 20.56500
H  2.18000 6.76700 21.88500
H  -1.20600 10.48400 23.38800
H  -1.55400 9.84900 21.80700
H  -0.81100 11.41500 20.65600
H  0.44900 12.03400 21.79200
H  -1.29400 12.39700 21.99000
H  1.84300 13.72700 27.16700
H  1.51400 13.17700 25.55400
H  3.18500 13.15900 26.12700
H  0.61100 10.70700 31.14900
H  3.45900 11.74400 34.13100
H  4.34000 12.36700 32.73400
H  4.40400 10.63500 33.16800

