158

Mg 35.97700 49.01200 25.67100
C  36.16000 47.06000 28.66800
C  34.77600 51.67800 27.53500
C  35.05700 50.49600 22.84800
C  36.67800 46.10600 23.89900
N  35.36700 49.26300 27.85000
C  35.70900 48.43000 28.91500
C  35.37100 49.14600 30.20400
C  34.79500 50.50700 29.79500
C  35.03500 50.49500 28.28600
C  33.24800 50.66200 30.07000
C  36.57200 49.31700 31.12800
C  36.38500 48.69800 32.55700
H  36.36100 49.71600 33.66900
N  35.19800 50.83900 25.26200
C  34.85500 51.85500 26.14700
C  34.34400 53.03700 25.38100
C  34.53200 52.71800 23.99500
C  34.91500 51.29300 24.02300
C  33.78800 54.31700 26.01400
C  34.35700 53.59900 22.71600
O  34.63300 53.27000 21.54100
C  33.77300 54.90300 22.87800
N  35.98300 48.44100 23.60500
C  35.47600 49.15700 22.60500
C  35.64900 48.54400 21.27600
C  36.48100 47.25800 21.63200
C  36.40200 47.19700 23.09600
C  34.34000 48.23800 20.54300
C  37.91600 47.14100 21.12700
C  38.26000 45.96600 20.24900
N  36.30800 46.99300 26.12900
C  36.62900 45.94100 25.31200
C  36.91500 44.78000 26.11400
C  36.66800 45.12800 27.44400
C  36.30400 46.53800 27.39700
C  37.34300 43.48100 25.65200
C  36.63100 44.65300 28.81200
O  36.78900 43.51600 29.27600
C  36.37900 46.00400 29.72600
C  35.17700 45.81800 30.71300
O  33.94300 45.87200 30.41100
O  35.68300 45.61400 31.92000
C  34.78800 45.24700 33.01100
H  34.62700 52.63400 28.04100
H  34.83700 50.98300 21.89500
H  37.12700 45.23600 23.41500
H  34.53100 48.58500 30.61200
H  35.21700 51.42500 30.20500
H  32.69200 50.48500 29.14900
H  33.03400 51.61500 30.55400
H  32.92800 49.85900 30.73400
H  36.73900 50.38600 31.26100
H  37.48000 48.92300 30.67200
H  37.12800 47.92000 32.73300
H  35.52100 48.03300 32.55900
H  32.91100 54.61800 25.44000
H  34.43400 55.19100 25.92800
H  33.55500 54.16600 27.06800
H  33.75600 55.52000 21.98000
H  34.49700 55.42200 23.50600
H  32.74600 54.81000 23.23200
H  36.17300 49.32200 20.72100
H  36.01800 46.34000 21.26900
H  33.49700 48.84500 20.87100
H  34.03600 47.21700 20.77400
H  34.51100 48.26400 19.46700
H  38.53500 47.18900 22.02200
H  38.15500 48.00600 20.50900
H  38.80500 46.29300 19.36300
H  37.37200 45.49000 19.83200
H  38.89000 45.29200 20.83000
H  37.65000 43.50100 24.60700
H  36.55700 42.72700 25.69900
H  38.26700 43.15000 26.12500
H  37.23700 46.18900 30.37200
H  34.46600 46.14100 33.54500
H  35.28000 44.50700 33.64200
H  33.89500 44.73500 32.65200
Mg -4.71900 26.44500 25.94100
C  -2.94800 27.43500 28.84800
C  -6.00900 23.87400 27.90000
C  -6.09800 25.21000 23.18700
C  -2.76300 28.64600 24.11200
N  -4.44000 25.75900 28.08900
C  -3.76200 26.36300 29.08700
C  -4.27800 25.87700 30.42300
C  -5.04900 24.53700 30.09300
C  -5.17100 24.71800 28.59900
C  -4.23100 23.26200 30.59400
C  -5.16900 26.92100 31.19100
C  -4.76100 27.07300 32.66000
H  -4.23400 25.88200 33.54000
N  -5.86800 24.76500 25.54400
C  -6.32100 23.87900 26.54100
C  -7.33300 22.97300 25.91800
C  -7.46500 23.41000 24.61200
C  -6.37400 24.44800 24.34800
C  -8.01500 21.90300 26.66100
C  -8.31600 22.81300 23.51700
O  -8.14500 23.16400 22.35600
C  -9.34800 21.77000 23.79800
N  -4.45700 26.84400 23.93600
C  -5.22300 26.26200 23.03200
C  -4.94600 26.89600 21.63500
C  -3.88000 27.94900 21.89300
C  -3.67400 27.84400 23.39200
C  -4.38400 25.94300 20.53700
C  -4.28900 29.40300 21.51000
C  -4.19300 29.65600 19.98300
N  -3.20300 27.76800 26.33400
C  -2.53100 28.63300 25.54400
C  -1.54800 29.35300 26.26000
C  -1.81500 28.99100 27.60000
C  -2.69100 27.92200 27.55600
C  -0.55700 30.33900 25.71300
C  -1.43400 29.23700 28.90100
O  -0.62900 30.07200 29.30900
C  -2.12500 28.24700 29.78400
C  -1.26700 27.53300 30.75900
O  -0.52500 26.53800 30.52900
O  -1.48600 28.10500 31.94900
C  -0.61600 27.43400 32.98500
H  -6.50700 23.09600 28.48300
H  -6.63200 24.94000 22.27300
H  -2.15800 29.34200 23.52700
H  -3.42500 25.60300 31.04400
H  -6.08600 24.44600 30.41800
H  -4.14800 22.49700 29.82200
H  -4.96200 22.79000 31.25100
H  -3.29000 23.55900 31.05700
H  -6.19900 26.57100 31.26600
H  -5.12500 27.91000 30.73600
H  -5.63500 27.43300 33.20300
H  -3.98000 27.83400 32.67000
H  -9.09800 22.01800 26.69100
H  -7.69900 21.75300 27.69300
H  -7.78000 21.01500 26.07400
H  -8.82000 20.82500 23.67400
H  -10.04800 21.89900 22.97300
H  -10.03700 21.81400 24.64200
H  -5.86000 27.32500 21.22600
H  -2.93400 27.69000 21.41800
H  -5.16200 25.29700 20.12900
H  -3.69300 25.23000 20.98500
H  -3.90600 26.30600 19.62700
H  -3.69200 30.21100 21.93300
H  -5.33700 29.59400 21.73900
H  -3.73100 30.64100 19.91600
H  -5.20800 29.75900 19.59900
H  -3.69000 28.90400 19.37400
H  -0.97800 30.95500 24.91900
H  0.34400 29.86300 25.32500
H  -0.26400 30.97000 26.55200
H  -2.87000 28.77600 30.37900
H  0.43800 27.39500 32.71200
H  -1.05000 26.47300 33.26100
H  -0.71600 28.11200 33.83400

