158

Mg 24.19600 -5.01900 45.32800
C  26.42400 -2.64300 43.93600
C  21.60500 -3.68200 43.45400
C  22.33000 -7.46300 46.29200
C  27.10700 -6.28000 47.01200
N  24.13000 -3.41000 43.78500
C  25.14200 -2.58300 43.35000
C  24.65400 -1.60100 42.31600
C  23.04400 -1.73700 42.51200
C  22.84500 -2.99900 43.30600
C  22.41600 -0.50900 43.14500
C  25.10500 -1.97700 40.87500
C  25.64200 -0.80400 40.01400
H  25.36700 -1.03800 38.47900
N  22.23600 -5.42500 45.03200
C  21.35300 -4.81400 44.17600
C  20.04900 -5.47500 44.23500
C  20.24400 -6.55900 45.09800
C  21.67300 -6.52600 45.54500
C  18.86900 -4.98200 43.56700
C  19.13400 -7.67700 45.30500
O  17.97500 -7.48800 44.97600
C  19.45600 -8.95300 46.00800
N  24.64600 -6.55800 46.54500
C  23.67000 -7.46200 46.78900
C  24.22900 -8.80800 47.34100
C  25.71300 -8.34500 47.71400
C  25.82800 -7.01600 47.03500
C  23.49300 -9.43100 48.52700
C  26.82200 -9.31000 47.34600
C  27.14100 -10.31700 48.46500
N  26.31100 -4.54200 45.48700
C  27.35800 -5.13300 46.26200
C  28.60500 -4.37900 46.12400
C  28.22300 -3.32800 45.21800
C  26.87700 -3.54200 44.88000
C  29.88900 -4.64800 46.74400
C  28.69800 -2.16600 44.54300
O  29.76800 -1.55700 44.62300
C  27.56000 -1.69800 43.63400
C  27.38900 -0.20400 43.79300
O  26.67900 0.38800 44.62700
O  28.19300 0.41300 42.85800
C  28.45300 1.92600 42.95900
H  20.77100 -3.17000 42.96900
H  21.66300 -8.20200 46.74100
H  28.00100 -6.74600 47.43200
H  25.04200 -0.61300 42.56500
H  22.58300 -1.88900 41.53600
H  21.73900 -0.70200 43.97700
H  21.81400 0.10200 42.47300
H  23.28600 0.06800 43.46100
H  24.30900 -2.46900 40.31600
H  25.94100 -2.67400 40.83100
H  26.67800 -0.59000 40.27800
H  25.12200 0.10200 40.32300
H  17.98400 -5.61500 43.63400
H  19.02200 -4.47500 42.61400
H  18.67300 -4.12600 44.21200
H  18.62400 -9.64700 45.88700
H  19.69500 -8.63800 47.02400
H  20.30600 -9.43900 45.52900
H  24.20600 -9.56100 46.55300
H  25.74400 -8.07600 48.77000
H  22.72700 -8.79300 48.96800
H  24.30000 -9.73700 49.19200
H  22.92000 -10.34200 48.35600
H  27.72500 -8.80300 47.00500
H  26.44800 -9.81000 46.45300
H  28.11500 -10.80500 48.48100
H  26.37500 -11.07700 48.31000
H  26.99800 -9.81200 49.42100
H  29.86400 -4.16300 47.72000
H  30.75500 -4.24300 46.22000
H  30.03100 -5.71800 46.89600
H  27.78500 -1.88600 42.58400
H  29.38300 2.08700 42.41300
H  28.55900 2.26600 43.98900
H  27.64900 2.48000 42.47500
Mg 26.95000 50.42500 26.17800
C  24.96700 51.38100 28.93000
C  29.20500 49.28000 28.43600
C  28.85100 49.90200 23.62200
C  24.38600 51.79900 24.10800
N  26.89200 50.10600 28.41700
C  26.02600 50.65100 29.33600
C  26.50900 50.43800 30.78200
C  27.98100 49.88400 30.56500
C  28.06700 49.64500 29.08100
C  29.16000 50.65000 31.17700
C  25.49000 49.43000 31.56000
C  24.96800 49.85900 32.92200
H  25.88400 50.27500 34.09500
N  28.76200 49.70500 26.04400
C  29.62800 49.32800 27.05300
C  30.91900 48.88200 26.50500
C  30.72600 48.93800 25.11700
C  29.41400 49.53600 24.85900
C  32.14200 48.39100 27.41800
C  31.61700 48.47800 24.00200
O  31.38400 48.48300 22.82000
C  32.99200 48.04800 24.43800
N  26.78400 51.08200 24.24100
C  27.68500 50.59300 23.33900
C  27.23300 50.90700 21.88800
C  25.74400 51.21200 22.09000
C  25.59500 51.30500 23.60000
C  28.04900 52.00500 21.31500
C  24.63900 50.29100 21.45600
C  23.50700 50.99700 20.62400
N  25.06100 51.39500 26.41500
C  24.14800 51.89500 25.46700
C  23.01900 52.45600 26.14600
C  23.26400 52.31200 27.50700
C  24.56300 51.68400 27.62300
C  21.79200 53.10000 25.55900
C  22.79700 52.63700 28.89800
O  21.77700 53.12600 29.30400
C  23.81800 51.95000 29.83100
C  24.22100 53.01400 30.77400
O  25.14800 53.82000 30.56400
O  23.41600 53.06100 31.85000
C  23.74900 54.02100 32.91600
H  30.03100 48.98800 29.08800
H  29.48000 49.73700 22.74500
H  23.52400 51.97400 23.46000
H  26.61100 51.36900 31.33900
H  28.00200 48.93500 31.10100
H  29.76900 51.01500 30.35000
H  29.75600 50.02000 31.83800
H  28.82300 51.50600 31.76200
H  25.76200 48.37400 31.57100
H  24.62100 49.51100 30.90700
H  24.38800 48.97700 33.19300
H  24.20100 50.61900 32.77500
H  31.76800 48.21700 28.42800
H  32.76400 49.28200 27.33600
H  32.71600 47.53600 27.06100
H  32.93300 47.04100 24.85100
H  33.34800 48.79500 25.14700
H  33.63200 47.88200 23.57000
H  27.53200 49.98900 21.38200
H  25.51200 52.24000 21.81200
H  28.76300 52.39200 22.04200
H  27.35100 52.81900 21.11800
H  28.59100 51.60400 20.45900
H  24.21600 49.53200 22.11300
H  25.22400 49.68900 20.76100
H  23.72800 52.05300 20.47000
H  22.51200 50.88700 21.05700
H  23.68800 50.56400 19.64100
H  20.96800 53.09700 26.27300
H  21.53200 52.54800 24.65600
H  21.96400 54.14000 25.28300
H  23.30200 51.11000 30.29500
H  24.15400 53.52100 33.79600
H  22.86300 54.56400 33.24200
H  24.53300 54.69600 32.57500

