158

Mg 0.86000 7.79800 27.09400
C  1.26200 9.81300 29.84000
C  1.04400 4.97700 29.16100
C  0.90300 5.91900 24.29600
C  0.72200 10.64700 25.08000
N  1.09600 7.49800 29.26600
C  1.07900 8.47300 30.20200
C  1.15800 7.87700 31.64100
C  1.24600 6.35900 31.43600
C  1.08600 6.23500 29.87100
C  2.44900 5.54200 32.02800
C  -0.14000 8.33200 32.36800
C  -0.03600 8.38500 33.92800
H  1.12700 7.70900 34.67200
N  1.12000 5.70000 26.80300
C  1.12200 4.72300 27.73200
C  0.89600 3.43500 27.01000
C  0.94700 3.66600 25.56500
C  0.98100 5.18200 25.52400
C  0.79500 2.07600 27.73200
C  1.05600 2.72800 24.39400
O  1.16300 3.08400 23.22700
C  1.17000 1.30000 24.70100
N  0.88600 8.22000 24.98200
C  0.88200 7.26000 24.05000
C  0.67500 7.77100 22.62600
C  0.57900 9.27500 22.83900
C  0.72100 9.45800 24.42500
C  1.70800 7.20800 21.66200
C  -0.69000 9.87400 22.23200
C  -1.88800 9.83700 23.13300
N  0.94500 9.87200 27.34600
C  0.88200 10.94800 26.46500
C  1.23000 12.17000 27.08600
C  1.34100 11.80900 28.45600
C  1.28300 10.38300 28.53000
C  1.44800 13.50700 26.46600
C  1.65200 12.28000 29.79600
O  1.98900 13.40800 30.06600
C  1.58200 11.02300 30.75500
C  2.76800 10.98000 31.68400
O  3.89600 10.59300 31.39800
O  2.40900 11.36900 32.94800
C  3.32000 11.43500 34.06500
H  0.98700 4.05100 29.73700
H  0.77200 5.42100 23.33300
H  0.60100 11.55400 24.48400
H  2.11800 8.26500 31.98100
H  0.37900 5.85100 31.85900
H  3.15200 6.24600 32.47400
H  3.00000 4.98700 31.26900
H  2.09000 4.82400 32.76500
H  -1.00400 7.79300 31.98000
H  -0.34400 9.33900 32.00300
H  -0.99000 7.96000 34.24000
H  -0.11700 9.44100 34.18400
H  1.67800 1.44700 27.83600
H  -0.05400 1.50300 27.35700
H  0.60100 2.27100 28.78700
H  1.86000 1.14000 25.52900
H  1.45700 0.74800 23.80600
H  0.15800 0.94100 24.89300
H  -0.36100 7.55400 22.36400
H  1.38200 9.91500 22.47100
H  2.47400 7.93500 21.39100
H  1.15400 6.83800 20.80000
H  2.18700 6.31000 22.05200
H  -1.02000 9.40600 21.30400
H  -0.58100 10.94000 22.03200
H  -2.28600 10.82000 23.38600
H  -1.75400 9.20100 24.00900
H  -2.58700 9.38300 22.43100
H  2.27600 13.92700 27.03700
H  0.54300 14.11300 26.50700
H  1.76700 13.28800 25.44800
H  0.75100 11.38100 31.36300
H  4.31300 11.37200 33.62100
H  3.15500 10.63800 34.79000
H  3.27400 12.38600 34.59600
Mg 0.45400 42.07700 26.13600
C  1.57500 42.50900 29.40300
C  -2.56900 40.90800 27.29300
C  -0.28100 41.40300 22.91100
C  3.61600 43.09500 25.02900
N  -0.36900 41.72700 28.06400
C  0.22800 42.19200 29.26900
C  -0.77700 42.03200 30.46400
C  -2.02200 41.32200 29.76700
C  -1.65300 41.25600 28.27700
C  -2.47900 40.04300 30.41100
C  -1.08300 43.16100 31.55300
C  -0.35900 43.13500 32.93300
H  -1.17400 43.12500 34.17100
N  -1.21500 41.47500 25.26700
C  -2.37000 40.95400 25.86300
C  -3.40300 40.65700 24.86200
C  -2.73300 40.74000 23.65200
C  -1.35900 41.25300 23.88100
C  -4.74700 40.05600 25.10900
C  -3.37200 40.63600 22.26300
O  -2.68200 40.87300 21.25900
C  -4.84400 40.33300 22.00100
N  1.47900 42.26900 24.22500
C  0.99300 41.90000 23.08300
C  1.97800 42.06500 21.91900
C  3.11600 42.87800 22.56600
C  2.74800 42.75900 24.08500
C  2.39000 40.84000 21.19800
C  3.10100 44.38000 22.13900
C  3.62000 44.61200 20.67700
N  2.30600 42.54200 26.99600
C  3.51900 42.98000 26.43300
C  4.50700 43.26500 27.44500
C  3.78300 43.02700 28.64400
C  2.46100 42.65700 28.31700
C  5.90800 43.67600 27.27900
C  3.84100 43.09600 30.09300
O  4.69800 43.35000 30.95800
C  2.38500 42.64100 30.61500
C  2.68300 41.37700 31.40500
O  2.93700 40.29300 30.88100
O  2.64200 41.69400 32.73500
C  2.77300 40.69700 33.75000
H  -3.52600 40.62600 27.73800
H  -0.44000 41.12200 21.86800
H  4.63800 43.35900 24.75100
H  -0.24900 41.28600 31.05800
H  -2.84100 42.02300 29.93000
H  -2.36500 39.31400 29.60900
H  -3.44600 40.18000 30.89600
H  -1.76200 39.69500 31.15400
H  -2.15200 43.20200 31.76000
H  -0.65800 44.06500 31.11600
H  0.32600 43.97300 33.05900
H  0.24500 42.22800 32.94200
H  -5.65300 40.59600 24.83400
H  -4.79800 40.05800 26.19800
H  -4.86200 39.03200 24.75400
H  -5.33600 41.24800 22.32800
H  -5.26600 39.46400 22.50600
H  -4.98000 40.20000 20.92800
H  1.44900 42.70400 21.21100
H  4.15900 42.56600 22.51500
H  1.59300 40.10000 21.12400
H  3.39600 40.48200 21.41700
H  2.42000 41.22700 20.18000
H  3.62700 45.09900 22.76800
H  2.09800 44.78600 22.26800
H  4.27300 43.78400 20.40200
H  4.21500 45.52300 20.75200
H  2.89900 44.74800 19.87100
H  6.55300 42.83500 27.53300
H  6.23000 44.49500 27.92300
H  6.06200 44.05000 26.26700
H  2.03800 43.38100 31.33600
H  3.45000 39.90300 33.43300
H  1.76800 40.48800 34.11600
H  3.12300 41.24500 34.62500

