158

Mg 1.63100 -1.84300 44.36900
C  5.06700 -1.41300 43.72700
C  0.92300 0.63700 41.99400
C  -1.60800 -2.75700 44.30800
C  2.50000 -4.91800 45.91900
N  2.88000 -0.57500 43.02700
C  4.24100 -0.54400 43.00300
C  4.73100 0.57900 42.00200
C  3.48600 1.39800 41.82000
C  2.33000 0.44400 42.33800
C  3.35700 2.81700 42.49900
C  5.43000 -0.12700 40.71800
C  6.53600 0.69700 40.00900
H  6.61000 0.73400 38.46200
N  -0.13700 -1.15000 43.28100
C  -0.24200 -0.09600 42.40100
C  -1.62000 0.16200 42.04900
C  -2.43500 -0.75700 42.84000
C  -1.44100 -1.59900 43.51900
C  -2.10300 1.13300 40.97900
C  -3.90100 -0.81300 42.83600
O  -4.58900 -0.02000 42.20900
C  -4.57500 -2.03600 43.48500
N  0.64500 -3.63100 45.09600
C  -0.72600 -3.62900 44.96700
C  -1.25700 -5.00700 45.55700
C  0.04100 -5.73300 46.04200
C  1.13600 -4.70700 45.71500
C  -2.32100 -4.93600 46.69900
C  0.22900 -7.19300 45.53200
C  0.84500 -8.13500 46.52900
N  3.42700 -2.83200 45.02800
C  3.65100 -4.05600 45.62500
C  5.05100 -4.25800 45.84300
C  5.66000 -3.21500 45.14200
C  4.60900 -2.36800 44.65000
C  5.68400 -5.42500 46.55800
C  6.98000 -2.67200 44.70000
O  8.12300 -3.00500 44.88600
C  6.66500 -1.44300 43.75400
C  7.35500 -0.26700 44.25300
O  8.25500 0.34300 43.77200
O  6.70800 0.18800 45.39200
C  7.12700 1.57700 45.73000
H  0.69100 1.47500 41.33400
H  -2.60200 -3.20200 44.38000
H  2.72400 -5.77200 46.56100
H  5.57000 1.02000 42.54100
H  3.45500 1.44200 40.73100
H  4.01400 3.05600 43.33500
H  2.41400 2.92000 43.03600
H  3.25800 3.57800 41.72500
H  4.61800 -0.11600 39.99100
H  5.49900 -1.19500 40.92500
H  7.46500 0.28800 40.40700
H  6.57400 1.74200 40.31600
H  -3.02800 0.84200 40.48000
H  -1.44100 1.22300 40.11800
H  -2.14800 2.14600 41.38000
H  -4.52900 -2.06100 44.57400
H  -4.27400 -2.97000 43.01000
H  -5.62600 -1.94100 43.21500
H  -1.76000 -5.59100 44.78700
H  -0.10400 -5.84200 47.11700
H  -2.40900 -5.85300 47.28000
H  -3.30300 -4.62600 46.34000
H  -1.85500 -4.13300 47.27100
H  0.85400 -7.18400 44.63900
H  -0.70800 -7.61700 45.17100
H  0.29600 -9.07700 46.50900
H  0.75800 -7.83800 47.57500
H  1.89900 -8.30000 46.30700
H  6.74100 -5.17400 46.65100
H  5.55600 -6.38300 46.05200
H  5.22100 -5.44500 47.54400
H  7.06500 -1.63400 42.75800
H  6.71200 1.88600 46.68900
H  6.75500 2.29100 44.99600
H  8.20200 1.75200 45.70000
Mg 24.07400 -4.97000 45.66400
C  26.20500 -2.52400 44.25600
C  21.62700 -3.87500 43.60900
C  22.45100 -8.01000 46.17200
C  26.89400 -6.28500 47.29300
N  23.94000 -3.32300 44.20600
C  24.88900 -2.48400 43.79300
C  24.40400 -1.52900 42.62600
C  22.76900 -1.77800 42.79500
C  22.74400 -3.04500 43.61900
C  22.12400 -0.61300 43.59000
C  24.96700 -2.04100 41.26100
C  25.10300 -0.94400 40.18100
H  24.73700 -1.23900 38.69900
N  22.25700 -5.79900 45.03200
C  21.35600 -5.15400 44.21800
C  20.14100 -5.99500 44.14000
C  20.35000 -7.10300 45.01500
C  21.76300 -7.02000 45.47600
C  19.07600 -5.63000 43.30500
C  19.23200 -8.06200 45.37900
O  18.12000 -7.90300 44.90200
C  19.35900 -9.08300 46.41000
N  24.60600 -7.00400 46.46400
C  23.72000 -7.95300 46.70000
C  24.43400 -9.11600 47.45900
C  25.88200 -8.54400 47.78500
C  25.80900 -7.15500 47.19200
C  23.52800 -9.66100 48.61400
C  27.12000 -9.38000 47.31200
C  27.92700 -9.90600 48.49400
N  26.12500 -4.46100 45.88700
C  27.06200 -5.09600 46.63900
C  28.21900 -4.27600 46.62300
C  28.02400 -3.26500 45.61200
C  26.69700 -3.44600 45.19100
C  29.53900 -4.42100 47.50800
C  28.52300 -2.12500 44.92000
O  29.56400 -1.50600 45.06400
C  27.38100 -1.70400 43.82700
C  27.23800 -0.23600 43.82100
O  26.96300 0.53000 44.73600
O  27.41500 0.17900 42.54900
C  27.16300 1.64600 42.43300
H  20.70500 -3.46100 43.19300
H  22.05500 -9.02700 46.21800
H  27.72200 -6.70200 47.86900
H  24.62700 -0.46200 42.66100
H  22.24300 -1.99500 41.86600
H  21.41300 -0.11800 42.92900
H  22.83200 0.04000 44.10100
H  21.56500 -1.03000 44.42800
H  24.36500 -2.81700 40.78800
H  25.91400 -2.57000 41.37100
H  26.16300 -0.72200 40.29800
H  24.58500 -0.04500 40.51500
H  19.40400 -5.74000 42.27200
H  18.87300 -4.56100 43.36500
H  18.19300 -6.26900 43.26600
H  18.36300 -9.40100 46.72100
H  19.90300 -8.68900 47.26900
H  19.94700 -9.87600 45.94800
H  24.67200 -10.01200 46.88600
H  25.98100 -8.55800 48.87100
H  23.97900 -9.41400 49.57500
H  23.36300 -10.73800 48.59800
H  22.52600 -9.25200 48.48000
H  27.80500 -8.78900 46.70400
H  26.82500 -10.23500 46.70500
H  27.49300 -10.84700 48.83300
H  27.95200 -9.18700 49.31200
H  28.91800 -10.20000 48.14900
H  30.39700 -4.47600 46.83800
H  29.47300 -5.32200 48.11800
H  29.77400 -3.59800 48.18200
H  27.74400 -2.08200 42.87100
H  27.29200 2.25100 43.33000
H  26.19800 1.73700 41.93300
H  27.98000 1.97600 41.79100

