158

Mg 2.17100 -1.43800 43.30300
C  5.52100 -1.20200 43.34900
C  1.91300 1.35300 41.49600
C  -1.13000 -2.22600 42.62400
C  2.56100 -4.79700 44.38000
N  3.51700 -0.06900 42.63900
C  4.87300 -0.13200 42.74900
C  5.64500 1.02400 42.06800
C  4.40700 1.84400 41.55100
C  3.20300 0.98100 41.92600
C  4.36100 3.33900 42.05600
C  6.56700 0.63800 40.80600
C  7.03400 1.92500 40.05600
H  6.49000 2.26900 38.66200
N  0.63300 -0.45500 42.29100
C  0.65200 0.71100 41.63200
C  -0.66900 1.16300 41.32000
C  -1.55700 0.16700 41.61400
C  -0.67000 -0.87800 42.23700
C  -1.14000 2.44300 40.63400
C  -3.05500 0.21800 41.51900
O  -3.56900 1.17600 40.94700
C  -4.03000 -0.96900 41.95600
N  0.95800 -3.31800 43.33500
C  -0.43800 -3.27300 43.17700
C  -1.10300 -4.62300 43.54600
C  0.11900 -5.45100 44.01100
C  1.31300 -4.48300 43.84200
C  -2.23700 -4.46800 44.54600
C  0.35500 -6.73800 43.11900
C  -0.78200 -7.86900 42.99300
N  3.68900 -2.66100 44.06400
C  3.69400 -3.98700 44.47100
C  5.04600 -4.43900 44.74900
C  5.77900 -3.30700 44.46100
C  4.91000 -2.31200 43.93500
C  5.49000 -5.77300 45.12400
C  7.09900 -2.82300 44.37000
O  8.19500 -3.34300 44.63800
C  6.98400 -1.42300 43.58800
C  7.43700 -0.34200 44.46200
O  6.93100 0.04400 45.50200
O  8.47000 0.26100 43.80000
C  8.88300 1.57700 44.29500
H  1.91000 2.31000 40.97000
H  -2.19800 -2.41800 42.50300
H  2.56100 -5.81900 44.76400
H  6.24000 1.46400 42.86900
H  4.31500 1.94800 40.47000
H  3.42600 3.50600 42.59200
H  4.41800 3.97600 41.17300
H  5.26200 3.43800 42.66000
H  5.86600 0.09900 40.16800
H  7.43200 0.03700 41.08300
H  8.09600 1.79200 39.85000
H  6.88200 2.86800 40.58000
H  -0.22100 2.97300 40.38300
H  -1.77700 3.02600 41.29900
H  -1.60800 2.05900 39.72700
H  -5.08500 -0.74100 42.10700
H  -3.68900 -1.24800 42.95300
H  -3.92500 -1.82200 41.28500
H  -1.37600 -5.05100 42.58100
H  0.16600 -5.70500 45.07000
H  -3.16900 -4.85400 44.13300
H  -2.37600 -3.39400 44.66700
H  -2.10900 -4.90300 45.53800
H  1.27300 -7.22800 43.44300
H  0.41700 -6.20400 42.17100
H  -1.32600 -7.91300 42.04900
H  -1.64000 -7.76800 43.65800
H  -0.38000 -8.81800 43.34700
H  6.01800 -6.16800 44.25600
H  4.60200 -6.33200 45.41800
H  6.14000 -5.53100 45.96400
H  7.67000 -1.57600 42.75500
H  8.06900 2.30300 44.31500
H  9.55600 2.05500 43.58300
H  9.34300 1.54900 45.28300
Mg 1.51800 9.10200 26.78300
C  1.74200 11.34000 29.57100
C  1.70700 6.51400 29.00300
C  2.13200 7.02800 24.09400
C  1.78600 11.76000 24.64400
N  1.74800 8.98300 29.00600
C  1.45300 9.98300 29.84100
C  1.23600 9.43700 31.25400
C  1.53500 7.93900 31.16600
C  1.63300 7.77200 29.62700
C  2.79500 7.37000 31.90200
C  -0.26100 9.75500 31.68700
C  -0.47400 9.57500 33.20000
H  0.70700 9.01400 34.10900
N  1.76200 6.96300 26.54900
C  1.83500 6.15100 27.64900
C  1.99500 4.77700 27.12300
C  2.00800 4.84900 25.66500
C  1.96100 6.30000 25.35200
C  1.98900 3.52600 28.11300
C  1.98500 3.85700 24.53600
O  1.86700 4.16400 23.33500
C  2.20500 2.44500 24.87500
N  1.68200 9.32900 24.73700
C  1.98100 8.37500 23.84400
C  2.01500 8.94800 22.44200
C  1.41900 10.35100 22.65800
C  1.66600 10.47700 24.11300
C  3.47900 9.01500 21.86000
C  -0.14600 10.45200 22.32100
C  -0.46200 11.46900 21.18400
N  1.76900 11.18800 26.95700
C  1.89100 12.16000 25.99500
C  2.12000 13.44400 26.69100
C  2.08000 13.13800 28.09800
C  1.91000 11.74800 28.21000
C  2.38900 14.80800 26.03400
C  2.16800 13.67700 29.42400
O  2.51700 14.80000 29.64500
C  1.83100 12.52900 30.46700
C  2.93000 12.48100 31.44700
O  4.08700 12.37800 31.16200
O  2.45000 12.57200 32.69500
C  3.40300 12.44100 33.74000
H  1.73900 5.73700 29.77000
H  2.28400 6.52300 23.13800
H  1.71300 12.61000 23.96200
H  1.97500 9.95300 31.86800
H  0.67000 7.37200 31.51000
H  3.21500 7.89900 32.75800
H  3.63800 7.17600 31.23900
H  2.51600 6.42800 32.37400
H  -0.86000 9.12100 31.03400
H  -0.60400 10.76800 31.47900
H  -1.29200 8.86900 33.33800
H  -0.57200 10.58300 33.60200
H  2.70400 3.73300 28.90900
H  2.24700 2.57600 27.64700
H  1.01200 3.46800 28.59300
H  1.27300 2.10900 25.33000
H  2.90100 2.35000 25.70800
H  2.54200 1.87600 24.00900
H  1.39200 8.35300 21.77400
H  1.92300 11.13800 22.09600
H  3.85400 10.03800 21.85500
H  3.27300 8.64000 20.85700
H  4.17600 8.47500 22.50100
H  -0.71900 10.76100 23.19500
H  -0.38600 9.48800 21.87200
H  0.45500 11.37900 20.60100
H  -0.45200 12.50900 21.51100
H  -1.39300 11.36200 20.62700
H  1.56400 15.50000 26.20600
H  2.58200 14.74800 24.96300
H  3.40500 15.00500 26.37600
H  0.91700 12.81900 30.98600
H  4.16900 11.68300 33.57700
H  2.78300 12.16500 34.59200
H  3.74000 13.46400 33.90100

