158

Mg -1.82800 17.75300 26.34700
C  -2.11000 15.43000 29.03100
C  -2.30200 20.29300 28.56400
C  -2.27100 19.85900 23.73400
C  -1.79600 15.02900 24.24200
N  -2.18200 17.83100 28.56000
C  -2.10000 16.79900 29.47600
C  -2.27700 17.29400 30.92000
C  -2.43500 18.85200 30.75100
C  -2.33000 19.03200 29.18500
C  -3.62800 19.57800 31.44200
C  -1.09200 16.77100 31.82500
C  -0.48600 17.62000 32.96800
H  -0.15400 16.90100 34.27800
N  -2.11700 19.69100 26.21600
C  -2.26300 20.65800 27.22900
C  -2.12100 22.02700 26.66100
C  -2.13900 21.85800 25.23600
C  -2.15500 20.41700 25.02700
C  -1.84300 23.21200 27.59000
C  -1.98500 22.92400 24.17000
O  -1.78700 22.69500 22.98300
C  -2.23900 24.34100 24.58100
N  -2.17200 17.47600 24.26100
C  -2.18100 18.48500 23.36100
C  -2.03600 18.00400 21.90200
C  -1.99800 16.47200 22.10900
C  -1.92900 16.28300 23.63700
C  -3.31500 18.46800 21.11300
C  -0.74700 15.77400 21.39200
C  0.64600 16.02700 21.95700
N  -1.98700 15.66700 26.56200
C  -1.91700 14.68200 25.60500
C  -1.98300 13.39600 26.24200
C  -2.10000 13.62600 27.60300
C  -2.01300 15.01200 27.74600
C  -1.96600 12.18500 25.46600
C  -2.21600 12.93900 28.85600
O  -2.25000 11.78600 29.23400
C  -2.25400 14.11700 29.77500
C  -1.15900 13.74300 30.65400
O  -0.01600 13.96700 30.45800
O  -1.62300 13.05700 31.74200
C  -0.64100 12.75500 32.83500
H  -2.27200 20.99800 29.39800
H  -2.35700 20.57000 22.91000
H  -1.71600 14.17800 23.56300
H  -3.19300 16.84900 31.31000
H  -1.47000 19.26600 31.04100
H  -3.20000 20.49900 31.83700
H  -4.20800 19.06100 32.20600
H  -4.32000 19.90400 30.66500
H  -0.27300 16.62000 31.12100
H  -1.43500 15.81200 32.21400
H  -1.21300 18.39600 33.20700
H  0.40200 18.03900 32.49700
H  -1.05300 23.88700 27.26200
H  -1.57600 23.00200 28.62600
H  -2.72300 23.85600 27.60000
H  -3.00700 24.34500 25.35500
H  -2.52700 25.08600 23.84000
H  -1.33700 24.68500 25.08600
H  -1.09700 18.43300 21.55300
H  -2.96600 16.06200 21.82100
H  -3.09500 19.00800 20.19200
H  -4.06000 19.14200 21.53500
H  -3.78500 17.56200 20.72900
H  -0.64900 16.31900 20.45300
H  -0.95300 14.71000 21.27700
H  0.93700 15.05000 22.34400
H  0.61700 16.69600 22.81600
H  1.38700 16.41700 21.26000
H  -1.54600 11.31800 25.97700
H  -1.23900 12.38100 24.67900
H  -2.96000 11.97700 25.07100
H  -3.15500 14.27700 30.36700
H  -0.00300 12.02100 32.34000
H  -1.01800 12.31900 33.76000
H  -0.06700 13.65200 33.06500
Mg -5.29600 25.60100 24.83400
C  -3.93300 27.19100 27.72300
C  -6.84600 23.47300 26.96800
C  -6.46600 23.91200 22.12800
C  -3.56500 27.81000 22.82800
N  -5.23200 25.30200 27.10600
C  -4.71900 26.16000 28.05300
C  -5.02400 25.63500 29.47400
C  -5.71500 24.23000 29.21000
C  -6.02100 24.34000 27.64800
C  -4.97000 22.92400 29.61700
C  -5.94800 26.76400 30.22500
C  -6.13500 26.62100 31.72600
H  -5.21500 25.59000 32.44600
N  -6.52500 24.00500 24.59100
C  -7.11400 23.24700 25.61900
C  -7.97300 22.23400 25.01900
C  -7.80100 22.24200 23.56400
C  -6.85000 23.35500 23.36500
C  -8.83200 21.37500 25.88100
C  -8.51200 21.37100 22.52200
O  -8.41200 21.56200 21.35900
C  -9.35600 20.25100 22.97000
N  -4.94700 25.73500 22.71000
C  -5.61500 24.96800 21.75900
C  -5.11000 25.32700 20.32600
C  -4.44800 26.75100 20.60800
C  -4.31400 26.79700 22.13700
C  -4.21900 24.29200 19.61800
C  -5.09400 28.01800 20.04000
C  -6.41500 28.48300 20.62000
N  -3.96400 27.18500 25.13600
C  -3.44500 28.01800 24.23000
C  -2.70700 29.06500 24.99600
C  -2.87700 28.73500 26.28800
C  -3.65400 27.58900 26.39300
C  -1.94100 30.23500 24.44500
C  -2.54600 29.14100 27.58200
O  -1.88400 30.07100 27.94900
C  -3.24300 28.12900 28.59900
C  -2.19100 27.47400 29.42900
O  -1.16400 26.89800 28.97800
O  -2.39200 27.58700 30.79600
C  -1.36000 27.35100 31.79600
H  -7.35400 22.76500 27.62600
H  -7.04700 23.60600 21.25500
H  -3.17200 28.63600 22.23200
H  -4.08800 25.44400 29.99900
H  -6.65200 24.25800 29.76700
H  -4.18700 23.08400 30.35900
H  -4.49800 22.54300 28.71200
H  -5.51900 22.06500 30.00300
H  -6.94300 26.48900 29.87400
H  -5.68300 27.81000 30.06800
H  -7.10700 26.18500 31.96000
H  -6.09600 27.59200 32.22000
H  -9.83700 21.08800 25.57200
H  -9.04800 21.85900 26.83400
H  -8.41700 20.38400 26.06700
H  -8.83400 19.49600 23.55800
H  -9.63000 19.84400 21.99600
H  -10.25200 20.70800 23.38800
H  -6.02400 25.40400 19.73800
H  -3.37800 26.81200 20.40500
H  -3.81300 23.65000 20.39900
H  -3.35300 24.86600 19.28900
H  -4.61300 23.69400 18.79500
H  -5.20800 27.78400 18.98100
H  -4.36300 28.82500 20.09800
H  -6.84200 27.78900 21.34400
H  -7.11300 28.58000 19.78800
H  -6.05200 29.45500 20.95500
H  -1.04400 30.02700 23.86200
H  -1.72500 30.91600 25.26800
H  -2.47300 30.79700 23.67800
H  -3.86800 28.74100 29.24900
H  -1.40200 28.09700 32.59000
H  -0.35200 27.15900 31.42800
H  -1.50900 26.31100 32.08600

