158

Mg 34.81800 3.16500 29.72500
C  32.80500 4.63700 32.22600
C  37.20900 2.71300 32.12400
C  36.88000 2.23000 27.27700
C  32.41400 4.18000 27.38800
N  35.02500 3.70600 31.90100
C  34.00000 4.21800 32.69300
C  34.40700 4.15200 34.17700
C  35.97300 3.80000 34.13600
C  36.09300 3.30500 32.62600
C  36.92900 5.02800 34.36800
C  33.55600 3.21700 35.07900
C  33.11200 3.87100 36.45800
H  33.87200 5.10500 36.95600
N  36.73500 2.52700 29.66500
C  37.57700 2.35900 30.79900
C  38.87500 1.91600 30.39400
C  38.84600 1.83900 28.94700
C  37.44400 2.20200 28.57600
C  39.95100 1.72600 31.37200
C  39.92300 1.31400 27.96500
O  39.74400 1.34600 26.73100
C  41.21300 0.71800 28.50900
N  34.54700 2.98900 27.57700
C  35.56300 2.56900 26.74200
C  35.10100 2.68700 25.24000
C  33.72500 3.27100 25.36800
C  33.51900 3.45000 26.87300
C  36.22000 3.58900 24.55200
C  32.56800 2.54600 24.64100
C  31.87500 1.32000 25.35800
N  32.97100 4.15600 29.69800
C  32.10000 4.47800 28.64600
C  30.84400 5.00900 29.22300
C  31.06200 5.08800 30.66400
C  32.40300 4.61300 30.87000
C  29.69600 5.38000 28.40000
C  30.48600 5.38200 31.93200
O  29.32600 5.68300 32.15400
C  31.66800 5.22100 32.97300
C  31.95200 6.50500 33.64000
O  32.75500 7.35900 33.27600
O  31.12400 6.50000 34.74600
C  31.10300 7.77700 35.45200
H  37.99600 2.58200 32.87000
H  37.58000 1.99300 26.47300
H  31.69700 4.53800 26.64600
H  34.37900 5.20700 34.44700
H  36.29400 3.04100 34.85000
H  36.38100 5.77800 34.93700
H  37.14800 5.43600 33.38100
H  37.88000 4.79100 34.84400
H  34.07500 2.30000 35.36300
H  32.66400 2.77000 34.64000
H  33.07900 3.07600 37.20300
H  32.09300 4.21800 36.28700
H  40.67500 0.97100 31.06500
H  39.53100 1.36400 32.31100
H  40.45000 2.68200 31.52700
H  41.80600 0.19800 27.75700
H  41.03800 -0.06400 29.24700
H  41.79400 1.53100 28.94500
H  35.15200 1.65100 24.90700
H  33.81800 4.23300 24.86200
H  35.81700 4.39100 23.93400
H  36.78500 2.90800 23.91600
H  36.93400 4.02200 25.25300
H  32.88800 2.08200 23.70800
H  31.81400 3.29300 24.39300
H  32.68700 0.59500 25.41900
H  31.12200 0.92100 24.67800
H  31.46600 1.35200 26.36700
H  29.70900 4.83300 27.45700
H  29.79800 6.40500 28.04300
H  28.74600 5.21800 28.90800
H  31.33400 4.50100 33.72000
H  30.53100 8.54600 34.93300
H  32.12300 8.14200 35.56700
H  30.69600 7.62600 36.45200
Mg 16.80500 51.93600 26.57900
C  18.66700 50.19700 29.19900
C  14.33000 52.52000 28.81800
C  15.08600 53.15700 24.09400
C  19.32000 50.69200 24.34000
N  16.59600 51.53000 28.73400
C  17.43300 50.82000 29.61400
C  17.04300 51.09500 31.04800
C  15.59800 51.59100 30.90900
C  15.45600 51.86500 29.38000
C  14.42600 50.62200 31.23900
C  18.01100 52.14400 31.69400
C  18.50600 51.91300 33.15000
H  17.62700 51.03600 34.05100
N  15.06000 52.90900 26.54400
C  14.11700 52.95200 27.51300
C  12.91700 53.53800 27.04100
C  13.16800 53.87000 25.68400
C  14.51200 53.32800 25.37400
C  11.72200 53.83700 27.87600
C  12.24300 54.52000 24.66100
O  12.49700 54.49600 23.49300
C  11.06500 55.29800 25.15700
N  17.14100 51.81900 24.48900
C  16.19700 52.38800 23.74400
C  16.54400 52.19400 22.21300
C  17.96000 51.46200 22.31700
C  18.17600 51.23800 23.77700
C  15.66400 51.32000 21.27000
C  19.16700 52.06300 21.64600
C  19.55800 53.54900 22.03800
N  18.62800 50.70900 26.73500
C  19.49100 50.30700 25.71700
C  20.62700 49.64500 26.29800
C  20.31500 49.53700 27.67900
C  19.11400 50.15100 27.91200
C  21.76600 49.09400 25.53000
C  20.76900 48.98500 28.91600
O  21.80600 48.39800 29.20300
C  19.73500 49.47800 30.00000
C  19.38100 48.38700 30.86700
O  18.80200 47.37200 30.59800
O  19.80600 48.69200 32.12200
C  19.60600 47.61200 33.13100
H  13.48100 52.49100 29.50500
H  14.50300 53.25900 23.17700
H  20.16800 50.29200 23.78000
H  17.12000 50.15200 31.59000
H  15.44400 52.56500 31.37500
H  13.64400 51.09000 31.83700
H  14.94100 49.85700 31.82000
H  14.06000 50.14300 30.33100
H  17.57500 53.13600 31.81600
H  18.95100 52.21000 31.14700
H  18.70400 52.90800 33.54900
H  19.46300 51.39400 33.09600
H  11.51400 54.90700 27.86200
H  11.78000 53.50300 28.91200
H  10.88500 53.28300 27.45100
H  10.56600 55.83500 24.35000
H  11.53800 56.02300 25.81900
H  10.37000 54.52600 25.48600
H  16.65700 53.14000 21.68200
H  17.84700 50.41100 22.05300
H  14.69300 51.07000 21.69600
H  16.13200 50.41800 20.87500
H  15.48500 51.96100 20.40700
H  18.82500 52.04500 20.61100
H  20.14700 51.58600 21.67400
H  19.24000 53.78200 23.05500
H  19.11700 54.32200 21.40800
H  20.63900 53.68800 22.05600
H  21.87700 49.31900 24.46900
H  21.67800 48.01200 25.61900
H  22.66600 49.21900 26.13200
H  20.33700 50.14900 30.61300
H  20.09800 46.65000 32.98800
H  18.56300 47.35400 33.31100
H  20.06500 48.07100 34.00800

