158

Mg 0.97500 7.79300 25.22600
C  1.51500 9.68400 28.24400
C  1.40400 4.98700 27.25500
C  0.89400 5.93400 22.41100
C  1.16200 10.73600 23.43400
N  1.51600 7.41400 27.50000
C  1.57400 8.29400 28.51000
C  1.74100 7.65400 29.92000
C  1.73800 6.11000 29.57300
C  1.59700 6.12900 28.02100
C  3.07700 5.41900 29.95000
C  0.53100 7.97100 30.94300
C  1.00200 8.27300 32.46500
H  2.15500 7.50100 32.97000
N  1.05300 5.72400 24.87700
C  1.13700 4.79500 25.88800
C  0.86500 3.50700 25.27900
C  0.63300 3.72700 23.87400
C  0.84300 5.12900 23.61600
C  0.60100 2.22600 26.10400
C  0.23300 2.82200 22.77000
O  -0.03500 3.21400 21.62300
C  0.03400 1.32300 22.92500
N  1.22200 8.24300 23.18900
C  1.07700 7.31000 22.18400
C  0.82100 8.02700 20.83100
C  1.09700 9.51000 21.13900
C  1.12300 9.55100 22.66300
C  1.44500 7.40800 19.54100
C  0.10000 10.44300 20.45800
C  -1.27800 10.66400 21.24200
N  1.33600 9.81800 25.63300
C  1.28300 10.90300 24.80300
C  1.44300 12.14200 25.54600
C  1.50600 11.67300 26.90800
C  1.34700 10.26900 26.91600
C  1.76200 13.49700 24.94300
C  1.82800 12.12400 28.25000
O  2.08100 13.20900 28.66200
C  1.67700 10.81000 29.15000
C  2.78200 10.81600 30.09100
O  3.88500 10.23400 29.92100
O  2.43300 11.44200 31.25800
C  3.49900 11.48600 32.25100
H  1.50000 4.09900 27.88300
H  0.75400 5.47500 21.43000
H  1.03200 11.67500 22.89100
H  2.74200 7.95900 30.22500
H  0.83400 5.67200 29.99600
H  3.14300 5.75900 30.98300
H  3.98900 5.67900 29.41200
H  3.09700 4.33000 29.90600
H  -0.28600 7.26200 30.80900
H  0.16800 8.90500 30.51500
H  0.13800 7.93000 33.03400
H  1.10500 9.35300 32.57500
H  -0.46600 2.00200 26.11000
H  0.71900 2.48500 27.15700
H  1.14400 1.35200 25.74600
H  0.80700 0.91200 23.57500
H  0.02800 0.82100 21.95700
H  -0.87400 1.16000 23.50600
H  -0.24400 7.95700 20.61100
H  2.07100 9.81600 20.75800
H  2.15400 6.62500 19.80800
H  1.94200 8.15800 18.92500
H  0.70100 6.90200 18.92500
H  -0.18500 10.25200 19.42400
H  0.52900 11.44300 20.52400
H  -2.06900 11.12600 20.65100
H  -1.23200 11.41400 22.03200
H  -1.60600 9.75000 21.73700
H  2.71700 13.33600 24.44300
H  2.04400 14.07300 25.82500
H  0.85700 13.79900 24.41700
H  0.83600 10.93900 29.83200
H  3.95400 10.51900 32.46600
H  3.08500 11.82000 33.20300
H  4.31900 12.10900 31.89300
Mg 30.67200 58.54300 40.58300
C  28.06300 56.49100 39.42800
C  32.99800 55.98600 39.81200
C  33.20700 60.80900 40.68700
C  28.37400 61.16500 40.71200
N  30.47400 56.43600 39.81800
C  29.32600 55.83000 39.32000
C  29.65300 54.44600 38.78800
C  31.17200 54.29200 39.36200
C  31.57000 55.68500 39.73900
C  31.32200 53.23400 40.49100
C  29.48200 54.27700 37.22100
C  28.34000 53.39400 36.69100
H  27.46100 54.02800 35.58900
N  32.86400 58.36700 40.35200
C  33.62000 57.20400 40.14100
C  34.96400 57.52500 40.20900
C  35.09900 58.95500 40.38600
C  33.67100 59.46500 40.50600
C  36.03200 56.50700 39.90300
C  36.37500 59.75400 40.34000
O  37.45300 59.20600 40.28100
C  36.31800 61.26000 40.35700
N  30.75200 60.59800 40.82500
C  31.88400 61.29100 40.95300
C  31.64600 62.86000 41.12400
C  30.11200 62.90400 41.15100
C  29.70300 61.45600 40.85900
C  32.22000 63.44600 42.47200
C  29.49800 63.92600 40.20100
C  28.31300 64.76900 40.78900
N  28.62300 58.82300 40.27700
C  27.81500 59.92500 40.36400
C  26.42900 59.54300 40.13000
C  26.51500 58.26200 39.80600
C  27.89300 57.82900 39.75300
C  25.23000 60.56400 40.16200
C  25.68900 57.12800 39.39900
O  24.46100 57.04500 39.37500
C  26.69100 55.94600 39.18100
C  26.20100 54.79600 40.03800
O  26.73800 54.31000 41.01900
O  25.01600 54.35400 39.56000
C  24.45900 53.12400 40.18800
H  33.62500 55.10900 39.63500
H  33.97400 61.58600 40.71900
H  27.73600 62.02500 40.93000
H  28.96100 53.79700 39.32300
H  31.85000 54.06500 38.54000
H  32.04400 52.55000 40.04500
H  30.47200 52.56900 40.64400
H  31.61800 53.64900 41.45500
H  30.36100 53.85400 36.73400
H  29.27000 55.21100 36.70100
H  27.62600 53.19500 37.49000
H  28.79900 52.46700 36.34700
H  35.64500 55.56100 39.52500
H  36.51000 56.24000 40.84600
H  36.81700 56.85700 39.23200
H  35.71100 61.71500 39.57400
H  37.33300 61.62200 40.19100
H  35.97200 61.41600 41.37800
H  31.92500 63.40800 40.22400
H  29.72600 63.15100 42.14000
H  33.16000 62.98200 42.77000
H  31.50300 63.24800 43.26900
H  32.54200 64.46300 42.24900
H  29.16700 63.34300 39.34100
H  30.21900 64.67200 39.86300
H  28.71200 65.70700 41.17500
H  27.81600 64.27000 41.62100
H  27.56900 64.93300 40.01000
H  24.34000 60.06800 39.77500
H  25.44900 61.37300 39.46400
H  25.08800 60.81300 41.21300
H  26.58600 55.72400 38.11900
H  23.91300 53.53700 41.03600
H  25.25900 52.47200 40.54200
H  23.78200 52.55900 39.54800

