158

Mg 23.71900 -6.79700 45.26200
C  25.95700 -4.51700 43.70400
C  21.12600 -5.13200 43.65100
C  21.66000 -9.35100 46.01000
C  26.40700 -8.32800 46.69100
N  23.56600 -5.12900 43.66000
C  24.60500 -4.31100 43.25700
C  24.13600 -3.41500 42.16000
C  22.59200 -3.34600 42.49500
C  22.36300 -4.62600 43.33000
C  22.06200 -2.08200 43.17900
C  24.55400 -4.03100 40.78600
C  25.05500 -3.05400 39.67600
H  24.91500 -3.44700 38.20700
N  21.66400 -7.17300 44.90200
C  20.75900 -6.30700 44.28400
C  19.48600 -6.94200 44.21700
C  19.64700 -8.26600 44.82800
C  21.01500 -8.31700 45.28600
C  18.19100 -6.29100 43.69400
C  18.55300 -9.12900 45.23100
O  17.46100 -8.89900 44.68300
C  18.68500 -10.23800 46.25500
N  24.06000 -8.66600 46.02700
C  23.01700 -9.47700 46.36000
C  23.56200 -10.81400 47.03200
C  24.97600 -10.28000 47.50900
C  25.20500 -9.00800 46.70700
C  22.66700 -11.37100 48.16200
C  26.04300 -11.36100 47.39500
C  26.56200 -11.74500 48.70900
N  25.76500 -6.47500 45.27000
C  26.74000 -7.20200 45.90600
C  28.03300 -6.56400 45.65600
C  27.76000 -5.53800 44.80500
C  26.38600 -5.54700 44.58000
C  29.31800 -7.00900 46.19900
C  28.40200 -4.42500 44.04400
O  29.61700 -4.11500 43.92700
C  27.17300 -3.77300 43.33200
C  27.04300 -2.24400 43.49900
O  27.52000 -1.37300 42.74800
O  26.57600 -1.92900 44.75900
C  26.55600 -0.51400 45.07600
H  20.23700 -4.62300 43.27400
H  21.14800 -10.30000 46.18400
H  27.25100 -8.77900 47.21700
H  24.51400 -2.40400 42.31500
H  22.18100 -3.50500 41.49800
H  22.88600 -1.53500 43.63900
H  21.23700 -2.31400 43.85300
H  21.76800 -1.34900 42.42800
H  23.64600 -4.37200 40.28900
H  25.26700 -4.85400 40.84100
H  26.10700 -2.86900 39.89500
H  24.50600 -2.11900 39.78400
H  17.63600 -7.02900 43.11500
H  18.35100 -5.40900 43.07500
H  17.59300 -5.92600 44.52900
H  19.28800 -9.92600 47.10800
H  19.03400 -11.12800 45.73100
H  17.67800 -10.37900 46.64700
H  23.47100 -11.53200 46.21700
H  24.87900 -9.97300 48.55100
H  21.74600 -10.79500 48.24800
H  23.24200 -11.32700 49.08700
H  22.32200 -12.39500 48.01500
H  26.74400 -10.97800 46.65300
H  25.63300 -12.25900 46.93400
H  25.96800 -11.50600 49.59000
H  27.60300 -11.48500 48.90100
H  26.78300 -12.80800 48.60600
H  29.39500 -6.76500 47.25900
H  30.16600 -6.48900 45.75400
H  29.43600 -8.08500 46.07300
H  27.36100 -3.78700 42.25900
H  26.03600 0.08700 44.33000
H  27.56000 -0.10900 45.20100
H  26.00500 -0.39500 46.01000
Mg 36.33400 0.94900 29.07300
C  34.20400 1.89400 31.71200
C  39.00300 1.06700 31.22800
C  38.42400 0.83600 26.36800
C  33.66200 1.31400 26.83800
N  36.55700 1.41000 31.25600
C  35.48400 1.57300 32.18900
C  36.07200 1.57200 33.58300
C  37.59300 1.45600 33.35900
C  37.75300 1.28100 31.86700
C  38.47900 2.52400 33.97300
C  35.45700 0.46000 34.51500
C  34.97000 0.96300 35.89800
H  35.72600 2.06400 36.57000
N  38.40000 0.95700 28.85100
C  39.32000 0.93100 29.86700
C  40.64000 0.68300 29.33100
C  40.45800 0.64500 27.93000
C  39.04400 0.87600 27.67900
C  41.90500 0.44200 30.17600
C  41.60100 0.37100 26.89000
O  41.41200 0.30500 25.67200
C  43.04300 0.18100 27.18800
N  36.05700 1.04400 26.87900
C  37.07600 0.89100 25.98800
C  36.53400 0.59400 24.58300
C  34.93400 0.63500 24.72000
C  34.83900 1.01900 26.20900
C  37.11600 1.62500 23.56800
C  34.24000 -0.69600 24.37800
C  34.13000 -1.79100 25.51900
N  34.39700 1.39600 29.15300
C  33.43000 1.55400 28.21300
C  32.15800 2.01900 28.79700
C  32.45000 2.12000 30.13300
C  33.80500 1.77200 30.31900
C  30.91600 2.36200 27.98200
C  31.80500 2.47900 31.41800
O  30.70400 2.91700 31.66100
C  32.96800 2.29100 32.46300
C  33.04100 3.48500 33.27200
O  33.66100 4.51500 32.95300
O  32.22000 3.39100 34.37400
C  32.25700 4.41400 35.43100
H  39.81700 0.81200 31.90900
H  39.04900 0.53500 25.52500
H  32.77800 1.19200 26.20900
H  35.85900 2.55000 34.01500
H  37.98900 0.57100 33.85600
H  37.96300 3.00900 34.80200
H  38.62400 3.36200 33.29100
H  39.38600 2.17100 34.46200
H  36.22800 -0.30300 34.61400
H  34.61600 0.00600 33.99000
H  34.95900 0.16100 36.63500
H  33.92400 1.20600 35.70800
H  42.23400 -0.58400 30.01100
H  41.75000 0.47600 31.25400
H  42.57100 1.25900 29.89700
H  43.63600 0.21900 26.27400
H  43.13100 -0.87200 27.45900
H  43.31500 0.92100 27.94000
H  36.85400 -0.39000 24.23900
H  34.53700 1.51900 24.22000
H  37.65900 0.99000 22.86800
H  37.78300 2.42500 23.89000
H  36.24000 2.02500 23.05800
H  34.58000 -1.31600 23.54800
H  33.18800 -0.50300 24.16600
H  33.11100 -2.00400 25.84200
H  34.63500 -1.46000 26.42600
H  34.77600 -2.60500 25.18900
H  30.96400 3.30500 27.43800
H  30.05500 2.13200 28.61000
H  30.94800 1.47100 27.35500
H  32.70800 1.41100 33.05200
H  31.62900 5.23200 35.07900
H  33.31000 4.68400 35.50700
H  32.01000 3.90900 36.36400

