158

Mg 47.66300 24.78800 28.32500
C  48.69300 27.10600 30.96700
C  46.49900 22.70000 30.78400
C  47.15600 22.65200 25.91600
C  49.19100 27.13100 26.06000
N  47.58600 24.93400 30.54400
C  47.91900 25.96400 31.33000
C  47.41200 25.80200 32.83400
C  46.99800 24.25900 32.80400
C  46.96000 23.90900 31.28700
C  47.98100 23.24100 33.57300
C  46.21100 26.75200 33.33000
C  46.48700 27.62800 34.63400
H  46.76400 26.83900 35.87300
N  46.84200 22.94200 28.31800
C  46.40400 22.26600 29.44500
C  45.89200 21.00200 28.95800
C  46.05600 20.97300 27.54900
C  46.69800 22.19700 27.18000
C  45.39900 19.98800 29.89600
C  45.69300 19.91700 26.52700
O  46.03200 20.04100 25.36700
C  45.01900 18.69800 27.03300
N  48.23800 24.84800 26.35800
C  47.78700 23.85500 25.53200
C  48.18300 24.11600 24.04700
C  48.57800 25.61200 24.10500
C  48.74000 25.90200 25.55300
C  49.40000 23.18100 23.55000
C  47.51400 26.54900 23.37400
C  46.14500 26.45200 23.88300
N  48.85600 26.74200 28.43400
C  49.26700 27.53700 27.38800
C  49.83900 28.76300 27.92700
C  49.66500 28.59300 29.32400
C  49.07900 27.36400 29.56500
C  50.59000 29.86700 27.08600
C  49.87400 29.23800 30.57700
O  50.40800 30.33400 30.77300
C  49.20200 28.32000 31.65300
C  50.08500 28.16100 32.85300
O  51.04100 27.41300 32.88800
O  49.68700 28.99600 33.81500
C  50.31000 28.98800 35.11600
H  46.13400 22.02200 31.55900
H  46.98500 22.02500 25.03700
H  49.53400 27.83900 25.30300
H  48.29500 25.97700 33.45000
H  45.97700 24.06700 33.13400
H  48.95000 23.15900 33.08200
H  47.51400 22.28000 33.79200
H  48.18200 23.65100 34.56300
H  45.34100 26.12700 33.53400
H  45.66900 27.39500 32.63700
H  45.60700 28.23000 34.85900
H  47.37100 28.25100 34.50000
H  46.25900 19.41200 30.23900
H  44.57600 19.34300 29.59000
H  44.96600 20.61700 30.67400
H  45.47900 18.28300 27.93000
H  45.17700 17.89700 26.31000
H  43.96800 18.95900 27.15900
H  47.30100 23.89900 23.44500
H  49.58500 25.70200 23.69700
H  50.34700 23.71500 23.62500
H  49.16400 22.92900 22.51700
H  49.51000 22.30300 24.18800
H  47.50900 26.19500 22.34300
H  47.96800 27.53600 23.46300
H  45.85300 27.35000 24.42800
H  46.00200 25.57500 24.51500
H  45.46100 26.21600 23.06800
H  51.24500 29.38700 26.35900
H  51.37300 30.36700 27.65600
H  49.92800 30.60600 26.63400
H  48.33300 28.88700 31.98800
H  50.42200 30.05100 35.32900
H  51.28100 28.49300 35.11800
H  49.64600 28.63100 35.90400
Mg 26.99500 49.78100 26.31100
C  25.02400 51.05900 29.05900
C  29.34100 48.74100 28.50600
C  29.00900 49.43800 23.69700
C  24.55900 51.23400 24.26000
N  27.22200 50.17100 28.52500
C  26.29600 50.51900 29.44400
C  26.87400 50.24100 30.89200
C  28.22000 49.54800 30.61500
C  28.24500 49.47200 29.09500
C  29.52400 50.24400 31.16200
C  25.77000 49.42500 31.73000
C  26.31400 48.64100 32.93800
H  25.68300 48.81500 34.26000
N  28.98900 49.16500 26.15200
C  29.76800 48.67700 27.15500
C  30.96700 48.07800 26.63100
C  30.93500 48.44900 25.22200
C  29.58500 49.05600 24.97500
C  31.94600 47.30300 27.49500
C  31.95800 48.18500 24.17800
O  31.88100 48.64900 23.06900
C  33.02200 47.23100 24.58900
N  26.83000 50.37300 24.32800
C  27.78500 50.02100 23.42400
C  27.23700 50.30200 22.00000
C  25.75400 50.52100 22.13100
C  25.64400 50.62500 23.67800
C  27.85700 51.37600 21.01500
C  24.83800 49.48800 21.32900
C  24.27400 48.41100 22.21600
N  25.18300 50.87800 26.55300
C  24.31600 51.48700 25.63200
C  23.21500 52.14000 26.25600
C  23.52600 52.02700 27.66400
C  24.63500 51.22200 27.79700
C  22.00200 52.79200 25.61800
C  23.02400 52.33500 28.93000
O  21.98500 52.94600 29.26000
C  23.96000 51.71100 29.92600
C  24.58100 52.82500 30.78200
O  25.56700 53.56300 30.50900
O  23.79500 53.00900 31.87500
C  24.19400 54.14300 32.64900
H  30.03800 48.21700 29.16400
H  29.58900 49.18400 22.80700
H  23.98800 51.59700 23.40300
H  27.11600 51.09200 31.52900
H  28.22200 48.49500 30.89500
H  30.12100 49.61400 31.82200
H  29.16500 51.07400 31.77100
H  30.24300 50.50500 30.38500
H  25.26300 48.77200 31.02000
H  25.13100 50.19200 32.16600
H  27.39500 48.73500 33.04400
H  26.10200 47.58200 32.78900
H  31.64400 47.23700 28.54100
H  32.87100 47.87700 27.55400
H  32.18100 46.29800 27.14500
H  33.67500 47.15300 23.72000
H  32.53200 46.27100 24.74700
H  33.61200 47.58800 25.43400
H  27.29800 49.29500 21.58700
H  25.40900 51.46900 21.71800
H  28.78500 51.74900 21.44800
H  27.20100 52.20700 20.75600
H  28.13300 50.87800 20.08600
H  25.32800 48.93000 20.53100
H  23.97100 49.95700 20.86300
H  24.57900 48.57600 23.25000
H  24.74200 47.46100 21.95700
H  23.19200 48.28400 22.18600
H  21.96000 53.73500 26.16400
H  21.11100 52.18200 25.76700
H  22.14200 53.01000 24.56000
H  23.41800 50.97800 30.52500
H  25.03100 53.95900 33.32200
H  23.27900 54.32600 33.21300
H  24.36200 55.08300 32.12400

