158

Mg 27.04100 51.22100 26.14000
C  25.12700 52.14200 29.03100
C  29.39700 50.04900 28.38500
C  28.98900 50.72800 23.54200
C  24.65200 52.81200 24.11600
N  27.24200 51.16800 28.44300
C  26.31100 51.40100 29.39900
C  26.73900 50.97600 30.72400
C  28.24500 50.47400 30.57300
C  28.32500 50.58500 29.04000
C  29.28600 51.45200 31.17500
C  25.67500 49.91500 31.30200
C  24.91800 50.32200 32.60600
H  24.63300 49.22300 33.71700
N  28.86300 50.48200 25.97300
C  29.69400 49.99700 26.97300
C  30.90800 49.54600 26.39600
C  30.87900 49.75700 24.98100
C  29.55100 50.35300 24.80700
C  31.97700 48.72100 27.15200
C  31.93900 49.50400 24.01100
O  31.84800 49.86700 22.84800
C  33.25400 48.87700 24.45000
N  26.79400 51.56800 24.09600
C  27.76500 51.28800 23.18600
C  27.26800 51.58100 21.67500
C  25.79200 52.15100 21.93400
C  25.75500 52.25200 23.43100
C  28.22400 52.47800 20.78800
C  24.65600 51.21100 21.34300
C  23.55300 52.04700 20.71800
N  25.28700 52.24800 26.41200
C  24.44800 52.81900 25.50900
C  23.38200 53.43500 26.17700
C  23.57500 53.20400 27.51100
C  24.78800 52.49500 27.65500
C  22.23900 54.08700 25.60600
C  22.97300 53.34400 28.84900
O  21.93100 53.81200 29.25700
C  23.98300 52.71200 29.80500
C  24.47200 53.87100 30.70200
O  25.04100 54.87200 30.34100
O  24.23200 53.47300 32.02400
C  24.82100 54.48600 32.96500
H  30.04400 49.71600 29.20000
H  29.60900 50.52100 22.66800
H  24.04900 53.47000 23.48700
H  26.82400 51.81700 31.41200
H  28.33300 49.44700 30.92800
H  28.76900 52.29700 31.63000
H  29.99000 51.84600 30.44200
H  29.88300 50.87800 31.88300
H  26.20600 49.03300 31.66000
H  24.95400 49.50500 30.59500
H  23.92900 50.71800 32.37500
H  25.38800 51.20500 33.03800
H  32.87700 49.33500 27.12800
H  32.20600 47.75900 26.69500
H  31.74400 48.67700 28.21600
H  33.93200 48.71800 23.61000
H  33.00900 47.87800 24.81000
H  33.72800 49.54500 25.16800
H  27.24200 50.60100 21.19900
H  25.72700 53.18900 21.60800
H  28.86100 51.92400 20.09900
H  28.92200 53.08600 21.36300
H  27.57500 53.18100 20.26700
H  24.26100 50.45800 22.02500
H  25.02900 50.65200 20.48400
H  22.62400 51.71700 21.18300
H  23.43600 52.01100 19.63500
H  23.70700 53.09100 20.99400
H  21.50400 54.11600 26.41100
H  21.90300 53.42000 24.81300
H  22.43300 55.08800 25.22000
H  23.50100 51.85000 30.26700
H  23.98700 55.16900 33.12500
H  25.77900 54.92900 32.69200
H  24.98800 54.03900 33.94500
Mg -4.59700 25.42500 25.52400
C  -3.24900 26.57500 28.48800
C  -6.70600 23.32500 27.45100
C  -5.73800 24.05000 22.66400
C  -2.35700 27.29200 23.76800
N  -4.96500 25.06600 27.78500
C  -4.33900 25.66700 28.77500
C  -4.83200 25.28000 30.18000
C  -5.58300 24.00200 29.81000
C  -5.83100 24.14300 28.22500
C  -4.85500 22.69200 30.23000
C  -5.58900 26.44700 30.90500
C  -5.04300 26.73600 32.28600
H  -5.16700 25.70800 33.37900
N  -6.07500 23.92500 25.10100
C  -6.91600 23.26400 26.04300
C  -7.83500 22.42400 25.30500
C  -7.58300 22.64000 23.89900
C  -6.43000 23.55900 23.80700
C  -8.77200 21.47100 25.99000
C  -8.36700 22.11200 22.68200
O  -7.99800 22.40300 21.54100
C  -9.63700 21.34200 23.00200
N  -4.28600 25.82900 23.59400
C  -4.71900 24.96500 22.56700
C  -3.97400 25.16800 21.22100
C  -3.11800 26.36800 21.51300
C  -3.26600 26.52100 23.03200
C  -3.34400 23.86600 20.77300
C  -3.42100 27.69600 20.68600
C  -2.46000 28.06300 19.58600
N  -2.96800 26.70100 26.01700
C  -2.13100 27.42100 25.15800
C  -1.25000 28.27800 25.97200
C  -1.66100 27.92000 27.30200
C  -2.68900 26.94900 27.25400
C  -0.19000 29.23500 25.58100
C  -1.37400 28.22700 28.65800
O  -0.53100 28.98000 29.09800
C  -2.44100 27.34000 29.50000
C  -1.66700 26.34600 30.33400
O  -1.45900 25.19300 30.13600
O  -1.23500 26.99600 31.47700
C  -0.70800 26.17300 32.63700
H  -7.37500 22.69300 28.03800
H  -5.84800 23.54500 21.70200
H  -1.64700 27.72100 23.05800
H  -3.93100 25.00400 30.72800
H  -6.62100 24.06800 30.13600
H  -3.97200 22.79100 30.86100
H  -4.53300 22.26400 29.28100
H  -5.59400 22.13800 30.81000
H  -6.64500 26.20300 31.01500
H  -5.50900 27.40000 30.38200
H  -5.53800 27.63900 32.64300
H  -4.00600 27.04600 32.15800
H  -9.76300 21.92300 25.94200
H  -8.50600 21.44400 27.04700
H  -8.60900 20.49400 25.53500
H  -10.02000 21.11400 22.00700
H  -10.39300 22.02300 23.39100
H  -9.47300 20.48000 23.64900
H  -4.75900 25.38500 20.49700
H  -2.07800 26.05900 21.41200
H  -3.52300 23.03500 21.45500
H  -2.27000 23.95100 20.60800
H  -3.76400 23.57700 19.80900
H  -3.38500 28.61600 21.27000
H  -4.45400 27.65200 20.34100
H  -2.66300 27.61300 18.61400
H  -1.52400 27.63100 19.93900
H  -2.34500 29.13100 19.40000
H  0.37800 28.84200 24.73800
H  0.39100 29.40300 26.48800
H  -0.63900 30.17000 25.24400
H  -3.04700 28.05200 30.06100
H  -0.92400 25.10900 32.54500
H  -1.08300 26.43200 33.62700
H  0.36000 26.37900 32.56200

