158

Mg -1.39800 17.26600 26.21900
C  -1.94300 15.11200 28.91800
C  -1.86000 20.01800 28.20600
C  -1.61600 19.20100 23.52700
C  -1.79200 14.33600 24.08100
N  -1.80800 17.47700 28.28300
C  -1.90700 16.46800 29.30400
C  -2.03900 17.10200 30.66300
C  -2.00700 18.58900 30.35500
C  -1.89600 18.74900 28.87200
C  -3.18300 19.33400 31.06100
C  -0.98600 16.53700 31.74100
C  -0.63500 17.43900 32.89100
H  -0.32100 16.77800 34.23900
N  -1.56600 19.31300 25.94200
C  -1.76700 20.27000 26.88100
C  -1.80400 21.54100 26.25600
C  -1.67700 21.36900 24.83300
C  -1.61600 19.89600 24.70000
C  -1.92600 22.85200 27.03200
C  -1.76700 22.41500 23.71300
O  -1.72600 22.11100 22.53300
C  -1.92900 23.90600 24.03300
N  -1.47400 16.80100 24.11500
C  -1.55600 17.84300 23.24600
C  -1.79200 17.27300 21.80400
C  -1.60200 15.73000 21.89400
C  -1.57100 15.58600 23.44300
C  -3.12200 17.78600 21.13900
C  -0.35000 15.15800 21.29500
C  1.07400 15.90300 21.62000
N  -1.76300 15.16200 26.36600
C  -1.82000 14.10800 25.47800
C  -1.87600 12.87300 26.16000
C  -1.97300 13.22700 27.49800
C  -1.90400 14.59800 27.59300
C  -1.92200 11.52200 25.47300
C  -2.08100 12.73000 28.83900
O  -2.17000 11.51600 29.16400
C  -2.16400 13.92100 29.81100
C  -1.08300 13.65900 30.82700
O  0.05800 14.01700 30.68800
O  -1.62700 12.91900 31.87700
C  -0.72200 12.50400 32.94700
H  -1.85700 20.86700 28.89400
H  -1.49900 19.67600 22.55100
H  -1.96800 13.48000 23.42700
H  -2.96100 16.69900 31.08200
H  -1.02500 18.92700 30.68600
H  -3.37500 18.80600 31.99500
H  -4.10200 19.44200 30.48400
H  -2.88400 20.31200 31.43700
H  -0.09200 16.10400 31.29200
H  -1.45900 15.72800 32.29900
H  -1.39900 18.20000 33.05100
H  0.24700 17.98100 32.54900
H  -0.92500 23.25700 27.18400
H  -2.35700 22.75300 28.02800
H  -2.51100 23.60100 26.49900
H  -2.97300 24.10700 24.27200
H  -1.94100 24.40900 23.06600
H  -1.26800 24.27800 24.81600
H  -0.97600 17.71300 21.23100
H  -2.42500 15.11700 21.52600
H  -3.65800 18.47500 21.79100
H  -3.90400 17.02900 21.08100
H  -2.95400 18.15900 20.12900
H  -0.50900 15.13400 20.21700
H  -0.32700 14.10000 21.55500
H  1.28200 16.54000 20.76000
H  1.81900 15.11100 21.69900
H  1.07700 16.54600 22.50000
H  -1.35100 10.85800 26.12200
H  -1.58900 11.43900 24.43900
H  -2.95700 11.18000 25.50600
H  -3.19100 13.88800 30.17300
H  -1.30800 12.48700 33.86600
H  0.15600 13.14600 33.02800
H  -0.43200 11.46900 32.76900
Mg 0.18700 42.87800 26.74300
C  2.39700 42.92700 29.45200
C  -2.32800 42.26800 29.01500
C  -1.87800 42.38900 24.12900
C  2.86300 43.15200 24.56600
N  0.02800 42.58100 29.00800
C  1.09300 42.74600 29.84400
C  0.63600 42.74700 31.27000
C  -0.88400 42.29700 31.20300
C  -1.09000 42.37100 29.66300
C  -1.07600 40.79600 31.61600
C  0.69900 44.20900 31.94500
C  1.08900 44.34200 33.38400
H  0.94300 43.19900 34.33500
N  -1.86600 42.28100 26.58100
C  -2.74800 42.28600 27.69200
C  -4.12400 42.11300 27.15300
C  -3.95700 42.14700 25.70900
C  -2.51300 42.27700 25.38400
C  -5.23200 41.87300 28.11600
C  -5.01500 42.04300 24.60400
O  -4.83600 42.05600 23.37700
C  -6.46700 41.95900 25.06200
N  0.43000 42.74900 24.66000
C  -0.54500 42.54500 23.78100
C  -0.04400 42.47000 22.23400
C  1.35700 43.27600 22.47600
C  1.59500 43.06200 24.00700
C  -0.01400 41.09200 21.59100
C  1.21800 44.78500 22.06300
C  1.27400 45.92500 23.12700
N  2.19200 43.03000 26.89900
C  3.18400 43.11700 25.93200
C  4.47500 43.14800 26.55800
C  4.22200 43.09500 27.93200
C  2.83500 42.98100 28.13000
C  5.86300 43.29700 25.84300
C  4.87800 43.03700 29.22100
O  6.04400 42.98200 29.62400
C  3.59800 43.00700 30.23600
C  3.85900 41.86100 31.12100
O  3.79900 40.70000 30.75700
O  4.12600 42.30500 32.41800
C  4.63200 41.34800 33.43100
H  -3.13800 42.33100 29.74500
H  -2.58200 42.32500 23.29700
H  3.67400 43.35400 23.86200
H  1.20300 42.04800 31.88500
H  -1.51300 42.96000 31.79600
H  -1.40700 40.24800 30.73500
H  -1.87800 40.74700 32.35200
H  -0.26300 40.25600 32.10200
H  -0.20100 44.74300 31.64000
H  1.46900 44.78200 31.42900
H  0.42800 45.10400 33.79800
H  2.13200 44.64600 33.48100
H  -4.97000 40.91800 28.57000
H  -6.20400 41.68000 27.66300
H  -5.36200 42.52700 28.97800
H  -6.39600 41.09900 25.72800
H  -7.25700 41.76300 24.33700
H  -6.70500 42.75900 25.76200
H  -0.74600 43.05600 21.64100
H  2.17600 42.90400 21.86000
H  -0.41300 40.30200 22.22700
H  1.01600 40.81200 21.37300
H  -0.50400 41.03700 20.61800
H  0.42200 44.94100 21.33400
H  2.09300 44.99700 21.44800
H  0.39700 46.54100 22.92800
H  2.15300 46.55200 22.98200
H  1.11100 45.48600 24.11100
H  5.73300 42.87000 24.84800
H  6.55800 42.73300 26.46500
H  6.22000 44.32100 25.72900
H  3.56000 43.91200 30.84200
H  5.21100 40.56900 32.93400
H  3.83000 40.86300 33.98700
H  5.31000 41.91800 34.06700

