158

Mg 16.23200 -1.62000 26.80100
C  15.06700 0.19600 29.65600
C  18.18500 -3.48600 28.97500
C  17.46900 -3.14000 24.17000
C  14.43400 0.65600 24.73500
N  16.78400 -1.47200 29.00100
C  16.08800 -0.73400 29.97100
C  16.57300 -1.12700 31.39100
C  17.72800 -2.15400 31.09500
C  17.54900 -2.38900 29.56600
C  19.22000 -1.76500 31.43200
C  15.41500 -1.69000 32.27100
C  15.10700 -0.99800 33.60900
H  16.23300 -0.24100 34.33600
N  17.61400 -3.04400 26.61900
C  18.19400 -3.84200 27.62700
C  18.97700 -4.87900 27.05500
C  18.84200 -4.74100 25.63900
C  17.94000 -3.67300 25.41300
C  19.74400 -5.96000 27.82700
C  19.36600 -5.69800 24.57900
O  19.03000 -5.56500 23.41100
C  20.15500 -6.95100 24.93100
N  16.02700 -1.20000 24.57900
C  16.58900 -2.04900 23.76900
C  16.06600 -1.69100 22.38700
C  14.97700 -0.53700 22.50200
C  15.16400 -0.33000 24.05900
C  17.19500 -1.35400 21.45700
C  13.56800 -0.89800 22.10800
C  12.83700 0.09600 21.25000
N  15.00900 0.06300 27.06400
C  14.28300 0.82000 26.12100
C  13.52600 1.79300 26.85600
C  13.65700 1.54400 28.26100
C  14.68100 0.53000 28.34400
C  12.61000 2.81500 26.21400
C  13.21200 1.96500 29.62100
O  12.40900 2.83000 29.93800
C  14.10600 1.04900 30.59400
C  14.92300 2.10900 31.34100
O  15.95800 2.63600 30.94900
O  14.31200 2.31200 32.53700
C  14.79500 3.50000 33.32000
H  18.72500 -4.08800 29.70900
H  17.80100 -3.49700 23.19300
H  13.79400 1.29900 24.12800
H  16.88100 -0.21800 31.90800
H  17.56400 -3.10000 31.61100
H  19.72900 -2.45000 32.10900
H  19.25100 -0.87600 32.06300
H  19.78100 -1.64900 30.50500
H  15.58700 -2.75000 32.45700
H  14.50600 -1.65100 31.67200
H  14.81500 -1.82600 34.25500
H  14.35200 -0.22800 33.45300
H  20.75500 -6.23700 27.53200
H  19.22700 -6.90400 27.65600
H  19.66700 -5.60100 28.85300
H  20.45900 -7.46800 24.02100
H  19.47400 -7.66400 25.39800
H  21.10100 -6.69100 25.40600
H  15.64100 -2.59100 21.94200
H  15.33900 0.33200 21.95500
H  17.32100 -0.30300 21.19500
H  17.23200 -1.99600 20.57700
H  18.14900 -1.55100 21.94600
H  13.15800 -0.77200 23.11000
H  13.44700 -1.88400 21.66100
H  13.55300 0.60700 20.60500
H  12.34200 0.72200 21.99200
H  12.08600 -0.45600 20.68500
H  12.37400 3.59600 26.93500
H  11.68100 2.41700 25.80700
H  13.12100 3.28500 25.37400
H  13.48100 0.58100 31.35500
H  14.48800 4.49300 32.99400
H  15.88300 3.43800 33.34400
H  14.58300 3.32600 34.37500
Mg 45.48800 4.17700 46.72500
C  43.24800 6.85900 46.84500
C  42.75700 2.04200 46.58200
C  47.65000 1.70600 46.01600
C  48.15000 6.56500 46.60600
N  43.28600 4.49100 46.75700
C  42.59700 5.62900 46.73600
C  41.05400 5.40000 46.72100
C  40.98800 3.83900 46.63500
C  42.45800 3.38300 46.75700
C  40.02700 3.10600 47.56400
C  40.21600 6.17000 45.58500
C  40.82100 6.42100 44.21400
H  39.99600 5.94000 43.02000
N  45.21900 2.12800 46.36800
C  44.00700 1.45000 46.38500
C  44.29200 0.05400 46.12500
C  45.73100 -0.02600 45.92200
C  46.30500 1.28800 46.10100
C  43.18700 -1.03700 46.23300
C  46.51500 -1.27400 45.51000
O  45.92600 -2.35600 45.45900
C  47.92000 -1.26100 45.10900
N  47.63600 4.14600 46.43300
C  48.31600 2.96600 46.24900
C  49.84300 3.21400 46.12900
C  49.95900 4.75700 46.22200
C  48.57800 5.19400 46.59600
C  50.65100 2.42700 47.22400
C  50.63500 5.41100 44.96300
C  49.65200 5.77700 43.82200
N  45.71800 6.30200 46.79500
C  46.81800 7.09900 46.71800
C  46.49100 8.50600 46.84800
C  45.05300 8.44800 46.98100
C  44.66300 7.09400 46.97300
C  47.38600 9.69700 46.76500
C  43.86500 9.25500 47.14200
O  43.72800 10.43800 47.31500
C  42.63300 8.25200 47.04200
C  41.84300 8.17400 48.30900
O  42.22300 7.54000 49.30600
O  40.61700 8.64900 48.03600
C  39.51500 8.55500 49.04100
H  41.83600 1.45700 46.62700
H  48.34800 0.86900 46.07200
H  49.06000 7.16700 46.65800
H  40.67600 5.70200 47.69800
H  40.75700 3.42900 45.65100
H  39.45000 3.87100 48.08400
H  40.42900 2.46700 48.35000
H  39.22800 2.67800 46.95800
H  40.13100 7.12000 46.11300
H  39.23900 5.69400 45.50400
H  41.72400 5.81700 44.12500
H  41.12900 7.44700 44.01300
H  42.90400 -1.48600 47.18500
H  43.42900 -1.96400 45.71300
H  42.26100 -0.73000 45.74700
H  48.18500 -2.07500 44.43400
H  48.43800 -1.27700 46.06700
H  48.12900 -0.35600 44.53900
H  50.05900 2.89700 45.10800
H  50.49900 5.01600 47.13300
H  51.24100 3.17900 47.74600
H  51.40100 1.84300 46.69000
H  49.99400 1.82300 47.85000
H  51.31900 4.63600 44.61800
H  51.07900 6.35500 45.28100
H  48.61400 5.74100 44.15100
H  49.85500 5.03600 43.04900
H  49.90600 6.80900 43.57900
H  46.70000 10.54200 46.83100
H  47.89600 9.64600 45.80200
H  48.16400 9.74000 47.52700
H  42.03700 8.50200 46.16500
H  38.94400 9.47200 49.18800
H  39.85900 8.24000 50.02600
H  38.83700 7.80300 48.63700

