158

Mg 47.00100 25.47300 27.99200
C  47.76200 27.66800 30.46900
C  46.42700 23.01600 30.31400
C  46.10600 23.41800 25.51600
C  47.74600 27.87400 25.66500
N  47.03400 25.39200 30.17900
C  47.27900 26.40800 31.02800
C  47.24000 25.95600 32.47800
C  46.73800 24.50600 32.46300
C  46.73400 24.26000 30.86600
C  47.58300 23.53700 33.32500
C  46.53300 27.04500 33.40500
C  45.72700 26.57700 34.60000
H  45.51600 27.53800 35.83800
N  46.45100 23.48200 27.92800
C  46.27900 22.60800 29.00200
C  45.80400 21.32900 28.54000
C  45.54800 21.48400 27.17200
C  46.12500 22.82200 26.78300
C  45.49400 20.19300 29.57300
C  44.85500 20.61600 26.21200
O  44.46700 20.99100 25.10900
C  44.43300 19.33200 26.64700
N  47.03300 25.61900 25.85000
C  46.51500 24.65500 25.06600
C  46.53400 25.01500 23.58700
C  47.02300 26.49200 23.64500
C  47.24400 26.74100 25.14800
C  47.47200 24.18500 22.67800
C  45.95300 27.52800 23.05300
C  46.38800 28.43300 21.91200
N  47.75200 27.30900 28.00700
C  48.07600 28.18700 26.97900
C  48.45500 29.43800 27.50200
C  48.45100 29.21000 28.88300
C  48.00600 27.96100 29.13600
C  48.76700 30.66800 26.76200
C  48.75800 29.88500 30.15200
O  49.20900 31.00700 30.27500
C  48.19500 28.91900 31.24100
C  49.26300 28.64100 32.15100
O  50.24700 27.90500 31.93000
O  49.12400 29.35100 33.29200
C  50.34500 29.39800 34.16400
H  46.23800 22.30900 31.12500
H  45.88200 22.77300 24.66400
H  47.95800 28.59500 24.87300
H  48.28300 26.04000 32.78400
H  45.69600 24.45400 32.77800
H  48.13900 24.04100 34.11500
H  48.28400 23.07400 32.63100
H  47.01600 22.74700 33.81900
H  45.78100 27.49500 32.75800
H  47.33400 27.71300 33.72300
H  46.16000 25.63100 34.92400
H  44.75900 26.20700 34.26200
H  44.89200 19.35000 29.23500
H  45.13600 20.68500 30.47700
H  46.39800 19.66300 29.87500
H  44.03400 18.75800 25.81100
H  43.69500 19.38400 27.44600
H  45.38200 18.82600 26.82000
H  45.53700 25.02000 23.14700
H  47.94700 26.62000 23.08100
H  48.18300 23.60700 23.26900
H  47.95700 24.79600 21.91700
H  46.92900 23.48400 22.04300
H  45.42700 28.19600 23.73500
H  45.14700 26.95000 22.60000
H  45.70000 28.23800 21.08900
H  47.43100 28.26600 21.64400
H  46.25700 29.48300 22.17400
H  49.16200 31.42200 27.44300
H  47.86900 31.13800 26.36200
H  49.52300 30.40200 26.02300
H  47.27800 29.37700 31.61200
H  49.99700 29.05800 35.13900
H  50.66000 30.43500 34.27900
H  51.21800 28.79200 33.92100
Mg 47.21300 35.55700 26.69900
C  45.61900 33.94000 29.37100
C  47.78000 38.25500 28.72400
C  48.11500 37.27100 23.93500
C  46.10000 32.89100 24.62700
N  46.72400 36.01100 28.73000
C  46.21100 35.18300 29.65100
C  46.53000 35.75900 31.05100
C  46.73800 37.24200 30.81400
C  47.15600 37.15600 29.36000
C  45.49400 38.14500 31.11300
C  47.69200 34.99800 31.68500
C  48.01600 35.00200 33.24300
H  47.05600 35.89100 34.06300
N  47.97100 37.48800 26.31900
C  48.10800 38.50000 27.29500
C  48.60800 39.67000 26.71000
C  48.85000 39.37100 25.29400
C  48.30100 37.99800 25.10100
C  48.84400 40.90800 27.48000
C  49.37500 40.24500 24.22000
O  49.41000 39.87100 23.04000
C  49.91500 41.64800 24.51400
N  47.11000 35.07300 24.57300
C  47.52400 35.97000 23.64300
C  47.48700 35.47300 22.25200
C  47.23700 33.94800 22.50600
C  46.78300 33.93700 23.97900
C  46.54600 36.18100 21.24800
C  48.50200 33.11400 22.33900
C  48.61600 32.08800 21.15200
N  46.13000 33.80200 26.86200
C  45.81600 32.79500 25.99100
C  45.17000 31.70100 26.63300
C  45.00600 32.09900 28.03000
C  45.63800 33.38400 28.06800
C  44.53600 30.46600 26.04300
C  44.42200 31.78900 29.28600
O  43.81200 30.80100 29.66400
C  44.69700 32.99000 30.20400
C  45.09700 32.53800 31.53200
O  46.09700 31.86600 31.84600
O  44.20000 33.02300 32.42500
C  44.59400 32.83200 33.82500
H  47.96800 39.18400 29.26800
H  48.44700 37.71600 22.99400
H  45.83900 32.03200 24.00600
H  45.67400 35.61800 31.71000
H  47.54100 37.64100 31.43400
H  45.73900 38.97200 31.77900
H  44.65000 37.56300 31.48200
H  45.19500 38.59300 30.16500
H  48.58900 35.23900 31.11500
H  47.60900 33.94800 31.40500
H  49.02300 35.38900 33.40300
H  47.90500 33.96700 33.56800
H  49.72900 41.38300 27.05800
H  48.96200 40.72800 28.54800
H  48.04600 41.59700 27.20000
H  50.19600 42.12400 23.57500
H  50.73300 41.90600 25.18700
H  49.09000 42.25700 24.88300
H  48.45500 35.57200 21.76100
H  46.46400 33.51200 21.87300
H  45.84000 35.48500 20.79600
H  47.19100 36.66500 20.51500
H  45.95200 36.95500 21.73500
H  48.51600 32.49900 23.23900
H  49.40500 33.72400 22.35300
H  48.53400 31.07500 21.54600
H  49.54500 32.07600 20.58200
H  47.83000 32.25300 20.41600
H  45.25200 29.65600 26.18000
H  44.39900 30.65500 24.97800
H  43.52600 30.23900 26.38300
H  43.74400 33.49800 30.34900
H  43.86000 33.44400 34.35000
H  45.59700 33.23300 33.96900
H  44.40300 31.81500 34.16700

