158

Mg -0.19800 6.67800 26.95600
C  0.91100 9.12000 29.15700
C  -0.81600 4.51300 29.48000
C  -1.23000 4.56200 24.58900
C  1.19500 8.67700 24.28500
N  0.20300 6.74300 29.10600
C  0.48600 7.88500 29.82600
C  0.47900 7.67200 31.30400
C  0.33200 6.12100 31.34900
C  -0.18400 5.74900 29.92000
C  1.56000 5.20600 31.70100
C  -0.69900 8.46200 32.04600
C  -0.70000 8.55200 33.66600
H  0.56700 8.19800 34.35000
N  -0.87300 4.76200 27.03900
C  -1.26800 4.07800 28.16700
C  -1.99400 2.83700 27.80600
C  -2.05900 2.83300 26.37800
C  -1.35900 4.09300 25.91900
C  -2.59000 1.92800 28.95800
C  -2.82400 1.85600 25.56100
O  -2.90000 1.96900 24.36700
C  -3.56100 0.63000 26.16400
N  0.12400 6.53500 24.79900
C  -0.56500 5.60700 24.07700
C  -0.66500 6.07100 22.59500
C  0.25300 7.24300 22.47800
C  0.61800 7.48800 23.91200
C  -0.46800 4.94300 21.61500
C  -0.45000 8.45400 21.78700
C  0.42400 9.40400 20.91800
N  0.78200 8.56100 26.71300
C  1.24400 9.27400 25.57300
C  1.66700 10.61200 26.04600
C  1.54800 10.60600 27.40900
C  1.11000 9.33300 27.74400
C  2.08300 11.70200 25.15100
C  1.62000 11.45900 28.59500
O  1.94000 12.62600 28.69400
C  1.17600 10.53700 29.79400
C  2.29500 10.40800 30.78400
O  3.39300 9.93500 30.55100
O  1.96000 10.87100 32.04100
C  3.02400 10.89600 33.05200
H  -1.04300 3.76400 30.24100
H  -1.55200 3.84900 23.82600
H  1.35200 9.41000 23.49100
H  1.40700 8.04300 31.73900
H  -0.50400 5.86600 32.00100
H  1.59900 4.34300 31.03700
H  1.34800 4.78100 32.68200
H  2.51200 5.73600 31.73200
H  -1.58600 7.88400 31.78900
H  -0.79500 9.46600 31.63300
H  -1.45400 7.83600 33.99300
H  -0.93600 9.54200 34.05600
H  -2.11400 0.94900 29.00100
H  -3.67700 1.84900 28.91200
H  -2.40800 2.29200 29.96900
H  -2.79800 -0.01900 26.59300
H  -3.92300 0.12900 25.26600
H  -4.39800 0.74500 26.85300
H  -1.73300 6.23600 22.45200
H  1.11100 7.01100 21.84600
H  -1.22400 4.16800 21.48600
H  0.50400 4.48000 21.78500
H  -0.35100 5.43400 20.64900
H  -0.73300 9.00400 22.68400
H  -1.36500 8.13200 21.29000
H  1.26100 8.79700 20.57200
H  0.60500 10.31600 21.48800
H  -0.21000 9.64800 20.06600
H  3.10400 12.02200 25.35900
H  1.48400 12.59500 25.32500
H  2.07200 11.37400 24.11100
H  0.32000 10.92100 30.34900
H  3.81500 11.51800 32.63300
H  3.38900 9.96700 33.49000
H  2.57800 11.58800 33.76600
Mg 8.70300 3.22200 28.29300
C  10.28000 1.86200 31.16700
C  6.60000 4.91700 30.29600
C  7.44300 4.45400 25.48000
C  10.35600 0.74800 26.48400
N  8.43600 3.30900 30.47200
C  9.21900 2.77000 31.43900
C  8.74800 3.21200 32.81500
C  7.44000 3.98900 32.58800
C  7.44700 4.07800 31.02200
C  6.21600 3.35000 33.19200
C  9.90600 4.08900 33.50500
C  9.46000 4.90400 34.71800
H  10.18800 4.61800 35.97400
N  7.34800 4.68700 27.90900
C  6.59000 5.28100 28.85300
C  5.62900 6.15200 28.18900
C  5.99900 6.19700 26.82500
C  6.99900 5.10900 26.65900
C  4.59500 6.93400 28.92600
C  5.48200 7.02100 25.68900
O  5.85200 6.98000 24.53800
C  4.44000 8.05900 26.05700
N  8.97100 2.80700 26.23000
C  8.32600 3.39500 25.23500
C  8.51400 2.61100 23.92600
C  9.73800 1.65700 24.28300
C  9.74700 1.76400 25.79000
C  7.25500 1.84600 23.45500
C  11.04600 2.15000 23.53100
C  11.88400 3.14100 24.35300
N  10.07800 1.65900 28.69800
C  10.63500 0.69900 27.85800
C  11.57400 -0.08600 28.56500
C  11.50000 0.35300 29.85400
C  10.54900 1.40800 29.87600
C  12.36200 -1.22700 27.93700
C  11.94800 0.11900 31.18800
O  12.78100 -0.64300 31.66700
C  11.13500 1.13600 32.04500
C  10.46000 0.32700 33.10500
O  9.63000 -0.52400 32.83000
O  10.95700 0.55400 34.37300
C  10.12600 0.07000 35.48600
H  5.83900 5.38400 30.92500
H  7.07200 4.99500 24.60700
H  10.87300 0.05800 25.81400
H  8.51400 2.34500 33.43200
H  7.48500 4.97800 33.04500
H  6.36400 2.27400 33.28300
H  5.49000 3.44700 32.38500
H  5.87000 3.91900 34.05400
H  10.26800 4.72400 32.69600
H  10.75100 3.44600 33.75000
H  8.40200 4.74100 34.92500
H  9.65800 5.94100 34.44600
H  4.71000 8.01300 29.02900
H  4.35700 6.38600 29.83700
H  3.77000 6.76700 28.23300
H  3.49100 7.52400 26.05700
H  4.45900 8.88100 25.34100
H  4.87400 8.47500 26.96600
H  8.83500 3.31500 23.15800
H  9.48000 0.63700 23.99700
H  6.44900 2.02400 24.16700
H  7.33600 0.77600 23.26300
H  6.91500 2.31600 22.53300
H  10.93400 2.55600 22.52600
H  11.67200 1.25800 23.52000
H  11.59200 3.49600 25.34200
H  12.05700 4.10600 23.87700
H  12.91600 2.81100 24.47300
H  12.38000 -1.13900 26.85100
H  11.91300 -2.17500 28.23100
H  13.38100 -1.01700 28.26300
H  11.94300 1.77300 32.40400
H  9.05600 0.19600 35.32000
H  10.33300 0.53800 36.44800
H  10.25500 -1.01100 35.52700

