158

Mg 50.44200 46.62700 41.15300
C  47.08700 47.36300 40.02600
C  49.82700 43.34400 40.16500
C  53.77400 46.18900 41.04900
C  50.85500 50.14000 41.59100
N  48.57800 45.52100 40.32100
C  47.43700 46.00100 39.83400
C  46.56300 44.93700 39.17900
C  47.34900 43.62100 39.66900
C  48.68300 44.19100 40.05200
C  46.81000 42.81200 40.79900
C  46.40000 45.15800 37.63800
C  44.94600 45.16700 37.15500
H  44.66300 43.99800 36.13000
N  51.69300 44.93600 40.71100
C  51.16900 43.65600 40.38000
C  52.34700 42.83600 40.30600
C  53.53600 43.62800 40.51300
C  53.05900 44.94900 40.80300
C  52.32200 41.35900 40.04200
C  54.94600 43.00600 40.46700
O  55.16800 41.84000 40.12500
C  56.04100 43.95200 40.76400
N  52.11700 48.05200 41.16400
C  53.33300 47.52800 41.24800
C  54.33400 48.65000 41.72700
C  53.42200 49.90600 41.98100
C  52.01800 49.38400 41.52000
C  55.20100 48.27400 42.98900
C  53.91900 51.25800 41.28300
C  54.08400 52.49700 42.21500
N  49.19200 48.42600 41.10800
C  49.51300 49.74900 41.23300
C  48.31900 50.53300 41.06700
C  47.34200 49.66200 40.51700
C  47.96400 48.37400 40.50300
C  48.34100 52.02300 41.24800
C  46.07200 49.59900 39.90800
O  45.32600 50.53500 39.62900
C  45.80400 48.06100 39.69500
C  44.71100 47.70600 40.66600
O  44.86300 47.41200 41.80000
O  43.50600 47.98200 40.11500
C  42.41700 48.13300 41.07900
H  49.55400 42.31800 39.91100
H  54.86200 46.23300 41.13000
H  50.98400 51.20400 41.79900
H  45.53700 44.94400 39.54700
H  47.61700 42.91400 38.88400
H  46.59900 41.81800 40.40700
H  45.89300 43.18200 41.25700
H  47.54300 42.69400 41.59700
H  46.91700 44.32500 37.16300
H  46.81900 46.04300 37.15800
H  44.69600 46.13400 36.71700
H  44.14300 45.04100 37.88100
H  51.34500 41.00800 39.71200
H  52.57200 40.93800 41.01600
H  53.00000 41.08200 39.23500
H  55.82800 44.41900 41.72600
H  55.98600 44.67300 39.94900
H  56.94300 43.34400 40.69600
H  55.05500 48.81900 40.92700
H  53.49600 50.09300 43.05200
H  56.21400 48.28600 42.58700
H  54.93300 47.31200 43.42600
H  55.18700 48.91800 43.86900
H  53.23300 51.36200 40.44300
H  54.93600 51.06300 40.94100
H  53.70000 53.28200 41.56500
H  55.13200 52.65900 42.46700
H  53.56500 52.50200 43.17300
H  49.22700 52.39600 40.73600
H  48.23000 52.34400 42.28400
H  47.51300 52.54300 40.76700
H  45.47900 47.95800 38.66000
H  41.50300 47.57600 40.87200
H  42.16600 49.18900 40.97800
H  42.64400 47.78500 42.08600
Mg -10.13100 39.12000 39.83600
C  -9.44400 35.87900 38.58600
C  -7.12500 40.08500 39.04600
C  -11.18100 42.17400 40.37800
C  -13.43300 37.92000 40.62900
N  -8.49600 38.06700 38.92300
C  -8.40800 36.76800 38.44900
C  -7.00300 36.46500 37.90800
C  -6.24700 37.77400 38.24800
C  -7.30400 38.73500 38.78600
C  -5.01800 37.63600 39.10900
C  -6.90300 36.09700 36.32700
C  -7.33500 37.22000 35.31900
H  -8.74600 36.99700 34.74100
N  -9.16800 40.92200 39.81000
C  -7.91800 41.11900 39.48300
C  -7.63900 42.50500 39.44500
C  -8.82200 43.22000 39.79300
C  -9.78800 42.10600 40.04000
C  -6.26500 43.05500 38.99000
C  -8.87700 44.74000 39.87700
O  -7.91800 45.50200 39.71600
C  -10.21500 45.38800 39.98500
N  -12.16000 39.94600 40.37600
C  -12.23600 41.31400 40.53200
C  -13.68700 41.69000 40.80000
C  -14.38100 40.31800 41.19300
C  -13.32500 39.31800 40.68500
C  -14.06000 42.93100 41.65900
C  -15.82000 40.16500 40.63800
C  -16.94600 39.77600 41.60100
N  -11.27400 37.24800 39.72800
C  -12.54500 36.96300 40.17800
C  -12.74100 35.56400 40.05700
C  -11.53300 35.05800 39.46700
C  -10.71300 36.16500 39.22000
C  -14.00300 34.76100 40.40300
C  -10.83600 33.88100 39.02800
O  -11.18100 32.72700 39.10400
C  -9.40300 34.33400 38.45400
C  -8.33100 33.65700 39.22700
O  -8.25900 33.45100 40.42400
O  -7.46400 33.04900 38.26700
C  -6.51700 31.99500 38.73100
H  -6.10400 40.46700 38.97700
H  -11.54000 43.20200 40.44800
H  -14.41800 37.54400 40.91600
H  -6.51100 35.59500 38.34000
H  -5.91600 38.36200 37.39200
H  -5.09000 38.16200 40.06100
H  -4.16600 37.90800 38.48700
H  -4.85800 36.57800 39.31500
H  -7.49000 35.21900 36.05700
H  -5.88800 35.80700 36.05600
H  -6.61700 37.37500 34.51300
H  -7.39400 38.17300 35.84600
H  -6.26700 44.09700 38.67100
H  -5.92000 42.32400 38.25900
H  -5.57600 42.89100 39.81800
H  -10.60200 45.25700 40.99500
H  -10.91500 45.07300 39.21100
H  -10.08900 46.43900 39.72400
H  -14.00800 42.01100 39.80900
H  -14.34700 40.21300 42.27700
H  -13.48600 42.95000 42.58500
H  -15.08900 42.82200 42.00100
H  -14.06700 43.84500 41.06500
H  -15.77300 39.48300 39.78900
H  -16.07400 41.05300 40.05900
H  -17.58200 40.64800 41.75700
H  -16.60500 39.32500 42.53300
H  -17.69200 39.02800 41.33200
H  -14.77500 35.36400 40.88300
H  -13.64900 33.99800 41.09600
H  -14.46000 34.50900 39.44600
H  -9.34300 34.19900 37.37400
H  -5.95700 31.71300 37.83800
H  -6.89100 31.12300 39.26600
H  -5.84200 32.46300 39.44800

