158

Mg 8.05700 3.23000 27.53800
C  9.54300 1.98300 30.32300
C  6.18000 5.39200 29.36800
C  6.57300 4.29900 24.63000
C  9.51700 0.58700 25.63900
N  7.92400 3.65200 29.61000
C  8.62600 3.01500 30.61000
C  8.26000 3.64100 32.01800
C  7.07500 4.55500 31.69700
C  7.02000 4.52300 30.11000
C  5.70700 4.32500 32.40400
C  9.51300 4.36300 32.65500
C  9.22400 5.31400 33.87800
H  10.04700 5.15900 35.08500
N  6.67000 4.72900 27.02800
C  5.95200 5.46000 27.93900
C  5.04700 6.37600 27.32300
C  5.09800 6.08500 25.93000
C  6.17500 5.05300 25.81700
C  4.12100 7.34000 28.05800
C  4.36200 6.72200 24.76900
O  4.72700 6.49800 23.61500
C  3.23700 7.66800 24.96400
N  8.15200 2.57300 25.37300
C  7.41100 3.15200 24.37300
C  7.70900 2.55900 23.07800
C  8.67300 1.38700 23.40200
C  8.77500 1.46300 24.90400
C  6.42700 2.15300 22.21900
C  10.04100 1.24300 22.54100
C  11.23400 1.85700 23.30700
N  9.20600 1.56300 27.86100
C  9.76000 0.63200 27.03700
C  10.68400 -0.26700 27.77900
C  10.73200 0.30800 29.07600
C  9.75000 1.39300 29.07600
C  11.55800 -1.41200 27.28100
C  11.40300 0.23100 30.37400
O  12.17900 -0.58600 30.79300
C  10.55100 1.29700 31.27200
C  9.88300 0.56700 32.42800
O  9.16600 -0.41700 32.30200
O  10.26200 1.10100 33.69600
C  9.91000 0.35500 34.88600
H  5.68500 6.07500 30.06200
H  6.06100 4.74200 23.77300
H  9.98100 -0.15100 24.98100
H  7.94600 2.75200 32.56500
H  7.32700 5.59200 31.91800
H  5.22800 5.25400 32.71300
H  5.83500 3.72000 33.30100
H  5.11600 3.84800 31.62200
H  9.88000 5.00500 31.85400
H  10.30800 3.65600 32.89300
H  8.19500 5.31500 34.23700
H  9.33400 6.36200 33.59800
H  4.30900 7.39800 29.13000
H  3.09200 6.98300 28.08800
H  4.20600 8.35200 27.66300
H  2.43800 7.24200 25.57100
H  2.79600 7.91600 23.99800
H  3.64800 8.55000 25.45600
H  8.31900 3.27600 22.52800
H  8.18300 0.41600 23.33200
H  5.58200 2.31300 22.88900
H  6.46700 1.06900 22.10800
H  6.40900 2.74500 21.30500
H  10.00000 1.83500 21.62600
H  10.19900 0.21100 22.22800
H  10.89300 2.51300 24.10700
H  12.01200 2.34800 22.72200
H  11.72700 1.05300 23.85300
H  12.29400 -0.96300 26.61400
H  11.02100 -2.12200 26.65200
H  12.07000 -1.91100 28.10400
H  11.25800 2.00800 31.69800
H  9.69700 -0.70500 34.75100
H  9.04400 0.86200 35.31400
H  10.76800 0.45600 35.55000
Mg 10.23900 47.23400 26.30700
C  8.44300 47.36900 29.27900
C  12.92600 48.45200 27.96900
C  11.83900 47.02300 23.40100
C  7.14600 46.69100 24.59300
N  10.66400 47.81100 28.32500
C  9.82200 47.71200 29.43800
C  10.51900 48.21900 30.65500
C  11.74500 49.06300 30.07900
C  11.78200 48.45600 28.67100
C  11.62100 50.65800 30.08500
C  10.84300 47.12500 31.66400
C  10.19800 47.31700 33.07700
H  10.40900 46.17100 34.11400
N  12.17400 47.55500 25.82500
C  13.18000 47.99900 26.65600
C  14.48400 47.87500 25.99800
C  14.15700 47.36100 24.69100
C  12.67600 47.37900 24.51300
C  15.80000 47.99800 26.81300
C  15.17700 47.06500 23.56000
O  14.76700 46.84000 22.39800
C  16.61800 47.01800 23.85200
N  9.55700 46.93600 24.25300
C  10.45900 46.84800 23.24800
C  9.73100 46.38400 21.97000
C  8.31000 46.13600 22.52100
C  8.33500 46.69900 23.87400
C  9.95900 47.26200 20.69800
C  7.79100 44.73400 22.45100
C  8.62900 43.65600 23.10600
N  8.14900 47.10700 26.75500
C  7.07400 46.86200 25.98600
C  5.91300 46.72100 26.86000
C  6.35800 46.93900 28.16100
C  7.71300 47.14200 28.01500
C  4.51300 46.40000 26.47700
C  6.03100 46.99500 29.59700
O  4.98600 46.82800 30.18200
C  7.31400 47.35300 30.32400
C  7.57400 46.21900 31.37600
O  8.16800 45.17500 31.13700
O  6.94100 46.43300 32.55700
C  6.95900 45.36600 33.58500
H  13.79000 48.82800 28.52300
H  12.38100 46.91000 22.46000
H  6.11000 46.66300 24.24900
H  9.78100 48.89600 31.08700
H  12.67100 48.70000 30.52400
H  10.70400 50.83000 30.64900
H  11.55200 51.04900 29.07000
H  12.43500 51.14400 30.62200
H  11.90900 47.13200 31.89400
H  10.61600 46.12300 31.30200
H  9.16100 47.64100 32.98800
H  10.47800 48.19400 33.66000
H  15.50800 47.70000 27.82000
H  16.13900 49.02800 26.92300
H  16.56600 47.30700 26.46100
H  17.13900 46.71600 22.94400
H  16.73900 46.26400 24.63000
H  16.88100 47.99100 24.26700
H  10.16600 45.40500 21.77000
H  7.57700 46.75800 22.00600
H  10.68300 48.06400 20.84100
H  9.02600 47.78600 20.49300
H  10.22100 46.64800 19.83700
H  7.82100 44.56600 21.37500
H  6.78900 44.63000 22.86600
H  9.50500 44.21700 23.42900
H  9.00400 42.87100 22.45000
H  8.11300 43.18300 23.94200
H  4.59600 45.38600 26.08500
H  4.12700 46.95200 25.62000
H  3.92500 46.38200 27.39400
H  7.16800 48.22100 30.96700
H  7.96500 45.24500 33.98700
H  6.62000 44.38400 33.25300
H  6.35200 45.76500 34.39700

