158

Mg 26.05600 -0.25400 29.56600
C  28.19500 -0.52700 32.37400
C  23.53100 0.32300 31.70400
C  24.15100 -0.11200 26.89300
C  28.72000 -1.52100 27.62300
N  25.90900 -0.16600 31.77500
C  26.91200 -0.11600 32.68800
C  26.43900 0.33800 34.08100
C  24.90200 0.41200 33.91500
C  24.76200 0.21900 32.37000
C  24.05800 -0.65200 34.71800
C  27.14300 1.67800 34.45300
C  28.07300 1.56300 35.71600
H  27.88900 2.57900 36.87400
N  24.08900 0.11100 29.33300
C  23.16100 0.32900 30.31400
C  21.88500 0.57300 29.74700
C  21.97600 0.40000 28.36300
C  23.43600 0.10000 28.09200
C  20.69800 1.02800 30.62100
C  20.89300 0.44100 27.25600
O  21.17800 0.12500 26.08900
C  19.59900 1.09400 27.54000
N  26.41300 -0.66000 27.51500
C  25.46800 -0.45800 26.63100
C  26.00500 -0.69500 25.12300
C  27.44200 -1.12100 25.41400
C  27.59500 -1.11600 26.90500
C  25.13400 -1.69400 24.19600
C  28.52400 -0.26000 24.66200
C  28.56500 1.26800 24.86900
N  28.04100 -0.84500 29.89000
C  28.98100 -1.33500 29.01200
C  30.28600 -1.49500 29.69700
C  30.00400 -1.12700 31.03300
C  28.63900 -0.82900 31.07300
C  31.52300 -1.94700 29.10700
C  30.58200 -0.96400 32.35600
O  31.65400 -1.25400 32.82100
C  29.47000 -0.57600 33.24900
C  29.41200 -1.58100 34.31900
O  28.88000 -2.67300 34.25700
O  30.09800 -1.17100 35.43200
C  30.23600 -2.01800 36.64500
H  22.74200 0.58100 32.41400
H  23.47800 -0.00600 26.04000
H  29.63800 -1.71700 27.06600
H  26.76800 -0.40400 34.80800
H  24.55100 1.34800 34.35000
H  24.64700 -1.05700 35.54100
H  23.70900 -1.48800 34.11200
H  23.13000 -0.22300 35.09600
H  26.42700 2.48200 34.62500
H  27.75900 2.03200 33.62700
H  29.10200 1.70900 35.39000
H  28.07400 0.50900 35.99100
H  20.45200 2.07000 30.42000
H  20.88300 1.07700 31.69400
H  19.86700 0.35800 30.39500
H  19.55200 2.10200 27.95200
H  19.01300 0.45000 28.19600
H  19.05000 1.17500 26.60200
H  25.98900 0.25200 24.58200
H  27.60900 -2.15100 25.09800
H  24.21100 -1.84900 24.75500
H  25.58000 -2.67300 24.02500
H  24.80200 -1.22500 23.26900
H  28.22300 -0.26000 23.61400
H  29.48700 -0.72200 24.88000
H  27.87000 1.63400 25.62500
H  28.15000 1.75400 23.98600
H  29.61200 1.56100 24.94400
H  32.33200 -1.64400 29.77100
H  31.55400 -1.60200 28.07300
H  31.56500 -3.03600 29.14900
H  29.85100 0.40700 33.52500
H  29.64900 -1.53800 37.42700
H  31.25400 -2.08700 37.02900
H  29.95000 -3.05000 36.44400
Mg 30.13700 58.25800 39.18600
C  27.29200 56.52100 38.26800
C  32.03700 55.45900 38.10300
C  32.98500 60.14500 38.90000
C  28.18000 61.21300 39.19500
N  29.72000 56.32700 38.19400
C  28.41800 55.78900 38.11100
C  28.50500 54.40700 37.41400
C  29.98400 53.94000 37.92200
C  30.61800 55.32300 38.11000
C  30.03400 53.10600 39.19900
C  28.36100 54.43200 35.86500
C  27.30200 53.53700 35.24700
H  26.27400 54.29400 34.32500
N  32.34400 57.84500 38.86200
C  32.84900 56.63800 38.39800
C  34.27000 56.76900 38.19700
C  34.63900 58.10900 38.42200
C  33.36600 58.74900 38.78400
C  35.08800 55.52000 37.73900
C  36.01000 58.66100 38.27400
O  36.87500 57.95200 37.86400
C  36.35600 60.07500 38.64200
N  30.51800 60.34900 38.89600
C  31.77000 60.84900 39.04400
C  31.73900 62.37300 39.09500
C  30.21700 62.69200 39.19200
C  29.56600 61.30500 39.02900
C  32.70300 63.01600 40.12800
C  29.65200 63.68600 38.07300
C  29.61000 65.18700 38.57800
N  28.08600 58.77500 39.07700
C  27.41800 59.99300 39.16100
C  26.00500 59.76800 39.08900
C  25.90700 58.41500 38.63200
C  27.17700 57.84500 38.68800
C  24.96100 60.82900 39.12400
C  25.01400 57.43600 38.12000
O  23.83400 57.57000 37.97500
C  25.80800 56.15300 37.85000
C  25.36400 55.13200 38.82000
O  25.82200 54.94900 39.94800
O  24.40000 54.35900 38.24600
C  23.85000 53.11000 38.87400
H  32.58200 54.53600 37.89100
H  33.78500 60.88500 38.83900
H  27.60500 62.13800 39.12100
H  27.72700 53.77500 37.84100
H  30.41100 53.32700 37.12900
H  29.02800 52.99100 39.60300
H  30.61000 53.58500 39.99100
H  30.36300 52.10900 38.90600
H  29.34300 54.25300 35.42800
H  28.24000 55.45500 35.50800
H  26.58800 53.11800 35.95600
H  27.70200 52.78200 34.57000
H  34.61000 54.59400 38.05900
H  36.04100 55.43400 38.26000
H  35.21300 55.49000 36.65700
H  37.41400 60.25800 38.45700
H  36.03400 60.36300 39.64300
H  35.75000 60.71600 38.00200
H  32.07400 62.75300 38.13000
H  29.93500 63.01700 40.19300
H  33.15900 62.27500 40.78400
H  32.05500 63.71400 40.65800
H  33.43100 63.58000 39.54500
H  28.68900 63.31400 37.72200
H  30.30900 63.78600 37.20900
H  30.38500 65.80600 38.12500
H  29.72200 65.25100 39.66000
H  28.63600 65.67000 38.50700
H  24.28500 60.36800 39.84400
H  24.47200 60.93800 38.15700
H  25.38500 61.74400 39.54000
H  25.71100 55.77000 36.83400
H  24.08500 52.31700 38.16400
H  22.77400 53.16500 39.04100
H  24.36600 52.83400 39.79300

