158

Mg -1.48600 16.90300 26.02200
C  -1.74900 14.68000 28.73900
C  -1.89600 19.55000 28.25600
C  -1.71800 19.06100 23.35700
C  -1.66200 14.20900 23.80700
N  -1.77700 17.07900 28.28000
C  -1.74000 16.02200 29.15900
C  -1.63600 16.55500 30.54800
C  -1.97500 18.06600 30.43900
C  -1.93900 18.28200 28.90100
C  -3.37100 18.47000 30.94700
C  -0.22100 16.35400 31.20800
C  -0.07000 15.93500 32.71900
H  -1.11800 16.20200 33.83500
N  -1.62900 19.01100 25.83900
C  -1.85900 19.92600 26.87600
C  -1.91000 21.28100 26.32600
C  -1.70800 21.17100 24.85800
C  -1.68800 19.65500 24.63700
C  -2.07800 22.55400 27.13700
C  -1.51100 22.19600 23.79900
O  -1.33400 21.91500 22.66500
C  -1.48900 23.68000 24.10900
N  -1.78400 16.69300 23.87800
C  -1.72600 17.76700 22.99500
C  -1.88900 17.22000 21.53600
C  -1.58700 15.66500 21.74800
C  -1.70100 15.47100 23.22100
C  -3.31900 17.49200 20.93700
C  -0.18300 15.07000 21.23700
C  1.12100 15.45100 22.01600
N  -1.55200 14.88400 26.21000
C  -1.64800 13.91000 25.19200
C  -1.66400 12.63800 25.88000
C  -1.58300 12.84600 27.19600
C  -1.66000 14.22700 27.39700
C  -1.81800 11.30000 25.18500
C  -1.55300 12.22800 28.52300
O  -1.57200 11.05400 28.82800
C  -1.95200 13.39100 29.49100
C  -1.23300 13.17100 30.79000
O  -0.04500 13.15000 30.92700
O  -2.15800 12.84800 31.74200
C  -1.69300 12.34000 33.02200
H  -1.76300 20.48300 28.80800
H  -1.96300 19.75800 22.55200
H  -1.89100 13.44000 23.06600
H  -2.35800 16.01500 31.16100
H  -1.24500 18.66500 30.98400
H  -3.82200 19.34600 30.48100
H  -3.17500 18.71800 31.99000
H  -4.07400 17.63900 31.00100
H  0.38900 17.24500 31.05900
H  0.36000 15.60300 30.67400
H  0.80500 16.44200 33.12600
H  -0.03300 14.84600 32.75600
H  -2.42900 22.30800 28.13900
H  -2.87400 23.11400 26.64800
H  -1.10600 23.04200 27.07400
H  -0.61500 23.79000 24.75000
H  -2.39600 24.06200 24.57900
H  -1.28500 24.38400 23.30200
H  -1.12600 17.61700 20.86700
H  -2.35700 15.05800 21.27200
H  -4.06000 17.80500 21.67300
H  -3.63800 16.56700 20.45700
H  -3.19800 18.28200 20.19700
H  -0.13000 15.57700 20.27300
H  -0.27900 13.98800 21.14600
H  1.46700 14.50900 22.44100
H  0.79500 16.16500 22.77200
H  1.94500 15.76200 21.37300
H  -2.73500 11.24200 24.59900
H  -1.86900 10.60000 26.02000
H  -0.93400 11.05300 24.59600
H  -3.01300 13.34200 29.73900
H  -1.41800 11.29100 32.91100
H  -2.41700 12.31300 33.83600
H  -0.85200 12.92900 33.38900
Mg -5.27000 24.59100 26.55900
C  -3.64600 26.29900 29.22500
C  -6.39900 22.33300 28.84000
C  -6.58000 23.34900 23.97500
C  -3.32200 27.03200 24.40700
N  -5.10900 24.27100 28.74700
C  -4.49500 25.22800 29.61400
C  -4.82100 24.91700 31.07600
C  -5.37300 23.46000 30.93300
C  -5.69400 23.33300 29.43800
C  -4.41400 22.25600 31.36000
C  -5.76000 25.89600 31.72800
C  -5.48600 26.25000 33.19600
H  -5.53300 25.00600 34.03400
N  -6.41500 23.00500 26.43800
C  -6.81200 22.17600 27.43700
C  -7.55500 21.11100 26.76500
C  -7.62300 21.44600 25.41100
C  -6.87000 22.70100 25.21300
C  -7.94500 19.84900 27.54500
C  -8.29400 20.69900 24.25600
O  -8.34400 21.03100 23.02300
C  -9.18600 19.54900 24.64100
N  -4.87100 25.07400 24.51900
C  -5.64800 24.32600 23.65100
C  -5.45300 24.81000 22.22700
C  -4.51500 26.06500 22.37400
C  -4.22100 26.07200 23.87100
C  -4.94100 23.75200 21.21800
C  -5.14900 27.34100 21.77600
C  -4.30400 28.17500 20.83900
N  -3.66500 26.17600 26.76600
C  -3.08300 27.05400 25.80600
C  -2.26100 28.10100 26.42600
C  -2.51100 27.81700 27.79300
C  -3.27800 26.67200 27.92400
C  -1.58000 29.20600 25.78300
C  -2.20200 28.31600 29.05100
O  -1.51600 29.32100 29.33600
C  -2.83500 27.27600 30.05300
C  -1.74200 26.63300 30.72700
O  -0.96700 25.87900 30.21500
O  -1.80000 26.93900 32.03600
C  -0.80600 26.34800 33.03300
H  -6.86100 21.56800 29.46900
H  -7.06700 22.92900 23.09300
H  -2.90300 27.78000 23.73000
H  -3.85800 24.93900 31.58600
H  -6.25800 23.30400 31.55000
H  -4.50800 22.16400 32.44200
H  -3.36500 22.47200 31.15700
H  -4.66900 21.39600 30.74000
H  -6.77000 25.48900 31.74500
H  -5.86900 26.68500 30.98500
H  -6.22100 26.93700 33.61600
H  -4.48800 26.68300 33.25100
H  -9.02000 19.88200 27.72400
H  -7.42700 19.88500 28.50300
H  -7.57300 18.94800 27.05800
H  -8.53100 18.74300 24.97100
H  -9.71100 19.20800 23.74800
H  -9.83800 19.76700 25.48600
H  -6.41000 25.10400 21.79700
H  -3.57000 25.85700 21.87100
H  -3.94400 24.01800 20.86700
H  -5.70000 23.51400 20.47300
H  -4.81500 22.79300 21.72000
H  -5.37500 28.04200 22.58000
H  -6.12800 27.08600 21.36900
H  -3.28700 27.79800 20.95600
H  -4.34100 29.22000 21.14700
H  -4.69500 28.04500 19.83000
H  -2.10800 29.39600 24.84900
H  -0.55400 28.89500 25.58100
H  -1.48000 30.16700 26.28700
H  -3.50600 27.81600 30.72100
H  -0.13500 27.06200 33.51100
H  -0.24500 25.53000 32.58200
H  -1.43200 25.98900 33.85000

