158

Mg 25.57200 0.46700 29.11500
C  27.50800 0.47200 31.91100
C  22.81000 1.24900 30.95600
C  23.74600 0.41700 26.29300
C  28.36100 -0.45500 27.23200
N  25.21700 0.55000 31.28900
C  26.17500 0.73800 32.23800
C  25.52300 1.27200 33.58700
C  23.95000 1.40900 33.25400
C  23.99000 1.04500 31.72800
C  23.04000 0.59500 34.20200
C  26.10200 2.56600 34.18800
C  26.82900 2.47600 35.50300
H  26.37900 3.11700 36.81700
N  23.52400 0.71700 28.64700
C  22.57700 1.10400 29.55200
C  21.30100 1.33100 28.87700
C  21.54800 1.09400 27.46100
C  23.00600 0.79400 27.40200
C  20.04800 1.83800 29.47300
C  20.56100 1.10900 26.27400
O  20.88100 0.93500 25.11700
C  19.10500 1.41700 26.51100
N  25.96600 -0.06500 26.97800
C  25.07800 0.07200 26.02700
C  25.67600 -0.12200 24.56200
C  27.19700 -0.23700 24.92200
C  27.19700 -0.25000 26.45300
C  25.24400 -1.27300 23.77500
C  28.05500 0.98300 24.40400
C  29.38100 0.71200 23.71300
N  27.46900 -0.06600 29.48400
C  28.52700 -0.34100 28.60100
C  29.79700 -0.46700 29.36300
C  29.41000 -0.08300 30.66900
C  28.01100 0.06000 30.69500
C  31.16700 -0.80200 28.85500
C  29.94100 0.14800 31.97700
O  31.10800 0.12300 32.36600
C  28.70600 0.43900 32.83900
C  28.66800 -0.64500 33.90500
O  28.00000 -1.67000 33.78200
O  29.45600 -0.30300 34.90200
C  29.32800 -1.21500 36.01100
H  21.94900 1.65100 31.49500
H  23.29400 0.28100 25.30800
H  29.21200 -0.66200 26.58000
H  25.65800 0.42100 34.25500
H  23.70900 2.46600 33.37200
H  22.04900 1.04900 34.22600
H  23.35100 0.73000 35.23800
H  22.92200 -0.47700 34.03900
H  25.37400 3.36800 34.31000
H  26.73400 2.97400 33.39900
H  27.76400 3.02100 35.37400
H  27.00500 1.46900 35.88200
H  19.16600 1.21100 29.34100
H  19.71600 2.69800 28.89300
H  20.10500 2.16600 30.51100
H  18.76800 0.60300 27.15100
H  18.59600 1.28700 25.55600
H  19.00900 2.37500 27.02200
H  25.30100 0.83800 24.20700
H  27.63700 -1.15500 24.53200
H  24.60800 -0.89300 22.97600
H  24.63100 -1.94200 24.38000
H  25.97800 -1.86100 23.22400
H  28.09600 1.68500 25.23700
H  27.37200 1.44600 23.69200
H  30.05400 0.87900 24.55400
H  29.59800 1.49300 22.98500
H  29.47600 -0.29800 23.31500
H  31.12400 -0.46800 27.81800
H  31.25600 -1.88100 28.97800
H  31.94000 -0.29800 29.43500
H  28.76000 1.41000 33.33200
H  29.13500 -2.23600 35.68300
H  28.53700 -0.82400 36.65100
H  30.25200 -1.18100 36.58700
Mg 15.82900 51.06300 25.74300
C  17.80100 50.03600 28.41900
C  13.36900 51.80800 28.00600
C  13.78900 51.84600 23.16400
C  18.21100 49.85900 23.55700
N  15.54800 50.82400 28.00500
C  16.55300 50.54400 28.89800
C  16.18300 50.82000 30.35500
C  14.58000 51.06400 30.18800
C  14.46300 51.21200 28.63400
C  13.66700 49.90200 30.80400
C  16.94100 52.08300 30.94300
C  16.85500 52.39400 32.42500
H  16.07300 51.39200 33.26400
N  13.81800 51.73100 25.61900
C  13.02400 52.03400 26.66000
C  11.83600 52.62800 26.19300
C  11.95700 52.72500 24.75000
C  13.19300 52.07400 24.41100
C  10.77000 53.15300 27.16500
C  11.07900 53.39100 23.78600
O  11.31900 53.44300 22.56500
C  9.85000 54.08100 24.21400
N  15.93100 50.67100 23.68500
C  14.96700 51.19900 22.82700
C  15.48400 50.93200 21.30700
C  16.90300 50.37900 21.41000
C  17.03400 50.31100 22.97700
C  14.47300 50.08800 20.53400
C  17.99100 51.25600 20.81900
C  18.97600 50.48900 19.95900
N  17.67700 50.17200 25.89600
C  18.47800 49.70300 24.91400
C  19.64000 49.16400 25.58200
C  19.47400 49.30500 26.94900
C  18.19100 49.82400 27.09600
C  20.85400 48.49600 24.84700
C  20.06800 48.96300 28.21900
O  21.09900 48.46300 28.49100
C  19.02000 49.59000 29.23800
C  18.62600 48.51100 30.12400
O  17.84100 47.59500 29.92400
O  19.35100 48.65200 31.33800
C  18.98900 47.61800 32.37400
H  12.72600 52.18900 28.80200
H  13.23400 52.13600 22.26900
H  18.98800 49.50200 22.87800
H  16.35700 49.88600 30.88900
H  14.37400 52.02300 30.66300
H  13.07300 50.52800 31.47000
H  14.30800 49.28700 31.43500
H  13.09300 49.26400 30.13200
H  16.69400 52.94300 30.32000
H  17.96800 51.83200 30.67700
H  16.44600 53.39100 32.58800
H  17.87400 52.33400 32.80800
H  10.25500 52.27800 27.56200
H  10.05900 53.87400 26.76200
H  11.24800 53.59200 28.04100
H  9.40200 54.67600 23.41900
H  10.05600 54.79900 25.00800
H  9.12100 53.30700 24.45600
H  15.42100 51.96000 20.95000
H  16.97800 49.34600 21.07000
H  15.07100 49.35600 19.99100
H  13.98600 50.81900 19.88800
H  13.79500 49.53500 21.18400
H  18.55800 51.71100 21.63100
H  17.46600 52.09600 20.36500
H  19.35400 51.19500 19.22000
H  18.70500 49.46800 19.68900
H  19.83900 50.38000 20.61600
H  21.72600 48.76900 25.44100
H  20.91600 48.86600 23.82400
H  20.57100 47.44400 24.83100
H  19.54100 50.35100 29.82100
H  19.35300 47.83400 33.37800
H  19.30900 46.64800 31.99300
H  17.90200 47.69500 32.40400

