158

Mg -1.40500 17.97700 27.87500
C  -2.26500 15.79600 30.49200
C  -1.99700 20.62900 29.90600
C  -1.39200 19.91800 25.13200
C  -1.51400 15.18800 25.68100
N  -2.22500 18.17900 29.95900
C  -2.23200 17.20500 30.87100
C  -2.44400 17.77200 32.30200
C  -2.52700 19.29500 31.99500
C  -2.30400 19.44100 30.49900
C  -3.95400 19.93400 32.24400
C  -1.34000 17.33900 33.28900
C  -1.80300 16.67200 34.59000
H  -1.14000 17.08600 35.90300
N  -1.39300 20.03100 27.61600
C  -1.63200 20.94800 28.56500
C  -1.42200 22.20300 28.00700
C  -1.10000 22.00200 26.64200
C  -1.28900 20.58800 26.39200
C  -1.57300 23.51100 28.77100
C  -0.72000 23.00900 25.62400
O  -0.48600 22.67300 24.48100
C  -0.65700 24.44800 25.82800
N  -1.45800 17.58900 25.78700
C  -1.51600 18.53600 24.83400
C  -1.52800 17.99800 23.41700
C  -1.10600 16.55300 23.64900
C  -1.34500 16.45500 25.15300
C  -2.82000 18.23700 22.67500
C  0.34000 16.21600 23.13800
C  1.53300 16.57000 24.07200
N  -1.73800 15.91400 28.02500
C  -1.66400 14.93800 27.06700
C  -1.82700 13.69600 27.69500
C  -2.06800 13.94800 29.04800
C  -1.92300 15.28800 29.25200
C  -2.15300 12.36100 26.98000
C  -2.46200 13.30000 30.28300
O  -2.70500 12.13300 30.62700
C  -2.51000 14.52000 31.27300
C  -1.43200 14.15900 32.17900
O  -0.30400 14.39800 32.02600
O  -1.98900 13.43100 33.14800
C  -1.11700 12.58200 33.95000
H  -2.09200 21.47800 30.58600
H  -1.37200 20.49600 24.20600
H  -1.60100 14.38100 24.95000
H  -3.39600 17.28600 32.51600
H  -1.75200 19.86000 32.51200
H  -4.63600 19.12300 32.49600
H  -4.27800 20.49800 31.36900
H  -3.73600 20.59900 33.08000
H  -0.75100 18.24300 33.43900
H  -0.60800 16.68400 32.81600
H  -1.63700 15.59500 34.55300
H  -2.88500 16.78500 34.65500
H  -2.43500 23.99500 28.31200
H  -0.68400 24.13000 28.64900
H  -1.69700 23.46800 29.85300
H  -0.07900 25.07700 25.15200
H  -0.09500 24.52100 26.75900
H  -1.66800 24.80000 26.03600
H  -0.65100 18.52800 23.04600
H  -1.71600 15.82900 23.10900
H  -3.62000 18.32700 23.41000
H  -3.12600 17.44500 21.99200
H  -2.65900 19.18700 22.16400
H  0.39900 16.66100 22.14500
H  0.28900 15.15100 22.91200
H  1.29500 16.50400 25.13400
H  1.93000 17.54300 23.78500
H  2.28500 15.78600 23.97400
H  -2.76500 12.46700 26.08400
H  -2.63800 11.67300 27.67300
H  -1.19600 11.86900 26.80600
H  -3.47200 14.60900 31.77700
H  -0.68300 11.82000 33.30200
H  -1.70700 12.09300 34.72500
H  -0.33600 13.12400 34.48300
Mg 8.39400 3.91200 27.70300
C  9.40700 2.05100 30.36200
C  6.19900 5.67000 29.87200
C  7.01200 5.45400 25.05300
C  9.57200 1.43300 25.45900
N  7.64900 3.68900 29.88400
C  8.54400 3.11200 30.73900
C  8.30300 3.60900 32.22700
C  7.16400 4.65500 32.07300
C  6.93600 4.65400 30.54100
C  5.83000 4.41000 32.94500
C  9.58200 4.09000 32.93000
C  9.47500 5.22100 33.95600
H  10.36100 5.13800 35.26500
N  6.96400 5.46900 27.49600
C  6.25000 6.07500 28.46700
C  5.51000 7.14700 27.93600
C  5.83000 7.20900 26.51500
C  6.65000 6.00600 26.32000
C  4.62000 8.07100 28.76500
C  5.45500 8.19600 25.42800
O  5.93000 8.21700 24.35100
C  4.67800 9.45900 25.85400
N  8.33700 3.56400 25.48400
C  7.69300 4.36700 24.63000
C  7.65700 3.86200 23.16000
C  8.71000 2.64900 23.24300
C  8.81400 2.46500 24.79800
C  6.26500 3.31100 22.66900
C  10.16600 3.06000 22.76400
C  10.82300 1.95400 21.94300
N  9.44300 2.06200 27.75800
C  9.88500 1.22100 26.81800
C  10.63800 0.18100 27.51400
C  10.54500 0.47500 28.89200
C  9.82300 1.66700 29.01700
C  11.24600 -0.93000 26.82000
C  10.95500 0.08000 30.23600
O  11.73300 -0.78100 30.64000
C  10.20200 1.08400 31.22500
C  9.39600 0.24700 32.16200
O  8.32600 -0.30200 31.97300
O  9.99000 0.33700 33.37700
C  9.43700 -0.41700 34.55100
H  5.77500 6.37100 30.59400
H  6.65700 5.92900 24.13600
H  10.06200 0.76200 24.75100
H  7.81300 2.79600 32.76300
H  7.55300 5.64800 32.29700
H  6.13800 4.01000 33.91100
H  5.18400 3.74400 32.37300
H  5.32100 5.34900 33.16200
H  10.24100 4.40000 32.11800
H  10.05200 3.20600 33.36000
H  8.44900 5.32700 34.30800
H  9.82100 6.10800 33.42400
H  4.60300 7.77000 29.81200
H  3.59100 8.02200 28.40900
H  4.88900 9.12600 28.80200
H  5.10700 9.67300 26.83400
H  3.61700 9.24200 25.97100
H  4.81500 10.26300 25.13100
H  8.09500 4.57100 22.45800
H  8.23800 1.78000 22.78400
H  5.48500 3.74700 23.29400
H  6.02500 2.25100 22.75400
H  6.30000 3.74500 21.67000
H  10.82900 3.34900 23.57900
H  10.07000 3.93100 22.11500
H  10.19900 1.06200 21.88100
H  11.82900 1.64200 22.22100
H  10.93500 2.25500 20.90200
H  12.28900 -0.69500 26.60600
H  10.82300 -1.19900 25.85200
H  11.19600 -1.68900 27.60000
H  10.89600 1.63300 31.86200
H  10.19500 -1.07300 34.97900
H  8.52500 -0.98900 34.38200
H  9.15800 0.38600 35.23400

