158

Mg -1.33900 18.18200 27.58800
C  -1.96500 15.88700 30.22400
C  -2.35400 20.62400 29.77600
C  -1.24700 20.31800 25.08400
C  -1.36000 15.48000 25.34400
N  -1.77100 18.20200 29.88000
C  -1.95400 17.20600 30.71500
C  -2.28800 17.69500 32.19200
C  -2.52300 19.19500 31.98000
C  -2.23000 19.37900 30.44000
C  -3.97400 19.76600 32.25900
C  -1.13200 17.37300 33.17400
C  -1.59900 16.88900 34.49000
H  -0.69300 16.99400 35.66400
N  -1.50100 20.18400 27.50200
C  -1.96600 20.99800 28.50200
C  -2.07300 22.40600 28.01900
C  -1.69000 22.38000 26.58300
C  -1.41800 20.91300 26.34300
C  -2.64400 23.41300 28.89800
C  -1.60700 23.47400 25.64800
O  -1.31900 23.40900 24.46100
C  -1.72700 24.87800 26.24200
N  -1.41000 17.92000 25.45000
C  -1.18600 19.00400 24.59900
C  -1.05400 18.51400 23.15300
C  -0.75600 16.95200 23.39900
C  -1.20400 16.76800 24.85900
C  -2.24100 18.80100 22.20800
C  0.68700 16.41400 23.25600
C  1.64900 16.99700 24.29100
N  -1.63400 16.10400 27.69800
C  -1.56300 15.15800 26.67200
C  -1.93200 13.89000 27.31800
C  -2.04100 14.09900 28.66500
C  -1.83000 15.45900 28.88900
C  -1.84000 12.58300 26.64200
C  -2.19500 13.36500 29.89700
O  -2.24200 12.16300 30.10900
C  -2.10900 14.54900 30.95100
C  -0.96800 14.25800 31.83000
O  0.22700 14.28400 31.49200
O  -1.48200 13.92400 33.14100
C  -0.44700 13.33000 34.02600
H  -2.89300 21.31200 30.43100
H  -1.09500 20.97300 24.22400
H  -1.37500 14.62600 24.66400
H  -3.19600 17.16500 32.47900
H  -1.85300 19.90000 32.47200
H  -4.62200 19.68600 31.38600
H  -4.04300 20.84600 32.38800
H  -4.52100 19.38300 33.12100
H  -0.66800 18.29800 33.51900
H  -0.30300 16.79800 32.76000
H  -1.89000 15.84200 34.40300
H  -2.42400 17.56100 34.72600
H  -2.46000 23.27600 29.96400
H  -3.72900 23.31200 28.92600
H  -2.31300 24.41800 28.63700
H  -2.75400 25.11600 26.51700
H  -1.26900 25.55800 25.52300
H  -1.08200 24.95900 27.11600
H  -0.13900 18.81100 22.64100
H  -1.28700 16.23300 22.77600
H  -3.13100 18.21300 22.43500
H  -1.96700 18.64800 21.16400
H  -2.55700 19.83200 22.36800
H  1.04900 16.68600 22.26500
H  0.59600 15.33100 23.33000
H  1.37400 16.85400 25.33600
H  1.70100 18.08200 24.19200
H  2.65300 16.63600 24.07100
H  -0.89700 12.12100 26.93400
H  -1.96500 12.60300 25.56000
H  -2.67600 11.94300 26.92400
H  -3.04800 14.55900 31.50400
H  0.32000 12.75500 33.50700
H  -0.94000 12.78700 34.83200
H  0.20700 14.05400 34.51200
Mg -5.26500 26.11600 26.91700
C  -4.21900 27.80400 29.82400
C  -7.34400 24.25800 28.80000
C  -5.89100 24.24800 24.13600
C  -2.90800 27.90600 25.16100
N  -5.65200 26.02000 29.09900
C  -5.25300 26.88500 30.10300
C  -6.01800 26.66700 31.36500
C  -6.84200 25.43600 31.08400
C  -6.55600 25.15800 29.58200
C  -6.52700 24.09900 31.94600
C  -6.87900 27.96200 31.69200
C  -7.47600 27.99500 33.09500
H  -7.15500 26.93900 34.17500
N  -6.60000 24.58200 26.46700
C  -7.38300 23.92800 27.41800
C  -8.19400 22.91100 26.71000
C  -7.80100 22.88000 25.36200
C  -6.67600 23.89000 25.27700
C  -9.32100 22.12700 27.41800
C  -8.19500 21.99300 24.22400
O  -7.68500 22.07900 23.15800
C  -9.22700 20.94000 24.48400
N  -4.70000 26.22100 24.89300
C  -4.96600 25.24000 23.95100
C  -4.29200 25.58800 22.60000
C  -3.42600 26.83500 22.95300
C  -3.68600 27.02500 24.44300
C  -3.58600 24.45700 21.85300
C  -3.74400 28.13600 22.12700
C  -3.27300 28.13000 20.63500
N  -3.80900 27.45800 27.36000
C  -2.97700 28.15700 26.51900
C  -2.22000 29.15800 27.28300
C  -2.75500 29.11300 28.49400
C  -3.66900 28.01600 28.55700
C  -1.33200 30.24900 26.78400
C  -2.61400 29.73200 29.79500
O  -1.90100 30.67600 30.13700
C  -3.57900 28.93800 30.73500
C  -2.70500 28.19200 31.73400
O  -1.77000 27.48600 31.39100
O  -3.17000 28.44600 32.99700
C  -2.45700 27.77300 34.01500
H  -7.97700 23.75100 29.53100
H  -6.12300 23.69800 23.22200
H  -2.04300 28.43800 24.75900
H  -5.36700 26.49000 32.22100
H  -7.90200 25.59100 31.28500
H  -6.38200 23.26200 31.26300
H  -7.48000 23.99100 32.46500
H  -5.71500 24.16900 32.66900
H  -7.64800 28.15100 30.94400
H  -6.14400 28.76000 31.80700
H  -8.55100 28.14900 33.00200
H  -7.07700 28.81300 33.69400
H  -8.89200 21.16900 27.71400
H  -10.15700 21.94600 26.74200
H  -9.66200 22.77600 28.22400
H  -10.16400 21.46100 24.68200
H  -9.03000 20.31400 25.35400
H  -9.24900 20.30600 23.59700
H  -4.98200 25.90200 21.81600
H  -2.38000 26.55500 22.82300
H  -2.51800 24.60200 21.68900
H  -4.02600 24.32200 20.86500
H  -3.62000 23.50200 22.37900
H  -3.50000 29.01600 22.72200
H  -4.82400 28.27300 22.07600
H  -2.64700 27.25400 20.46500
H  -2.57900 28.95700 20.48200
H  -4.08400 28.30300 19.92800
H  -1.93300 30.98600 26.25100
H  -0.62400 29.77000 26.10800
H  -0.85900 30.86100 27.55200
H  -4.34400 29.56300 31.19500
H  -1.50400 28.22600 34.28800
H  -2.18800 26.75300 33.73800
H  -3.01100 27.75400 34.95300

