158

Mg 41.51900 8.65000 30.54200
C  43.55200 9.67800 33.06800
C  39.19900 7.65400 32.84100
C  39.78300 7.34900 28.03000
C  44.13800 9.35700 28.24100
N  41.35000 8.78900 32.67600
C  42.28200 9.18700 33.55900
C  41.83200 9.21300 35.01700
C  40.50600 8.45200 34.91700
C  40.35800 8.20900 33.43600
C  40.37700 7.15400 35.75100
C  41.96300 10.67600 35.71800
C  40.67700 11.29500 36.48600
H  41.03900 12.10500 37.74500
N  39.69200 7.71600 30.43700
C  38.86600 7.39900 31.49200
C  37.69800 6.73000 31.01800
C  37.77100 6.83500 29.61800
C  39.13600 7.29500 29.24000
C  36.64500 6.06300 31.90300
C  36.80600 6.34800 28.55500
O  37.06400 6.46600 27.36800
C  35.45700 5.89000 29.02500
N  42.00900 8.32300 28.47300
C  41.06000 7.80200 27.68400
C  41.60700 7.52400 26.23500
C  42.76600 8.57600 26.25100
C  43.00000 8.75300 27.71400
C  42.06900 6.05000 25.87700
C  42.35800 9.82600 25.45200
C  41.51100 10.92400 26.04900
N  43.45300 9.43500 30.58600
C  44.37200 9.64300 29.57500
C  45.57500 10.17300 30.19600
C  45.31400 10.10000 31.57800
C  43.92800 9.73800 31.73500
C  46.85700 10.72800 29.49200
C  45.85400 10.45100 32.87700
O  46.95900 10.91400 33.18500
C  44.71200 10.18600 33.83500
C  45.29300 9.19000 34.85300
O  45.80600 8.12500 34.66000
O  45.09200 9.65100 36.09700
C  45.59900 8.78900 37.20400
H  38.30100 7.45900 33.43000
H  39.26900 7.06500 27.10900
H  44.97200 9.59800 27.57900
H  42.58600 8.57400 35.47700
H  39.57300 8.99200 35.08100
H  39.52500 7.24700 36.42400
H  41.35900 6.95300 36.18000
H  40.26100 6.31100 35.06900
H  42.21000 11.41500 34.95500
H  42.74100 10.61400 36.47800
H  40.04500 10.45500 36.77300
H  40.21900 12.00200 35.79400
H  35.75100 6.68600 31.91800
H  36.96400 5.93700 32.93800
H  36.43500 5.07900 31.48400
H  35.56200 4.95600 29.57700
H  34.80400 5.74500 28.16600
H  34.88800 6.62400 29.59600
H  40.84200 7.79800 25.50900
H  43.62500 8.17400 25.71400
H  43.14300 5.95200 25.71900
H  41.46900 5.71900 25.02900
H  41.89300 5.42800 26.75500
H  41.89200 9.55900 24.50400
H  43.31000 10.26100 25.14700
H  41.02600 10.52200 26.93800
H  40.64800 11.17300 25.43200
H  41.96000 11.87100 26.34800
H  47.66200 11.15300 30.09200
H  46.77100 11.39700 28.63600
H  47.39000 9.83700 29.16000
H  44.47400 11.10400 34.37200
H  45.02400 7.86700 37.28400
H  45.77900 9.32100 38.13800
H  46.58800 8.48200 36.86500
Mg 56.00300 23.36300 44.56900
C  53.83100 25.93400 43.13300
C  53.69700 21.09900 43.67500
C  58.27200 21.06000 45.25300
C  58.20500 25.93500 45.29300
N  53.99600 23.53400 43.46300
C  53.28400 24.65600 42.97000
C  51.91900 24.20900 42.36600
C  51.80200 22.72000 42.74200
C  53.23800 22.43900 43.41900
C  50.52400 22.42900 43.60900
C  51.68800 24.56300 40.85700
C  50.32800 25.18300 40.48200
H  49.81900 24.43800 39.23900
N  55.99800 21.35300 44.31700
C  54.93700 20.55700 44.00100
C  55.32100 19.16400 43.98700
C  56.66500 19.15000 44.53500
C  57.03400 20.58400 44.70000
C  54.47400 17.97700 43.63300
C  57.53900 17.87300 44.82600
O  57.03100 16.76000 44.84000
C  58.94800 17.90600 45.25600
N  58.02000 23.49200 44.91100
C  58.73600 22.36900 45.34700
C  60.03300 22.78500 45.88200
C  60.01500 24.32800 45.97400
C  58.63500 24.63700 45.41100
C  60.72400 22.10300 47.15500
C  61.08500 25.17100 45.26700
C  61.77200 26.21900 46.13800
N  55.94200 25.48000 44.54600
C  56.95000 26.40900 44.88100
C  56.49800 27.75200 44.70600
C  55.26000 27.63600 44.06200
C  55.04300 26.19100 43.87000
C  57.14500 29.01900 45.10600
C  54.22400 28.37000 43.49300
O  53.92700 29.55600 43.51900
C  53.26000 27.30800 42.84400
C  53.26200 27.63800 41.39800
O  54.13600 27.29800 40.64200
O  52.14900 28.26600 41.02800
C  51.77200 28.31300 39.58200
H  52.88400 20.39100 43.50100
H  59.07800 20.43600 45.64600
H  58.87000 26.69100 45.71500
H  51.24300 24.86500 42.91300
H  51.67600 22.11000 41.84700
H  50.69600 22.68700 44.65400
H  50.46800 21.34300 43.54100
H  49.61700 22.90500 43.23600
H  51.80800 23.67600 40.23500
H  52.48100 25.25000 40.56200
H  50.32600 26.27300 40.48500
H  49.78200 24.91500 41.38600
H  53.47300 18.32800 43.38000
H  54.36600 17.38200 44.54000
H  54.82800 17.43500 42.75600
H  59.01200 18.46100 46.19100
H  59.50300 18.40100 44.45900
H  59.32800 16.89700 45.41700
H  60.70600 22.61400 45.04200
H  60.06100 24.60300 47.02800
H  60.22700 21.15200 47.34600
H  60.97800 22.76100 47.98500
H  61.69000 21.90900 46.69000
H  60.68300 25.63400 44.36600
H  61.90100 24.49100 45.02500
H  61.84700 25.88700 47.17400
H  61.21900 27.13500 46.34500
H  62.78900 26.47600 45.84400
H  56.43800 29.84900 45.11600
H  58.05600 29.12900 44.51800
H  57.52700 28.92900 46.12300
H  52.25100 27.34600 43.25700
H  52.61000 28.84400 39.13100
H  50.87400 28.88300 39.34500
H  51.74600 27.37000 39.03500

