158

Mg 16.80600 -1.60800 27.74200
C  15.45500 0.59400 30.20500
C  18.78300 -2.96800 30.23300
C  18.35700 -3.33500 25.33200
C  15.33100 0.53900 25.40500
N  17.16600 -1.13600 29.94800
C  16.40500 -0.33100 30.72700
C  16.59100 -0.71600 32.20700
C  17.86400 -1.61700 32.22700
C  17.98900 -1.90300 30.65500
C  19.11700 -1.02000 32.74100
C  15.42000 -1.22000 33.05800
C  15.15800 -0.51100 34.38300
H  16.41100 0.06100 35.17100
N  18.24900 -3.07400 27.76700
C  18.88000 -3.54200 28.89200
C  19.67300 -4.67600 28.53200
C  19.56700 -4.88800 27.17000
C  18.69200 -3.78600 26.69600
C  20.53200 -5.43300 29.50200
C  20.21300 -5.89400 26.21300
O  19.97900 -5.87200 25.01300
C  21.14600 -6.98500 26.76700
N  17.05200 -1.27700 25.73500
C  17.59700 -2.21700 24.91900
C  17.30500 -1.88000 23.41600
C  16.24900 -0.72600 23.45200
C  16.27200 -0.42800 24.96100
C  18.45300 -1.58000 22.47100
C  14.80400 -1.05400 22.88800
C  13.79800 -1.63300 23.91400
N  15.57600 0.25100 27.73100
C  14.90700 0.81000 26.65700
C  13.93600 1.74800 27.18000
C  14.12400 1.71100 28.59100
C  15.13900 0.78200 28.83300
C  12.83300 2.47700 26.38300
C  13.52900 2.16500 29.76300
O  12.54400 2.87100 30.06500
C  14.46800 1.52400 30.93100
C  15.24800 2.58500 31.58100
O  16.35200 2.95500 31.21000
O  14.68500 2.90000 32.80500
C  15.35900 3.90900 33.68400
H  19.39200 -3.50500 30.96400
H  18.72500 -3.99500 24.54300
H  14.86100 0.99600 24.53100
H  16.94800 0.23200 32.61000
H  17.74200 -2.58400 32.71500
H  19.38600 -1.35100 33.74400
H  19.00000 0.06000 32.64900
H  19.91500 -1.37500 32.09000
H  15.52700 -2.29500 33.20500
H  14.48900 -1.14900 32.49600
H  14.89900 -1.26100 35.13000
H  14.39600 0.24100 34.17800
H  21.53600 -5.29400 29.10100
H  20.29800 -6.49400 29.59200
H  20.59000 -5.02200 30.50900
H  20.66300 -7.67900 27.45400
H  22.05400 -6.56200 27.19900
H  21.67400 -7.44400 25.93100
H  16.84300 -2.83300 23.15900
H  16.58300 0.07100 22.78700
H  18.35900 -0.55600 22.10900
H  18.43100 -2.20700 21.57900
H  19.44500 -1.67800 22.91100
H  14.96500 -1.61800 21.96900
H  14.42400 -0.08100 22.57400
H  13.22100 -0.75800 24.21500
H  14.35500 -2.07600 24.73900
H  13.17800 -2.33700 23.35900
H  13.15700 3.50600 26.22400
H  11.88300 2.49100 26.91700
H  12.58600 1.91400 25.48400
H  13.81200 0.99300 31.62100
H  15.96800 3.32900 34.37700
H  14.72800 4.58300 34.26300
H  16.01900 4.57600 33.12800
Mg 46.83500 17.48900 28.64000
C  45.31500 16.93100 31.74800
C  49.26200 19.40600 30.02800
C  48.02800 17.87700 25.54600
C  44.28000 15.45000 27.20300
N  47.13400 18.11500 30.63000
C  46.45800 17.73700 31.76600
C  47.23400 18.30900 32.99300
C  48.36100 19.25500 32.36500
C  48.24800 18.93400 30.91000
C  48.17900 20.78700 32.70700
C  47.87500 17.16500 33.90000
C  47.67000 17.20800 35.44000
H  47.12700 18.54600 36.00300
N  48.46200 18.60700 27.86300
C  49.35500 19.30100 28.60700
C  50.41000 19.75100 27.71700
C  50.04800 19.33200 26.35800
C  48.81700 18.54000 26.54000
C  51.62600 20.60400 28.23400
C  50.63800 19.60900 25.04900
O  50.22800 19.10100 24.04900
C  51.86500 20.42100 25.05300
N  46.19700 16.77000 26.69500
C  46.81600 17.17600 25.59500
C  45.99900 16.82500 24.33200
C  45.05200 15.74400 24.86000
C  45.20700 15.95900 26.32100
C  45.27600 17.98500 23.59300
C  45.35000 14.31600 24.30200
C  44.16000 13.67000 23.56700
N  45.06200 16.48500 29.29400
C  44.15800 15.75500 28.60000
C  43.15300 15.23200 29.50400
C  43.58000 15.66900 30.86500
C  44.76100 16.38000 30.62600
C  41.92800 14.47800 29.04100
C  43.21600 15.71700 32.22100
O  42.21200 15.37800 32.80100
C  44.40000 16.59000 32.88400
C  43.78900 17.79300 33.55100
O  43.64900 18.92100 33.04000
O  43.35700 17.46500 34.79100
C  42.58700 18.58000 35.44300
H  50.04900 20.03800 30.44400
H  48.30700 18.09400 24.51300
H  43.42900 14.94000 26.74600
H  46.52100 18.85100 33.61400
H  49.31600 18.98300 32.81300
H  47.14000 20.97700 32.97400
H  48.59400 21.39700 31.90500
H  48.79000 20.96000 33.59300
H  48.95400 17.15600 33.74100
H  47.51200 16.20700 33.52600
H  48.57400 16.80200 35.89500
H  46.94000 16.43100 35.66500
H  52.59900 20.48200 27.75900
H  51.81600 20.38400 29.28500
H  51.29500 21.63900 28.15100
H  52.21100 20.66300 24.04700
H  52.66600 19.82600 25.49300
H  51.67800 21.33100 25.62100
H  46.73700 16.38300 23.66200
H  44.00400 16.01600 24.73300
H  45.17600 18.83700 24.26500
H  44.36900 17.58700 23.14000
H  45.83300 18.39100 22.74900
H  45.57500 13.63700 25.12500
H  46.20500 14.26700 23.62700
H  44.59400 13.47300 22.58600
H  43.26800 14.29600 23.52200
H  44.00900 12.65800 23.94100
H  42.19400 13.42400 28.96000
H  41.45800 14.89900 28.15200
H  41.21600 14.57400 29.86000
H  44.83500 15.87400 33.58100
H  41.56300 18.24300 35.28200
H  42.59100 19.58000 35.00900
H  42.93200 18.68500 36.47200

