158

Mg 48.50800 16.67200 29.61500
C  46.19000 16.07000 32.17200
C  50.33800 18.64400 31.89100
C  50.64400 17.39500 27.18100
C  46.25300 15.25900 27.37000
N  48.18800 17.39700 31.69600
C  47.32400 16.74200 32.54900
C  47.78700 17.03300 33.99800
C  48.72900 18.27700 33.89600
C  49.13500 18.08600 32.39500
C  47.95200 19.68300 34.09700
C  48.41600 15.72700 34.63100
C  48.12400 15.36900 36.07800
H  48.11800 16.54600 37.05300
N  50.27400 17.68500 29.57700
C  50.90100 18.47900 30.63000
C  52.21200 18.96100 30.18300
C  52.39200 18.48200 28.85600
C  51.03700 17.88200 28.44500
C  53.05600 19.80300 31.13600
C  53.57800 18.72200 27.88400
O  53.55300 18.39000 26.70000
C  54.84000 19.28000 28.40700
N  48.48100 16.47000 27.59700
C  49.48000 16.74300 26.73000
C  49.28400 16.18800 25.31500
C  47.97800 15.41000 25.47500
C  47.54200 15.66900 26.91300
C  49.20300 17.34500 24.20600
C  48.09900 13.82800 25.19200
C  47.03300 13.19300 24.26500
N  46.49800 15.87600 29.72900
C  45.76100 15.31000 28.69100
C  44.54500 14.78700 29.24500
C  44.67000 15.07500 30.63400
C  45.84400 15.70200 30.82100
C  43.46800 14.08500 28.51300
C  44.09500 14.84800 31.95600
O  43.05200 14.33300 32.35300
C  45.03900 15.56300 33.00100
C  44.38100 16.64900 33.73600
O  43.99200 17.71600 33.22900
O  44.31900 16.31800 35.06200
C  43.71000 17.27100 35.95700
H  50.89900 19.22600 32.62500
H  51.33400 17.43000 26.33500
H  45.55000 14.71500 26.73600
H  46.87300 17.28900 34.53300
H  49.56500 18.19000 34.59100
H  47.94500 20.22200 33.15000
H  48.44500 20.29100 34.85600
H  46.96400 19.42300 34.47800
H  49.49100 15.90200 34.59000
H  48.24300 14.87500 33.97400
H  48.99400 14.77500 36.35700
H  47.20100 14.79700 36.17600
H  54.02500 19.99100 30.67300
H  53.28100 19.27700 32.06400
H  52.51000 20.69900 31.43200
H  54.56400 20.32200 28.57200
H  55.60200 19.24300 27.62900
H  55.03700 18.60500 29.24000
H  50.14400 15.56300 25.07400
H  47.14900 15.85300 24.92300
H  49.29400 18.36400 24.58100
H  48.32300 17.15500 23.59300
H  50.00400 17.24600 23.47300
H  48.06900 13.27800 26.13300
H  49.09100 13.70900 24.75700
H  47.50500 12.84700 23.34600
H  46.31400 13.96400 23.98700
H  46.54400 12.29500 24.64200
H  43.83800 13.41700 27.73500
H  42.67300 14.65800 28.03700
H  42.99100 13.47200 29.27800
H  45.31300 14.82000 33.75100
H  43.62900 18.33500 35.73400
H  44.19500 17.18600 36.92900
H  42.68600 16.95300 36.15300
Mg -6.37000 25.35100 26.15500
C  -5.04700 26.88200 29.09100
C  -8.11200 23.26100 28.28600
C  -7.08400 23.43800 23.49100
C  -4.22600 27.21700 24.29500
N  -6.43800 25.09300 28.44000
C  -5.91400 25.87000 29.44200
C  -6.46100 25.49000 30.83100
C  -7.30100 24.20900 30.57100
C  -7.28200 24.17200 29.01000
C  -6.86100 22.90200 31.25600
C  -7.08300 26.60600 31.65500
C  -6.72300 26.73700 33.15000
H  -6.06400 25.60500 33.86500
N  -7.54300 23.71400 25.88100
C  -8.17800 22.99700 26.88500
C  -9.10400 22.11800 26.26400
C  -8.91000 22.20500 24.87000
C  -7.81000 23.14600 24.68700
C  -10.14000 21.28500 27.05500
C  -9.64700 21.55400 23.72500
O  -9.34900 21.83400 22.59600
C  -10.62400 20.46200 24.07200
N  -5.79700 25.29600 24.25200
C  -6.21700 24.50300 23.23200
C  -5.45700 24.61700 21.95400
C  -4.86700 26.10100 22.16500
C  -4.87300 26.13600 23.73400
C  -4.47000 23.49000 21.61500
C  -5.64000 27.23300 21.47200
C  -5.15100 27.85900 20.15800
N  -4.99400 26.84300 26.56100
C  -4.19100 27.55200 25.66600
C  -3.52000 28.65100 26.38500
C  -3.78600 28.37300 27.70800
C  -4.71800 27.30700 27.76200
C  -2.69600 29.75200 25.73400
C  -3.46400 28.76600 29.02800
O  -2.67300 29.60500 29.47300
C  -4.30000 27.83500 29.91500
C  -3.26400 27.13500 30.79100
O  -2.58300 26.20500 30.49600
O  -3.34100 27.77900 31.97000
C  -2.25700 27.52200 32.88400
H  -8.73100 22.59300 28.88900
H  -7.18200 22.68200 22.71000
H  -3.74300 27.85200 23.55000
H  -5.59100 25.24700 31.44100
H  -8.26800 24.58000 30.91200
H  -7.38800 22.05300 30.81900
H  -7.14900 22.90400 32.30700
H  -5.78100 22.79600 31.35300
H  -8.17200 26.58000 31.69700
H  -6.85000 27.48700 31.05700
H  -7.60900 27.04800 33.70400
H  -6.03200 27.57800 33.10700
H  -9.88100 21.40900 28.10600
H  -10.26400 20.24200 26.76200
H  -11.08700 21.80400 26.90300
H  -10.14300 19.71400 24.70300
H  -11.06200 20.15800 23.12200
H  -11.43400 20.82600 24.70500
H  -6.11500 24.76400 21.09800
H  -3.80200 26.21100 21.96100
H  -4.48100 22.81000 22.46700
H  -3.45600 23.74200 21.30300
H  -4.89400 22.97700 20.75300
H  -5.83800 28.05300 22.16300
H  -6.66200 26.88900 21.31400
H  -4.71300 28.83400 20.37200
H  -5.87300 27.85700 19.34100
H  -4.23000 27.36400 19.85100
H  -2.07100 29.30200 24.96300
H  -2.11200 30.35000 26.43400
H  -3.42900 30.32900 25.17100
H  -4.89200 28.47300 30.57100
H  -1.28400 27.89400 32.56300
H  -2.24600 26.49000 33.23200
H  -2.53100 28.11600 33.75600

