158

Mg 8.19200 2.88600 27.13700
C  9.63700 1.15800 30.03100
C  6.51600 4.81300 29.35300
C  6.95900 4.32200 24.44400
C  9.99000 0.55900 25.18000
N  8.14400 2.95600 29.52200
C  8.80700 2.20100 30.42800
C  8.52300 2.72600 31.87700
C  7.32300 3.73900 31.58800
C  7.19800 3.80300 30.05200
C  6.01900 3.35000 32.20600
C  9.79300 3.24300 32.55200
C  9.62500 4.22600 33.81200
H  10.61000 4.22700 34.90600
N  6.96900 4.46500 26.97500
C  6.33100 5.15000 27.98400
C  5.49400 6.23800 27.39300
C  5.73500 6.12800 25.94600
C  6.58600 4.89000 25.73400
C  4.60600 7.12700 28.18300
C  5.11600 6.98300 24.86500
O  5.08100 6.66700 23.69100
C  4.46100 8.24700 25.12000
N  8.40200 2.45800 25.15400
C  7.78600 3.19400 24.19200
C  7.97100 2.55600 22.80600
C  9.11400 1.58200 23.00700
C  9.24900 1.55100 24.56100
C  6.64600 1.95200 22.15000
C  10.34300 2.11000 22.31200
C  11.43500 1.07100 21.82100
N  9.40000 1.03100 27.43700
C  10.18900 0.33600 26.55000
C  11.04000 -0.63800 27.20200
C  10.83800 -0.33400 28.60300
C  9.81200 0.72800 28.67400
C  11.91400 -1.58900 26.60100
C  11.33800 -0.61800 29.88500
O  12.24300 -1.36600 30.22200
C  10.54400 0.28300 30.94100
C  9.60400 -0.46700 31.81400
O  8.82100 -1.31200 31.39700
O  9.89000 -0.22100 33.14800
C  9.38500 -1.22200 34.14100
H  5.90800 5.33400 30.09600
H  6.48000 4.71900 23.54600
H  10.51900 -0.13200 24.52100
H  8.10200 1.89600 32.44500
H  7.52800 4.70800 32.04200
H  5.34900 2.97000 31.43400
H  5.46900 4.21600 32.57300
H  6.12100 2.57800 32.96900
H  10.43100 3.83900 31.90000
H  10.28700 2.36200 32.96200
H  8.62000 4.12100 34.22200
H  9.62900 5.16600 33.26000
H  4.65700 6.92500 29.25300
H  3.54600 7.07100 27.93600
H  4.94800 8.14700 28.00800
H  5.11100 8.94900 25.64200
H  3.56700 8.11100 25.73000
H  4.18600 8.72500 24.18000
H  8.20900 3.32800 22.07500
H  8.95700 0.53600 22.74300
H  5.81400 2.18800 22.81500
H  6.59900 0.89800 21.87500
H  6.51500 2.53200 21.23700
H  10.82900 2.72400 23.07000
H  10.11200 2.69100 21.41900
H  10.93600 0.10300 21.78700
H  12.23800 0.98600 22.55400
H  11.90000 1.23800 20.84900
H  12.86800 -1.70400 27.11600
H  12.19800 -1.48600 25.55400
H  11.52800 -2.60400 26.50600
H  11.23700 0.76800 31.62800
H  8.98300 -0.58200 34.92600
H  10.26200 -1.75900 34.50300
H  8.60900 -1.83200 33.67900
Mg 26.81900 50.30200 26.65700
C  24.70600 51.68400 29.17500
C  29.16500 49.76200 29.12000
C  29.03100 49.36200 24.27900
C  24.64500 51.61500 24.13300
N  26.82400 50.65200 28.94100
C  25.86500 51.16500 29.70800
C  26.20400 50.91900 31.13700
C  27.75800 50.46000 31.12500
C  27.95000 50.28800 29.67600
C  28.80500 51.36600 31.78800
C  25.31000 49.74100 31.83200
C  24.45200 50.18500 33.08200
H  24.56400 49.27800 34.29900
N  28.75200 49.60700 26.76600
C  29.65000 49.42800 27.83300
C  30.90600 48.91200 27.40800
C  30.84900 48.88200 26.03200
C  29.49600 49.23700 25.64600
C  32.00700 48.54400 28.39800
C  31.98500 48.57300 24.98300
O  31.85900 48.69000 23.77400
C  33.27300 48.14900 25.48700
N  26.70500 50.24400 24.48600
C  27.78200 49.74700 23.73800
C  27.37300 49.71700 22.26000
C  25.98800 50.51600 22.22500
C  25.73700 50.85800 23.71100
C  28.57300 50.25400 21.30400
C  24.80300 49.76900 21.57700
C  23.78800 50.67100 20.82100
N  25.07300 51.35200 26.65500
C  24.26100 51.80000 25.55600
C  23.03000 52.39700 26.08300
C  23.17400 52.32500 27.50300
C  24.47100 51.75700 27.78100
C  21.91000 52.98100 25.20000
C  22.57000 52.74300 28.72600
O  21.52600 53.34800 28.98000
C  23.44400 52.21400 29.87900
C  23.76100 53.27500 30.84900
O  24.60500 54.13800 30.74400
O  22.92300 53.14300 31.92800
C  23.27900 53.93700 33.15700
H  29.94400 49.43100 29.81100
H  29.68800 48.97200 23.49900
H  24.02500 52.06800 23.35700
H  26.14900 51.85800 31.68700
H  27.94200 49.50300 31.61400
H  29.37400 50.89900 32.59200
H  28.23000 52.16200 32.26100
H  29.45300 51.85500 31.06100
H  25.96600 48.97000 32.23700
H  24.65900 49.26500 31.09900
H  23.39100 50.29300 32.85900
H  24.78800 51.15700 33.44100
H  31.76900 48.82000 29.42500
H  32.95400 49.08200 28.35700
H  32.17300 47.46700 28.35400
H  33.94100 48.15700 24.62600
H  33.20200 47.14100 25.89500
H  33.70700 48.74700 26.28800
H  27.24100 48.65000 22.08200
H  26.08800 51.46700 21.70200
H  29.41100 50.56600 21.92700
H  28.22400 51.13700 20.76900
H  28.80600 49.42300 20.63700
H  24.23000 49.23600 22.33500
H  25.29200 48.99200 20.98900
H  23.68400 50.33100 19.79100
H  24.19400 51.68200 20.78200
H  22.81600 50.73200 21.31200
H  22.41100 53.71400 24.56800
H  21.12300 53.46600 25.77700
H  21.37500 52.23100 24.61700
H  22.99000 51.41900 30.47100
H  23.72400 53.32600 33.94200
H  22.36100 54.35800 33.56700
H  23.91900 54.77800 32.89000

