158

Mg 35.46800 1.29400 29.63800
C  33.33300 2.85600 31.90300
C  37.90000 1.28500 32.03500
C  37.65200 0.23100 27.33500
C  33.05500 1.85000 27.10600
N  35.57300 2.07600 31.78100
C  34.52900 2.47300 32.51300
C  34.91900 2.52600 34.05300
C  36.45200 2.17500 33.98700
C  36.67900 1.76500 32.54600
C  37.53600 3.15800 34.52000
C  34.12700 1.41500 34.91700
C  33.29900 2.02000 36.03300
H  33.98300 3.09300 36.80300
N  37.44500 0.74200 29.69200
C  38.25000 0.73000 30.76800
C  39.51300 0.14300 30.44200
C  39.55300 0.07100 29.00600
C  38.21900 0.34900 28.60300
C  40.63800 0.10100 31.51200
C  40.75600 -0.21400 28.10900
O  40.64600 -0.10100 26.88200
C  42.13400 -0.57900 28.66100
N  35.37500 1.16600 27.55300
C  36.42400 0.61600 26.80300
C  36.03200 0.49400 25.33900
C  34.49000 0.66300 25.34600
C  34.25800 1.23700 26.75900
C  36.74500 1.53700 24.51900
C  33.58200 -0.63000 24.99400
C  34.19700 -2.03800 25.20000
N  33.64100 2.19100 29.45100
C  32.71200 2.25900 28.39100
C  31.40200 2.71500 28.84200
C  31.65800 2.97600 30.25000
C  32.99900 2.71500 30.54700
C  30.11500 2.76300 28.14200
C  31.04700 3.34800 31.54300
O  29.86800 3.58000 31.79000
C  32.16900 3.39600 32.62300
C  32.43400 4.73200 33.20800
O  33.50200 5.29100 33.21700
O  31.29600 5.20100 33.76900
C  31.51300 6.42300 34.52800
H  38.66800 1.07800 32.78300
H  38.37800 -0.23100 26.66300
H  32.25400 1.97100 26.37400
H  34.77500 3.54600 34.40700
H  36.61100 1.19100 34.42800
H  37.11300 3.68300 35.37600
H  38.01000 3.74900 33.73600
H  38.36900 2.58900 34.93200
H  34.78200 0.70500 35.42300
H  33.57600 0.81800 34.19100
H  32.95200 1.21700 36.68300
H  32.41600 2.37400 35.50000
H  41.49100 -0.50700 31.21000
H  40.32600 -0.08100 32.54000
H  41.04900 1.10500 31.62000
H  42.10600 -1.31100 29.46800
H  42.50500 0.33900 29.11700
H  42.80400 -0.66100 27.80600
H  36.31500 -0.46600 24.90900
H  34.13000 1.51200 24.76600
H  37.75100 1.71800 24.89800
H  36.13600 2.44100 24.55500
H  36.83100 1.12000 23.51600
H  33.35400 -0.55200 23.93000
H  32.68600 -0.54400 25.60900
H  35.07600 -2.09800 25.84200
H  34.35300 -2.48800 24.22000
H  33.41000 -2.65700 25.63100
H  29.99400 3.80100 27.83200
H  29.28100 2.48700 28.78700
H  30.07200 2.06500 27.30700
H  31.79600 2.82100 33.47100
H  31.87800 7.25400 33.92400
H  32.25900 6.30100 35.31200
H  30.56400 6.60600 35.03300
Mg 42.33600 41.43000 26.50600
C  41.71600 43.65100 29.13800
C  43.24900 38.95900 28.79200
C  43.23900 39.53600 23.90100
C  41.37800 43.95300 24.39600
N  42.53000 41.35500 28.72400
C  42.18400 42.39900 29.63900
C  42.13100 41.84300 31.07800
C  42.85900 40.47100 30.91700
C  42.82300 40.16700 29.39300
C  44.16000 40.34800 31.60600
C  40.67300 41.71600 31.62000
C  40.36000 42.81500 32.72600
H  39.79600 42.34700 34.08000
N  43.22000 39.51900 26.40900
C  43.44200 38.60700 27.41300
C  43.98100 37.38900 26.80700
C  43.95700 37.53700 25.36900
C  43.38000 38.86800 25.15300
C  44.38900 36.08700 27.63300
C  44.43000 36.66100 24.29000
O  44.36200 36.94200 23.10300
C  45.18800 35.42000 24.63500
N  42.50800 41.73500 24.41900
C  42.78300 40.78400 23.53400
C  42.56700 41.25400 22.06300
C  41.86600 42.59700 22.25900
C  41.94000 42.74900 23.74800
C  43.81300 41.15900 21.18400
C  40.41000 42.66200 21.75500
C  39.29900 42.06900 22.62000
N  41.64500 43.37000 26.69700
C  41.39900 44.32300 25.72200
C  40.97100 45.59100 26.31700
C  41.06500 45.36100 27.68300
C  41.52900 44.03400 27.83600
C  40.39300 46.81400 25.58500
C  40.75100 45.91500 28.92400
O  40.19900 46.94500 29.29800
C  41.16300 44.82100 29.97400
C  42.15900 45.38600 30.98000
O  43.37200 45.36900 30.87400
O  41.49300 45.75300 32.17200
C  42.30400 46.29800 33.22500
H  43.42000 38.17800 29.53500
H  43.47400 39.01300 22.97100
H  41.16500 44.76100 23.69300
H  42.64800 42.56100 31.71600
H  42.25300 39.72800 31.43500
H  44.50300 41.37200 31.75100
H  44.86900 39.91200 30.90300
H  44.11600 39.86500 32.58300
H  40.54100 40.75600 32.11800
H  39.96100 41.89300 30.81300
H  39.55500 43.38000 32.25600
H  41.18100 43.50200 32.92800
H  43.65700 35.29700 27.46300
H  44.25200 36.46800 28.64500
H  45.45100 35.86800 27.52100
H  44.50900 34.63400 24.96500
H  45.99800 35.67000 25.32000
H  45.70100 35.09300 23.73100
H  41.85300 40.52500 21.68000
H  42.43900 43.35300 21.72300
H  43.85200 42.13900 20.70800
H  43.67500 40.27600 20.55900
H  44.73100 41.07900 21.76700
H  40.39600 42.18400 20.77600
H  40.25800 43.73700 21.65900
H  39.09700 42.76900 23.43100
H  39.62200 41.19400 23.18400
H  38.42100 41.63300 22.14200
H  40.70000 46.79500 24.53900
H  40.81900 47.64800 26.14300
H  39.30600 46.88900 25.57100
H  40.34700 44.41100 30.56800
H  43.19300 46.85700 32.93100
H  42.61900 45.63200 34.02800
H  41.71200 47.11000 33.64700

