158

Mg 16.55500 -1.33800 27.93200
C  15.27700 0.54300 30.73600
C  18.61900 -3.02800 29.95400
C  17.60100 -2.81000 25.17500
C  14.53000 0.83800 25.95000
N  16.98100 -1.10100 30.10700
C  16.31200 -0.41100 31.04500
C  16.85100 -0.68900 32.45300
C  17.94100 -1.76800 32.21700
C  17.88500 -1.99900 30.67000
C  19.37900 -1.33800 32.63800
C  15.62000 -1.28500 33.36500
C  15.30900 -0.70400 34.75000
H  16.32500 0.15600 35.46400
N  17.75400 -2.77000 27.64300
C  18.57600 -3.36700 28.56400
C  19.38800 -4.42500 27.97800
C  19.13500 -4.35700 26.60200
C  18.14500 -3.27600 26.42100
C  20.24100 -5.37800 28.83200
C  19.94700 -5.01200 25.46500
O  19.68400 -4.80200 24.29400
C  20.93100 -6.06000 25.85700
N  16.16300 -0.88000 25.84400
C  16.71000 -1.75500 24.95700
C  16.37000 -1.24800 23.53100
C  15.06500 -0.34100 23.79400
C  15.26300 -0.07800 25.26500
C  17.50900 -0.48700 22.79300
C  13.71700 -1.09200 23.51100
C  12.67400 -0.11500 22.91200
N  15.33100 0.45800 28.21400
C  14.55800 1.14500 27.31900
C  13.64000 2.02800 27.98600
C  13.87700 1.86900 29.33500
C  14.92800 0.90300 29.44700
C  12.69400 3.06900 27.40500
C  13.55500 2.30400 30.67400
O  12.82800 3.17500 31.03400
C  14.45400 1.41800 31.63800
C  15.32800 2.42000 32.23700
O  16.43900 2.80900 31.82800
O  14.80300 2.90200 33.39700
C  15.66600 3.88800 34.02900
H  19.22100 -3.65500 30.61500
H  17.86800 -3.42300 24.31100
H  13.84100 1.49500 25.41600
H  17.23100 0.21900 32.92100
H  17.74700 -2.74900 32.65000
H  19.98600 -1.45400 31.74100
H  19.66600 -1.92700 33.50900
H  19.52300 -0.28300 32.87200
H  15.62500 -2.36900 33.48300
H  14.76000 -1.32200 32.69600
H  15.08100 -1.60300 35.32200
H  14.38900 -0.12100 34.80400
H  19.85100 -6.39600 28.84400
H  20.34100 -5.23500 29.90800
H  21.28600 -5.37700 28.52100
H  21.78200 -5.60800 26.36800
H  21.30900 -6.38900 24.88900
H  20.44900 -6.86600 26.41000
H  16.17300 -2.15000 22.95200
H  15.21200 0.54800 23.18100
H  17.06900 0.45100 22.45300
H  17.77100 -1.14200 21.96200
H  18.38700 -0.32100 23.41700
H  13.32200 -1.77600 24.26100
H  13.87300 -1.81400 22.70900
H  11.91400 -0.84900 22.64600
H  12.97400 0.54700 22.09900
H  12.26800 0.47400 23.73500
H  11.86600 2.93300 28.10100
H  12.30400 2.73300 26.44500
H  13.19900 4.03500 27.37000
H  13.82600 0.95500 32.39800
H  16.13400 4.57400 33.32200
H  16.45800 3.39800 34.59400
H  15.05300 4.35300 34.80100
Mg -11.30300 38.28700 41.71100
C  -9.24400 35.43200 41.31700
C  -8.94900 40.11700 39.92200
C  -13.50400 40.59700 41.34600
C  -13.63700 36.15500 43.23700
N  -9.42100 37.74500 40.61100
C  -8.76400 36.56500 40.59300
C  -7.53100 36.66400 39.68000
C  -7.31100 38.19600 39.53300
C  -8.62900 38.71100 40.12200
C  -6.10500 38.83700 40.31200
C  -7.84100 35.95300 38.24100
C  -6.76200 35.06700 37.68100
H  -5.80300 35.73600 36.67500
N  -11.20700 40.14400 40.86900
C  -10.14900 40.80900 40.26100
C  -10.47100 42.11100 39.92300
C  -11.86500 42.21800 40.26400
C  -12.23700 40.96300 40.86500
C  -9.41600 43.04900 39.30200
C  -12.70900 43.49900 40.02700
O  -12.21500 44.58400 39.76800
C  -14.18700 43.58600 40.24800
N  -13.41200 38.35700 42.12700
C  -14.07700 39.49900 41.93100
C  -15.57100 39.41900 42.38800
C  -15.58700 37.88700 42.76000
C  -14.14200 37.40200 42.79100
C  -15.99400 40.53200 43.42700
C  -16.67500 37.06300 41.95200
C  -16.13300 36.33800 40.69800
N  -11.42200 36.21700 42.25000
C  -12.37800 35.52100 42.92300
C  -11.91700 34.23700 43.21800
C  -10.63200 34.13100 42.61500
C  -10.44200 35.32900 42.02300
C  -12.60400 33.17200 43.97300
C  -9.45500 33.27000 42.45500
O  -9.29500 32.05200 42.64900
C  -8.47400 34.16500 41.64300
C  -7.19400 34.24400 42.35800
O  -6.61700 33.22800 42.71400
O  -6.73200 35.52300 42.64400
C  -5.34500 35.70700 43.08000
H  -8.17500 40.70500 39.42500
H  -14.36500 41.26700 41.30700
H  -14.44200 35.53100 43.63100
H  -6.59400 36.23500 40.03700
H  -7.17100 38.51400 38.50000
H  -6.35000 39.83300 40.67900
H  -5.28700 38.94000 39.59900
H  -5.93900 38.12900 41.12500
H  -7.94700 36.79400 37.55600
H  -8.81600 35.46800 38.19600
H  -7.22100 34.13500 37.34900
H  -6.00000 34.78600 38.40700
H  -9.45100 42.77000 38.24900
H  -8.45400 42.94000 39.80200
H  -9.79200 44.06500 39.42300
H  -14.38800 43.54600 41.31800
H  -14.48400 42.66500 39.74700
H  -14.59800 44.47100 39.76000
H  -16.10900 39.64900 41.46800
H  -15.99300 37.72600 43.75800
H  -16.61500 41.14700 42.77500
H  -15.08700 41.05200 43.73500
H  -16.64500 40.17800 44.22600
H  -17.41300 37.72200 41.49500
H  -17.21300 36.37000 42.59800
H  -16.30700 35.28100 40.89900
H  -15.09600 36.57800 40.46500
H  -16.61600 36.58700 39.75300
H  -13.68900 33.25200 43.90900
H  -12.16000 33.35300 44.95200
H  -12.29200 32.17700 43.65800
H  -8.24600 33.64900 40.71000
H  -5.25700 36.72500 43.46100
H  -4.57900 35.55700 42.31900
H  -5.14700 34.98200 43.86900

