158

Mg 17.67200 -1.30300 27.29400
C  16.60200 0.71200 30.03000
C  19.86400 -3.01700 29.33900
C  19.14300 -2.55700 24.46700
C  15.81900 0.90400 25.21900
N  18.28800 -1.02800 29.37200
C  17.55700 -0.29700 30.35600
C  17.98100 -0.85600 31.78600
C  19.11100 -1.85100 31.49500
C  19.13700 -1.93100 30.00600
C  20.49200 -1.50000 32.06000
C  16.86500 -1.46700 32.65500
C  16.53000 -0.76900 33.96400
H  17.68800 -0.29200 34.91000
N  19.12400 -2.72000 26.95800
C  19.85600 -3.34100 27.91900
C  20.49900 -4.49600 27.32700
C  20.35000 -4.39500 25.90400
C  19.49600 -3.18700 25.68700
C  20.98100 -5.72100 28.12800
C  20.99900 -5.14000 24.80900
O  20.79700 -4.94000 23.60000
C  21.95200 -6.21600 25.23100
N  17.47200 -0.90000 25.16000
C  18.28000 -1.49000 24.22100
C  18.05000 -0.89400 22.77500
C  16.73800 0.04700 23.02500
C  16.66900 0.00400 24.55500
C  19.32800 -0.14700 22.24400
C  15.42800 -0.39500 22.31400
C  14.89800 0.32700 21.10500
N  16.44100 0.51200 27.51000
C  15.79200 1.20700 26.61000
C  15.03200 2.29600 27.20300
C  15.26300 2.10100 28.57000
C  16.12700 1.01100 28.67200
C  14.14000 3.32700 26.56700
C  14.97400 2.57900 29.95200
O  14.28500 3.54800 30.32400
C  15.88500 1.74200 30.92300
C  16.89500 2.65400 31.71600
O  18.06800 2.78300 31.41400
O  16.46100 3.16400 32.90600
C  17.18500 4.26700 33.45800
H  20.53200 -3.60300 29.97300
H  19.49600 -3.03400 23.55000
H  15.14900 1.41900 24.52800
H  18.19300 0.11200 32.24000
H  18.78600 -2.87800 31.66300
H  20.96600 -2.37300 32.50900
H  20.30600 -0.92600 32.96700
H  21.07500 -0.85400 31.40300
H  17.06900 -2.45800 33.06100
H  15.96700 -1.52800 32.04100
H  15.79000 -1.31400 34.55000
H  15.97400 0.13900 33.73200
H  22.06300 -5.84300 28.16300
H  20.42100 -6.53400 27.66600
H  20.59800 -5.72700 29.14800
H  21.41500 -7.04700 25.68900
H  22.72500 -5.76300 25.85200
H  22.49200 -6.47900 24.32200
H  17.80000 -1.72900 22.12100
H  16.88700 1.08400 22.72500
H  19.50400 -0.53700 21.24100
H  20.11700 -0.33900 22.97000
H  19.08500 0.91300 22.16500
H  14.65400 -0.21000 23.05900
H  15.35600 -1.46500 22.12000
H  14.28000 1.18500 21.37000
H  14.17400 -0.35200 20.65400
H  15.66800 0.64800 20.40400
H  13.08000 3.14900 26.75100
H  14.32100 3.30000 25.49300
H  14.28900 4.33300 26.95800
H  15.22200 1.25600 31.63900
H  16.72300 4.47600 34.42300
H  17.04500 5.14700 32.83000
H  18.24700 4.04900 33.57000
Mg 41.72000 40.36500 27.39900
C  41.10700 42.96900 29.80800
C  42.91800 38.38400 29.98500
C  42.86000 38.32800 25.07200
C  41.04500 42.82100 24.93200
N  42.04700 40.78200 29.61900
C  41.51300 41.76500 30.38900
C  41.51400 41.41000 31.92600
C  42.21700 40.00500 31.93100
C  42.46800 39.67200 30.40200
C  43.51300 39.93500 32.83100
C  40.13100 41.56600 32.76800
C  40.26400 42.19300 34.24300
H  39.25600 41.73800 35.24600
N  42.61000 38.50200 27.57400
C  42.94700 37.85300 28.67400
C  43.39500 36.53000 28.28300
C  43.46400 36.52100 26.83100
C  42.94100 37.78500 26.42700
C  43.74200 35.46700 29.34800
C  44.00000 35.41100 25.99100
O  44.12300 35.55200 24.79800
C  44.48600 34.18300 26.59600
N  41.76900 40.47400 25.23000
C  42.41000 39.53100 24.54800
C  42.51000 39.93100 23.08900
C  41.68200 41.27900 22.99100
C  41.50300 41.58900 24.44600
C  44.00000 39.94700 22.47000
C  40.42200 41.18900 22.09200
C  39.23100 40.25600 22.64800
N  41.20900 42.37800 27.30000
C  40.92200 43.26700 26.20300
C  40.40900 44.50100 26.70800
C  40.61400 44.43000 28.02700
C  41.01600 43.11100 28.39500
C  39.84500 45.71600 25.97000
C  40.42700 45.28000 29.17900
O  39.98100 46.38900 29.23600
C  40.68500 44.33700 30.42500
C  41.78500 44.83700 31.26200
O  42.93300 44.95900 30.87900
O  41.37800 45.05200 32.55500
C  42.43700 45.36800 33.55600
H  43.18500 37.76300 30.84300
H  43.21500 37.74800 24.21700
H  40.75200 43.52600 24.15200
H  42.18900 42.15200 32.35300
H  41.41800 39.33000 32.23900
H  44.41600 39.75700 32.24700
H  43.46300 39.28200 33.70300
H  43.72000 40.96900 33.10800
H  39.52100 40.66600 32.69200
H  39.70500 42.32200 32.10800
H  40.10800 43.26100 34.08600
H  41.27200 42.05600 34.63300
H  43.42300 34.46900 29.04700
H  43.22700 35.50400 30.30800
H  44.78400 35.51400 29.66400
H  43.59500 33.63600 26.90500
H  45.20900 34.43300 27.37300
H  45.00100 33.67400 25.78200
H  41.97800 39.16500 22.52500
H  42.27900 42.11600 22.62800
H  44.46900 40.91800 22.30800
H  44.02600 39.51100 21.47100
H  44.78100 39.37500 22.97000
H  40.73400 40.65300 21.19500
H  40.10300 42.15500 21.70100
H  39.12500 39.28500 22.16400
H  38.27500 40.77200 22.56300
H  39.43600 39.96600 23.67900
H  39.30100 45.50400 25.05000
H  40.71100 46.29400 25.64700
H  39.23200 46.27200 26.68000
H  39.77400 44.12300 30.98400
H  42.55800 44.56800 34.28600
H  42.24300 46.26500 34.14400
H  43.46700 45.47700 33.21800

