158

Mg 47.13100 25.35700 28.42100
C  48.01400 27.53000 31.07000
C  46.26900 23.02100 30.73100
C  46.57500 23.15500 25.88500
C  48.67900 27.55300 26.21900
N  46.95600 25.42900 30.64600
C  47.41200 26.41000 31.50700
C  47.21100 25.99100 32.96900
C  46.51400 24.53900 32.82600
C  46.53100 24.31700 31.33200
C  47.15900 23.33200 33.66900
C  46.16200 26.96700 33.60900
C  46.70000 27.65300 34.85000
H  45.74200 28.14900 35.92600
N  46.43400 23.36400 28.32000
C  46.09700 22.59300 29.39400
C  45.57900 21.36600 28.89400
C  45.71000 21.34000 27.52900
C  46.25700 22.64400 27.14100
C  45.06900 20.24400 29.78000
C  45.39600 20.19400 26.48700
O  45.48100 20.31300 25.26500
C  44.77700 18.92600 26.93100
N  47.59100 25.37400 26.42200
C  47.21900 24.41400 25.54600
C  47.50500 24.77800 24.10200
C  48.07700 26.13100 24.20300
C  48.14300 26.35600 25.74600
C  48.34200 23.78400 23.33500
C  47.18400 27.22900 23.45700
C  47.65800 27.72100 22.14300
N  48.10600 27.18800 28.56200
C  48.74400 27.91800 27.55500
C  49.25500 29.14100 28.15600
C  49.12500 28.91300 29.49800
C  48.31400 27.82900 29.71000
C  49.97700 30.27100 27.49700
C  49.38600 29.45300 30.81700
O  50.10400 30.41500 31.16100
C  48.68000 28.59000 31.90000
C  49.77000 28.02300 32.80100
O  50.47900 27.15600 32.38600
O  49.83400 28.63800 34.00700
C  51.07600 28.37400 34.79600
H  46.03500 22.39800 31.59600
H  46.43100 22.60700 24.95100
H  49.05400 28.29800 25.51400
H  48.13600 25.92800 33.54200
H  45.50100 24.49900 33.22700
H  46.43600 22.69100 34.17300
H  47.84900 23.70600 34.42500
H  47.74200 22.72700 32.97400
H  45.25200 26.51000 33.99700
H  45.98000 27.82800 32.96700
H  47.21100 28.55200 34.50400
H  47.38800 26.97400 35.35500
H  44.09000 19.89700 29.45100
H  45.08100 20.51100 30.83600
H  45.80500 19.44300 29.70800
H  45.59900 18.33800 27.34100
H  44.38100 18.46900 26.02500
H  43.89700 19.17100 27.52600
H  46.51200 24.84200 23.65700
H  49.09900 26.20400 23.83200
H  48.72700 23.11400 24.10400
H  49.16300 24.28900 22.82700
H  47.71700 23.17400 22.68200
H  47.02100 28.06200 24.14000
H  46.18300 26.86500 23.22700
H  48.57300 27.16800 21.93200
H  47.90300 28.77700 22.26000
H  46.92800 27.55600 21.35100
H  51.05800 30.17700 27.40000
H  49.69200 31.13900 28.09200
H  49.67000 30.36200 26.45500
H  48.01500 29.22100 32.49000
H  52.00700 28.71000 34.33900
H  51.09100 27.30000 34.97900
H  51.00700 28.87700 35.76100
Mg 6.61300 53.22600 40.94100
C  5.72300 49.79400 40.46800
C  9.55300 52.71100 39.60900
C  6.89800 56.54000 41.06300
C  3.05800 53.67400 41.82600
N  7.39700 51.41200 39.98500
C  6.93000 50.14700 39.87100
C  8.03100 49.29900 39.24400
C  9.35000 50.09400 39.62500
C  8.75800 51.52000 39.73100
C  10.08600 49.74000 40.92900
C  8.01100 48.87900 37.78600
C  7.49300 49.90300 36.73000
H  6.69700 49.31800 35.55600
N  8.08500 54.49500 40.46000
C  9.30200 54.10200 39.87400
C  10.15600 55.24400 39.90200
C  9.37200 56.36200 40.23200
C  8.05000 55.84200 40.62000
C  11.57500 55.12900 39.42400
C  9.86400 57.77700 40.18700
O  11.06400 57.99100 39.95400
C  9.00900 58.95800 40.41600
N  5.07000 54.88800 41.29300
C  5.54900 56.13300 41.41700
C  4.38800 57.12000 41.75100
C  3.18200 56.17200 42.08900
C  3.77500 54.81500 41.61800
C  4.58100 58.06800 42.98500
C  1.75100 56.51800 41.49800
C  1.32600 55.97200 40.10100
N  4.77100 52.01900 41.30000
C  3.47000 52.35100 41.69400
C  2.70000 51.16700 42.05400
C  3.54300 50.18500 41.47600
C  4.77600 50.73600 41.03000
C  1.31600 50.99600 42.61700
C  3.60900 48.77700 41.12600
O  2.80500 47.87900 41.32500
C  5.07900 48.45100 40.51700
C  4.89000 47.84200 39.18900
O  4.42600 48.40000 38.19900
O  5.19300 46.52100 39.22000
C  5.03000 45.74900 37.99100
H  10.58900 52.58000 39.29000
H  6.98500 57.61100 41.25900
H  2.03200 53.83200 42.16600
H  8.22600 48.36500 39.77000
H  10.14000 49.96600 38.88400
H  11.17100 49.72400 40.82600
H  9.71800 48.77800 41.28600
H  9.78600 50.52000 41.62900
H  7.33100 48.03200 37.69300
H  9.02600 48.63300 37.47200
H  8.31900 50.43200 36.25400
H  6.89700 50.69800 37.17700
H  11.64600 55.89100 38.64800
H  11.85100 54.13600 39.07000
H  12.35200 55.38400 40.14500
H  9.54200 59.77700 39.93300
H  8.93400 59.20800 41.47400
H  8.06500 58.82400 39.88800
H  4.13900 57.58500 40.79700
H  3.11600 55.93300 43.15000
H  3.81800 58.02100 43.76200
H  4.45500 59.03400 42.49500
H  5.56900 57.99700 43.43900
H  1.76500 57.59900 41.35600
H  0.90800 56.23600 42.12900
H  1.10000 56.82600 39.46300
H  0.44400 55.33100 40.12700
H  2.16700 55.52000 39.57700
H  1.40200 50.21700 43.37400
H  0.60600 50.66100 41.86100
H  0.78800 51.87000 42.99900
H  5.51600 47.68500 41.15700
H  4.49100 44.81500 38.15400
H  6.00500 45.48500 37.58300
H  4.51900 46.24600 37.16600

