158

Mg 26.23900 1.19300 29.71600
C  28.37600 0.72400 32.65400
C  23.59200 1.43000 31.78500
C  24.28400 1.07800 26.99900
C  29.02100 0.52200 27.67600
N  26.08900 1.08300 31.95700
C  27.05000 1.08900 32.98000
C  26.41600 1.10800 34.32000
C  24.85800 1.14400 34.01700
C  24.81900 1.27200 32.47500
C  24.00700 -0.03800 34.53300
C  27.00100 2.24000 35.19000
C  26.34900 2.60800 36.53200
H  26.94800 2.09700 37.87700
N  24.13400 1.27100 29.45800
C  23.18100 1.41900 30.39800
C  21.87300 1.63000 29.78300
C  22.12100 1.47400 28.36700
C  23.56300 1.25700 28.18700
C  20.72000 1.95300 30.69300
C  21.03400 1.40800 27.32700
O  21.27300 1.15600 26.11800
C  19.55000 1.46700 27.75900
N  26.58900 0.69900 27.66800
C  25.62500 0.95600 26.69000
C  26.20000 0.90300 25.24400
C  27.76600 0.80000 25.52500
C  27.84100 0.70100 27.05800
C  25.61900 -0.28600 24.40500
C  28.62200 2.07700 25.04600
C  27.90700 3.41700 25.24800
N  28.30400 0.74500 30.02800
C  29.25000 0.39700 29.07800
C  30.52900 0.08600 29.76500
C  30.24300 0.24200 31.16100
C  28.87000 0.59400 31.29300
C  31.93300 -0.19300 29.24900
C  30.74500 0.07600 32.50700
O  31.87400 -0.27600 32.80700
C  29.67700 0.50000 33.50800
C  29.51000 -0.61400 34.53600
O  28.75700 -1.56900 34.28400
O  30.31400 -0.52400 35.62900
C  30.04300 -1.54200 36.60500
H  22.75900 1.65000 32.45600
H  23.65400 1.09000 26.10700
H  29.89000 0.16800 27.11800
H  26.69300 0.17400 34.80800
H  24.43800 2.06700 34.41600
H  24.42100 -0.48800 35.43500
H  23.85000 -0.77900 33.74900
H  22.99800 0.23200 34.84500
H  27.15600 3.13300 34.58300
H  28.03100 1.92000 35.34800
H  25.30700 2.29000 36.56500
H  26.29700 3.69100 36.63900
H  20.44400 2.96600 30.39900
H  20.85600 2.01500 31.77300
H  19.86800 1.27600 30.63300
H  18.89700 1.27900 26.90700
H  19.40100 2.39700 28.30800
H  19.32100 0.67700 28.47400
H  25.94300 1.86900 24.80900
H  28.15700 -0.14100 25.13900
H  24.78500 0.12800 23.83800
H  25.21300 -1.03700 25.08300
H  26.44100 -0.57100 23.74800
H  28.80400 2.04400 23.97200
H  29.52600 2.16700 25.64800
H  28.55300 4.05900 25.84700
H  27.05500 3.34700 25.92400
H  27.45600 3.79500 24.33000
H  31.95100 -0.91000 28.42800
H  32.60400 -0.61300 30.00000
H  32.37000 0.72500 28.85700
H  30.09700 1.37600 34.00300
H  30.95000 -1.70300 37.18800
H  29.84100 -2.52600 36.18200
H  29.17700 -1.20200 37.17200
Mg 36.01000 49.06100 26.43200
C  36.28700 46.73800 29.04300
C  35.04600 51.45600 28.75500
C  35.11100 51.10900 23.96100
C  36.76500 46.53200 24.15900
N  35.46800 49.02700 28.62500
C  35.81800 47.99700 29.49500
C  35.81800 48.48900 30.89000
C  35.06200 49.84200 30.78600
C  35.24900 50.17200 29.33600
C  33.60100 49.74000 31.06700
C  37.35100 48.68200 31.45800
C  37.63800 47.96300 32.82400
H  37.22800 48.80800 34.06700
N  35.27100 50.99600 26.36200
C  35.02800 51.84400 27.46800
C  34.54700 53.20600 27.02000
C  34.68800 53.16200 25.59000
C  35.04200 51.74900 25.24500
C  34.22700 54.33800 28.06200
C  34.59800 54.25000 24.50700
O  35.00400 54.11900 23.32900
C  34.14300 55.61200 24.92200
N  35.96800 48.86400 24.31100
C  35.56100 49.87400 23.53600
C  35.67500 49.50200 22.05100
C  36.32200 47.99700 22.12500
C  36.50400 47.78800 23.59300
C  34.33800 49.59100 21.32800
C  37.54900 47.72900 21.24400
C  38.96400 47.55600 21.90100
N  36.28500 46.98000 26.52300
C  36.71000 46.12700 25.50400
C  36.88900 44.78100 26.05400
C  36.82100 45.01400 27.46400
C  36.39400 46.35200 27.65000
C  37.36400 43.53400 25.39100
C  36.93800 44.38000 28.70100
O  37.16700 43.25100 29.01300
C  36.72500 45.52300 29.78600
C  35.71800 45.12900 30.83600
O  34.51400 45.11600 30.65300
O  36.29200 44.68400 31.97900
C  35.31600 44.64400 33.09000
H  34.89000 52.31800 29.40700
H  34.85200 51.69500 23.07700
H  36.92400 45.66400 23.51500
H  35.35500 47.72700 31.51600
H  35.54000 50.54800 31.46400
H  33.12300 50.66800 31.38000
H  33.35700 48.95000 31.77700
H  33.05700 49.34000 30.21100
H  37.56200 49.74700 31.55500
H  38.01100 48.27200 30.69400
H  38.69500 47.69800 32.84600
H  37.05600 47.04100 32.84800
H  35.17800 54.39800 28.59100
H  33.48600 53.98200 28.77800
H  34.04100 55.36100 27.73400
H  34.91500 55.90500 25.63300
H  33.17800 55.50000 25.41700
H  34.11300 56.26800 24.05100
H  36.44200 50.14400 21.61900
H  35.56100 47.28600 21.80100
H  33.86900 48.61700 21.18900
H  34.40500 50.05100 20.34200
H  33.62700 50.23100 21.85100
H  37.68000 48.54300 20.53100
H  37.38000 46.78700 20.72200
H  39.65300 48.23900 21.40400
H  39.22400 46.51000 21.74400
H  39.07200 47.85100 22.94500
H  36.98700 42.67200 25.94100
H  38.42900 43.67400 25.20600
H  36.83000 43.45200 24.44500
H  37.64500 45.62900 30.35900
H  35.67500 43.95900 33.85700
H  34.33100 44.27900 32.79800
H  35.08100 45.59900 33.56000

