158

Mg 17.64300 -2.82600 27.60600
C  16.31700 -0.99000 30.28900
C  19.83700 -4.34000 29.87400
C  19.42500 -3.97300 25.07100
C  15.64100 -0.85200 25.41300
N  18.07500 -2.58600 29.76900
C  17.33700 -1.85700 30.67900
C  17.74800 -2.12800 32.09100
C  19.08500 -2.97100 31.88700
C  18.99000 -3.37700 30.37100
C  20.39000 -2.20500 32.27600
C  16.65900 -2.85700 32.94100
C  16.74300 -2.53400 34.48100
H  18.02100 -2.03800 35.22100
N  19.23500 -4.17900 27.53500
C  19.96700 -4.77200 28.51700
C  20.73900 -5.82100 27.89500
C  20.76600 -5.65200 26.48300
C  19.74600 -4.56200 26.32200
C  21.51500 -6.84900 28.76100
C  21.53500 -6.41900 25.32700
O  21.39700 -6.13800 24.15300
C  22.30000 -7.67000 25.67400
N  17.62700 -2.34200 25.61800
C  18.44500 -2.98900 24.68500
C  18.37200 -2.31100 23.27700
C  16.85400 -1.77000 23.43000
C  16.69300 -1.66000 24.88300
C  19.42100 -1.14700 22.97600
C  15.72500 -2.73100 22.89100
C  14.60600 -2.09300 22.02100
N  16.20600 -1.23000 27.75700
C  15.42700 -0.57300 26.80100
C  14.47600 0.23200 27.45300
C  14.80200 0.10200 28.85300
C  15.91200 -0.74600 28.98700
C  13.62400 1.23500 26.82900
C  14.66800 0.72800 30.15600
O  14.13100 1.79000 30.44000
C  15.43500 -0.09800 31.18800
C  16.14000 0.85600 32.07600
O  17.06000 1.57900 31.76100
O  15.44700 1.02400 33.32000
C  15.80600 2.20600 34.08300
H  20.33400 -4.84200 30.70700
H  19.99600 -4.33100 24.21200
H  14.80100 -0.49600 24.81200
H  17.94200 -1.14500 32.51900
H  18.98400 -3.81100 32.57500
H  21.01700 -2.77900 32.95800
H  20.05300 -1.40900 32.94000
H  20.89500 -1.75100 31.42300
H  16.74700 -3.94300 32.91300
H  15.70800 -2.49700 32.54700
H  16.32900 -3.34800 35.07400
H  16.13300 -1.63400 34.55300
H  22.50700 -7.01300 28.34000
H  20.87700 -7.71400 28.94200
H  21.81200 -6.55000 29.76600
H  22.46700 -8.06500 24.67200
H  21.68900 -8.42300 26.17100
H  23.24200 -7.37900 26.13900
H  18.37800 -3.06800 22.49300
H  16.89700 -0.77600 22.98500
H  19.04700 -0.51300 22.17200
H  20.46500 -1.43500 22.84800
H  19.50500 -0.57500 23.90000
H  15.24600 -3.30800 23.68200
H  16.28700 -3.40400 22.24300
H  14.75700 -1.03500 21.80300
H  13.65900 -2.24000 22.54100
H  14.68200 -2.75000 21.15500
H  13.39100 1.91800 27.64500
H  12.65900 0.87900 26.46600
H  14.12700 1.70000 25.98000
H  14.75400 -0.52700 31.92300
H  15.09900 2.34700 34.90100
H  15.78100 3.15900 33.55400
H  16.79500 2.22300 34.54200
Mg 35.88200 49.83900 25.36300
C  35.40300 48.04500 28.36800
C  34.27600 52.55100 26.87700
C  35.85300 51.21900 22.41800
C  36.61500 46.75900 23.84900
N  34.85300 50.23500 27.36900
C  35.02400 49.36700 28.42500
C  34.49700 50.08100 29.72700
C  34.15200 51.56200 29.22200
C  34.46100 51.46500 27.71300
C  32.63900 52.04000 29.57200
C  35.56900 50.06900 30.93900
C  35.11600 49.36700 32.26400
H  33.62700 49.60200 32.58700
N  35.26100 51.58600 24.73700
C  34.56500 52.60300 25.51800
C  34.46700 53.83500 24.63300
C  34.85900 53.43600 23.33800
C  35.37200 52.03700 23.42200
C  33.96100 55.21500 25.13100
C  34.79500 54.18300 21.96200
O  35.12900 53.80600 20.85100
C  34.10900 55.56900 22.01100
N  36.27500 49.09500 23.45300
C  36.31900 49.92900 22.35400
C  36.80000 49.19900 21.04600
C  37.03200 47.77900 21.51600
C  36.60200 47.83500 23.01500
C  35.76600 49.25300 19.90000
C  38.47400 47.38700 21.36700
C  39.48200 48.20800 22.34400
N  36.05600 47.79300 25.89700
C  36.30700 46.69600 25.20100
C  36.34800 45.51500 26.05200
C  36.03000 46.02400 27.31800
C  35.81200 47.41900 27.15800
C  36.65000 44.15500 25.73600
C  35.84300 45.64300 28.68500
O  35.94200 44.53600 29.21300
C  35.30800 46.95500 29.43500
C  33.93400 46.60800 29.76200
O  33.05400 46.77200 28.89200
O  33.80800 46.06900 31.01500
C  32.44900 45.52600 31.32800
H  33.78100 53.38700 27.37400
H  35.76100 51.63800 21.41400
H  36.82300 45.81200 23.34600
H  33.57600 49.58300 30.03000
H  34.82700 52.34900 29.55800
H  32.02300 51.30600 30.09100
H  32.23100 52.25000 28.58400
H  32.64400 52.97200 30.13800
H  35.86400 51.08400 31.20600
H  36.50300 49.59600 30.63700
H  35.62700 49.83400 33.10600
H  35.31100 48.29500 32.23500
H  34.23200 56.07700 24.52100
H  34.38300 55.33800 26.12800
H  32.88300 55.06700 25.07600
H  34.80900 56.28400 22.44200
H  33.13200 55.59400 22.49300
H  33.84800 55.85000 20.99000
H  37.70300 49.66300 20.64900
H  36.47200 46.99800 21.00200
H  34.94800 49.95200 20.08000
H  35.34700 48.29200 19.60300
H  36.34100 49.65000 19.06400
H  38.76400 47.65500 20.35100
H  38.46700 46.31200 21.54900
H  40.11400 47.51500 22.90000
H  38.95100 48.87400 23.02500
H  40.17500 48.84400 21.79400
H  37.36000 43.70200 26.42700
H  37.12000 44.19200 24.75300
H  35.69400 43.63200 25.76500
H  35.87900 47.15800 30.34000
H  32.39600 44.50600 30.94800
H  31.62400 46.02300 30.81800
H  32.17200 45.64400 32.37500

