158

Mg 16.84500 -2.29500 27.44100
C  15.70400 -0.16200 30.05000
C  18.76200 -3.82300 29.55000
C  18.20600 -3.67200 24.81400
C  14.90100 -0.23700 25.29300
N  17.40100 -1.82900 29.53400
C  16.72700 -1.09600 30.45200
C  17.14500 -1.43000 31.90100
C  18.41000 -2.33100 31.63300
C  18.19400 -2.74800 30.15700
C  19.80800 -1.59500 31.83200
C  16.00400 -2.05300 32.71300
C  15.65300 -1.18700 33.85100
H  16.82400 -0.48200 34.59000
N  18.18100 -3.64800 27.23300
C  18.88300 -4.22500 28.22200
C  19.58100 -5.43400 27.69500
C  19.50600 -5.39500 26.28200
C  18.59800 -4.19700 26.03200
C  20.19000 -6.49700 28.67500
C  20.17400 -6.20900 25.30000
O  19.95200 -6.05600 24.07300
C  20.96400 -7.30400 25.72500
N  16.66400 -1.98600 25.38900
C  17.34800 -2.63600 24.47100
C  17.04300 -2.23000 22.96000
C  15.91300 -1.19200 23.23600
C  15.76200 -1.20500 24.74100
C  18.33300 -1.66000 22.34800
C  14.63900 -1.40700 22.44700
C  14.73900 -1.07800 20.95200
N  15.43600 -0.65800 27.61100
C  14.71200 0.01400 26.67700
C  13.91400 1.07100 27.34500
C  14.28400 1.01000 28.61900
C  15.17100 0.00100 28.77300
C  13.05100 2.05100 26.73000
C  14.04300 1.64500 29.88500
O  13.33900 2.56800 30.26200
C  14.84500 0.74400 30.95600
C  15.61200 1.64900 31.81200
O  16.67900 2.14600 31.57900
O  14.76700 2.02100 32.82900
C  15.21600 3.15600 33.63900
H  19.41100 -4.42100 30.19300
H  18.55800 -4.10400 23.87500
H  14.25400 0.38800 24.67400
H  17.54700 -0.46800 32.22100
H  18.24900 -3.22700 32.23300
H  20.33800 -2.16500 32.59500
H  19.68000 -0.54400 32.09400
H  20.32000 -1.74000 30.88100
H  16.29200 -3.03100 33.09700
H  15.09300 -2.10600 32.11600
H  15.20500 -1.80600 34.62800
H  14.95000 -0.39300 33.60100
H  19.66700 -7.42600 28.44700
H  20.02200 -6.29500 29.73200
H  21.26300 -6.54400 28.48600
H  20.45400 -8.01100 26.38000
H  21.87700 -6.91700 26.17700
H  21.30900 -7.77300 24.80400
H  16.63000 -3.00200 22.31100
H  16.24000 -0.18200 22.98700
H  19.09400 -1.50900 23.11300
H  18.13600 -0.80500 21.70000
H  18.68400 -2.31100 21.54700
H  13.85300 -0.84100 22.94800
H  14.27400 -2.43100 22.53100
H  15.60500 -0.43900 20.78300
H  13.92900 -0.43000 20.61800
H  14.72400 -1.97900 20.33900
H  12.63000 1.53000 25.87000
H  13.65700 2.86500 26.33200
H  12.26300 2.28000 27.44700
H  14.13600 0.14800 31.53100
H  16.26700 3.29400 33.89400
H  14.68000 2.92700 34.56000
H  14.72400 4.03800 33.22900
Mg 34.87200 3.01000 29.09500
C  32.55100 3.82000 31.57100
C  37.44200 3.48300 31.28600
C  37.12900 2.61100 26.49200
C  32.32300 3.20900 26.69500
N  34.95400 3.56300 31.15300
C  33.90900 3.70300 32.01100
C  34.42900 3.91400 33.45100
C  35.97500 4.10600 33.24800
C  36.12400 3.65400 31.82200
C  36.57800 5.49600 33.61500
C  33.92100 2.74600 34.38400
C  33.67300 3.11700 35.76300
H  34.50800 4.23700 36.38300
N  36.95800 3.02500 28.96900
C  37.79300 3.07100 29.99600
C  39.16900 2.66200 29.65300
C  39.11100 2.49000 28.25100
C  37.68000 2.77900 27.81700
C  40.19500 2.58100 30.73800
C  40.23800 1.97500 27.30400
O  40.04900 1.71700 26.12500
C  41.57800 1.67400 27.92600
N  34.71100 3.02200 26.91400
C  35.78900 2.70200 26.10300
C  35.30300 2.43300 24.58100
C  33.78600 2.49900 24.79400
C  33.62100 3.06600 26.18600
C  35.87000 3.42600 23.51300
C  33.07400 1.13700 24.52200
C  31.78100 1.18900 23.87000
N  32.89500 3.42700 29.05300
C  31.93600 3.44400 28.01400
C  30.59300 3.73500 28.53700
C  30.81800 3.82300 29.95200
C  32.20900 3.68500 30.19600
C  29.39600 3.88300 27.75100
C  30.12300 4.08300 31.15200
O  28.97400 4.42600 31.39900
C  31.24200 4.11000 32.33000
C  31.17400 5.36400 33.04900
O  31.58000 6.44300 32.56600
O  30.58500 5.33800 34.31100
C  30.64200 6.60700 35.05700
H  38.17600 3.57400 32.08900
H  37.83800 2.35400 25.70200
H  31.52300 3.26300 25.95400
H  34.04400 4.82300 33.91500
H  36.47700 3.41400 33.92400
H  37.37300 5.34700 34.34500
H  35.84800 6.22200 33.97500
H  36.91200 5.91600 32.66600
H  34.74700 2.03600 34.40800
H  33.06200 2.28500 33.89600
H  33.64600 2.21900 36.38000
H  32.70400 3.61500 35.72600
H  39.85200 1.79200 31.40700
H  40.08800 3.51300 31.29300
H  41.22600 2.47300 30.40200
H  41.80700 2.64600 28.36400
H  42.26900 1.36400 27.14300
H  41.44500 0.87700 28.65800
H  35.53000 1.37600 24.44200
H  33.38700 3.20700 24.06700
H  36.41400 2.83700 22.77400
H  36.54900 4.13900 23.97900
H  34.97600 3.90400 23.11200
H  33.01200 0.57100 25.45200
H  33.69800 0.41900 23.99000
H  31.91400 0.73300 22.88900
H  31.47900 2.23600 23.84400
H  30.98000 0.62800 24.35400
H  29.22400 2.93200 27.24700
H  29.37900 4.76200 27.10700
H  28.65400 4.01200 28.53900
H  30.94500 3.37000 33.07200
H  30.31100 7.49000 34.50900
H  31.66700 6.80000 35.37500
H  30.01100 6.53300 35.94300

