158

Mg 46.68000 17.00100 28.42700
C  44.88600 16.90600 31.50600
C  49.11300 18.82500 30.08900
C  47.89900 17.64400 25.44500
C  43.89000 15.48200 26.99100
N  46.88900 17.92000 30.60200
C  46.03800 17.74300 31.61200
C  46.70200 18.10300 32.98600
C  47.97900 18.87900 32.53000
C  48.04900 18.51100 31.00200
C  47.98900 20.41100 32.82500
C  47.06400 16.89000 33.89500
C  46.89900 17.04800 35.45400
H  46.53200 18.38000 36.13500
N  48.28300 17.97100 27.88000
C  49.12600 18.67500 28.67600
C  50.21400 19.25000 27.84000
C  49.96900 18.82800 26.51300
C  48.57800 18.18500 26.54500
C  51.38000 20.05700 28.40100
C  50.84700 18.99700 25.26300
O  50.46900 18.57600 24.14400
C  52.27700 19.31900 25.39600
N  45.99300 16.62100 26.46500
C  46.78600 16.88200 25.36900
C  46.17200 16.24000 24.07600
C  44.93400 15.54600 24.66000
C  44.96600 15.83700 26.11100
C  45.88300 17.24400 22.92600
C  44.88600 14.01900 24.34300
C  43.74700 13.68800 23.36200
N  44.81500 16.29700 29.07200
C  43.86400 15.66400 28.38100
C  42.80600 15.22600 29.22700
C  43.21600 15.61500 30.47000
C  44.46300 16.32800 30.34600
C  41.57400 14.38600 28.93400
C  42.81600 15.54500 31.86400
O  41.84300 15.02300 32.46400
C  43.91300 16.34400 32.59500
C  43.26900 17.50100 33.27000
O  42.96800 18.59000 32.79100
O  42.89600 16.99100 34.52500
C  42.35600 18.11600 35.42700
H  49.99400 19.27400 30.55300
H  48.34100 17.88900 24.47600
H  42.97200 15.00500 26.64100
H  46.10100 18.80700 33.56000
H  48.86300 18.47500 33.02500
H  47.07900 20.73400 33.33200
H  47.92900 20.82600 31.81900
H  48.90600 20.70700 33.33600
H  48.12000 16.62400 33.84100
H  46.51900 15.98900 33.61200
H  47.94500 16.98300 35.75600
H  46.36400 16.27400 36.00400
H  52.31100 19.49500 28.46600
H  51.12600 20.48200 29.37200
H  51.57200 20.90400 27.74200
H  52.46600 20.37900 25.57000
H  52.77500 19.00000 24.48100
H  52.61400 18.62800 26.16800
H  46.95900 15.57400 23.72100
H  44.08100 16.09200 24.25800
H  46.51800 16.91300 22.10500
H  46.18400 18.27300 23.12200
H  44.84900 17.24500 22.58000
H  44.75200 13.46500 25.27200
H  45.85700 13.72400 23.94700
H  44.16300 13.39000 22.40000
H  43.14200 14.55500 23.09900
H  43.24600 12.79500 23.73800
H  41.20300 14.60100 27.93100
H  40.70600 14.59700 29.55900
H  41.92400 13.35500 28.95800
H  44.28400 15.67600 33.37300
H  41.64600 18.74900 34.89500
H  43.07300 18.75900 35.93800
H  41.71700 17.62200 36.16000
Mg 6.99100 52.93700 40.33000
C  6.83100 49.45800 39.98900
C  10.39400 52.71100 39.78900
C  7.09400 56.36500 39.68500
C  3.61400 53.01600 40.54300
N  8.38600 51.24900 39.64600
C  8.13200 49.86100 39.68000
C  9.35500 49.06300 39.50900
C  10.46300 50.07200 40.00600
C  9.70000 51.47500 39.70100
C  10.97700 50.02400 41.48600
C  9.55400 48.55400 38.03800
C  8.98800 49.39000 36.87900
H  7.68800 48.97200 36.20500
N  8.48900 54.37000 39.83400
C  9.87000 54.03300 39.66000
C  10.63100 55.21300 39.57700
C  9.68000 56.29600 39.46200
C  8.32300 55.71600 39.60800
C  12.08800 55.24400 39.39500
C  10.00200 57.80700 39.38900
O  11.19000 58.16400 39.49300
C  9.03200 58.90000 39.14400
N  5.53500 54.50400 40.14600
C  5.75800 55.83600 40.01400
C  4.41500 56.66800 40.02300
C  3.36400 55.59800 40.30300
C  4.19800 54.24600 40.32300
C  4.49900 57.75500 41.07000
C  2.34100 55.52100 39.06000
C  0.85300 55.59900 39.51700
N  5.55200 51.54700 40.46600
C  4.14700 51.73500 40.58500
C  3.50700 50.45000 40.81900
C  4.57500 49.56000 40.61000
C  5.79600 50.25900 40.39700
C  2.02800 50.15700 40.97700
C  4.82300 48.17700 40.63600
O  4.08400 47.23900 40.88400
C  6.25000 48.04600 40.07900
C  6.21400 47.28100 38.77400
O  5.48500 47.50300 37.82000
O  7.00500 46.18100 38.93600
C  6.75900 45.14900 37.93500
H  11.47400 52.65600 39.93600
H  7.08800 57.37300 39.26500
H  2.56400 53.05100 40.84000
H  9.42500 48.24300 40.22400
H  11.36800 50.04700 39.39900
H  10.53900 50.80300 42.10900
H  12.03500 50.27200 41.39600
H  10.76800 49.04100 41.90900
H  8.98600 47.63000 37.93200
H  10.62100 48.51900 37.82000
H  9.79400 49.57800 36.17000
H  8.75300 50.40800 37.19100
H  12.27200 55.88900 38.53500
H  12.57100 54.30000 39.14300
H  12.50200 55.73200 40.27700
H  8.22200 58.96500 39.87100
H  8.53200 58.60700 38.22100
H  9.47700 59.87900 38.96700
H  4.25200 57.09800 39.03500
H  2.79900 55.65100 41.23400
H  3.84400 57.68500 41.93900
H  4.23400 58.66500 40.53000
H  5.49500 57.86800 41.49900
H  2.40500 54.56300 38.54500
H  2.39800 56.26400 38.26400
H  0.75700 55.47900 40.59600
H  0.34900 54.73100 39.09200
H  0.39500 56.51700 39.14700
H  1.61700 50.09100 39.97000
H  1.41400 50.91000 41.47200
H  1.93700 49.21300 41.51400
H  6.66200 47.36300 40.82200
H  7.44100 44.33100 38.16900
H  6.78600 45.45000 36.88800
H  5.79500 44.66400 38.08900

