158

Mg 53.90300 23.13600 44.64000
C  51.57100 25.69700 44.01600
C  51.77200 20.79300 43.69100
C  56.49800 20.94900 44.26400
C  56.35000 25.62400 45.43100
N  51.97900 23.26800 43.84800
C  51.13100 24.40300 43.61700
C  49.77400 23.94600 43.12800
C  49.77700 22.41000 43.49000
C  51.23700 22.12500 43.67400
C  48.99900 22.06100 44.80000
C  49.48900 24.24100 41.64200
C  48.03300 24.14300 41.27100
H  47.76900 23.51300 39.90600
N  54.05200 21.05100 44.09000
C  53.03000 20.24900 43.75700
C  53.52600 18.90200 43.59300
C  54.92300 18.89600 43.90400
C  55.25500 20.31600 44.07500
C  52.57700 17.78700 43.21100
C  55.81500 17.70300 43.89600
O  55.31100 16.57100 43.84000
C  57.27300 17.74400 44.01100
N  56.10200 23.29800 44.68700
C  56.91200 22.25600 44.49200
C  58.44800 22.60900 44.80000
C  58.34100 24.08200 45.30700
C  56.82500 24.36800 45.19900
C  59.19100 21.54600 45.77700
C  59.25000 25.04000 44.51600
C  60.20900 25.85500 45.48200
N  53.91700 25.24300 44.93300
C  55.00100 26.11800 45.28300
C  54.44600 27.41900 45.40500
C  53.10600 27.30100 44.92700
C  52.84200 25.97400 44.57700
C  55.12000 28.53300 45.98900
C  51.85600 27.99100 44.76100
O  51.55200 29.10000 45.20600
C  50.77400 26.99800 44.07600
C  50.47100 27.59900 42.73200
O  51.28900 28.17000 42.00400
O  49.14100 27.41600 42.46100
C  48.57400 27.94900 41.23700
H  51.06200 19.96800 43.77900
H  57.34600 20.27200 44.14100
H  57.04800 26.41100 45.72600
H  49.01800 24.49700 43.68600
H  49.41800 21.76000 42.69200
H  48.19900 22.74300 45.08600
H  49.75600 22.25700 45.56000
H  48.58800 21.05600 44.89100
H  50.01200 23.52300 41.01100
H  49.83900 25.24600 41.41000
H  47.56300 25.12600 41.31500
H  47.49500 23.55000 42.01100
H  52.19700 17.84000 42.19100
H  51.74500 17.62800 43.89800
H  53.01600 16.79600 43.10000
H  57.48700 18.22500 44.96600
H  57.65100 18.22000 43.10700
H  57.67500 16.73000 44.01200
H  58.87900 22.66700 43.80100
H  58.45500 24.02100 46.39000
H  59.87000 20.96500 45.15200
H  58.48500 20.86700 46.25500
H  59.67400 22.05900 46.60800
H  58.66200 25.75300 43.93700
H  59.93900 24.40900 43.95600
H  61.23200 25.47900 45.46800
H  59.70000 25.99200 46.43600
H  60.32200 26.86100 45.07800
H  56.05300 28.65700 45.44000
H  55.37300 28.39500 47.04100
H  54.54200 29.44000 45.81300
H  49.90800 26.89000 44.72900
H  49.02600 27.56100 40.32400
H  48.64800 29.03400 41.16400
H  47.51300 27.69500 41.23800
Mg 46.93500 34.17900 27.25100
C  45.36100 32.58500 29.96200
C  46.96900 37.14900 29.01500
C  47.72900 35.78100 24.46400
C  45.93800 31.38800 25.28300
N  46.20000 34.74400 29.29100
C  45.87000 33.89700 30.32000
C  46.07400 34.55700 31.64700
C  46.16600 36.11400 31.26800
C  46.45700 36.03300 29.75400
C  44.85500 36.93300 31.62400
C  47.32500 33.99400 32.39200
C  47.37100 34.13000 33.91000
H  46.54900 35.26900 34.63300
N  47.39800 36.18200 26.84100
C  47.41500 37.24700 27.66700
C  47.90800 38.45900 27.01000
C  48.27100 38.06100 25.71300
C  47.86000 36.60900 25.62400
C  48.01300 39.75400 27.77100
C  48.77400 38.87800 24.54100
O  49.10500 38.44500 23.51100
C  48.91700 40.38400 24.77800
N  46.77900 33.68000 25.21400
C  47.26300 34.51300 24.23400
C  47.26800 33.90800 22.83100
C  46.86400 32.48100 23.19000
C  46.48400 32.53700 24.63500
C  46.40000 34.47200 21.63300
C  47.91100 31.45100 22.83200
C  47.55500 30.83200 21.52200
N  46.03500 32.26000 27.56100
C  45.63800 31.29500 26.64700
C  45.15900 30.15600 27.39500
C  45.01500 30.63800 28.69600
C  45.47100 31.95600 28.73000
C  44.80700 28.77600 26.86500
C  44.56400 30.27300 29.94200
O  44.26300 29.18400 30.40500
C  44.51300 31.56000 30.84100
C  44.79400 31.53100 32.29400
O  45.75200 30.98100 32.80800
O  43.80800 32.10300 33.01500
C  43.94800 32.01800 34.47800
H  46.98000 38.02700 29.66400
H  47.90600 36.34300 23.54500
H  45.58100 30.52700 24.71500
H  45.21600 34.39500 32.30100
H  47.05700 36.52500 31.74300
H  43.99600 36.35200 31.96300
H  44.47900 37.45900 30.74600
H  45.07800 37.66500 32.39900
H  48.28600 34.41600 32.10000
H  47.22000 32.95000 32.09600
H  48.37600 34.29200 34.30100
H  46.97700 33.14800 34.17300
H  49.08800 39.91300 27.68900
H  47.78000 39.74500 28.83600
H  47.34100 40.44700 27.26500
H  49.24600 40.66100 23.77600
H  49.77200 40.56000 25.43100
H  47.93500 40.81200 24.97800
H  48.31700 33.89600 22.53600
H  45.87700 32.35400 22.74400
H  45.86100 33.71300 21.06500
H  47.13200 35.02300 21.04400
H  45.71300 35.27900 21.88700
H  48.00300 30.67500 23.59200
H  48.87900 31.92500 22.66700
H  47.34200 31.59700 20.77600
H  46.64900 30.22600 21.54200
H  48.37300 30.26600 21.07500
H  45.62400 28.08200 26.66700
H  44.23800 29.03100 25.97000
H  44.11500 28.37500 27.60600
H  43.48600 31.92500 30.83000
H  44.69100 32.76300 34.76300
H  44.36400 31.04600 34.74000
H  42.99400 32.23000 34.96200

