158

Mg 16.79700 -0.56300 27.93000
C  15.54500 1.05000 30.71900
C  18.72100 -2.56300 29.89400
C  18.13500 -1.97200 25.15300
C  15.02800 1.65200 25.91500
N  17.06800 -0.73400 30.00900
C  16.44400 0.05900 30.99900
C  16.95600 -0.38300 32.44300
C  17.92800 -1.59800 32.10600
C  17.98300 -1.58600 30.53800
C  19.38200 -1.51000 32.67200
C  15.84700 -0.86700 33.49100
C  15.92500 -0.22300 34.94400
H  17.24200 0.22200 35.54600
N  18.26800 -2.06600 27.63000
C  18.96100 -2.80600 28.55300
C  19.75500 -3.75900 27.91500
C  19.55400 -3.62800 26.53300
C  18.61600 -2.47100 26.37900
C  20.49800 -4.73600 28.76000
C  20.26700 -4.31500 25.37900
O  20.00600 -4.12800 24.22100
C  21.35000 -5.26900 25.74400
N  16.64300 -0.23100 25.84600
C  17.34100 -0.92000 24.88300
C  17.04200 -0.29500 23.41400
C  15.92300 0.74300 23.73000
C  15.82100 0.71700 25.29200
C  18.36900 0.21000 22.74100
C  14.65400 0.51300 22.92900
C  13.65400 -0.53000 23.48500
N  15.49000 1.01300 28.19100
C  14.94300 1.92500 27.26600
C  14.25200 2.95600 27.96700
C  14.42000 2.59500 29.31900
C  15.19200 1.40300 29.38500
C  13.63700 4.15000 27.31700
C  14.12300 3.04000 30.61700
O  13.65000 4.14500 30.95400
C  14.89600 2.12900 31.62500
C  15.91400 2.91300 32.27800
O  17.05000 3.09100 31.87200
O  15.49100 3.24900 33.54400
C  16.41800 4.00500 34.37300
H  19.16100 -3.23700 30.63200
H  18.54200 -2.35200 24.21300
H  14.45600 2.30500 25.25200
H  17.52900 0.42700 32.89400
H  17.58800 -2.61200 32.31900
H  19.91500 -2.45800 32.73800
H  19.42800 -1.00700 33.63800
H  20.02300 -0.90700 32.02900
H  16.02500 -1.92200 33.70100
H  14.87400 -0.51600 33.14700
H  15.44100 -0.95100 35.59400
H  15.27400 0.64900 34.99800
H  21.55600 -4.78100 28.50200
H  20.16700 -5.76500 28.62200
H  20.53300 -4.58000 29.83800
H  22.24300 -4.70000 26.00100
H  21.64200 -5.94100 24.93700
H  21.04400 -5.87900 26.59400
H  16.61400 -1.12100 22.84400
H  16.31800 1.72600 23.47700
H  19.19300 0.06200 23.43900
H  18.21500 1.26500 22.51500
H  18.57300 -0.30500 21.80200
H  15.08300 0.17900 21.98400
H  14.07900 1.42000 22.74400
H  13.99500 -1.14700 24.31600
H  13.32900 -1.21000 22.69700
H  12.77400 0.00900 23.83600
H  13.63800 4.86300 28.14200
H  12.67200 3.94000 26.85600
H  14.33400 4.49700 26.55500
H  14.15600 1.83900 32.37000
H  16.72800 4.90600 33.84500
H  17.37600 3.52100 34.56200
H  16.05100 4.45000 35.29800
Mg -1.99200 34.99300 26.73400
C  -3.99200 33.57400 29.03600
C  -1.07800 37.39200 28.96700
C  -0.23000 36.49400 24.30500
C  -3.16100 32.67800 24.41700
N  -2.47700 35.39400 28.75800
C  -3.23400 34.63600 29.54600
C  -3.30700 35.07900 31.04600
C  -2.52300 36.43800 30.91400
C  -2.01900 36.47400 29.43700
C  -3.36000 37.71800 31.45600
C  -2.60100 33.98300 31.92800
C  -3.35200 33.16000 32.92500
H  -2.82300 32.93400 34.34200
N  -0.77700 36.79000 26.62300
C  -0.53100 37.59400 27.71400
C  0.35600 38.57200 27.23200
C  0.63500 38.35900 25.84600
C  -0.13000 37.17600 25.58400
C  0.90600 39.77800 28.07400
C  1.38800 39.07200 24.74000
O  1.39700 38.74200 23.54600
C  2.18500 40.19800 25.12500
N  -1.85400 34.75000 24.56300
C  -0.91800 35.31800 23.91000
C  -0.66500 34.64900 22.57400
C  -1.59100 33.41300 22.60800
C  -2.23200 33.57100 23.98100
C  -0.94600 35.55400 21.33600
C  -0.79300 32.08600 22.50400
C  0.59300 31.94000 23.22500
N  -3.38500 33.49800 26.60000
C  -3.72500 32.59300 25.68200
C  -4.62700 31.61900 26.17100
C  -4.78700 31.95000 27.53200
C  -4.04300 33.12800 27.72700
C  -5.24300 30.54200 25.36600
C  -5.40700 31.53500 28.78400
O  -6.17200 30.62700 29.12900
C  -4.92200 32.60700 29.80600
C  -6.10200 33.35900 30.36900
O  -6.74000 34.31900 29.85400
O  -6.36200 32.89500 31.60500
C  -7.23600 33.67000 32.45200
H  -0.80900 38.17900 29.67500
H  0.27000 36.80900 23.38700
H  -3.35400 31.87900 23.69800
H  -4.33600 35.20800 31.38000
H  -1.60000 36.52200 31.48800
H  -4.39500 37.46600 31.68300
H  -3.39400 38.49600 30.69400
H  -2.81700 38.08600 32.32700
H  -1.80800 34.53000 32.43900
H  -2.06800 33.29900 31.26800
H  -3.52200 32.16400 32.51700
H  -4.32300 33.63100 33.08100
H  1.99300 39.75300 28.15700
H  0.41700 39.97400 29.02900
H  0.76500 40.70000 27.51000
H  2.98900 40.23300 24.39000
H  2.74200 40.03000 26.04700
H  1.58500 41.10700 25.16500
H  0.38200 34.35800 22.49100
H  -2.32300 33.55600 21.81300
H  -1.42000 35.00200 20.52400
H  -0.00200 35.76600 20.83400
H  -1.37300 36.51100 21.63600
H  -0.67400 31.91400 21.43400
H  -1.47000 31.28800 22.80700
H  0.55800 32.57400 24.11100
H  1.44600 32.12500 22.57200
H  0.57200 30.89700 23.54300
H  -4.44300 29.84800 25.10900
H  -5.75300 30.92800 24.48300
H  -6.00500 30.22000 26.07600
H  -4.44800 31.99200 30.57100
H  -8.27900 33.85500 32.19300
H  -6.81200 34.66800 32.55700
H  -7.09600 33.21000 33.43000

