158

Mg 48.48800 14.72700 28.01000
C  46.08000 14.75900 30.62300
C  50.30500 16.79900 30.02800
C  50.97100 14.36500 25.87000
C  46.28000 12.87100 25.98700
N  48.23700 15.61600 30.13600
C  47.23400 15.44700 30.96700
C  47.52700 16.05400 32.36200
C  48.81700 16.78000 32.11100
C  49.08600 16.47000 30.59800
C  48.77800 18.28600 32.27900
C  47.69700 14.89700 33.42500
C  47.42100 15.21700 34.93100
H  48.66200 15.14600 35.83200
N  50.32000 15.62300 27.91200
C  50.86800 16.42600 28.79400
C  52.17100 16.84500 28.36000
C  52.50900 15.98000 27.26600
C  51.26000 15.27700 26.96600
C  52.88300 18.07400 28.85000
C  53.76300 15.87600 26.39400
O  53.83700 15.07400 25.46700
C  55.02100 16.68200 26.68600
N  48.54400 13.86800 26.10000
C  49.78100 13.71700 25.46000
C  49.63800 12.71900 24.34500
C  48.11100 12.43300 24.21300
C  47.60000 13.15600 25.51200
C  50.31900 13.11500 23.08700
C  47.69100 10.94100 24.03600
C  46.81400 10.70100 22.80200
N  46.58600 14.00300 28.17500
C  45.81400 13.35300 27.26700
C  44.48300 13.15400 27.92000
C  44.54600 13.70300 29.16700
C  45.87800 14.13800 29.35800
C  43.33000 12.40500 27.31900
C  43.84800 13.93100 30.33400
O  42.65100 13.79200 30.51600
C  44.79800 14.51400 31.38400
C  44.22000 15.71400 31.98400
O  44.03100 16.78200 31.45000
O  43.88300 15.41900 33.29700
C  42.83400 16.30500 33.95700
H  50.98700 17.31000 30.71000
H  51.76000 14.17400 25.13900
H  45.57800 12.30500 25.37200
H  46.64900 16.61500 32.68300
H  49.69700 16.37000 32.60800
H  47.85700 18.56300 32.79100
H  48.85800 18.77300 31.30700
H  49.56200 18.74200 32.88300
H  48.76400 14.69600 33.32700
H  47.29200 13.96600 33.02800
H  46.72200 14.44600 35.25600
H  47.05800 16.24500 34.93900
H  53.65300 17.61000 29.46600
H  52.25700 18.67500 29.50900
H  53.32900 18.67700 28.05900
H  55.07400 17.65100 27.18400
H  55.45900 16.68500 25.68800
H  55.58500 15.96500 27.28200
H  50.07800 11.84700 24.82900
H  47.71400 13.12900 23.47400
H  51.30000 12.64700 23.00900
H  50.48500 14.19200 23.06300
H  49.66200 12.74400 22.30100
H  47.27800 10.62300 24.99400
H  48.62900 10.44300 23.79100
H  47.31400 10.10300 22.04000
H  46.63600 11.65600 22.30900
H  45.85400 10.22300 22.99600
H  43.66700 11.69300 26.56600
H  42.58800 13.06500 26.87100
H  42.82600 11.83000 28.09600
H  44.93200 13.76000 32.15900
H  43.26200 17.27200 34.22100
H  42.51000 15.69300 34.79900
H  41.92900 16.37400 33.35400
Mg -10.53100 40.15500 43.17000
C  -9.94400 36.91500 42.29600
C  -7.63500 41.25000 41.58900
C  -11.65900 43.43600 43.21400
C  -13.87700 39.27900 44.15700
N  -9.02900 39.20300 42.01800
C  -8.91600 37.80100 41.82100
C  -7.68300 37.49700 41.02000
C  -6.87900 38.85400 41.00700
C  -7.90300 39.84100 41.60100
C  -5.47800 38.86100 41.69900
C  -7.93800 36.84400 39.59100
C  -6.90000 35.83600 39.17400
H  -5.73500 36.29200 38.35800
N  -9.68400 42.06900 42.60600
C  -8.49300 42.27600 42.00100
C  -8.34300 43.67300 41.73400
C  -9.49900 44.33100 42.14300
C  -10.32800 43.27700 42.69200
C  -7.04700 44.26000 41.08300
C  -9.75400 45.84400 42.14600
O  -8.89300 46.54500 41.64000
C  -10.92000 46.52000 42.69300
N  -12.50700 41.17200 43.78800
C  -12.62300 42.51900 43.70900
C  -14.04000 42.95700 43.98900
C  -14.82500 41.61000 44.53800
C  -13.71300 40.61600 44.10500
C  -14.26700 44.20400 44.84900
C  -16.28200 41.30000 43.91900
C  -16.37900 40.53400 42.68300
N  -11.69800 38.47200 43.32000
C  -12.96800 38.27500 43.74900
C  -13.32100 36.82200 43.62200
C  -12.11600 36.28800 43.04800
C  -11.19400 37.30500 42.81800
C  -14.62600 36.27200 44.00900
C  -11.42100 35.02200 42.72600
O  -11.87000 33.88100 42.79300
C  -10.06000 35.45400 42.00700
C  -8.98400 34.64000 42.60700
O  -8.34100 34.82800 43.62200
O  -8.80300 33.58200 41.75600
C  -7.64900 32.68100 42.02100
H  -6.79000 41.60000 40.99200
H  -12.20700 44.37900 43.16700
H  -14.88200 39.04500 44.51300
H  -7.12100 36.81300 41.65700
H  -6.69500 39.12700 39.96800
H  -4.83800 38.01800 41.43900
H  -5.42800 39.05000 42.77100
H  -5.09700 39.72500 41.15400
H  -8.02700 37.67800 38.89500
H  -8.93800 36.41200 39.64200
H  -7.40800 35.04400 38.62400
H  -6.47200 35.36100 40.05700
H  -6.25800 44.57300 41.76700
H  -7.35300 45.08300 40.43700
H  -6.59500 43.61900 40.32600
H  -10.79800 47.60300 42.68400
H  -11.09100 46.27700 43.74200
H  -11.73600 46.24000 42.02600
H  -14.50600 43.15100 43.02200
H  -14.93700 41.54800 45.62000
H  -13.40600 44.48200 45.45600
H  -14.88800 43.88700 45.68700
H  -14.75100 45.04300 44.34700
H  -16.81300 42.23200 43.72800
H  -16.98700 40.84500 44.61600
H  -17.02000 41.07500 41.98700
H  -16.75300 39.57300 43.03700
H  -15.48700 40.25700 42.12200
H  -14.87400 35.29800 43.58800
H  -15.41400 37.00700 43.84300
H  -14.58100 36.11600 45.08700
H  -10.08800 35.23800 40.93900
H  -7.53200 31.96700 41.20600
H  -7.86800 32.04100 42.87600
H  -6.69300 33.15900 42.23500

