158

Mg 24.01100 -4.74300 45.77100
C  26.32600 -2.56000 44.39500
C  21.72300 -3.69100 43.46000
C  22.18900 -7.50300 46.39400
C  26.71600 -6.15300 47.77800
N  24.03900 -3.37200 44.00800
C  25.08300 -2.48500 43.75300
C  24.75100 -1.55300 42.60300
C  23.16100 -1.67700 42.58400
C  22.92200 -2.93900 43.42700
C  22.42500 -0.43000 42.99500
C  25.42900 -1.94600 41.23500
C  25.69100 -0.90300 40.17400
H  25.20100 -1.15700 38.74300
N  22.09700 -5.41900 45.15900
C  21.33100 -4.90300 44.18500
C  20.11900 -5.59600 44.07500
C  20.18500 -6.70100 44.99000
C  21.51700 -6.57000 45.56600
C  18.91200 -5.27600 43.14600
C  19.10100 -7.74000 45.32700
O  18.06600 -7.65900 44.70700
C  19.22900 -8.70700 46.33300
N  24.37200 -6.56900 46.88000
C  23.46400 -7.55700 46.90800
C  23.85300 -8.75500 47.81700
C  25.28800 -8.24600 48.23300
C  25.41300 -6.84000 47.66200
C  22.87900 -9.17900 48.94800
C  26.41200 -9.24700 47.91100
C  27.17000 -10.02200 48.99000
N  26.12700 -4.43700 46.08800
C  27.00000 -5.00800 46.94400
C  28.29600 -4.40100 46.73800
C  28.04200 -3.37000 45.85500
C  26.71200 -3.48700 45.39100
C  29.57900 -4.63800 47.47100
C  28.58700 -2.20500 45.19400
O  29.65900 -1.64000 45.27400
C  27.52700 -1.68300 44.23400
C  27.33100 -0.23400 44.34100
O  26.86700 0.37400 45.28600
O  27.76300 0.35400 43.16700
C  27.23600 1.72300 43.00700
H  20.91500 -3.31400 42.83000
H  21.70400 -8.42000 46.73300
H  27.54900 -6.58900 48.33300
H  25.08700 -0.53400 42.79500
H  22.92100 -1.91200 41.54700
H  22.85300 -0.13700 43.95400
H  21.38300 -0.68700 43.18200
H  22.63200 0.26500 42.18100
H  24.73900 -2.57200 40.66900
H  26.27400 -2.62600 41.34400
H  26.78000 -0.91000 40.15700
H  25.47400 0.13200 40.44000
H  18.88800 -6.11600 42.45100
H  19.01800 -4.32700 42.62200
H  18.04100 -5.18000 43.79500
H  19.53100 -8.15000 47.22000
H  19.93700 -9.50900 46.12400
H  18.27400 -9.16500 46.58900
H  23.90900 -9.57400 47.10000
H  25.29100 -8.12200 49.31600
H  22.56200 -10.18600 48.67600
H  21.96100 -8.59300 48.93300
H  23.35200 -9.25600 49.92700
H  27.17700 -8.69800 47.36100
H  26.15100 -9.98300 47.15000
H  28.20100 -9.75900 48.75300
H  26.92100 -11.06700 48.80300
H  26.96900 -9.69400 50.01000
H  29.67900 -5.63200 47.90700
H  29.69700 -3.90900 48.27200
H  30.47300 -4.54400 46.85500
H  27.99900 -1.84500 43.26500
H  26.26800 1.97000 43.44300
H  27.19000 1.86700 41.92800
H  27.93800 2.48100 43.35300
Mg 35.46500 48.83100 25.13000
C  36.06700 46.94800 28.12300
C  34.46000 51.40200 27.26900
C  34.66000 50.67900 22.30400
C  36.34500 46.13600 23.23900
N  35.41900 49.13400 27.46900
C  35.67500 48.23200 28.48000
C  35.52000 48.89100 29.82100
C  34.66500 50.19200 29.44800
C  34.86800 50.30000 27.96100
C  33.18100 50.03200 29.80500
C  36.85500 49.09300 30.47600
C  36.87000 49.00900 32.06600
H  35.49100 48.83100 32.78500
N  34.71000 50.72500 24.78400
C  34.42600 51.60600 25.79200
C  34.04900 52.82100 25.17500
C  33.93900 52.63800 23.77000
C  34.51900 51.31300 23.57600
C  33.82700 54.10300 25.90200
C  33.30100 53.61500 22.76300
O  33.29000 53.40000 21.58500
C  32.76900 54.91000 23.15800
N  35.25700 48.44300 23.17200
C  35.03600 49.33000 22.16000
C  35.08200 48.72700 20.75900
C  35.75000 47.33000 21.01900
C  35.75600 47.26100 22.60000
C  33.69600 48.65300 20.08300
C  37.26800 47.19200 20.37100
C  38.44900 47.88800 21.15300
N  35.98700 46.91000 25.47300
C  36.40400 45.91900 24.62900
C  36.90300 44.79700 25.34700
C  36.71300 45.10700 26.72600
C  36.20200 46.42000 26.79200
C  37.31000 43.49400 24.80900
C  37.03600 44.70300 28.09500
O  37.70500 43.74600 28.55300
C  36.46200 45.83100 29.01400
C  35.25900 45.34300 29.72500
O  34.17300 45.05200 29.22700
O  35.60600 45.33400 31.09100
C  34.54900 44.93600 32.00300
H  34.09600 52.25400 27.84700
H  34.46200 51.32200 21.44400
H  36.74500 45.31400 22.64100
H  34.91600 48.15100 30.34600
H  35.03800 51.11900 29.88300
H  32.52000 50.09200 28.94100
H  32.87500 50.91100 30.37200
H  33.05500 49.09700 30.35100
H  37.12800 50.11300 30.20800
H  37.61200 48.41700 30.08000
H  37.33800 49.89400 32.49800
H  37.50900 48.18700 32.38900
H  34.27000 54.95500 25.38500
H  34.22500 54.11700 26.91600
H  32.75700 54.24200 26.05700
H  32.11900 54.91000 24.03300
H  32.14300 55.24300 22.33000
H  33.58600 55.60900 23.34100
H  35.67800 49.43100 20.17900
H  35.10300 46.58400 20.55700
H  33.47600 49.47700 19.40400
H  32.91600 48.45400 20.81700
H  33.63000 47.76700 19.45100
H  37.27500 47.53500 19.33600
H  37.46000 46.12400 20.47600
H  38.88900 48.53800 20.39600
H  39.20200 47.10600 21.24500
H  38.23600 48.30700 22.13700
H  36.74000 42.80500 25.43200
H  38.39900 43.47500 24.84600
H  36.89300 43.43900 23.80300
H  37.18300 46.14300 29.77000
H  34.99800 44.92900 32.99600
H  34.15000 43.95600 31.74300
H  33.85700 45.77400 31.91100

