158

Mg 46.85900 24.64900 28.71500
C  47.86600 26.74000 31.19500
C  45.95100 22.31500 31.06800
C  46.53700 22.32900 26.14000
C  48.11500 26.92800 26.32300
N  47.01800 24.51400 30.84100
C  47.33200 25.53200 31.68300
C  46.89600 25.33700 33.14900
C  46.36900 23.82200 33.06000
C  46.47900 23.52600 31.55200
C  47.06000 22.85500 34.00400
C  45.73400 26.23200 33.64700
C  45.48200 26.13400 35.12400
H  45.72100 27.34400 36.10100
N  46.17700 22.63100 28.58400
C  46.02500 21.84200 29.72500
C  45.61100 20.54300 29.23800
C  45.68700 20.52000 27.79600
C  46.13700 21.86100 27.41900
C  45.11400 19.41800 30.29400
C  45.44400 19.32800 26.83300
O  45.44700 19.50800 25.63600
C  45.07100 17.96800 27.37300
N  47.45600 24.59400 26.49600
C  47.04700 23.59500 25.69200
C  47.11400 23.97100 24.25500
C  47.45900 25.52200 24.30600
C  47.74500 25.67400 25.76300
C  48.05800 23.09100 23.36900
C  46.32600 26.39500 23.89800
C  46.63400 27.69600 23.19600
N  47.84600 26.45100 28.70600
C  48.21600 27.31800 27.73100
C  48.69500 28.59000 28.27300
C  48.59300 28.35700 29.61200
C  48.08900 27.10200 29.84600
C  49.39900 29.68300 27.51700
C  48.85500 28.99800 30.87100
O  49.23200 30.14200 31.14600
C  48.27700 27.99400 31.97600
C  49.37700 27.76400 32.93800
O  50.51700 27.50900 32.59000
O  48.90700 28.08000 34.18000
C  49.82100 28.30700 35.31000
H  45.58900 21.67700 31.87700
H  46.56500 21.61300 25.31600
H  48.36900 27.70200 25.59700
H  47.71300 25.34100 33.87000
H  45.30300 23.78300 33.28400
H  47.73500 23.38900 34.67300
H  47.69400 22.20900 33.39600
H  46.36400 22.32700 34.65700
H  44.86900 25.86400 33.09400
H  45.81100 27.25400 33.27800
H  46.13200 25.35300 35.51900
H  44.44900 25.81400 35.25600
H  44.07500 19.14900 30.10800
H  45.35300 19.80100 31.28600
H  45.63500 18.46300 30.22700
H  45.68700 17.85200 28.26500
H  45.40900 17.25500 26.62200
H  43.99000 18.02000 27.50500
H  46.09900 23.71100 23.95500
H  48.36100 25.79500 23.75800
H  48.91900 23.66800 23.03300
H  47.43800 22.59400 22.62300
H  48.40900 22.29500 24.02700
H  45.57800 26.43200 24.69000
H  45.75300 25.85100 23.14700
H  46.33200 27.57600 22.15600
H  47.70100 27.91500 23.24500
H  45.97500 28.51400 23.48700
H  48.81900 29.90900 26.62300
H  50.39000 29.31200 27.25400
H  49.35000 30.65600 28.00600
H  47.38700 28.49000 32.36400
H  50.85100 28.16500 34.98300
H  49.68800 27.58000 36.11200
H  49.76600 29.35900 35.59100
Mg 8.73500 48.14300 25.30700
C  6.62100 48.60400 28.06700
C  11.37400 49.15500 27.21000
C  10.62300 47.56000 22.73000
C  5.82900 47.89100 23.19800
N  8.95300 48.75200 27.40800
C  7.95700 48.91100 28.42200
C  8.56700 49.10700 29.78700
C  9.85500 49.86500 29.23600
C  10.11600 49.18600 27.85700
C  9.58100 51.40900 29.15500
C  8.76400 47.88600 30.65000
C  8.31400 48.11000 32.12800
H  8.23000 46.78300 32.99600
N  10.66900 48.32900 24.99700
C  11.62500 48.72400 25.87600
C  12.95000 48.60700 25.32600
C  12.81400 48.04100 24.03000
C  11.32700 47.96800 23.80100
C  14.26800 48.75800 26.15700
C  13.82000 47.65500 22.94500
O  13.53400 47.25000 21.80500
C  15.25900 47.99400 23.11400
N  8.20200 47.90200 23.23300
C  9.26500 47.52500 22.45100
C  8.74700 47.09300 21.04200
C  7.18300 47.00400 21.20200
C  7.02500 47.67800 22.60600
C  9.34900 47.89200 19.83900
C  6.59900 45.52400 21.16600
C  5.43700 45.17900 20.28400
N  6.71800 48.34600 25.54500
C  5.70000 48.19000 24.59200
C  4.44500 48.06800 25.37800
C  4.86200 48.22600 26.72000
C  6.17200 48.45300 26.76000
C  3.07900 47.67700 24.86100
C  4.31900 48.22400 27.98800
O  3.13500 48.07500 28.30800
C  5.43800 48.56300 28.96300
C  5.56000 47.35200 29.86600
O  6.12200 46.27900 29.62900
O  4.94400 47.66700 30.99500
C  4.67400 46.66000 32.05500
H  12.22300 49.35700 27.86700
H  11.23100 47.15600 21.91800
H  4.97900 47.55200 22.60200
H  7.81800 49.74600 30.25500
H  10.70200 49.68100 29.89700
H  9.97200 51.80200 28.21600
H  10.23100 51.79100 29.94200
H  8.55000 51.70000 29.35400
H  9.82700 47.64800 30.70000
H  8.26900 47.05600 30.14600
H  7.33900 48.59300 32.06600
H  8.99400 48.81700 32.60300
H  14.15000 48.49100 27.20800
H  14.62300 49.78800 26.12200
H  15.02300 48.03000 25.86200
H  15.79400 47.26200 23.71900
H  15.23900 48.99500 23.54400
H  15.84400 47.92200 22.19800
H  9.08500 46.06400 20.91900
H  6.72200 47.63600 20.44300
H  10.27500 48.40100 20.10500
H  8.59700 48.61800 19.53100
H  9.55000 47.20800 19.01400
H  6.48900 45.15100 22.18500
H  7.38700 44.95300 20.67500
H  5.65000 44.35200 19.60700
H  5.12200 45.96600 19.59800
H  4.56200 44.93100 20.88400
H  2.88500 47.86200 23.80400
H  2.45400 48.27000 25.52800
H  2.83000 46.68000 25.22600
H  5.34500 49.40900 29.64500
H  4.99700 47.09200 33.00200
H  5.13800 45.69200 31.86700
H  3.58900 46.56800 32.11100

