158

Mg 25.64700 1.80600 29.30200
C  27.66900 1.42200 32.23500
C  22.95000 2.11300 31.41900
C  23.81900 2.02300 26.68200
C  28.40400 0.75500 27.39300
N  25.37600 2.01200 31.67600
C  26.32100 1.79200 32.57800
C  25.73600 1.93400 34.03100
C  24.19900 2.01800 33.70400
C  24.15500 1.94500 32.16600
C  23.39200 0.93800 34.40600
C  26.36100 3.20900 34.77500
C  26.77600 2.99400 36.31100
H  26.47800 4.04700 37.36200
N  23.63200 2.05900 29.03500
C  22.71700 2.26900 30.02200
C  21.39300 2.47400 29.38100
C  21.55700 2.39100 27.99900
C  23.04700 2.07800 27.87000
C  20.10500 2.76300 30.10300
C  20.53700 2.55000 26.84400
O  20.85900 2.54900 25.65200
C  19.10400 2.61000 27.12500
N  26.12600 1.51000 27.32600
C  25.16500 1.77900 26.42300
C  25.67900 1.63600 24.97800
C  27.21600 1.28500 25.16500
C  27.24700 1.20100 26.70300
C  24.86700 0.57800 24.15400
C  28.24300 2.35900 24.71300
C  29.66900 1.77700 24.27100
N  27.58200 1.13200 29.71300
C  28.60000 0.68100 28.77700
C  29.75700 0.43100 29.58700
C  29.44000 0.76100 30.93300
C  28.08500 1.08200 30.93600
C  30.98800 -0.13700 29.06600
C  29.94300 0.79200 32.31800
O  31.07800 0.56500 32.65400
C  28.80400 1.21900 33.21400
C  28.55200 0.06400 34.05700
O  28.00400 -0.97200 33.81600
O  28.99500 0.34200 35.31500
C  28.75000 -0.63700 36.40300
H  22.07900 2.33000 32.04100
H  23.21600 2.26100 25.80300
H  29.21300 0.24900 26.86300
H  26.03900 1.06100 34.61000
H  23.78300 2.96000 34.06000
H  23.95300 0.13100 34.87900
H  22.76600 0.46800 33.64800
H  22.74700 1.30100 35.20700
H  25.66900 4.03700 34.62600
H  27.25700 3.44800 34.20300
H  27.86300 2.92900 36.26500
H  26.34300 2.08200 36.72300
H  19.75000 3.69000 29.65100
H  20.18500 2.86700 31.18500
H  19.46400 1.89800 29.93000
H  18.76600 1.88900 27.86900
H  18.74100 2.34000 26.13300
H  18.80900 3.62400 27.39200
H  25.70800 2.61000 24.49000
H  27.48300 0.31400 24.74700
H  25.42500 -0.33400 23.94200
H  24.51800 1.03100 23.22600
H  24.04000 0.21900 24.76600
H  28.31700 3.16400 25.44500
H  27.89500 2.79500 23.77600
H  29.74800 2.04800 23.21800
H  29.79200 0.70700 24.43400
H  30.39600 2.28500 24.90400
H  31.39900 0.55000 28.32600
H  30.68700 -1.04500 28.54300
H  31.64500 -0.30900 29.91800
H  29.11500 2.09700 33.78100
H  29.61400 -0.69000 37.06500
H  28.54600 -1.67100 36.12500
H  27.80000 -0.40700 36.88600
Mg 16.72700 51.45300 26.10300
C  18.63600 50.06700 28.71800
C  14.33400 52.58100 28.42300
C  14.99900 52.63600 23.59200
C  19.19700 50.15700 23.89100
N  16.40800 51.10000 28.30700
C  17.47300 50.75900 29.09200
C  17.12600 51.24500 30.56400
C  15.52700 51.41200 30.41000
C  15.39500 51.77200 28.97200
C  14.75900 50.13300 30.83800
C  17.95900 52.44600 31.05500
C  17.38600 53.03100 32.37500
H  16.55300 52.11900 33.30600
N  14.91500 52.46700 25.98400
C  14.10000 52.82400 27.04600
C  13.03000 53.62400 26.47100
C  13.13600 53.56500 25.09800
C  14.37900 52.89500 24.79600
C  11.99200 54.36400 27.28800
C  12.27100 54.31100 23.98500
O  12.67300 54.26100 22.86200
C  11.00800 55.15500 24.38000
N  17.11500 51.39900 24.03000
C  16.23100 52.01400 23.18900
C  16.66900 51.94400 21.67900
C  18.03500 51.27300 21.80700
C  18.19100 50.92100 23.30000
C  15.71400 51.25600 20.65500
C  19.27300 52.13400 21.21400
C  19.65700 53.45000 21.93900
N  18.51900 50.20700 26.18500
C  19.34700 49.75000 25.21700
C  20.38000 48.95100 25.85400
C  20.19600 49.13200 27.15200
C  18.98000 49.87600 27.37500
C  21.57400 48.37900 25.20300
C  20.81200 48.90500 28.49700
O  21.83800 48.36400 28.88700
C  19.78000 49.49300 29.58000
C  19.43200 48.41100 30.47500
O  19.30200 47.20300 30.17200
O  19.20600 48.91700 31.74700
C  18.66200 47.93700 32.67000
H  13.52300 52.87100 29.09500
H  14.58200 52.87800 22.61200
H  19.87000 49.77100 23.12300
H  17.35900 50.36900 31.16900
H  15.03300 52.17900 31.00600
H  14.07900 50.34500 31.66400
H  15.30400 49.24400 31.15400
H  14.05900 49.79300 30.07500
H  17.88900 53.23500 30.30600
H  18.99800 52.11400 31.06600
H  16.77500 53.92900 32.28500
H  18.23600 53.25700 33.01900
H  11.80200 55.40900 27.04300
H  12.49700 54.47200 28.24800
H  11.08300 53.78300 27.44200
H  11.19300 56.02600 25.00800
H  10.35800 54.50600 24.96700
H  10.57700 55.47500 23.43200
H  16.81200 52.96800 21.33400
H  18.06700 50.39200 21.16400
H  14.94700 51.96900 20.35300
H  15.21700 50.44300 21.18600
H  16.29300 50.96800 19.77700
H  18.93400 52.46300 20.23200
H  20.07500 51.39700 21.16600
H  18.77900 53.49200 22.58400
H  19.77100 54.32100 21.29400
H  20.53900 53.26100 22.55000
H  22.49600 48.61600 25.73400
H  21.66600 48.65500 24.15200
H  21.65100 47.29300 25.17500
H  20.31100 50.29400 30.09500
H  18.93400 48.45700 33.58800
H  19.25000 47.01900 32.67600
H  17.59400 47.76900 32.53000

