158

Mg 49.78200 46.10100 42.18000
C  46.58500 46.74600 41.08600
C  49.55600 42.84000 41.03500
C  53.20500 45.75000 42.27000
C  50.14400 49.71300 42.61100
N  48.25800 45.00000 41.21600
C  47.02200 45.47400 40.92500
C  46.34900 44.43700 40.06700
C  47.10400 43.16000 40.37700
C  48.39400 43.66100 40.92300
C  46.36600 42.06100 41.26600
C  46.44700 44.89500 38.58100
C  45.16300 44.61000 37.77500
H  45.26400 43.78800 36.50900
N  51.15500 44.47400 41.79300
C  50.85900 43.29400 41.32900
C  51.97800 42.44300 41.31400
C  53.03100 43.23400 41.68100
C  52.46300 44.55400 42.04300
C  51.96800 40.99700 40.77000
C  54.50300 42.72600 41.78700
O  54.71100 41.58800 41.35800
C  55.64700 43.59100 42.15800
N  51.44800 47.54200 42.45900
C  52.76800 47.08600 42.51700
C  53.70300 48.28100 42.63600
C  52.77800 49.55400 42.74500
C  51.34900 48.93100 42.54800
C  54.86300 48.19300 43.59300
C  53.10000 50.77300 41.74800
C  53.56600 52.08800 42.46200
N  48.66100 47.95000 41.92400
C  48.89400 49.24200 42.27100
C  47.62700 50.01300 42.16700
C  46.66400 49.04600 41.77700
C  47.36900 47.82500 41.55200
C  47.32400 51.46500 42.37600
C  45.20200 48.80300 41.43700
O  44.21900 49.49400 41.46100
C  45.22500 47.43300 40.82100
C  44.25000 46.56200 41.53800
O  44.45800 45.96600 42.60500
O  43.12500 46.36200 40.83400
C  42.14100 45.50900 41.54500
H  49.42900 41.79400 40.74700
H  54.28000 45.56000 42.23900
H  50.31300 50.76500 42.85000
H  45.30700 44.41700 40.38700
H  47.31100 42.60200 39.46400
H  45.93200 41.30900 40.60800
H  45.64000 42.47900 41.96400
H  47.19300 41.61500 41.82000
H  47.21900 44.23900 38.17700
H  46.77900 45.92300 38.43900
H  44.73700 45.56700 37.47300
H  44.48300 44.01400 38.38300
H  51.82800 40.81800 39.70400
H  51.17800 40.38800 41.20800
H  52.76900 40.39000 41.19100
H  55.82900 44.38700 41.43600
H  56.58800 43.04100 42.18400
H  55.32200 43.82500 43.17100
H  54.08800 48.28200 41.61600
H  52.78100 49.84800 43.79500
H  55.80800 47.93100 43.11700
H  54.64100 47.49400 44.40000
H  54.98800 49.16200 44.07700
H  52.35200 51.04300 41.00200
H  53.95100 50.39300 41.18200
H  54.64400 52.24900 42.48700
H  53.24800 52.15700 43.50300
H  52.99800 52.87200 41.96000
H  47.86300 51.73600 43.28300
H  46.25400 51.61300 42.51500
H  47.65300 52.10300 41.55500
H  44.91600 47.31700 39.78300
H  41.75000 45.99100 42.44100
H  42.57000 44.58700 41.93800
H  41.19800 45.43900 41.00300
Mg 9.82600 47.69400 26.09200
C  8.15800 47.53800 29.22400
C  12.61700 48.71000 27.80200
C  11.32000 47.76700 23.14600
C  6.76900 46.82500 24.53600
N  10.34500 48.00600 28.32100
C  9.49900 47.84400 29.35100
C  10.12800 48.32000 30.68300
C  11.53500 48.86000 30.21800
C  11.50900 48.60500 28.68600
C  11.71600 50.38300 30.59700
C  10.25900 47.18800 31.78200
C  9.87900 47.58000 33.23300
H  10.00600 46.43300 34.26300
N  11.70600 48.27500 25.51000
C  12.68700 48.54100 26.34600
C  13.94600 48.52700 25.62000
C  13.58900 48.34300 24.25500
C  12.16300 48.17000 24.25300
C  15.35700 48.60200 26.25300
C  14.42800 48.07800 22.99900
O  13.95000 48.06800 21.85700
C  15.90000 48.15100 23.10200
N  9.09000 47.57400 24.10000
C  9.95900 47.50100 23.05200
C  9.23100 47.00000 21.76700
C  7.87400 46.52000 22.25900
C  7.88200 46.97400 23.69800
C  9.27600 48.01200 20.53800
C  7.55600 45.01000 22.11600
C  8.61900 44.14800 22.77900
N  7.93700 47.26000 26.72000
C  6.75100 46.94000 25.97300
C  5.62200 46.71500 26.81800
C  6.11000 46.94000 28.10100
C  7.55500 47.19800 28.00200
C  4.26800 46.33500 26.43700
C  5.74000 47.04800 29.47500
O  4.67300 47.04800 30.03200
C  7.08000 47.28600 30.31600
C  7.30700 45.92400 31.01800
O  7.95100 44.97100 30.59000
O  6.51600 45.87300 32.14400
C  6.65900 44.70400 33.03100
H  13.52600 48.98900 28.33900
H  11.72900 47.62400 22.14400
H  5.83300 46.37300 24.20200
H  9.45800 49.06100 31.11900
H  12.33000 48.20600 30.57500
H  12.66200 50.45200 31.13300
H  10.92300 50.76000 31.24400
H  11.81000 51.04200 29.73400
H  11.26200 46.79900 31.95600
H  9.76800 46.25100 31.51900
H  8.82600 47.85200 33.16200
H  10.55700 48.37800 33.53500
H  15.35000 48.86100 27.31200
H  15.96800 49.39400 25.82000
H  15.99100 47.71600 26.22900
H  16.19600 47.41800 23.85300
H  16.25200 49.10400 23.49800
H  16.41900 47.84000 22.19600
H  9.81300 46.16900 21.36600
H  6.97800 46.88800 21.75900
H  9.68700 48.95300 20.90500
H  8.23400 48.32300 20.45700
H  9.59900 47.58100 19.59100
H  7.47700 44.80400 21.04800
H  6.57400 44.85000 22.56100
H  8.22100 43.66100 23.67000
H  9.43800 44.75300 23.16900
H  9.08100 43.47800 22.05400
H  3.74300 47.28400 26.33600
H  3.97700 45.76600 27.32000
H  4.09700 45.75600 25.53000
H  6.97800 48.11900 31.01200
H  5.94300 43.90600 32.83500
H  6.28500 45.03100 34.00100
H  7.70400 44.39900 33.08000

