158

Mg 1.06900 -0.98500 45.68100
C  4.30300 0.47900 45.31300
C  -0.24300 1.59300 44.01900
C  -1.82300 -2.79800 45.54500
C  2.78900 -3.87200 46.85800
N  1.99500 0.80100 44.73200
C  3.22600 1.28700 44.86600
C  3.36600 2.69800 44.20400
C  1.83600 3.07100 44.07300
C  1.10000 1.78300 44.33700
C  1.28500 4.26400 45.01800
C  4.15100 2.85100 42.80700
C  4.29400 4.33800 42.40100
H  3.60400 4.87300 41.14100
N  -0.80400 -0.65400 44.90500
C  -1.15000 0.46400 44.26400
C  -2.58900 0.44100 43.90100
C  -3.04000 -0.84700 44.28800
C  -1.87400 -1.51700 44.93600
C  -3.36800 1.56000 43.17200
C  -4.48200 -1.38700 44.07300
O  -5.28000 -0.72600 43.38000
C  -4.89600 -2.75600 44.62700
N  0.54500 -2.97500 46.15900
C  -0.71900 -3.41100 46.15800
C  -0.93400 -4.81700 46.75100
C  0.56300 -5.25000 46.99900
C  1.39300 -3.93600 46.70000
C  -1.79600 -4.81300 48.06300
C  0.87600 -6.50700 46.05100
C  1.35400 -7.74900 46.95800
N  3.08000 -1.56100 46.24300
C  3.67600 -2.72500 46.75500
C  5.10400 -2.60900 46.73200
C  5.40600 -1.38700 46.23400
C  4.17300 -0.79200 45.92200
C  6.06900 -3.56500 47.32900
C  6.43500 -0.52000 45.81500
O  7.62900 -0.77300 45.81300
C  5.80600 0.75700 45.21000
C  6.30200 1.90300 46.03400
O  6.06600 2.05600 47.22800
O  7.10300 2.75400 45.25300
C  7.52800 4.02500 45.84900
H  -0.73600 2.45100 43.55700
H  -2.66200 -3.48100 45.39700
H  3.18600 -4.85600 47.11800
H  3.88700 3.25700 44.98100
H  1.54400 3.37600 43.06800
H  2.11900 4.92300 45.25600
H  0.76500 3.92400 45.91300
H  0.61900 4.85700 44.39100
H  3.67100 2.31500 41.98800
H  5.17300 2.56000 43.04700
H  5.36200 4.51700 42.27200
H  4.06700 4.98100 43.25100
H  -2.95000 2.47000 43.60200
H  -4.45100 1.55400 43.29000
H  -3.20200 1.61700 42.09600
H  -4.30200 -3.47600 44.06500
H  -5.91300 -3.01200 44.32800
H  -4.88800 -2.87500 45.71100
H  -1.43000 -5.47300 46.03500
H  0.77400 -5.52700 48.03200
H  -2.43700 -3.95100 48.25100
H  -1.09500 -4.90500 48.89200
H  -2.37500 -5.73500 48.00800
H  1.61100 -6.25900 45.28600
H  0.02600 -6.89200 45.48800
H  1.05500 -8.69100 46.50000
H  1.09100 -7.80500 48.01400
H  2.43800 -7.83700 46.87900
H  6.93500 -3.64000 46.67200
H  5.74100 -4.60400 47.31800
H  6.47700 -3.27200 48.29700
H  6.08500 0.75600 44.15600
H  8.20600 3.84500 46.68400
H  6.70700 4.70900 46.06400
H  8.14100 4.60400 45.15900
Mg 55.96200 23.16600 43.32700
C  53.90700 26.11000 42.68100
C  53.15600 21.22100 42.73200
C  57.99500 20.65500 42.83400
C  58.69000 25.42300 43.33800
N  53.78600 23.63600 42.63100
C  53.16200 24.91600 42.50300
C  51.64300 24.63500 42.18300
C  51.37800 23.18400 42.68800
C  52.84600 22.59700 42.73100
C  50.74900 23.11600 44.09800
C  51.19100 24.92400 40.67100
C  52.26500 25.20200 39.56200
H  51.92500 24.83500 38.13200
N  55.65100 21.18600 42.85300
C  54.44000 20.57300 42.76200
C  54.69700 19.17600 42.62700
C  56.06200 18.90500 42.68200
C  56.68300 20.23800 42.87000
C  53.54400 18.13000 42.38800
C  56.78000 17.59400 42.55200
O  56.17300 16.54800 42.34900
C  58.21500 17.43100 42.79700
N  58.02300 23.11400 43.06700
C  58.60700 21.90800 42.85000
C  60.14800 22.08600 42.77200
C  60.39600 23.66000 42.89900
C  58.96100 24.08600 43.13400
C  60.89900 21.09400 43.68400
C  61.19700 24.39700 41.69600
C  60.37600 24.80100 40.53800
N  56.23400 25.23200 43.31700
C  57.38200 26.00400 43.33000
C  57.06700 27.41800 43.46900
C  55.67000 27.51000 43.40400
C  55.24900 26.12600 43.14800
C  58.07200 28.50100 43.75600
C  54.51800 28.33800 43.40900
O  54.40900 29.52600 43.65600
C  53.33500 27.48500 43.02800
C  52.47800 28.21200 42.07300
O  52.79100 28.52600 40.93000
O  51.30900 28.49600 42.67000
C  50.19700 29.04200 41.86900
H  52.30900 20.54900 42.88600
H  58.64200 19.79000 42.67300
H  59.57900 26.01100 43.57700
H  50.97300 25.30200 42.72500
H  50.77700 22.53000 42.05600
H  51.42700 22.61700 44.79000
H  49.72400 22.74900 44.16800
H  50.76000 24.10700 44.55100
H  50.58200 25.82700 40.68400
H  50.72000 24.04400 40.23200
H  53.24200 24.80500 39.83800
H  52.48000 26.27000 39.55100
H  52.56700 18.58200 42.55400
H  53.65400 17.22900 42.99200
H  53.48700 17.71800 41.38100
H  58.51700 16.38800 42.70900
H  58.46800 17.89300 43.75100
H  58.84300 17.82400 41.99800
H  60.48000 21.85900 41.75900
H  60.90000 23.89500 43.83700
H  60.28600 20.70700 44.49800
H  61.75800 21.64600 44.06500
H  61.29100 20.25600 43.10800
H  62.06100 23.81900 41.36900
H  61.47000 25.35300 42.14200
H  60.24800 25.88300 40.51200
H  59.35700 24.47700 40.74700
H  60.77900 24.39800 39.60800
H  58.39000 28.81400 42.76200
H  58.87700 28.03900 44.32800
H  57.54700 29.22300 44.38200
H  52.73300 27.46600 43.93600
H  49.25700 28.76400 42.34600
H  50.34000 28.65100 40.86200
H  50.31900 30.12200 41.79300

