158

Mg 16.81600 -1.34600 27.88000
C  15.90000 0.81000 30.28300
C  18.80900 -3.02800 30.05600
C  18.26400 -3.11300 25.25500
C  15.21700 0.72900 25.39000
N  17.46100 -0.96400 29.87100
C  16.82700 -0.12600 30.76600
C  17.27700 -0.43300 32.19100
C  18.58400 -1.37600 32.00300
C  18.27400 -1.83600 30.49800
C  19.99300 -0.75900 32.10800
C  16.09000 -1.08500 32.97700
C  15.86100 -0.55100 34.38600
H  17.00900 0.13100 35.12100
N  18.06200 -3.09800 27.73300
C  18.79600 -3.64800 28.80100
C  19.50300 -4.77100 28.26000
C  19.40400 -4.76300 26.88400
C  18.54300 -3.62800 26.52800
C  20.31500 -5.67700 29.16800
C  20.12800 -5.74000 25.88000
O  19.95900 -5.66300 24.68400
C  21.05000 -6.79600 26.43700
N  16.78500 -1.18000 25.69900
C  17.52100 -1.99900 24.86800
C  17.40500 -1.59200 23.35300
C  16.24800 -0.51900 23.44600
C  16.03800 -0.29900 24.94600
C  18.68700 -1.02300 22.70500
C  14.86800 -0.92600 22.81500
C  14.85400 -0.78000 21.30100
N  15.74200 0.31400 27.83000
C  15.14900 1.12400 26.78900
C  14.33400 2.19300 27.34800
C  14.58800 2.06100 28.70600
C  15.48500 0.95900 28.94600
C  13.36300 3.08200 26.66300
C  14.27900 2.66900 29.97900
O  13.41000 3.52200 30.28200
C  15.11200 1.87000 30.97200
C  16.01200 2.88600 31.54800
O  17.19800 2.99300 31.24300
O  15.38800 3.53100 32.59200
C  16.20500 4.42800 33.42300
H  19.38500 -3.43700 30.88900
H  18.85500 -3.53000 24.43800
H  14.68900 1.34500 24.65900
H  17.65200 0.48400 32.64700
H  18.53900 -2.19900 32.71600
H  20.55900 -1.26100 32.89400
H  19.97400 0.23400 32.55800
H  20.54200 -0.60700 31.17900
H  16.22800 -2.16100 32.86900
H  15.16800 -0.76000 32.49600
H  15.49500 -1.38000 34.99300
H  15.01700 0.13700 34.34400
H  21.38500 -5.48600 29.07900
H  20.16000 -6.73800 28.97300
H  20.14800 -5.43100 30.21700
H  21.45100 -7.45900 25.67100
H  20.38000 -7.45800 26.98600
H  21.83100 -6.29000 27.00500
H  17.13000 -2.44500 22.73400
H  16.55700 0.44100 23.03100
H  19.45500 -0.92600 23.47200
H  18.49200 0.00200 22.39000
H  19.09200 -1.55900 21.84600
H  14.11900 -0.32800 23.33500
H  14.67500 -1.96800 23.07000
H  14.31000 0.14800 21.12400
H  14.49700 -1.70700 20.85200
H  15.79500 -0.58600 20.78700
H  12.68400 2.33000 26.26300
H  13.74100 3.58900 25.77500
H  12.96500 3.81600 27.36400
H  14.54600 1.63900 31.87400
H  15.58400 5.23200 33.82000
H  17.15500 4.60700 32.91900
H  16.37100 3.87800 34.34900
Mg -12.10600 16.40500 42.28900
C  -9.11700 14.67800 42.02700
C  -10.61300 19.06200 40.83300
C  -15.22600 17.82300 42.09700
C  -13.60100 13.30600 43.38000
N  -10.13200 16.65100 41.21100
C  -8.99300 15.91600 41.43400
C  -7.78500 16.58000 40.72900
C  -8.23600 18.05900 40.79200
C  -9.78700 17.96100 41.00700
C  -7.54200 18.95000 41.89500
C  -7.75500 16.02000 39.26500
C  -6.33200 15.65000 38.67500
H  -6.06100 16.25400 37.24500
N  -12.86300 18.17900 41.48800
C  -12.10200 19.15900 41.00400
C  -12.98400 20.28500 40.69300
C  -14.27300 19.95100 41.05000
C  -14.18500 18.62500 41.52100
C  -12.47300 21.56200 40.09100
C  -15.49600 20.86200 40.94200
O  -15.34200 22.00400 40.49300
C  -16.89900 20.38700 41.22300
N  -14.10100 15.58000 42.62100
C  -15.19400 16.46900 42.63500
C  -16.49600 15.79900 43.18100
C  -15.98600 14.38000 43.54000
C  -14.44400 14.41800 43.18600
C  -17.33700 16.53100 44.25100
C  -16.66100 13.14900 42.81100
C  -17.27800 12.10600 43.67300
N  -11.55100 14.43300 42.77900
C  -12.22800 13.25700 43.21200
C  -11.30200 12.18300 43.38500
C  -10.01200 12.72600 43.00100
C  -10.26700 14.06900 42.59200
C  -11.62300 10.73000 43.58300
C  -8.74100 12.33000 42.68200
O  -8.16900 11.22500 42.80000
C  -8.06300 13.61400 42.19200
C  -7.07700 13.94100 43.32100
O  -7.21400 13.62000 44.49000
O  -5.96300 14.51700 42.84100
C  -4.86000 14.93900 43.68700
H  -10.13900 20.02500 40.63400
H  -16.20500 18.29700 42.20000
H  -14.10800 12.42000 43.76600
H  -6.88900 16.26900 41.26600
H  -8.04700 18.63800 39.88800
H  -8.16700 19.21000 42.75000
H  -7.32300 19.86800 41.34900
H  -6.52600 18.58400 42.03900
H  -8.04000 16.82700 38.59100
H  -8.51900 15.24300 39.24400
H  -6.32400 14.56700 38.55100
H  -5.58800 15.85100 39.44600
H  -12.82300 21.62800 39.06100
H  -11.38700 21.62200 40.16500
H  -12.82500 22.47200 40.57500
H  -16.84100 19.44700 40.67400
H  -17.59500 21.12700 40.82900
H  -16.88300 20.27100 42.30700
H  -17.13300 15.69000 42.30300
H  -15.98800 14.17400 44.61100
H  -17.00100 17.56800 44.27100
H  -17.24200 16.00200 45.19900
H  -18.33500 16.68100 43.83900
H  -15.94000 12.72700 42.11100
H  -17.52800 13.54300 42.28100
H  -18.33000 12.30300 43.87900
H  -16.92900 12.11200 44.70500
H  -17.06100 11.09200 43.33700
H  -12.39500 10.66200 44.34900
H  -10.76100 10.09600 43.79100
H  -12.01200 10.32600 42.64900
H  -7.43400 13.45800 41.31600
H  -5.03100 14.86600 44.76100
H  -4.80800 15.98700 43.39400
H  -3.98100 14.39200 43.34600

