158

Mg 41.01600 9.19200 29.61900
C  43.00600 10.27800 32.26200
C  38.59100 8.10300 32.00500
C  39.11600 7.89700 27.12000
C  43.45300 9.92100 27.48800
N  40.84900 9.19800 31.90700
C  41.76000 9.78700 32.72400
C  41.16900 9.70400 34.17800
C  39.87300 8.79100 34.07500
C  39.71200 8.78900 32.52900
C  39.75900 7.48500 34.80700
C  40.88800 11.14100 34.67000
C  40.03100 11.34500 35.96600
H  40.63700 12.09800 37.19800
N  39.07700 8.13700 29.51300
C  38.24500 7.77900 30.62000
C  37.15000 6.96200 30.11200
C  37.16400 7.15100 28.67600
C  38.52100 7.71600 28.38500
C  36.24900 6.20400 31.01700
C  36.15800 6.77500 27.71000
O  36.29100 7.01400 26.52400
C  34.84800 6.14900 28.17600
N  41.26900 8.81300 27.62700
C  40.39500 8.34300 26.77200
C  40.82900 8.51100 25.31700
C  42.14500 9.26900 25.42200
C  42.31700 9.35100 26.98400
C  40.78500 7.16900 24.45400
C  42.39400 10.58000 24.62200
C  41.56700 11.78700 24.96500
N  42.90800 9.89300 29.86000
C  43.84300 10.19700 28.85200
C  45.03500 10.86500 29.43600
C  44.69600 10.86600 30.83700
C  43.49700 10.26600 31.04500
C  46.25200 11.44500 28.66300
C  45.18900 11.30400 32.07000
O  46.31300 11.79100 32.39900
C  44.01500 11.08500 33.05600
C  44.52900 10.41800 34.31100
O  45.07700 9.34800 34.31100
O  44.42400 11.25300 35.40300
C  44.94300 10.64900 36.63100
H  37.79900 7.84600 32.71200
H  38.61300 7.48300 26.24300
H  44.24700 10.28500 26.83200
H  41.87000 9.14100 34.79400
H  39.00400 9.36000 34.40600
H  40.64600 7.35600 35.42800
H  39.45300 6.74900 34.06300
H  38.92600 7.51700 35.50900
H  40.45800 11.75600 33.88000
H  41.90600 11.51900 34.76200
H  39.64200 10.41600 36.38300
H  39.15000 11.87200 35.60000
H  35.28300 6.69900 31.12400
H  36.59700 6.08900 32.04400
H  36.07500 5.20800 30.60900
H  34.45400 6.67500 29.04500
H  34.92800 5.07600 28.34800
H  34.02700 6.31300 27.47800
H  40.11900 9.22200 24.89300
H  42.95900 8.69100 24.98300
H  40.54300 6.33900 25.11800
H  41.75100 7.09900 23.95300
H  40.07100 7.28100 23.63800
H  42.05700 10.28900 23.62700
H  43.46800 10.74200 24.53000
H  42.36300 12.47100 25.26200
H  40.86400 11.48900 25.74300
H  41.01500 12.00500 24.05100
H  46.21400 11.16600 27.61000
H  47.07000 11.01600 29.24100
H  46.27700 12.53500 28.68500
H  43.60900 12.05600 33.33700
H  44.87700 9.56500 36.54200
H  44.37300 11.02700 37.47900
H  45.98100 10.85300 36.89500
Mg 9.28400 48.52600 26.06200
C  6.97100 48.87200 28.70500
C  11.64000 49.97300 28.16800
C  11.56600 48.61500 23.35800
C  6.75600 47.75000 23.83000
N  9.25500 49.35000 28.18600
C  8.31600 49.11500 29.13100
C  8.77600 49.54800 30.54300
C  10.17200 50.23600 30.31300
C  10.38600 49.82300 28.77000
C  10.11300 51.80100 30.40600
C  8.89800 48.27600 31.40400
C  8.62500 48.53300 32.86600
H  8.82200 47.40200 33.90700
N  11.29500 49.05800 25.90600
C  12.09200 49.69500 26.86300
C  13.38200 49.82400 26.29700
C  13.43500 49.38500 24.94600
C  12.05600 49.00200 24.65700
C  14.58900 50.13700 27.16700
C  14.67000 49.10900 23.94400
O  14.51500 48.60400 22.81500
C  16.00800 49.61900 24.24400
N  9.14900 48.29000 23.94200
C  10.22200 48.33600 23.04200
C  9.83400 47.83100 21.61000
C  8.36300 47.45400 21.82800
C  8.02300 47.81600 23.34500
C  9.99200 48.86300 20.45800
C  8.06800 45.99000 21.48200
C  8.67900 44.91600 22.35600
N  7.29200 48.29000 26.16300
C  6.36100 47.96500 25.15300
C  5.05900 47.81500 25.83000
C  5.30300 48.17200 27.16700
C  6.61900 48.53600 27.35700
C  3.82900 47.46800 25.12500
C  4.65000 48.26100 28.40300
O  3.49100 48.05400 28.74900
C  5.73700 48.88900 29.49700
C  5.69800 48.00000 30.61100
O  5.80200 46.79700 30.65800
O  5.18900 48.75100 31.69900
C  4.72500 47.96500 32.87200
H  12.38600 50.31800 28.88700
H  12.18100 48.66700 22.45600
H  6.03400 47.30500 23.14300
H  8.14200 50.31500 30.98800
H  11.01900 49.80100 30.84200
H  10.80100 52.25200 31.12100
H  9.09400 52.13800 30.59200
H  10.38300 52.26500 29.45700
H  9.90900 47.89000 31.26900
H  8.34500 47.38500 31.10800
H  7.55500 48.72600 32.93400
H  9.24700 49.39300 33.11100
H  15.15200 50.97400 26.75400
H  15.36100 49.36800 27.19100
H  14.33600 50.41000 28.19100
H  16.73500 49.34200 23.48200
H  16.39100 49.22500 25.18500
H  15.76400 50.66700 24.42300
H  10.39200 46.91300 21.42800
H  7.63000 47.86000 21.13200
H  9.02700 49.05200 19.98700
H  10.75300 48.52800 19.75300
H  10.25700 49.82400 20.90000
H  8.34400 45.78900 20.44700
H  6.98600 45.89400 21.57000
H  9.22800 45.23100 23.24300
H  9.37700 44.41400 21.68600
H  7.87200 44.22500 22.59800
H  3.38100 46.69000 25.74200
H  4.06400 47.02900 24.15600
H  3.13400 48.26800 24.86700
H  5.41800 49.90300 29.73600
H  5.57400 47.60100 33.45200
H  4.13400 47.12600 32.50500
H  4.07100 48.63600 33.42900

