158

Mg 24.34700 -5.89500 45.61500
C  26.34500 -3.43400 44.13000
C  21.79500 -4.95000 43.50200
C  22.55300 -8.59700 46.54700
C  27.19400 -7.11500 47.21500
N  24.20600 -4.47600 43.95400
C  25.07900 -3.48400 43.63300
C  24.53600 -2.59700 42.58300
C  22.99100 -2.80400 42.77800
C  22.98800 -4.20100 43.36500
C  22.36600 -1.76700 43.74900
C  25.04200 -3.08000 41.17100
C  25.37200 -2.01300 40.14400
H  26.03800 -2.52400 38.90100
N  22.41900 -6.70900 45.01200
C  21.53600 -6.08100 44.17800
C  20.36700 -6.89300 44.08200
C  20.55200 -8.03800 44.94700
C  21.88000 -7.82900 45.56200
C  19.16500 -6.62400 43.12000
C  19.53900 -9.13300 45.23500
O  18.50600 -9.17600 44.65400
C  19.74700 -10.10200 46.28000
N  24.79600 -7.64600 46.63700
C  23.86100 -8.56200 47.05800
C  24.51400 -9.58000 47.98200
C  25.95300 -9.15000 48.15300
C  25.98100 -7.87000 47.33700
C  23.81700 -10.02700 49.22600
C  27.05600 -10.25600 47.67500
C  28.19100 -10.47200 48.68000
N  26.42100 -5.27900 45.90700
C  27.40500 -5.91400 46.55300
C  28.64200 -5.10600 46.42100
C  28.26100 -4.12400 45.50900
C  26.87700 -4.26700 45.17800
C  29.92700 -5.38800 47.06000
C  28.74500 -3.07100 44.75400
O  29.85300 -2.63400 44.70900
C  27.53600 -2.61500 43.74600
C  27.41100 -1.16400 43.95900
O  27.44900 -0.65200 45.08200
O  27.22000 -0.46000 42.83100
C  27.06600 1.01600 42.97000
H  20.91900 -4.62900 42.93500
H  22.10300 -9.53300 46.88600
H  28.08200 -7.37100 47.79700
H  24.93800 -1.61700 42.83700
H  22.48900 -2.76700 41.81100
H  21.87600 -2.13300 44.65200
H  21.53800 -1.28600 43.22900
H  23.02300 -0.94200 44.02400
H  24.27300 -3.63900 40.63700
H  25.90700 -3.74300 41.18800
H  26.00100 -1.22000 40.54900
H  24.39900 -1.66000 39.80200
H  19.12200 -5.55100 42.93800
H  18.22800 -6.87000 43.62100
H  19.23100 -7.24400 42.22600
H  18.82100 -10.62200 46.52700
H  20.09800 -9.55400 47.15400
H  20.45800 -10.81500 45.86200
H  24.41100 -10.50400 47.41200
H  26.04500 -8.76200 49.16700
H  23.67600 -11.10600 49.15100
H  22.81500 -9.60000 49.18200
H  24.37000 -9.91800 50.15900
H  27.58200 -10.04100 46.74500
H  26.50600 -11.18900 47.54600
H  28.08600 -9.73700 49.47800
H  29.11200 -10.28300 48.12700
H  28.35200 -11.47100 49.08700
H  29.80500 -5.51600 48.13600
H  30.65000 -4.57400 47.00500
H  30.42700 -6.31200 46.77000
H  27.84500 -2.77400 42.71300
H  27.82400 1.30600 43.69800
H  26.15900 1.35200 43.47200
H  27.28600 1.56100 42.05200
Mg 36.23100 49.22600 26.31300
C  36.45000 47.19000 29.06900
C  34.71300 51.63800 28.16400
C  35.40900 50.91700 23.46200
C  37.18100 46.57300 24.28400
N  35.58500 49.31400 28.33000
C  35.96100 48.43300 29.29100
C  35.45800 48.92300 30.71200
C  34.87100 50.29000 30.37900
C  34.99800 50.44100 28.86400
C  33.39800 50.55200 30.89600
C  36.56100 48.90400 31.79800
C  36.25500 48.47700 33.30400
H  34.98400 48.93200 34.03600
N  35.42900 51.13900 25.89800
C  34.82100 51.94800 26.85600
C  34.56200 53.19100 26.12800
C  34.82200 52.98600 24.73200
C  35.25200 51.64800 24.63900
C  33.96500 54.42800 26.80100
C  34.86900 53.88500 23.49400
O  35.28200 53.63400 22.34300
C  34.37800 55.30000 23.71000
N  36.37400 48.77100 24.21100
C  35.87600 49.61700 23.23000
C  36.15300 49.03900 21.79400
C  36.82000 47.67000 22.13600
C  36.87900 47.69300 23.66300
C  35.00400 48.91500 20.81300
C  38.15100 47.39600 21.46100
C  39.38700 48.02100 22.14500
N  36.74000 47.23100 26.56200
C  37.07300 46.24500 25.64800
C  37.37100 45.00800 26.31200
C  37.13100 45.31800 27.72900
C  36.69700 46.64000 27.72600
C  37.82500 43.70400 25.70200
C  37.20200 44.83400 29.00700
O  37.35000 43.67500 29.43000
C  36.72100 45.95300 29.98700
C  35.43600 45.42600 30.55000
O  34.35600 45.31300 29.96600
O  35.56200 45.20100 31.91300
C  34.47300 44.46100 32.47700
H  34.19400 52.35500 28.80400
H  35.12400 51.37900 22.51500
H  37.53700 45.76700 23.63900
H  34.72200 48.13000 30.84700
H  35.61500 50.91900 30.86700
H  33.20700 49.79600 31.65700
H  32.67000 50.37100 30.10600
H  33.31200 51.60000 31.18500
H  37.05200 49.85700 31.99700
H  37.34000 48.21800 31.46500
H  37.17200 48.73700 33.83200
H  36.21300 47.39000 33.24400
H  33.09100 54.89800 26.35000
H  34.77500 55.15000 26.69700
H  33.72600 54.11000 27.81600
H  35.08500 55.92000 24.26000
H  33.39100 55.30000 24.17300
H  34.29500 55.75300 22.72100
H  36.85200 49.70600 21.29000
H  36.13100 46.87900 21.84200
H  34.03900 49.15800 21.25800
H  34.86900 47.90600 20.42500
H  35.26400 49.42800 19.88700
H  38.16600 47.70900 20.41700
H  38.25100 46.31100 21.48100
H  39.78100 48.63800 21.33700
H  40.10400 47.21200 22.28200
H  39.11800 48.57400 23.04500
H  38.90500 43.57500 25.77500
H  37.49000 43.65400 24.66600
H  37.25900 42.97100 26.27600
H  37.54300 46.04100 30.69700
H  34.75400 43.84700 33.33200
H  34.08100 43.66300 31.84600
H  33.74600 45.17400 32.86700

