158

Mg 0.08500 7.22200 26.96700
C  0.85700 9.43100 29.45400
C  -0.05400 4.61500 29.32500
C  -0.50200 5.03700 24.50200
C  0.20200 9.87400 24.70400
N  0.65400 7.07000 29.07500
C  0.81800 8.12300 29.96600
C  0.86400 7.67500 31.44200
C  0.79800 6.10100 31.29400
C  0.36000 5.92500 29.79100
C  2.15300 5.34800 31.41500
C  -0.31000 8.12200 32.32500
C  -0.02700 8.30700 33.84200
H  -0.71100 7.49300 35.02000
N  -0.21200 5.08100 26.86300
C  -0.24300 4.19300 27.93700
C  -0.52500 2.90300 27.48700
C  -0.60500 2.94700 26.01000
C  -0.42100 4.40200 25.72600
C  -0.73800 1.79300 28.43400
C  -0.84700 1.85000 25.00300
O  -0.76200 2.00500 23.82700
C  -0.89700 0.50500 25.55800
N  0.11100 7.40500 24.88800
C  -0.29100 6.34700 24.07500
C  -0.59400 6.81800 22.61900
C  -0.55900 8.32500 22.75600
C  -0.04200 8.58400 24.16500
C  0.45500 6.30000 21.66600
C  -1.89600 9.11000 22.49000
C  -1.73200 10.11400 21.39200
N  0.57600 9.20300 27.02300
C  0.65500 10.18600 25.98700
C  0.96300 11.40400 26.53100
C  1.10000 11.15300 27.87400
C  0.86300 9.83100 28.10400
C  1.15700 12.67500 25.74000
C  1.38600 11.74900 29.18800
O  1.67700 12.92600 29.48800
C  1.04500 10.73900 30.22400
C  2.22400 10.60100 31.08800
O  3.37500 10.28600 30.72900
O  1.93900 11.01800 32.34100
C  2.95300 11.28200 33.37100
H  -0.05800 3.92400 30.17000
H  -0.76500 4.40200 23.65400
H  -0.06000 10.66100 23.99300
H  1.81700 7.76700 31.96400
H  0.10400 5.57100 31.94700
H  2.09700 4.98300 32.44000
H  2.96000 6.01600 31.11300
H  2.17400 4.54800 30.67500
H  -1.07900 7.34900 32.30100
H  -0.80800 8.99300 31.90000
H  -0.03700 9.38900 33.97600
H  1.01300 8.07900 34.07500
H  -1.78100 1.53800 28.62000
H  -0.12000 1.93700 29.32100
H  -0.19900 0.98000 27.94600
H  -1.87000 0.22200 25.96100
H  0.01500 0.41700 26.14900
H  -0.72700 -0.13200 24.69000
H  -1.56900 6.54300 22.21800
H  0.27300 8.55200 22.09000
H  0.75100 7.05600 20.94000
H  0.03100 5.43200 21.16100
H  1.28000 6.12900 22.35800
H  -2.29600 9.57600 23.39000
H  -2.74100 8.48800 22.19700
H  -2.66000 10.10000 20.82100
H  -0.90400 9.83200 20.74100
H  -1.46200 11.10600 21.75300
H  1.94800 12.49000 25.01300
H  1.52700 13.42600 26.43800
H  0.24700 12.88500 25.17700
H  0.17900 11.04600 30.81200
H  3.76200 12.00100 33.24100
H  3.29200 10.28000 33.63400
H  2.50100 11.74500 34.24800
Mg -12.14800 37.71600 42.35600
C  -10.05500 35.01400 41.50000
C  -9.93200 39.79900 40.63300
C  -14.58700 39.91800 42.31300
C  -14.49800 35.18100 43.45300
N  -10.29800 37.40400 40.94600
C  -9.61200 36.19800 40.89000
C  -8.33100 36.40400 40.08100
C  -8.13900 37.95900 40.07100
C  -9.51500 38.44300 40.59500
C  -7.05400 38.39300 41.01000
C  -8.40400 35.72900 38.69400
C  -7.16700 34.89000 38.40400
H  -6.11800 35.41300 37.50900
N  -12.18300 39.64000 41.71000
C  -11.11600 40.38300 41.11800
C  -11.61900 41.78800 41.07800
C  -12.94400 41.82000 41.56700
C  -13.34100 40.45300 41.84500
C  -10.73300 42.85200 40.60200
C  -13.84600 43.05000 41.65200
O  -13.43800 44.12800 41.19800
C  -15.18600 43.12900 42.29000
N  -14.32100 37.56900 42.40400
C  -15.01000 38.68500 42.61500
C  -16.43900 38.39800 43.11900
C  -16.39900 36.90100 43.45200
C  -15.02400 36.46600 43.06300
C  -16.94100 39.38000 44.25500
C  -17.50000 35.96700 42.78500
C  -18.26000 34.98300 43.78900
N  -12.25200 35.57400 42.61600
C  -13.16200 34.72700 43.17200
C  -12.60400 33.42700 43.35100
C  -11.36200 33.42100 42.69400
C  -11.24400 34.79200 42.18700
C  -13.27600 32.33300 44.13000
C  -10.25000 32.64500 42.21400
O  -9.96300 31.44300 42.31400
C  -9.33900 33.64500 41.44600
C  -7.95300 33.60700 41.93500
O  -7.15200 32.72200 41.60000
O  -7.65300 34.60800 42.76800
C  -6.28600 34.60800 43.40300
H  -9.17200 40.49600 40.27400
H  -15.33800 40.68600 42.50400
H  -15.15300 34.55900 44.06700
H  -7.56400 35.91500 40.68200
H  -7.97600 38.31700 39.05400
H  -7.48800 38.93000 41.85400
H  -6.34500 38.99800 40.44500
H  -6.51900 37.62200 41.56400
H  -8.49400 36.47200 37.90200
H  -9.24900 35.07900 38.46600
H  -7.55800 33.96400 37.98300
H  -6.70600 34.50700 39.31500
H  -9.66600 42.63100 40.62900
H  -10.81100 43.69700 41.28600
H  -10.98600 43.17900 39.59300
H  -16.04800 42.91400 41.65700
H  -15.28700 44.15100 42.65500
H  -15.31000 42.46500 43.14600
H  -17.14400 38.54700 42.30100
H  -16.51200 36.93900 44.53600
H  -16.46800 40.35200 44.11300
H  -16.70200 38.96200 45.23200
H  -17.98500 39.66900 44.13200
H  -16.98600 35.31200 42.08200
H  -18.21400 36.55300 42.20700
H  -18.37100 34.01000 43.31000
H  -19.16400 35.54100 44.03200
H  -17.62400 34.96800 44.67400
H  -12.68800 31.45100 44.38400
H  -14.13000 31.98400 43.54800
H  -13.62900 32.76900 45.06500
H  -9.37000 33.26700 40.42400
H  -5.62200 35.31400 42.90400
H  -5.76100 33.65300 43.39000
H  -6.50200 35.02400 44.38700

