158

Mg 1.04700 7.87100 26.14400
C  1.77500 9.77900 28.88700
C  1.34000 5.02300 28.12800
C  0.44100 5.94200 23.37900
C  1.53300 10.61800 23.96400
N  1.39600 7.53000 28.25500
C  1.61400 8.41800 29.24400
C  1.75800 7.79900 30.62400
C  2.02200 6.30400 30.26700
C  1.57900 6.27700 28.78200
C  3.38300 5.63500 30.68200
C  0.44200 8.06800 31.42700
C  0.61000 8.18200 32.91900
H  1.68300 7.40800 33.65500
N  0.75200 5.78300 25.82800
C  0.91600 4.79500 26.76600
C  0.52600 3.55800 26.17300
C  0.25900 3.76800 24.74000
C  0.49200 5.23300 24.63300
C  0.46800 2.27200 27.00800
C  -0.16800 2.73800 23.65200
O  -0.50900 3.12600 22.54800
C  -0.21600 1.29000 23.91400
N  0.92100 8.23600 23.94600
C  0.65900 7.25700 23.02500
C  0.59300 7.87000 21.61800
C  0.63100 9.37200 21.89800
C  1.00000 9.48600 23.37600
C  1.79500 7.45900 20.70400
C  -0.68300 10.13300 21.57800
C  -1.03700 10.47000 20.15400
N  1.57300 9.79400 26.34000
C  1.80200 10.78300 25.30300
C  1.89700 12.04600 26.09900
C  1.96300 11.76400 27.43500
C  1.77100 10.34800 27.58900
C  1.96300 13.47000 25.57400
C  2.11300 12.30400 28.77100
O  2.25100 13.44200 29.21000
C  1.98300 11.02500 29.76500
C  3.10900 10.92200 30.82500
O  4.22900 10.42500 30.78500
O  2.62200 11.57200 31.92300
C  3.46800 11.57200 33.12500
H  1.32900 4.15700 28.79400
H  0.13800 5.39700 22.48200
H  1.52500 11.49100 23.30900
H  2.61700 8.28800 31.08200
H  1.30600 5.78100 30.90100
H  4.09700 5.47000 29.87600
H  3.10300 4.69900 31.16600
H  3.91900 6.26000 31.39600
H  -0.30100 7.37800 31.02700
H  0.02400 9.02900 31.12700
H  -0.37000 8.10600 33.39100
H  0.78400 9.23500 33.14000
H  -0.02500 1.44400 26.49900
H  -0.20400 2.40500 27.85600
H  1.39900 2.00100 27.50600
H  -0.98300 1.09800 24.66400
H  0.69700 0.87600 24.34300
H  -0.52400 0.75900 23.01300
H  -0.35900 7.55000 21.19600
H  1.43700 9.93700 21.42900
H  2.19100 6.49700 21.02800
H  2.61700 8.17100 20.78300
H  1.50200 7.55700 19.65900
H  -0.65100 11.02800 22.20000
H  -1.53300 9.61000 22.01500
H  -0.14500 10.20900 19.58500
H  -1.12600 11.55000 20.03300
H  -1.87400 9.89500 19.75800
H  1.55500 14.12700 26.34200
H  1.31100 13.39300 24.70400
H  2.97000 13.71600 25.23500
H  1.03200 11.27400 30.23600
H  4.45400 12.01700 32.99300
H  3.55600 10.53400 33.44400
H  2.90900 12.19700 33.82100
Mg 47.22100 44.65900 43.36200
C  43.61500 44.28800 43.06700
C  47.34600 41.24400 42.59800
C  50.42100 45.08300 42.76800
C  46.59700 48.16600 43.58900
N  45.67100 43.01000 42.73700
C  44.27300 43.09200 42.82800
C  43.61800 41.68800 42.84200
C  44.85700 40.73500 42.80400
C  46.03100 41.75100 42.70100
C  44.85300 39.71800 44.01800
C  42.53600 41.41900 41.78500
C  42.73600 42.18800 40.47000
H  42.56300 41.50300 39.04600
N  48.67800 43.37100 42.70500
C  48.54300 42.03200 42.54300
C  49.87000 41.49000 42.42000
C  50.81500 42.51000 42.31600
C  50.01800 43.77100 42.62100
C  50.14300 40.08100 42.46100
C  52.26900 42.41800 41.91300
O  52.69100 41.33100 41.59200
C  53.19300 43.62300 41.86000
N  48.31400 46.40400 43.03900
C  49.70600 46.29100 42.91400
C  50.37800 47.66500 43.17500
C  49.11900 48.67700 43.29400
C  47.92200 47.70700 43.32400
C  51.37500 47.61200 44.34300
C  49.00400 49.70600 42.17100
C  48.94600 51.14800 42.63000
N  45.50200 45.97100 43.52600
C  45.42000 47.33200 43.63700
C  43.99900 47.73000 43.64600
C  43.28600 46.59800 43.52700
C  44.23700 45.54600 43.34600
C  43.58400 49.14300 44.01100
C  41.99700 46.09400 43.44900
O  40.95600 46.72500 43.49300
C  42.10400 44.50200 43.06600
C  41.34500 43.79100 44.05100
O  40.23300 43.37700 43.83900
O  41.92100 43.92300 45.30300
C  41.23900 43.30300 46.42900
H  47.57700 40.20100 42.37500
H  51.50000 45.22200 42.86800
H  46.56300 49.25500 43.67000
H  43.16000 41.72400 43.83100
H  44.82500 40.24500 41.83100
H  45.57900 40.00100 44.78100
H  45.29100 38.77300 43.69900
H  43.82600 39.58100 44.35700
H  41.61500 41.89000 42.12600
H  42.18400 40.41200 41.56200
H  43.70200 42.69200 40.43100
H  42.06100 43.03300 40.33600
H  50.95900 39.98900 43.17700
H  50.47400 39.69500 41.49800
H  49.31800 39.45600 42.80400
H  52.82700 44.47900 41.29400
H  54.08200 43.30000 41.31900
H  53.59700 43.80100 42.85700
H  50.85000 47.92600 42.22800
H  49.21900 49.19400 44.24800
H  52.39600 47.52200 43.97200
H  51.07300 46.69600 44.85200
H  51.24700 48.44100 45.03900
H  48.07000 49.51800 41.64300
H  49.90900 49.85800 41.58200
H  48.86800 51.22000 43.71500
H  48.02900 51.68300 42.38600
H  49.85000 51.70100 42.37400
H  42.72600 49.40700 43.39200
H  44.50200 49.72100 43.90700
H  43.26700 49.05600 45.05100
H  41.63000 44.24900 42.11800
H  40.37800 42.72800 46.09000
H  40.88100 44.13800 47.03100
H  41.81000 42.62100 47.06000

