158

Mg 50.17600 45.66400 42.28100
C  47.06900 46.41400 40.77600
C  49.72500 42.40500 40.91400
C  53.47900 45.10200 42.42900
C  50.66900 49.06800 42.87700
N  48.48800 44.50000 41.00700
C  47.33300 45.07300 40.49200
C  46.53700 44.07000 39.66400
C  47.31100 42.70800 40.03800
C  48.64800 43.17600 40.68700
C  46.44900 41.79500 41.00100
C  46.51900 44.50500 38.23200
C  45.16400 44.39900 37.46900
H  45.17500 43.91200 36.00400
N  51.46200 43.98600 41.89600
C  51.06100 42.75500 41.42800
C  52.18100 41.89100 41.49400
C  53.27000 42.63600 42.02200
C  52.73600 43.94800 42.13900
C  52.18100 40.33100 41.21900
C  54.61700 42.06800 42.31100
O  54.96100 40.94500 41.97900
C  55.60900 42.92900 42.96900
N  51.83500 46.97000 42.67800
C  53.12300 46.44200 42.65500
C  54.19300 47.56900 42.87600
C  53.26400 48.83200 43.09600
C  51.83000 48.27700 42.92500
C  55.17000 47.27700 44.04300
C  53.65900 50.11000 42.23600
C  54.66800 51.03600 42.91600
N  49.11500 47.43100 41.97500
C  49.45200 48.72700 42.27100
C  48.32100 49.59500 41.90400
C  47.38300 48.73800 41.29500
C  47.90800 47.39100 41.37300
C  48.27700 51.00200 42.02500
C  46.20100 48.70300 40.54600
O  45.42800 49.58900 40.12100
C  45.95300 47.25400 40.31600
C  44.69700 46.84200 40.89800
O  44.52600 46.59200 42.08900
O  43.67600 46.75500 39.96100
C  42.39200 46.38700 40.45000
H  49.57100 41.35300 40.66600
H  54.56500 45.07900 42.31900
H  50.86700 50.12700 43.05100
H  45.53600 44.01100 40.09100
H  47.44700 42.00000 39.22000
H  46.52400 40.76700 40.64700
H  45.41900 42.14200 41.07600
H  46.84500 41.73700 42.01500
H  47.23300 43.86700 37.71200
H  46.90300 45.51900 38.11200
H  44.62500 45.34600 37.49600
H  44.60000 43.65600 38.03200
H  52.64000 40.27000 40.23300
H  51.17100 39.92900 41.13700
H  52.74000 39.71100 41.92000
H  56.42900 42.42000 43.47600
H  55.13000 43.53900 43.73500
H  55.97200 43.64600 42.23200
H  54.68300 47.61000 41.90300
H  53.22400 49.15500 44.13700
H  54.93600 47.75500 44.99400
H  56.21600 47.31900 43.73900
H  55.01800 46.22500 44.28600
H  52.79400 50.62300 41.81700
H  54.15100 49.72500 41.34200
H  54.31100 52.04800 43.10400
H  55.51700 51.23200 42.26100
H  55.14200 50.73500 43.85000
H  47.94000 51.35000 43.00200
H  47.61600 51.52300 41.33300
H  49.31000 51.24700 41.77600
H  45.72100 47.18000 39.25400
H  42.00400 47.06300 41.21100
H  42.27700 45.42300 40.94600
H  41.70500 46.40400 39.60400
Mg 27.47000 51.23200 25.95900
C  25.31700 52.37200 28.66700
C  29.54600 50.11700 28.31500
C  29.44700 50.52400 23.46500
C  25.24800 52.86100 23.83100
N  27.42500 51.33500 28.23700
C  26.40400 51.62200 29.08600
C  26.83600 51.42600 30.53400
C  28.33500 51.05600 30.42600
C  28.49800 50.84100 28.89400
C  29.29600 52.08900 31.06800
C  25.92300 50.39200 31.19000
C  25.00300 50.90800 32.36000
H  25.22000 50.16800 33.60800
N  29.30500 50.52300 25.96400
C  29.97300 49.95900 26.98900
C  31.23100 49.33500 26.51400
C  31.12600 49.39900 25.09500
C  29.89900 50.21200 24.75900
C  32.25000 48.67600 27.33000
C  32.14100 48.79700 24.12900
O  32.06200 49.08500 22.92500
C  33.22000 47.86900 24.51100
N  27.20100 51.50300 23.96700
C  28.19000 51.14400 23.11800
C  27.93800 51.49400 21.66700
C  26.49300 52.07400 21.73600
C  26.27800 52.18500 23.25800
C  28.92300 52.53000 20.91700
C  25.38100 51.14200 21.19300
C  24.32600 51.87900 20.47600
N  25.66900 52.35100 26.14300
C  24.98900 53.01400 25.15900
C  23.71500 53.63500 25.65900
C  23.88600 53.52000 27.12000
C  25.03100 52.64900 27.28900
C  22.65000 54.37300 24.83300
C  23.29800 53.83000 28.44900
O  22.35000 54.49700 28.80400
C  24.17600 53.06800 29.52300
C  24.70100 54.04300 30.52500
O  25.68900 54.79500 30.36400
O  24.03900 53.95800 31.68100
C  24.59700 54.84000 32.78700
H  30.16500 49.66900 29.09500
H  30.10700 50.22200 22.64800
H  24.52200 53.21000 23.09400
H  26.75400 52.38800 31.04100
H  28.41300 50.08800 30.92200
H  28.83100 52.78300 31.76800
H  29.59300 52.83600 30.33200
H  30.17700 51.60600 31.49000
H  26.53700 49.54900 31.50800
H  25.27700 49.87900 30.47700
H  23.97500 50.85000 32.00400
H  25.30300 51.94200 32.53200
H  32.29700 47.58900 27.27800
H  32.10400 48.95400 28.37400
H  33.24400 49.10800 27.21500
H  34.04100 48.40600 24.98700
H  33.58600 47.54600 23.53600
H  32.88600 46.96500 25.02100
H  27.91300 50.56300 21.10100
H  26.46200 53.09000 21.34100
H  28.42700 53.41400 20.51600
H  29.43800 51.89000 20.20200
H  29.66000 53.00500 21.56500
H  24.81700 50.74600 22.03800
H  25.79700 50.33700 20.58700
H  24.57100 51.82100 19.41500
H  24.25700 52.90300 20.84300
H  23.40700 51.30100 20.58000
H  22.98800 55.23600 24.25900
H  21.79500 54.63900 25.45500
H  22.21000 53.59900 24.20500
H  23.60900 52.28200 30.02100
H  24.18700 54.34400 33.66600
H  24.24800 55.87100 32.73200
H  25.66700 55.04800 32.80400

