158

Mg 16.82900 51.87200 26.55000
C  18.71800 50.73600 28.99900
C  14.47100 52.82700 28.97600
C  15.08300 53.35400 24.21700
C  19.30300 51.04900 24.15800
N  16.60400 51.74500 28.68700
C  17.57400 51.32000 29.51100
C  17.28000 51.45800 31.08600
C  15.76200 51.88100 30.97000
C  15.61200 52.24200 29.50500
C  14.79400 50.82300 31.53300
C  18.34500 52.43700 31.87700
C  18.30200 52.17900 33.43800
H  17.18200 51.47900 34.16800
N  14.91600 52.81500 26.58000
C  14.11800 53.11400 27.64300
C  12.87800 53.86800 27.16100
C  13.05300 54.07500 25.76000
C  14.36000 53.36200 25.43300
C  11.67200 54.26100 27.97500
C  12.16300 54.70000 24.69700
O  12.48200 54.64400 23.50400
C  10.90000 55.54800 25.03000
N  17.16500 52.06700 24.48000
C  16.25200 52.71900 23.76400
C  16.69300 53.16400 22.35400
C  17.96300 52.26400 22.25600
C  18.23100 51.85400 23.72000
C  15.67700 52.98400 21.20400
C  19.24100 52.87400 21.50400
C  19.73700 52.02000 20.29400
N  18.49600 50.82800 26.46400
C  19.43000 50.62700 25.45800
C  20.50400 49.83200 26.02200
C  20.27500 49.92500 27.40700
C  19.08100 50.54600 27.61700
C  21.64600 49.22400 25.30400
C  20.81600 49.48400 28.67400
O  21.74900 48.71900 28.89300
C  19.88500 50.12200 29.76300
C  19.50500 49.05300 30.66100
O  18.66600 48.13900 30.46600
O  20.14700 49.11200 31.83000
C  19.49500 48.34800 32.93800
H  13.71300 53.10900 29.71000
H  14.86700 54.13300 23.48300
H  20.08400 50.80200 23.43600
H  17.35300 50.50800 31.61600
H  15.55800 52.82000 31.48600
H  15.19600 50.10700 32.25000
H  14.32000 50.30300 30.70000
H  13.94300 51.28100 32.03700
H  17.98400 53.41700 31.56500
H  19.38000 52.31400 31.55600
H  18.52900 53.11800 33.94200
H  19.16600 51.51400 33.45600
H  10.80400 53.62200 27.81500
H  11.31900 55.28800 27.87800
H  11.90100 54.13000 29.03300
H  10.26000 55.50100 24.14800
H  11.11500 56.60600 25.18000
H  10.37200 55.06400 25.85200
H  17.01300 54.20000 22.46700
H  17.75600 51.36100 21.68100
H  14.92700 52.26300 21.52900
H  16.19900 52.74600 20.27700
H  15.14400 53.91900 21.03100
H  20.02600 52.83800 22.26000
H  19.07700 53.91800 21.23600
H  19.43400 52.56000 19.39700
H  19.38400 50.99000 20.25500
H  20.82600 52.04700 20.33600
H  21.46100 48.19400 24.99700
H  22.54900 49.28600 25.91200
H  21.70800 49.67400 24.31300
H  20.45400 50.84000 30.35400
H  18.45700 48.65600 33.06000
H  20.02000 48.57500 33.86600
H  19.52100 47.27900 32.72600
Mg -2.25200 35.44700 26.34300
C  -3.85500 33.42700 28.74900
C  -1.30800 37.57100 29.03700
C  -0.73600 37.49200 24.08600
C  -3.45000 33.50400 23.91200
N  -2.70000 35.53200 28.64700
C  -3.16600 34.48500 29.40600
C  -2.90700 34.73500 30.91800
C  -2.32500 36.20800 30.87400
C  -2.17500 36.53900 29.47000
C  -3.04800 37.24700 31.66300
C  -2.05800 33.62600 31.69600
C  -2.65600 33.03700 33.04100
H  -1.73800 33.07900 34.31500
N  -1.06800 37.22100 26.54400
C  -0.77300 37.83300 27.72400
C  0.04300 38.96700 27.36900
C  0.35500 39.04200 25.95800
C  -0.50200 37.86600 25.43100
C  0.45300 39.84200 28.49100
C  1.18300 39.93500 25.12000
O  1.20500 39.92200 23.89000
C  1.99100 40.97800 25.76300
N  -2.01500 35.38600 24.35000
C  -1.37500 36.35800 23.58000
C  -1.85500 36.17500 22.15900
C  -1.97500 34.62600 22.10600
C  -2.53000 34.44100 23.55400
C  -3.03600 36.97300 21.63000
C  -0.65700 33.87200 21.94300
C  -0.52900 33.12000 20.59900
N  -3.56500 33.94200 26.34300
C  -3.97800 33.24500 25.24600
C  -4.89200 32.15800 25.64500
C  -4.80200 32.19900 27.06600
C  -4.04400 33.37800 27.41800
C  -5.61600 31.14500 24.79000
C  -5.21100 31.53200 28.28000
O  -5.98100 30.56700 28.44800
C  -4.57500 32.28300 29.41600
C  -5.54700 32.64400 30.45000
O  -6.42200 33.55200 30.33100
O  -5.34300 31.89300 31.61400
C  -6.19800 32.13400 32.76100
H  -0.91900 38.14900 29.87800
H  -0.35900 38.15700 23.30700
H  -3.71800 32.82900 23.09800
H  -3.89200 34.83700 31.37400
H  -1.37300 36.21000 31.40400
H  -3.69600 37.81100 30.99200
H  -2.31300 37.83500 32.21300
H  -3.80900 36.91400 32.36800
H  -1.06100 33.97600 31.96600
H  -1.88900 32.78000 31.03000
H  -2.89300 31.98100 32.90500
H  -3.58200 33.55000 33.29700
H  0.56100 39.33200 29.44800
H  -0.36100 40.56300 28.56300
H  1.37100 40.42400 28.40600
H  2.63400 41.54500 25.09000
H  2.59300 40.51500 26.54500
H  1.30500 41.74800 26.11800
H  -0.95400 36.49300 21.63500
H  -2.66600 34.25700 21.34900
H  -3.65700 37.34100 22.44700
H  -3.69400 36.43000 20.95200
H  -2.66800 37.82700 21.06200
H  -0.62400 33.18300 22.78700
H  0.16800 34.57200 22.07400
H  -0.74400 32.05800 20.71700
H  0.53600 33.09000 20.36700
H  -1.01700 33.57400 19.73700
H  -6.64800 31.40700 24.55500
H  -5.70900 30.28100 25.44700
H  -5.08600 30.85500 23.88300
H  -3.83000 31.68600 29.94200
H  -6.15700 31.25300 33.40200
H  -7.24700 32.21100 32.47400
H  -5.82200 32.95900 33.36600

