158

Mg 8.78500 4.49700 27.31600
C  10.28600 2.99500 29.98400
C  6.82100 6.29600 29.35300
C  7.12200 5.66100 24.43400
C  10.76400 2.62400 25.12300
N  8.62900 4.74900 29.48100
C  9.33900 3.96800 30.36600
C  9.02000 4.44800 31.77800
C  7.80500 5.44200 31.62500
C  7.71900 5.48200 30.04300
C  6.50100 5.16400 32.45500
C  10.27800 5.05900 32.55200
C  9.98100 5.58700 33.95700
H  11.05900 5.38200 35.04400
N  7.20400 5.74900 26.90500
C  6.66100 6.46700 27.90300
C  5.64600 7.31700 27.35200
C  5.85700 7.42300 25.96300
C  6.66900 6.12600 25.72100
C  4.70600 8.21000 28.31100
C  5.43200 8.49100 24.92400
O  5.77200 8.37200 23.71700
C  4.61700 9.70900 25.34400
N  8.75500 3.95300 24.99200
C  8.00800 4.62400 24.04800
C  8.63100 4.53200 22.65800
C  9.96900 3.69900 22.92400
C  9.79500 3.36400 24.39600
C  7.60000 3.83200 21.71100
C  11.27000 4.42900 22.47900
C  11.98500 5.33900 23.53600
N  10.17600 3.00100 27.42900
C  10.87800 2.28500 26.45200
C  11.66200 1.25900 27.13200
C  11.37200 1.42400 28.52500
C  10.57600 2.57800 28.65600
C  12.56300 0.24200 26.49100
C  11.72900 1.01300 29.91900
O  12.45300 0.12600 30.32400
C  11.02500 2.00200 30.84400
C  10.10400 1.37400 31.77800
O  8.99500 0.87800 31.50100
O  10.65300 1.26200 33.04600
C  9.84500 0.60000 34.11500
H  6.28400 6.99800 29.99400
H  6.74000 6.21000 23.57100
H  11.40800 2.08700 24.42400
H  8.65200 3.56300 32.29700
H  8.07900 6.41600 32.02900
H  5.62500 5.15300 31.80600
H  6.28900 5.92100 33.21000
H  6.65200 4.26600 33.05500
H  10.65700 5.86600 31.92500
H  11.02400 4.30500 32.80100
H  8.99000 5.25600 34.26700
H  10.02100 6.66900 33.83100
H  3.72700 8.27900 27.83600
H  5.05600 9.23300 28.45300
H  4.50500 7.74700 29.27700
H  3.69000 9.37600 25.81200
H  4.46700 10.42100 24.53300
H  5.05900 10.29000 26.15300
H  8.88000 5.56100 22.39800
H  9.85200 2.67100 22.58100
H  7.59700 4.30700 20.73000
H  6.59300 3.87600 22.12600
H  7.86000 2.78600 21.55100
H  11.06900 5.04000 21.59900
H  11.90300 3.58700 22.19700
H  11.65300 5.13400 24.55400
H  11.92700 6.40700 23.32900
H  13.06300 5.17600 23.52000
H  12.04900 -0.71900 26.46000
H  13.46000 0.16900 27.10500
H  12.92600 0.60000 25.52800
H  11.72800 2.53200 31.48700
H  9.03600 1.31500 34.25900
H  10.37100 0.37600 35.04300
H  9.51100 -0.35400 33.70700
Mg 27.08700 49.05300 26.35900
C  24.79100 50.34100 28.90600
C  29.20800 48.02800 28.93500
C  29.13200 47.86900 24.12900
C  25.00900 50.45900 23.96300
N  26.97100 49.19200 28.66800
C  25.87700 49.66800 29.48700
C  26.19200 49.42600 30.99800
C  27.64700 48.83900 30.95100
C  27.98000 48.69600 29.45100
C  28.70800 49.69700 31.73200
C  25.16600 48.43900 31.67300
C  24.36200 49.04100 32.83400
H  24.19400 48.24700 34.11700
N  28.98500 48.20200 26.50400
C  29.68900 47.79500 27.62300
C  30.89000 47.09200 27.29600
C  30.84100 46.97000 25.84400
C  29.61300 47.67900 25.45600
C  31.87600 46.53300 28.29800
C  31.75000 46.34700 24.87000
O  31.60000 46.41300 23.62500
C  32.89700 45.65100 25.38200
N  27.13800 49.22200 24.27000
C  28.06700 48.55900 23.54600
C  27.65800 48.65700 21.98900
C  26.31500 49.39000 22.03900
C  26.08300 49.66300 23.51300
C  28.73000 49.37200 21.10600
C  25.19900 48.53600 21.38900
C  24.36400 47.51300 22.27000
N  25.27400 50.26600 26.36800
C  24.57100 50.72900 25.30200
C  23.38300 51.46700 25.79500
C  23.45500 51.41400 27.22100
C  24.56200 50.61100 27.52000
C  22.30000 52.04000 24.94900
C  22.74500 51.69700 28.46200
O  21.70300 52.27500 28.61500
C  23.66600 51.11100 29.63200
C  24.08200 52.21800 30.49200
O  24.78600 53.19800 30.16500
O  23.59500 52.01500 31.71400
C  24.06300 52.90900 32.78200
H  29.80600 47.63500 29.76000
H  29.64700 47.36500 23.30900
H  24.40800 50.88200 23.15500
H  26.12100 50.40600 31.46900
H  27.63500 47.85800 31.42600
H  28.22200 50.26400 32.52600
H  29.16000 50.42700 31.06200
H  29.51900 49.07800 32.11600
H  25.61300 47.49800 31.99300
H  24.50800 48.05300 30.89500
H  23.35600 49.12600 32.42200
H  24.63700 50.04700 33.15100
H  32.89000 46.79700 27.99700
H  31.92100 45.44500 28.33700
H  31.74600 46.85700 29.33100
H  33.59300 46.38200 25.79400
H  33.13300 44.95100 24.58000
H  32.58800 45.01900 26.21400
H  27.45100 47.62400 21.70800
H  26.34400 50.40000 21.62900
H  29.01100 48.71100 20.28500
H  29.66500 49.60600 21.61500
H  28.34100 50.29500 20.67700
H  25.57700 48.00400 20.51600
H  24.44300 49.09300 20.83500
H  23.33000 47.84700 22.34800
H  24.68200 47.29900 23.29000
H  24.42900 46.62300 21.64400
H  21.74900 51.39800 24.26200
H  22.77800 52.79800 24.32900
H  21.61100 52.34400 25.73700
H  23.04900 50.36000 30.12500
H  24.02900 53.93800 32.42300
H  25.11000 52.69200 32.99300
H  23.29500 52.84500 33.55200

