158

Mg -1.78600 17.39900 26.25400
C  -1.91100 15.17600 28.97100
C  -2.27900 20.04900 28.56700
C  -2.41300 19.62300 23.69300
C  -2.02100 14.71500 24.17500
N  -1.99200 17.59200 28.53100
C  -2.01400 16.49200 29.37800
C  -2.11300 16.98100 30.83900
C  -2.20700 18.58300 30.76600
C  -2.15500 18.78600 29.21800
C  -3.55500 19.19900 31.41800
C  -1.01400 16.40200 31.82300
C  -0.73200 17.24400 32.95700
H  -0.28700 16.63800 34.30600
N  -2.15900 19.51000 26.13300
C  -2.20900 20.41800 27.20300
C  -2.23100 21.78700 26.66800
C  -2.08100 21.64500 25.28000
C  -2.32800 20.20200 24.94000
C  -2.21500 23.06200 27.53100
C  -1.89100 22.71700 24.26200
O  -2.01300 22.56100 23.03500
C  -1.39200 24.02700 24.76600
N  -2.16300 17.13300 24.27600
C  -2.33900 18.18500 23.39800
C  -2.66400 17.68700 22.00800
C  -2.28500 16.20600 22.04300
C  -2.09500 15.98200 23.60600
C  -4.08000 18.02400 21.58700
C  -0.97100 15.83100 21.22600
C  0.47500 16.03300 21.69200
N  -1.86200 15.34300 26.49000
C  -1.89900 14.32800 25.54000
C  -1.88300 13.04400 26.14400
C  -2.03700 13.35900 27.51900
C  -1.89600 14.74900 27.66700
C  -1.91300 11.72600 25.56800
C  -2.19900 12.70400 28.78000
O  -2.38400 11.50700 29.08000
C  -2.07200 13.84000 29.80300
C  -0.86100 13.47600 30.77400
O  0.26500 13.75700 30.60600
O  -1.36700 12.77000 31.80300
C  -0.50300 12.46000 32.93400
H  -2.41200 20.90100 29.23700
H  -2.48200 20.26100 22.80900
H  -2.10000 13.87800 23.47900
H  -3.05500 16.62900 31.25900
H  -1.40300 19.19600 31.17400
H  -3.35000 20.18100 31.84400
H  -3.93600 18.67600 32.29600
H  -4.32800 19.29900 30.65700
H  -0.10700 16.12700 31.28600
H  -1.41700 15.54800 32.36800
H  -1.52200 17.96700 33.15900
H  0.14800 17.76800 32.58400
H  -2.77000 23.86500 27.04500
H  -1.21600 23.45200 27.72800
H  -2.84600 22.95600 28.41400
H  -1.22100 24.57600 23.84100
H  -0.47600 23.87500 25.33700
H  -2.19100 24.54900 25.29300
H  -2.02200 18.17400 21.27300
H  -3.04400 15.50500 21.69800
H  -4.54300 18.53300 22.43200
H  -4.55500 17.05900 21.41000
H  -3.92000 18.69800 20.74600
H  -1.01800 16.20300 20.20200
H  -0.99000 14.74800 21.10000
H  0.48200 16.32700 22.74200
H  1.16300 16.65600 21.12100
H  1.03800 15.10000 21.66800
H  -1.23100 11.20900 26.24200
H  -1.49700 11.87500 24.57100
H  -2.96800 11.45600 25.59800
H  -2.91200 14.02100 30.47300
H  -0.85200 11.48300 33.26900
H  -0.77800 13.30300 33.56800
H  0.58400 12.44800 32.84500
Mg 45.25700 3.09100 47.94100
C  42.99800 5.67900 47.28800
C  42.71500 0.78300 47.48900
C  47.58000 0.54400 47.84700
C  47.87000 5.41200 47.69500
N  43.04200 3.24600 47.57800
C  42.40200 4.40800 47.25100
C  40.88700 4.13700 46.86900
C  40.83600 2.58900 46.93100
C  42.28500 2.17900 47.30600
C  39.69600 2.10600 47.92000
C  40.51600 4.63600 45.42000
C  39.31700 5.47900 45.31700
H  38.40100 5.42600 44.09600
N  45.09900 0.87600 47.86900
C  44.00400 0.16400 47.71600
C  44.33100 -1.29700 47.80800
C  45.72000 -1.36500 47.89700
C  46.23100 0.06800 47.91400
C  43.25500 -2.34600 47.66800
C  46.58700 -2.68600 48.04300
O  46.01700 -3.81100 47.92800
C  48.02700 -2.59700 48.15100
N  47.44900 3.01500 47.57600
C  48.12900 1.83900 47.75700
C  49.61200 2.13100 47.99300
C  49.73200 3.65800 47.83600
C  48.30800 4.08400 47.66400
C  50.07300 1.58700 49.36700
C  50.73800 4.15000 46.74700
C  51.94200 4.93500 47.19200
N  45.43300 5.11100 47.64400
C  46.54400 5.89400 47.63400
C  46.14900 7.31300 47.27500
C  44.75100 7.22100 47.27600
C  44.36800 5.89000 47.44600
C  47.10200 8.51800 47.14500
C  43.52500 8.01900 47.20200
O  43.35700 9.21900 47.19400
C  42.27100 7.00600 47.13600
C  41.27400 7.32100 48.15600
O  41.30500 7.08800 49.33700
O  40.23500 7.97100 47.54800
C  39.14200 8.37600 48.53100
H  41.96800 0.01000 47.29700
H  48.34800 -0.21500 48.01000
H  48.66600 6.15600 47.61900
H  40.26100 4.66700 47.58600
H  40.62400 2.04500 46.01000
H  40.11300 1.57000 48.77300
H  39.00500 1.49900 47.33500
H  39.27400 3.02200 48.33500
H  40.37200 3.75500 44.79400
H  41.37500 5.18100 45.02800
H  39.66400 6.50200 45.17000
H  38.93500 5.58200 46.33300
H  43.60400 -3.31700 48.01800
H  42.91800 -2.21600 46.64000
H  42.53600 -2.09000 48.44700
H  48.48100 -2.24600 47.22400
H  48.51800 -3.53800 48.40100
H  48.25800 -2.04800 49.06400
H  50.07900 1.53200 47.21100
H  50.15000 3.98300 48.79000
H  49.15700 1.32100 49.89300
H  50.67100 2.25100 49.99100
H  50.71400 0.73500 49.13600
H  50.26100 4.68000 45.92100
H  51.19900 3.23100 46.38600
H  51.70200 5.97900 46.98800
H  52.70400 4.64800 46.46800
H  52.27500 4.75300 48.21400
H  47.21800 8.62400 46.06600
H  48.01100 8.32700 47.71500
H  46.58200 9.36200 47.59800
H  41.86100 7.06200 46.12700
H  38.45800 9.06200 48.03100
H  39.43400 8.93100 49.42200
H  38.41700 7.59100 48.74400

