158

Mg 30.45200 57.92100 39.69200
C  27.95500 55.82800 38.62100
C  32.70500 55.31900 38.76600
C  32.88200 60.09800 40.09600
C  27.99600 60.39600 40.10700
N  30.38900 55.91500 38.42700
C  29.17600 55.30900 38.26600
C  29.33900 53.80700 37.89100
C  30.90300 53.59500 38.02400
C  31.36500 54.95700 38.44700
C  31.53900 52.44100 38.89100
C  28.78500 53.36700 36.47300
C  29.11800 54.24900 35.25000
H  27.83900 54.76900 34.53100
N  32.48900 57.73100 39.51200
C  33.21100 56.61100 39.11700
C  34.63200 56.94500 39.31200
C  34.69700 58.30900 39.65200
C  33.31900 58.73900 39.81800
C  35.73700 55.96100 39.10600
C  35.97300 59.02700 39.99900
O  37.05300 58.54000 39.65200
C  36.12000 60.32200 40.86400
N  30.46000 60.02000 39.87200
C  31.59500 60.69500 40.09200
C  31.34700 62.20100 40.31600
C  29.78400 62.25900 40.46500
C  29.36700 60.78000 40.25600
C  32.12700 62.87100 41.49800
C  29.21700 63.12100 39.38900
C  28.19700 64.27700 39.81500
N  28.39300 58.09500 39.48700
C  27.55400 59.19400 39.70400
C  26.19500 58.74600 39.48700
C  26.31700 57.43000 39.04800
C  27.65200 57.10100 39.12500
C  24.91500 59.47000 39.65100
C  25.54600 56.31500 38.71000
O  24.35800 56.13000 38.70900
C  26.61500 55.23400 38.33700
C  26.29900 54.02600 39.20100
O  26.74500 53.72400 40.32900
O  25.36400 53.29000 38.55400
C  24.62100 52.26100 39.38000
H  33.47500 54.55200 38.65800
H  33.59000 60.82400 40.49900
H  27.20500 61.10300 40.36600
H  29.02500 53.14100 38.69500
H  31.33500 53.54800 37.02500
H  30.77500 51.67500 39.02000
H  31.88300 52.82500 39.85200
H  32.34500 52.00200 38.30200
H  27.70100 53.25600 36.51400
H  29.06000 52.32200 36.33200
H  29.64200 53.63200 34.52100
H  29.70700 55.11500 35.55200
H  36.24200 56.08400 38.14800
H  35.43300 54.92000 39.21800
H  36.48500 56.14000 39.87900
H  35.49000 60.11400 41.72900
H  35.79400 61.09200 40.16500
H  37.13300 60.50300 41.22200
H  31.77300 62.66700 39.42700
H  29.47000 62.54300 41.46900
H  32.67500 62.16700 42.12400
H  31.34700 63.48500 41.94800
H  32.83900 63.61200 41.13600
H  28.63800 62.50800 38.69700
H  29.96600 63.59700 38.75600
H  27.13900 64.21200 39.56000
H  28.49300 65.14600 39.22700
H  28.19400 64.44600 40.89100
H  24.84100 60.55000 39.52300
H  24.51700 59.32200 40.65500
H  24.16200 59.07100 38.97000
H  26.48900 54.92700 37.29900
H  25.34000 51.44300 39.32300
H  23.84100 51.91400 38.70200
H  24.30200 52.61300 40.36100
Mg 26.48300 50.85100 26.43300
C  24.56700 51.93200 29.01100
C  28.89700 49.83100 28.82700
C  28.31600 49.37300 24.04100
C  24.45800 52.29300 24.13200
N  26.81700 51.12500 28.72800
C  25.73600 51.29900 29.49400
C  26.07100 51.11200 31.00900
C  27.65100 50.90000 30.85500
C  27.82100 50.55900 29.38400
C  28.56000 52.04500 31.37100
C  25.27100 50.00500 31.62300
C  24.85900 50.28200 33.12100
H  25.88000 50.70000 34.24600
N  28.37500 49.81600 26.38800
C  29.17900 49.47400 27.51500
C  30.22900 48.63100 27.10700
C  30.10500 48.45800 25.64600
C  28.90000 49.25300 25.28300
C  31.27100 48.05700 27.97600
C  30.82500 47.58900 24.77000
O  30.61700 47.47500 23.62600
C  31.96500 46.70100 25.26200
N  26.48800 50.90800 24.32400
C  27.22100 50.07300 23.56500
C  26.60200 49.84600 22.19500
C  25.22300 50.76500 22.26300
C  25.38000 51.36000 23.63300
C  27.54600 50.13700 20.97400
C  23.87200 50.04600 22.04100
C  22.81600 50.67500 21.06300
N  24.87100 51.99500 26.54700
C  24.10900 52.52900 25.46800
C  22.95800 53.21900 26.08500
C  23.07400 52.98900 27.44800
C  24.24900 52.26200 27.69400
C  21.86600 53.86900 25.36600
C  22.40500 53.17900 28.71200
O  21.27600 53.62600 28.95400
C  23.38000 52.52400 29.85200
C  23.81000 53.61500 30.75500
O  24.66400 54.46600 30.51700
O  23.08600 53.67300 31.95300
C  23.58200 54.66100 33.01800
H  29.63700 49.56500 29.58500
H  28.79300 48.82200 23.22800
H  23.65100 52.54600 23.44100
H  26.00900 52.01000 31.62300
H  28.00800 50.01600 31.38500
H  27.90900 52.83900 31.73700
H  29.19800 52.44100 30.58100
H  29.08700 51.67100 32.24800
H  25.86400 49.09100 31.58900
H  24.36300 49.83700 31.04400
H  24.32400 49.43300 33.54700
H  24.07400 51.03500 33.04000
H  31.18600 48.44400 28.99200
H  32.25000 48.37400 27.61500
H  31.39200 46.98300 27.83700
H  32.66300 47.38600 25.74300
H  32.39700 46.21300 24.38800
H  31.43000 46.01000 25.91400
H  26.30900 48.81000 22.02500
H  25.37100 51.66100 21.66000
H  27.24100 50.96800 20.33800
H  27.53100 49.25200 20.33700
H  28.57600 50.39400 21.21900
H  23.40500 50.07700 23.02600
H  24.13800 49.02300 21.77500
H  22.47600 49.84300 20.44700
H  23.16800 51.43200 20.36200
H  21.95900 51.13800 21.55300
H  21.13000 54.28800 26.05200
H  21.30700 53.22800 24.68300
H  22.30000 54.57100 24.65400
H  22.77300 51.75600 30.33200
H  22.89900 54.80000 33.85600
H  23.70300 55.61400 32.50400
H  24.50900 54.32500 33.48200

