158

Mg 1.47700 43.10100 25.78700
C  3.07800 42.96600 28.89100
C  -1.52400 42.72100 27.35900
C  0.09300 42.82100 22.78800
C  4.69000 43.13100 24.36400
N  0.83300 42.88700 27.82100
C  1.65800 42.99800 28.96500
C  0.82700 42.89800 30.30300
C  -0.57100 42.65900 29.73100
C  -0.42100 42.75600 28.24400
C  -1.20700 41.36800 30.26500
C  0.98700 44.26400 31.12500
C  0.90100 44.26400 32.64500
H  0.59900 43.00300 33.38000
N  -0.52300 42.89000 25.11900
C  -1.60800 42.72700 25.92200
C  -2.71100 42.53900 25.06700
C  -2.33000 42.71600 23.67600
C  -0.86400 42.80300 23.81000
C  -4.03200 42.34000 25.74200
C  -3.13600 42.76200 22.36600
O  -2.60500 42.80700 21.30100
C  -4.60100 42.40500 22.44400
N  2.29900 42.88300 23.94800
C  1.51300 42.89300 22.83300
C  2.29800 42.83600 21.51900
C  3.70100 43.30000 22.01200
C  3.54500 43.11400 23.59800
C  2.21900 41.40400 20.82600
C  4.36100 44.73900 21.66100
C  3.42400 45.95700 21.36900
N  3.51400 43.13000 26.40500
C  4.71000 43.08800 25.76600
C  5.82200 43.11500 26.67900
C  5.24600 42.99300 27.91800
C  3.81600 43.04000 27.74000
C  7.24900 43.17800 26.30400
C  5.55400 43.06600 29.32000
O  6.63500 43.15300 29.91500
C  4.15800 42.95000 30.05000
C  4.09500 41.71700 30.91200
O  3.49500 40.65700 30.67100
O  4.75700 41.87300 32.14500
C  4.48600 40.73500 33.06500
H  -2.51900 42.58500 27.78900
H  -0.36100 42.83600 21.79500
H  5.65800 43.25200 23.87500
H  1.25400 42.11200 30.92500
H  -1.33400 43.36500 30.05800
H  -2.29400 41.40500 30.32900
H  -0.85100 41.13400 31.26800
H  -0.84800 40.49000 29.72700
H  0.31100 45.00000 30.68900
H  1.92000 44.66600 30.72900
H  0.08100 44.95600 32.83600
H  1.77700 44.65800 33.15900
H  -4.74300 41.95600 25.01000
H  -4.42100 43.25800 26.18100
H  -3.98000 41.62500 26.56300
H  -5.10100 42.37800 21.47600
H  -5.04400 43.16300 23.09000
H  -4.63400 41.43500 22.94000
H  1.95100 43.67700 20.91800
H  4.52300 42.66800 21.67600
H  1.68200 40.76200 21.52400
H  3.16200 40.91300 20.58600
H  1.50900 41.53200 20.00900
H  4.84000 44.57700 20.69500
H  5.06800 44.95600 22.46200
H  3.54700 46.31800 20.34700
H  3.80200 46.70400 22.06800
H  2.37400 45.79700 21.61000
H  7.49400 44.22100 26.10600
H  7.38800 42.71200 25.32800
H  7.90700 42.69300 27.02500
H  3.92100 43.70300 30.80100
H  4.38000 39.74700 32.61800
H  3.65000 40.88100 33.75000
H  5.40300 40.67900 33.65200
Mg -4.95000 25.41900 26.16100
C  -3.84100 26.86400 29.21200
C  -6.86700 23.21200 28.01200
C  -5.57900 23.90200 23.23600
C  -2.69400 27.60100 24.50500
N  -5.22300 25.02200 28.30600
C  -4.77200 25.78700 29.34200
C  -5.37500 25.34700 30.63600
C  -6.06200 24.02400 30.31100
C  -6.04200 24.05400 28.75300
C  -5.27400 22.81800 30.89800
C  -6.40200 26.40500 31.20500
C  -6.39700 26.53900 32.76800
H  -5.84500 25.43300 33.62400
N  -6.24000 23.88500 25.65100
C  -6.92200 23.09400 26.60000
C  -7.57100 21.99800 25.86700
C  -7.20600 22.16000 24.46600
C  -6.30500 23.34200 24.35400
C  -8.56400 21.02600 26.52900
C  -7.56900 21.27500 23.30700
O  -7.13400 21.40000 22.17500
C  -8.50600 20.24800 23.50700
N  -4.27700 25.69800 24.24600
C  -4.65800 24.86100 23.23400
C  -3.89900 25.22100 21.97200
C  -3.28000 26.61800 22.33000
C  -3.42600 26.63500 23.78500
C  -2.92500 24.24600 21.40900
C  -3.89200 27.91600 21.70300
C  -3.58800 28.19500 20.22100
N  -3.50500 26.87000 26.68000
C  -2.69700 27.73800 25.89900
C  -1.99700 28.55700 26.73600
C  -2.37500 28.32800 28.06900
C  -3.23600 27.26500 27.96000
C  -0.84300 29.49300 26.27200
C  -2.23600 28.70300 29.46500
O  -1.57100 29.61800 29.93900
C  -3.24900 27.77000 30.30900
C  -2.46000 27.03200 31.31500
O  -1.94900 25.93000 31.16900
O  -2.31500 27.81500 32.41800
C  -1.70600 27.27400 33.62900
H  -7.33900 22.40100 28.57000
H  -5.69000 23.36900 22.28900
H  -1.98600 28.15900 23.88900
H  -4.58800 25.27500 31.38700
H  -7.05400 24.18700 30.73300
H  -4.27500 23.13600 31.19500
H  -5.10300 22.08400 30.11000
H  -5.74800 22.41700 31.79400
H  -7.44900 26.20900 30.97800
H  -6.16400 27.33500 30.68800
H  -7.38100 26.73100 33.19700
H  -5.95700 27.51400 32.97700
H  -9.51100 21.08600 25.99300
H  -8.64600 21.11300 27.61300
H  -8.15300 20.04700 26.28500
H  -9.51200 20.61100 23.71700
H  -8.03800 19.54600 24.19700
H  -8.59400 19.66200 22.59200
H  -4.63200 25.35200 21.17600
H  -2.22600 26.56300 22.06000
H  -2.09700 24.74300 20.90500
H  -3.39000 23.55400 20.70700
H  -2.42200 23.69800 22.20600
H  -3.64900 28.80800 22.28100
H  -4.96000 27.86100 21.91300
H  -3.15700 29.19600 20.25300
H  -4.35800 28.23000 19.45000
H  -2.88600 27.44000 19.86700
H  -0.10500 29.78400 27.02000
H  -1.20400 30.28400 25.61400
H  -0.21600 28.86000 25.64300
H  -4.06500 28.34900 30.74200
H  -0.74400 27.77600 33.73300
H  -1.58100 26.19100 33.62200
H  -2.25200 27.54900 34.53200

