158

Mg 42.79400 3.32900 47.26900
C  41.17900 6.25000 46.51900
C  39.89600 1.59200 46.74000
C  44.65300 0.39300 47.00300
C  45.79300 5.11300 46.96900
N  40.78800 3.88200 46.51400
C  40.31000 5.17000 46.54500
C  38.77000 5.20400 46.57100
C  38.40400 3.67300 46.77500
C  39.77800 2.94100 46.62100
C  37.59200 3.33800 48.01100
C  38.12100 5.88400 45.35600
C  38.66600 5.33000 44.06400
H  39.19000 6.34500 43.04500
N  42.33400 1.25200 47.06700
C  41.06200 0.76100 46.84100
C  41.04900 -0.65400 46.77100
C  42.41600 -1.04100 46.82600
C  43.21700 0.23500 47.00900
C  39.83200 -1.53600 46.60700
C  42.93600 -2.41700 46.79800
O  42.14100 -3.41300 46.73000
C  44.39400 -2.79100 46.93200
N  44.89800 2.74100 46.87300
C  45.41800 1.51200 46.99300
C  46.93800 1.43600 46.85000
C  47.31400 3.00900 46.87600
C  45.88700 3.69900 46.92100
C  47.52800 0.50700 47.98100
C  48.16400 3.55700 45.65000
C  49.51800 4.04400 45.98400
N  43.42200 5.31400 46.93100
C  44.66500 5.92100 46.90200
C  44.57000 7.35700 46.78200
C  43.19500 7.53700 46.73200
C  42.52700 6.25200 46.69800
C  45.60400 8.41300 46.84000
C  42.16000 8.49500 46.74900
O  42.17700 9.68800 46.76900
C  40.84600 7.70700 46.62900
C  40.02600 8.04600 47.77300
O  40.18300 7.47100 48.82300
O  38.99800 8.91200 47.48700
C  37.94100 9.13300 48.49300
H  38.93000 1.09300 46.64000
H  45.19700 -0.54400 46.86800
H  46.76700 5.60400 47.00900
H  38.37800 5.65700 47.48200
H  37.76300 3.35400 45.95300
H  38.15000 2.55200 48.52100
H  36.60800 2.95100 47.74400
H  37.57300 4.21800 48.65400
H  38.22600 6.95300 45.53800
H  37.05900 5.64400 45.32400
H  37.92100 4.70200 43.57600
H  39.53800 4.71200 44.28000
H  38.90600 -1.17200 46.16300
H  39.54600 -1.95600 47.57100
H  40.06500 -2.30700 45.87300
H  44.84400 -2.34900 46.04200
H  44.43900 -3.88000 46.90100
H  44.99800 -2.42200 47.76100
H  47.26400 0.96400 45.92300
H  47.99100 3.17600 47.71400
H  47.70800 -0.44600 47.48500
H  46.80400 0.35700 48.78200
H  48.45400 0.96700 48.32500
H  47.65600 4.28000 45.01100
H  48.41900 2.68700 45.04400
H  49.60300 4.75800 46.80400
H  49.85900 4.55000 45.08100
H  50.24900 3.23600 46.01400
H  46.58400 8.04300 46.53900
H  45.77900 9.01600 47.73100
H  45.20500 9.17200 46.16700
H  40.38000 8.10300 45.72700
H  38.26200 10.00200 49.06800
H  37.71300 8.27400 49.12500
H  37.05400 9.36800 47.90500
Mg 15.90900 51.63400 25.89600
C  17.85700 50.67500 28.59200
C  13.35300 52.48100 27.91100
C  13.92700 52.27200 23.09900
C  18.42300 50.48200 23.71200
N  15.58000 51.51700 28.09200
C  16.58200 51.21600 29.02500
C  16.07600 51.50600 30.42200
C  14.59500 51.94800 30.20600
C  14.48800 52.07300 28.65600
C  13.56300 50.86300 30.81200
C  17.04400 52.55700 31.08500
C  17.18000 52.49800 32.60500
H  16.32800 51.44900 33.35700
N  13.93800 52.51700 25.58700
C  12.99700 52.64400 26.58500
C  11.78000 53.02100 25.95700
C  11.98600 53.13800 24.59000
C  13.39100 52.71800 24.33000
C  10.58900 53.30600 26.80200
C  10.92700 53.57700 23.52600
O  11.16200 53.71900 22.31000
C  9.58800 54.12400 23.87800
N  16.15900 51.57000 23.71400
C  15.16700 51.82800 22.80200
C  15.55900 51.48100 21.35600
C  17.08200 51.14400 21.56900
C  17.30300 51.05900 23.10200
C  14.62800 50.41800 20.78800
C  18.10900 52.03100 20.83900
C  18.34100 53.44300 21.35000
N  17.69500 50.69000 26.10500
C  18.66300 50.35700 25.11500
C  19.74000 49.80500 25.77000
C  19.52900 49.85100 27.13400
C  18.24500 50.45400 27.29200
C  20.99600 49.30200 25.10500
C  19.97300 49.52800 28.40500
O  20.97000 48.89900 28.75100
C  18.92900 50.05100 29.48200
C  18.48700 48.94100 30.40700
O  17.76800 48.00900 30.03100
O  19.03500 49.12600 31.64900
C  18.66600 48.03100 32.59500
H  12.47200 52.63900 28.53700
H  13.24900 52.25200 22.24300
H  19.13500 50.12300 22.96600
H  16.14600 50.56700 30.97100
H  14.40400 52.87200 30.75200
H  12.74300 50.72300 30.10800
H  13.04500 51.36600 31.62900
H  14.02500 49.96300 31.21800
H  16.65000 53.51300 30.74100
H  18.02400 52.51700 30.60700
H  16.99600 53.50200 32.98600
H  18.20600 52.19100 32.81000
H  10.67200 52.75700 27.74000
H  9.62000 53.02700 26.38800
H  10.56300 54.36800 27.04800
H  9.73000 55.01300 24.49100
H  8.94900 53.43500 24.43100
H  9.18900 54.46600 22.92300
H  15.40200 52.40400 20.79600
H  17.21700 50.11600 21.23200
H  15.25600 49.67900 20.28900
H  14.01000 50.88300 20.02000
H  13.87900 49.97900 21.44700
H  17.72300 52.11300 19.82200
H  19.02800 51.46500 20.68300
H  18.25400 54.22700 20.59800
H  19.32000 53.58800 21.80700
H  17.66400 53.76400 22.14200
H  21.31200 49.90400 24.25300
H  20.92000 48.26100 24.79200
H  21.79000 49.40900 25.84500
H  19.39200 50.85600 30.05200
H  18.02600 47.19400 32.31700
H  18.25600 48.44800 33.51600
H  19.53700 47.57500 33.06500

