158

Mg 24.89600 -6.35700 45.68200
C  27.44700 -4.31300 44.36600
C  22.71000 -4.75700 43.58000
C  22.78500 -8.99800 46.12300
C  27.36100 -8.06900 47.45100
N  25.14200 -4.85200 44.09300
C  26.23700 -4.13600 43.73700
C  26.02900 -3.17700 42.62400
C  24.47000 -3.11600 42.62700
C  24.06700 -4.36300 43.48700
C  23.93400 -1.81100 43.17800
C  26.59400 -3.55200 41.23900
C  26.77700 -2.48900 40.19200
H  25.93300 -2.62100 38.94700
N  22.98000 -6.76100 44.96100
C  22.20100 -5.88800 44.29100
C  20.87500 -6.46000 44.25900
C  20.94100 -7.72200 44.83000
C  22.23400 -7.86600 45.39200
C  19.70600 -5.80400 43.53200
C  19.73700 -8.64100 44.96400
O  18.59700 -8.35000 44.71500
C  19.92500 -10.05000 45.51200
N  25.14500 -8.34400 46.49100
C  24.07400 -9.12600 46.65000
C  24.36400 -10.34000 47.59900
C  25.83400 -10.02900 48.03600
C  26.16700 -8.70100 47.32300
C  23.28000 -10.64100 48.75300
C  26.94700 -11.16300 47.73600
C  27.99700 -11.49900 48.81000
N  27.04700 -6.18400 46.01500
C  27.85000 -6.93900 46.76600
C  29.17800 -6.33700 46.77700
C  29.05500 -5.32100 45.81200
C  27.73700 -5.25900 45.40300
C  30.40200 -6.88900 47.56600
C  29.81400 -4.32400 45.04800
O  30.98800 -4.07800 45.00400
C  28.77800 -3.64200 44.14000
C  28.75800 -2.19400 44.34000
O  29.02200 -1.40300 43.40700
O  28.43100 -1.87800 45.61000
C  28.04900 -0.46800 45.84100
H  22.02000 -4.17800 42.96200
H  22.20700 -9.88800 46.38100
H  28.12300 -8.49400 48.10700
H  26.61500 -2.29800 42.89400
H  24.10100 -3.08800 41.60200
H  23.42400 -2.07600 44.10400
H  23.25400 -1.42500 42.41800
H  24.83100 -1.21100 43.33200
H  26.01600 -4.39500 40.86000
H  27.53100 -4.05100 41.48500
H  27.84200 -2.40100 39.97900
H  26.46600 -1.49700 40.51800
H  19.59000 -6.19400 42.52100
H  19.93500 -4.74200 43.44200
H  18.66100 -5.81400 43.84400
H  20.06700 -9.99100 46.59100
H  20.74800 -10.47600 44.93700
H  19.02900 -10.63200 45.29600
H  24.39700 -11.21200 46.94700
H  25.84200 -9.80200 49.10200
H  22.77400 -11.51700 48.34900
H  22.54900 -9.84400 48.89200
H  23.78000 -10.89900 49.68700
H  27.46400 -11.08000 46.78000
H  26.32800 -12.04300 47.56300
H  28.25700 -12.55700 48.77600
H  27.73400 -11.17700 49.81700
H  28.91800 -11.02800 48.46600
H  30.92200 -7.52700 46.85100
H  30.21700 -7.45700 48.47900
H  31.09600 -6.11700 47.89600
H  29.00600 -3.90300 43.10600
H  26.96700 -0.40900 45.95900
H  28.36600 0.18200 45.02500
H  28.50600 -0.04200 46.73400
Mg 46.59400 44.93300 43.74500
C  43.33000 43.79600 43.46300
C  47.70000 41.76200 43.13000
C  49.65700 46.14100 43.26600
C  45.31000 48.20200 43.84300
N  45.59000 43.01700 43.27000
C  44.26600 42.78400 43.17200
C  43.96300 41.26000 42.89100
C  45.37500 40.60300 42.89300
C  46.30200 41.85100 43.10200
C  45.56600 39.45600 43.87500
C  43.06100 40.95900 41.62900
C  43.23800 41.93200 40.44200
H  42.70200 41.60000 38.99600
N  48.40700 44.02000 43.57200
C  48.73100 42.72400 43.37600
C  50.19800 42.55000 43.31900
C  50.78800 43.81400 43.35000
C  49.61100 44.73300 43.44300
C  50.89700 41.25500 43.20700
C  52.23200 44.16500 43.39500
O  53.03700 43.27700 43.24600
C  52.82300 45.53100 43.50500
N  47.39700 46.86200 43.61400
C  48.74700 47.15500 43.47100
C  48.98600 48.69400 43.17500
C  47.61200 49.33200 43.51900
C  46.73700 48.08300 43.69800
C  50.20900 49.41900 43.87800
C  47.11700 50.34000 42.49000
C  47.09500 51.76700 43.05400
N  44.72000 45.86700 43.88200
C  44.34500 47.18100 43.94500
C  42.96300 47.27400 44.13300
C  42.48500 45.96900 43.93300
C  43.63800 45.11900 43.71600
C  42.19400 48.54000 44.36600
C  41.31800 45.12500 43.92300
O  40.13900 45.28900 44.22700
C  41.85100 43.67900 43.53400
C  41.33800 42.60600 44.43400
O  40.66600 41.69100 44.04100
O  41.66600 42.85400 45.72900
C  41.27200 41.83700 46.76400
H  48.14600 40.83100 42.77100
H  50.53200 46.67600 42.89300
H  45.08200 49.25600 44.01700
H  43.37500 40.85600 43.71500
H  45.48200 40.22600 41.87600
H  45.88800 38.67600 43.18400
H  44.60900 39.12000 44.27500
H  46.22900 39.70900 44.70200
H  42.01600 40.91100 41.93400
H  43.36500 40.04900 41.11300
H  44.30800 42.01300 40.25400
H  43.08600 42.96400 40.76000
H  50.18700 40.51900 43.58300
H  51.81300 41.12100 43.78200
H  51.14800 41.06700 42.16300
H  52.21000 46.15800 44.15200
H  52.81400 46.12600 42.59200
H  53.80200 45.52900 43.98400
H  49.03000 48.71600 42.08600
H  47.67700 49.81900 44.49200
H  50.82600 48.72400 44.44700
H  49.87200 50.09400 44.66500
H  50.88000 49.84600 43.13300
H  46.22600 49.98900 41.96900
H  47.89500 50.44900 41.73500
H  47.01400 51.73500 44.14100
H  46.20700 52.26300 42.66100
H  47.99900 52.29600 42.75000
H  41.34900 48.22100 44.97700
H  41.86500 49.03000 43.45000
H  42.68800 49.23800 45.04100
H  41.35600 43.44800 42.59100
H  41.56400 40.82100 46.50000
H  40.18300 41.84900 46.78400
H  41.56700 42.18900 47.75300

