158

Mg 41.51900 8.65000 30.54200
C  43.55200 9.67800 33.06800
C  39.19900 7.65400 32.84100
C  39.78300 7.34900 28.03000
C  44.13800 9.35700 28.24100
N  41.35000 8.78900 32.67600
C  42.28200 9.18700 33.55900
C  41.83200 9.21300 35.01700
C  40.50600 8.45200 34.91700
C  40.35800 8.20900 33.43600
C  40.37700 7.15400 35.75100
C  41.96300 10.67600 35.71800
C  40.67700 11.29500 36.48600
H  41.03900 12.10500 37.74500
N  39.69200 7.71600 30.43700
C  38.86600 7.39900 31.49200
C  37.69800 6.73000 31.01800
C  37.77100 6.83500 29.61800
C  39.13600 7.29500 29.24000
C  36.64500 6.06300 31.90300
C  36.80600 6.34800 28.55500
O  37.06400 6.46600 27.36800
C  35.45700 5.89000 29.02500
N  42.00900 8.32300 28.47300
C  41.06000 7.80200 27.68400
C  41.60700 7.52400 26.23500
C  42.76600 8.57600 26.25100
C  43.00000 8.75300 27.71400
C  42.06900 6.05000 25.87700
C  42.35800 9.82600 25.45200
C  41.51100 10.92400 26.04900
N  43.45300 9.43500 30.58600
C  44.37200 9.64300 29.57500
C  45.57500 10.17300 30.19600
C  45.31400 10.10000 31.57800
C  43.92800 9.73800 31.73500
C  46.85700 10.72800 29.49200
C  45.85400 10.45100 32.87700
O  46.95900 10.91400 33.18500
C  44.71200 10.18600 33.83500
C  45.29300 9.19000 34.85300
O  45.80600 8.12500 34.66000
O  45.09200 9.65100 36.09700
C  45.59900 8.78900 37.20400
H  38.30100 7.45900 33.43000
H  39.26900 7.06500 27.10900
H  44.97200 9.59800 27.57900
H  42.58600 8.57400 35.47700
H  39.57300 8.99200 35.08100
H  39.52500 7.24700 36.42400
H  41.35900 6.95300 36.18000
H  40.26100 6.31100 35.06900
H  42.21000 11.41500 34.95500
H  42.74100 10.61400 36.47800
H  40.04500 10.45500 36.77300
H  40.21900 12.00200 35.79400
H  35.75100 6.68600 31.91800
H  36.96400 5.93700 32.93800
H  36.43500 5.07900 31.48400
H  35.56200 4.95600 29.57700
H  34.80400 5.74500 28.16600
H  34.88800 6.62400 29.59600
H  40.84200 7.79800 25.50900
H  43.62500 8.17400 25.71400
H  43.14300 5.95200 25.71900
H  41.46900 5.71900 25.02900
H  41.89300 5.42800 26.75500
H  41.89200 9.55900 24.50400
H  43.31000 10.26100 25.14700
H  41.02600 10.52200 26.93800
H  40.64800 11.17300 25.43200
H  41.96000 11.87100 26.34800
H  47.66200 11.15300 30.09200
H  46.77100 11.39700 28.63600
H  47.39000 9.83700 29.16000
H  44.47400 11.10400 34.37200
H  45.02400 7.86700 37.28400
H  45.77900 9.32100 38.13800
H  46.58800 8.48200 36.86500
Mg -9.98200 16.97000 41.00600
C  -6.47000 16.50600 41.31200
C  -9.36900 20.37200 40.73700
C  -13.13300 17.43400 40.33500
C  -10.32200 13.45000 41.09500
N  -8.17000 18.24800 41.17900
C  -6.85500 17.85100 41.14400
C  -5.94100 19.01300 40.68900
C  -6.78400 20.24300 41.04600
C  -8.24000 19.61500 41.07700
C  -6.37300 20.90800 42.36900
C  -5.39100 18.95800 39.22400
C  -3.85800 19.02500 38.97100
H  -3.40000 18.13500 37.85900
N  -11.07400 18.66300 40.42900
C  -10.67300 19.97400 40.39400
C  -11.84300 20.90600 40.11700
C  -12.93900 20.01200 40.20600
C  -12.41600 18.66500 40.28400
C  -11.67800 22.40200 40.04800
C  -14.39800 20.47200 40.07200
O  -14.64400 21.69500 40.00800
C  -15.61500 19.55500 40.05700
N  -11.42200 15.53600 40.45700
C  -12.69800 16.04900 40.55600
C  -13.75400 14.93200 40.59000
C  -12.83400 13.63800 40.62600
C  -11.46100 14.20800 40.76700
C  -14.82100 15.07300 41.74200
C  -13.01400 12.55800 39.53800
C  -13.32000 11.16400 40.00500
N  -8.75300 15.32900 41.37500
C  -9.01900 13.95300 41.35700
C  -7.87000 13.18400 41.71000
C  -6.79200 14.10800 41.60500
C  -7.40300 15.38600 41.42000
C  -7.83500 11.72400 42.01700
C  -5.39300 14.24700 41.53700
O  -4.49000 13.41500 41.57800
C  -5.10400 15.78500 41.16400
C  -4.17800 16.25400 42.18900
O  -3.08000 16.75200 41.99600
O  -4.68700 16.15200 43.47800
C  -4.00600 16.60300 44.71600
H  -9.22300 21.45400 40.75800
H  -14.21200 17.45000 40.16800
H  -10.47800 12.37100 41.14600
H  -5.13500 18.87600 41.41000
H  -6.71900 21.00900 40.27400
H  -5.57100 20.44700 42.94500
H  -7.24900 21.03400 43.00600
H  -5.98200 21.88400 42.08100
H  -5.81700 19.76600 38.62900
H  -5.77500 18.04200 38.77500
H  -3.36600 18.70100 39.88900
H  -3.67400 20.04300 38.62700
H  -12.55000 22.85000 39.57100
H  -10.79500 22.59000 39.43800
H  -11.59500 22.77800 41.06800
H  -15.60000 18.92000 39.17100
H  -16.52700 20.14700 39.98500
H  -15.68800 19.14600 41.06400
H  -14.26500 14.95000 39.62800
H  -13.07400 13.08900 41.53700
H  -14.98000 16.03000 42.23900
H  -14.61800 14.35800 42.53900
H  -15.76600 14.76600 41.29400
H  -12.18400 12.48300 38.83600
H  -13.81600 12.81100 38.84400
H  -12.85900 10.41700 39.35900
H  -14.38600 10.93800 39.96500
H  -12.96300 10.95000 41.01300
H  -8.83500 11.37600 42.27600
H  -7.16400 11.30300 42.76600
H  -7.55800 11.23700 41.08200
H  -4.62400 15.89800 40.19200
H  -4.51900 17.51400 45.02400
H  -2.92700 16.71900 44.61900
H  -4.12600 15.95200 45.58200

