158

Mg 42.71100 41.65100 26.68800
C  41.62100 43.67100 29.19300
C  43.98000 39.50800 28.97500
C  43.64700 39.73900 24.07100
C  41.95700 44.19800 24.20200
N  42.87500 41.66700 28.83600
C  42.06400 42.40200 29.64300
C  42.13900 41.95900 31.09000
C  43.07400 40.75800 30.98800
C  43.40900 40.68300 29.51200
C  44.29000 40.79900 31.96800
C  40.75400 41.70400 31.73200
C  40.45200 42.46800 33.05900
H  39.67400 41.80300 34.14700
N  43.66400 39.82900 26.48700
C  44.05800 39.06800 27.62400
C  44.49100 37.77200 27.10700
C  44.31500 37.77800 25.69800
C  43.88300 39.17800 25.36500
C  45.12100 36.76100 27.98800
C  44.52000 36.67900 24.69700
O  44.32800 36.83300 23.49300
C  44.95800 35.24200 25.18600
N  42.89000 41.96300 24.46100
C  43.32500 41.03700 23.68000
C  43.08400 41.29600 22.21800
C  42.60400 42.79500 22.22300
C  42.44500 43.01200 23.74400
C  44.34500 41.04700 21.41200
C  41.40700 42.92400 21.34700
C  40.11600 42.49700 22.06800
N  42.08200 43.52800 26.64900
C  41.73700 44.44800 25.60000
C  41.17500 45.64300 26.18900
C  41.10700 45.38500 27.59600
C  41.65500 44.11100 27.81800
C  40.54000 46.83800 25.47000
C  40.66000 45.93700 28.82200
O  40.13400 47.01200 29.07500
C  40.93300 44.79700 29.93600
C  41.79200 45.44100 30.95600
O  42.97500 45.54500 30.90000
O  41.05100 45.92400 31.97100
C  41.52600 46.60600 33.17300
H  44.35200 38.82500 29.74200
H  43.93300 39.12000 23.21900
H  41.65300 44.93700 23.45900
H  42.64200 42.80100 31.56500
H  42.52300 39.85100 31.23600
H  44.11100 41.47700 32.80300
H  45.10100 41.18000 31.34700
H  44.61600 39.79900 32.25300
H  40.67000 40.67900 32.09400
H  39.94100 41.77600 31.00900
H  39.87100 43.36500 32.84600
H  41.42600 42.83500 33.38200
H  44.42000 35.94400 28.15900
H  45.39400 37.21200 28.94200
H  45.96700 36.40900 27.39800
H  45.96500 35.07200 25.56800
H  44.78500 34.76100 24.22300
H  44.19400 34.91700 25.89300
H  42.34200 40.57600 21.87000
H  43.33800 43.53000 21.89400
H  45.22200 40.92300 22.04800
H  44.64900 41.93900 20.86400
H  44.19200 40.24300 20.69200
H  41.62500 42.33500 20.45600
H  41.37600 43.95600 20.99900
H  39.70700 41.76500 21.37200
H  39.46800 43.36700 22.17500
H  40.23900 41.95100 23.00300
H  39.84500 46.44100 24.73000
H  41.23900 47.54100 25.01800
H  39.99800 47.43300 26.20600
H  40.03500 44.55500 30.50400
H  42.08000 45.86900 33.75400
H  40.63200 47.01000 33.64700
H  42.31200 47.33900 32.98700
Mg -11.08200 38.48000 41.98600
C  -9.47500 35.59500 40.81400
C  -8.53900 40.29100 40.46900
C  -13.03000 41.20500 42.13400
C  -13.85300 36.46100 42.73700
N  -9.19300 37.95900 40.68200
C  -8.74100 36.72100 40.42900
C  -7.45500 36.80700 39.55600
C  -7.17700 38.34400 39.50400
C  -8.32700 38.92700 40.30300
C  -5.83000 38.84400 40.05900
C  -7.69900 36.28400 38.03800
C  -6.66000 35.27600 37.60100
H  -5.83200 35.72200 36.39400
N  -10.78300 40.41700 41.61900
C  -9.67900 41.00200 40.95500
C  -9.84500 42.42100 40.89400
C  -11.12500 42.67800 41.39500
C  -11.74400 41.39800 41.67300
C  -8.77100 43.38500 40.45500
C  -11.76000 44.17300 41.42800
O  -11.10900 45.14300 41.06200
C  -13.20000 44.35000 41.90900
N  -13.12700 38.77200 42.42800
C  -13.70300 39.99500 42.47500
C  -15.20900 39.89200 42.73800
C  -15.45000 38.35300 43.02400
C  -14.07500 37.78300 42.75000
C  -15.60900 40.83500 43.89200
C  -16.55600 37.77500 42.06200
C  -17.67100 36.99800 42.77200
N  -11.53600 36.46000 41.99100
C  -12.62700 35.78600 42.52500
C  -12.40100 34.38800 42.29600
C  -11.27900 34.24700 41.58800
C  -10.70700 35.54900 41.42800
C  -13.28900 33.23700 42.72800
C  -10.37700 33.26800 41.00600
O  -10.36300 32.05100 40.89800
C  -9.15600 34.13900 40.55500
C  -8.03700 33.60200 41.38400
O  -7.01600 33.13400 40.90900
O  -8.28700 33.65000 42.75600
C  -7.22900 33.09600 43.59400
H  -7.82000 40.93400 39.95700
H  -13.75200 42.02300 42.15100
H  -14.69000 35.78200 42.91600
H  -6.73800 36.17300 40.07700
H  -7.51800 38.76100 38.55600
H  -5.29600 39.24800 39.19800
H  -5.27500 38.05800 40.57100
H  -5.98500 39.62400 40.80400
H  -7.71400 37.13100 37.35200
H  -8.66300 35.77400 38.02400
H  -7.20800 34.35100 37.42200
H  -6.02000 35.10200 38.46600
H  -9.18600 44.03500 39.68400
H  -7.88900 42.84600 40.10800
H  -8.43500 43.97000 41.31100
H  -13.50800 43.85400 42.82900
H  -13.84900 43.99300 41.10900
H  -13.33300 45.43100 41.86200
H  -15.72600 40.22300 41.83700
H  -15.71500 38.21100 44.07100
H  -16.10300 40.34500 44.73200
H  -16.35400 41.49800 43.45200
H  -14.69700 41.29100 44.27700
H  -16.17900 37.08600 41.30600
H  -17.01300 38.57500 41.48000
H  -18.59100 37.37000 42.32300
H  -17.60600 37.08500 43.85700
H  -17.66200 35.92300 42.59200
H  -12.90800 32.22200 42.83900
H  -14.08300 33.29600 41.98400
H  -13.54200 33.55100 43.74000
H  -8.97600 33.97100 39.49300
H  -6.24800 33.22000 43.13600
H  -7.42500 32.10400 44.00000
H  -7.17800 33.70800 44.49400

