158

Mg -12.02700 38.08300 42.20600
C  -9.82000 35.28700 41.49500
C  -9.62500 40.10200 40.67100
C  -14.37900 40.44200 42.11300
C  -14.29100 35.74200 43.42300
N  -9.98400 37.67600 41.08500
C  -9.34300 36.49700 40.91800
C  -7.95400 36.69500 40.19000
C  -7.77500 38.33700 40.28800
C  -9.22900 38.76300 40.67400
C  -6.63300 38.94000 41.14000
C  -7.94300 36.13300 38.72800
C  -6.82400 35.06000 38.57200
H  -5.66400 35.31400 37.50300
N  -11.94800 40.03800 41.53400
C  -10.90800 40.67200 40.95900
C  -11.27200 42.07600 40.85100
C  -12.67700 42.24400 41.18100
C  -13.06600 40.84300 41.70900
C  -10.33000 43.16500 40.38600
C  -13.46600 43.57200 41.18200
O  -12.88500 44.65900 41.06800
C  -14.97000 43.61000 41.57500
N  -14.04600 38.00900 42.51700
C  -14.81700 39.15000 42.46300
C  -16.26300 38.82100 42.93200
C  -16.28800 37.27100 43.13900
C  -14.75700 36.97900 42.98900
C  -16.80500 39.65400 44.10800
C  -17.32800 36.37900 42.31100
C  -16.75300 35.78300 40.97200
N  -12.06800 35.97800 42.47100
C  -13.00500 35.24600 43.12900
C  -12.56400 33.90500 43.27800
C  -11.32200 33.85800 42.60700
C  -11.07200 35.19400 42.17800
C  -13.38300 32.83400 43.79900
C  -10.24600 33.04500 42.15300
O  -10.06700 31.83800 42.24000
C  -9.24100 33.91200 41.38800
C  -7.86000 33.74200 42.01300
O  -7.17600 32.76300 41.81100
O  -7.44200 34.82200 42.78500
C  -6.25900 34.58900 43.52900
H  -8.82800 40.79700 40.40000
H  -15.12300 41.23100 42.24500
H  -15.10300 35.02800 43.58000
H  -7.22100 36.23000 40.84900
H  -7.47300 38.63500 39.28400
H  -6.98900 39.87700 41.57000
H  -5.83200 39.10500 40.42000
H  -6.41600 38.24500 41.95000
H  -7.88500 36.95700 38.01700
H  -8.92300 35.70400 38.51700
H  -7.24500 34.06800 38.41200
H  -6.24800 35.03200 39.49700
H  -10.12200 43.85100 41.20700
H  -10.86500 43.76400 39.64900
H  -9.38500 42.80300 39.98300
H  -15.32000 43.31200 42.56400
H  -15.45700 42.87000 40.94000
H  -15.31700 44.60000 41.27800
H  -16.89500 38.97900 42.05800
H  -16.48400 37.05900 44.19000
H  -17.13800 38.98400 44.90000
H  -17.61300 40.28100 43.72900
H  -16.04700 40.35000 44.46800
H  -18.15900 37.00000 41.97700
H  -17.78000 35.62000 42.94900
H  -16.96800 34.72100 40.84700
H  -15.66900 35.77100 40.86200
H  -17.18200 36.21300 40.06700
H  -14.39100 32.88400 43.38800
H  -13.29000 32.82400 44.88500
H  -13.01700 31.86100 43.47200
H  -9.12300 33.56900 40.36000
H  -5.96200 33.54500 43.62800
H  -6.31700 34.96000 44.55300
H  -5.37900 35.09300 43.12900
Mg -5.93500 24.86000 25.90300
C  -4.45900 26.01400 28.94100
C  -7.88300 22.85800 27.86500
C  -7.06300 23.54800 23.13700
C  -3.35300 26.58200 24.13900
N  -6.02800 24.34700 28.24000
C  -5.49700 25.09400 29.23700
C  -6.07600 24.77400 30.55800
C  -6.94000 23.46300 30.21600
C  -6.99000 23.59500 28.66200
C  -6.28500 22.09700 30.53800
C  -6.93900 25.98200 31.15900
C  -6.52200 26.36200 32.56800
H  -5.86200 25.31700 33.49800
N  -7.36500 23.41300 25.51200
C  -8.04700 22.67000 26.44400
C  -8.83500 21.76800 25.75600
C  -8.74100 21.97100 24.36600
C  -7.72200 23.06700 24.25800
C  -9.67100 20.67200 26.46300
C  -9.38200 21.33600 23.25600
O  -9.14200 21.70300 22.10300
C  -10.38400 20.22200 23.46200
N  -5.32600 25.08800 23.94500
C  -5.94900 24.40100 22.94900
C  -5.44500 24.83000 21.55600
C  -4.30100 25.79800 21.88500
C  -4.32300 25.83300 23.42400
C  -4.87800 23.62900 20.77300
C  -4.51400 27.24100 21.27900
C  -3.47800 27.58100 20.20200
N  -4.40100 26.10500 26.34500
C  -3.40000 26.70400 25.54300
C  -2.50800 27.45100 26.35700
C  -2.92600 27.26400 27.68800
C  -4.05000 26.43200 27.62600
C  -1.34200 28.35000 25.86700
C  -2.72600 27.60900 29.11200
O  -1.88200 28.33900 29.67300
C  -3.72600 26.78600 29.97400
C  -2.85700 25.98900 30.90300
O  -2.34700 24.90100 30.61400
O  -2.62500 26.66600 32.04100
C  -1.52600 26.32800 32.93500
H  -8.44600 22.09800 28.41100
H  -7.37600 23.12800 22.17900
H  -2.64000 27.10900 23.50100
H  -5.32900 24.49200 31.30000
H  -7.96800 23.44900 30.57600
H  -7.05700 21.55000 31.08000
H  -5.48600 22.30200 31.25000
H  -6.03900 21.54400 29.63100
H  -7.99700 25.72900 31.22100
H  -6.91800 26.83800 30.48500
H  -7.25200 26.81400 33.23800
H  -5.73500 27.07000 32.30700
H  -10.73500 20.89200 26.37100
H  -9.38700 20.58900 27.51200
H  -9.41900 19.71000 26.01900
H  -10.71200 20.06900 22.43400
H  -11.24800 20.63100 23.98600
H  -10.03900 19.27300 23.87300
H  -6.18600 25.36600 20.96300
H  -3.35000 25.30800 21.67500
H  -5.21000 23.71500 19.73800
H  -5.30600 22.72200 21.19900
H  -3.79300 23.52500 20.78300
H  -4.48900 28.06400 21.99300
H  -5.44100 27.36300 20.72000
H  -2.72500 26.79600 20.13400
H  -2.99900 28.54300 20.37900
H  -4.00100 27.61800 19.24600
H  -1.68200 29.34800 25.59300
H  -0.85400 27.98100 24.96400
H  -0.80500 28.39300 26.81500
H  -4.23300 27.56300 30.54700
H  -0.73000 27.04800 32.74700
H  -1.15100 25.32900 32.71200
H  -1.85000 26.37800 33.97400

