158

Mg 9.74700 4.21000 27.57500
C  10.88300 2.83600 30.39100
C  7.84200 6.48100 29.39300
C  8.67700 5.62300 24.68100
C  11.04300 1.51900 25.67400
N  9.34300 4.48800 29.65100
C  9.98200 3.88700 30.62600
C  9.69500 4.52900 32.07100
C  8.60700 5.54200 31.70000
C  8.52500 5.48700 30.19700
C  7.16100 5.40600 32.31500
C  10.99100 5.17800 32.63000
C  11.49100 4.59400 33.89400
H  11.83800 5.51500 35.12200
N  8.51100 5.82000 27.09900
C  7.79500 6.62400 27.98700
C  7.15700 7.72400 27.26600
C  7.47000 7.58800 25.85500
C  8.30300 6.34500 25.80300
C  6.24600 8.70300 27.98200
C  6.97900 8.31200 24.66000
O  7.35600 7.98000 23.55400
C  6.04100 9.52800 24.75700
N  9.73300 3.58000 25.42800
C  9.35200 4.42700 24.47700
C  9.83100 3.95500 23.14000
C  10.61600 2.64400 23.47900
C  10.37300 2.51100 24.92900
C  8.63000 3.72900 22.18500
C  12.13500 2.78800 23.13700
C  12.39100 2.88600 21.62900
N  10.66100 2.42100 27.93200
C  11.27700 1.52900 27.07900
C  12.07800 0.67300 27.88000
C  12.02100 1.15700 29.22200
C  11.11700 2.21700 29.14000
C  13.01300 -0.43500 27.42900
C  12.53800 0.93900 30.48000
O  13.33300 0.12000 30.90200
C  11.81100 2.04500 31.34900
C  11.16700 1.39900 32.56200
O  9.95400 1.18700 32.55600
O  12.06000 1.20400 33.56400
C  11.31500 0.77100 34.83100
H  7.44800 7.35500 29.91600
H  8.50700 5.95400 23.65400
H  11.54300 0.71400 25.13100
H  9.16200 3.80500 32.68700
H  8.98500 6.52300 31.98800
H  6.32200 5.61500 31.65100
H  7.16800 6.25400 33.00000
H  6.93800 4.46400 32.81600
H  10.76200 6.23900 32.72700
H  11.80400 5.16500 31.90400
H  12.42300 4.11600 33.59300
H  10.73400 3.89600 34.25300
H  6.32600 9.65400 27.45500
H  6.55100 8.85800 29.01700
H  5.26400 8.23500 28.04800
H  5.82600 9.90500 23.75700
H  6.51500 10.33200 25.32100
H  5.11700 9.20000 25.23200
H  10.51300 4.67100 22.68100
H  10.13600 1.77400 23.03000
H  8.41400 2.70600 21.87600
H  8.83400 4.18900 21.21800
H  7.67100 4.00800 22.62300
H  12.66300 1.86400 23.37300
H  12.50500 3.65900 23.67700
H  12.93200 2.06100 21.16600
H  12.94200 3.82200 21.53100
H  11.51600 3.05300 21.00000
H  12.65100 -0.74000 26.44700
H  12.98800 -1.23600 28.16900
H  14.06600 -0.19800 27.28400
H  12.52000 2.72500 31.82000
H  10.71000 -0.12300 34.68000
H  10.66900 1.58500 35.15700
H  11.99100 0.47500 35.63300
Mg 0.29600 43.67700 25.93000
C  2.47200 43.92600 28.67900
C  -2.16400 42.72700 28.14400
C  -1.62700 42.96500 23.29700
C  3.08900 43.97800 23.77100
N  0.16300 43.50000 28.14500
C  1.14700 43.76800 29.05400
C  0.64700 43.83600 30.47700
C  -0.83500 43.25100 30.39200
C  -0.99700 43.09400 28.81400
C  -1.17100 41.95100 31.22200
C  0.69000 45.22400 31.22500
C  0.81100 45.39000 32.81800
H  0.57800 44.08700 33.59800
N  -1.64100 42.98200 25.82300
C  -2.50700 42.70000 26.79000
C  -3.83600 42.29200 26.21000
C  -3.63400 42.23900 24.82200
C  -2.26600 42.74200 24.59200
C  -4.99900 42.10300 27.07400
C  -4.67200 41.84700 23.66000
O  -4.39100 41.74300 22.46000
C  -6.11400 41.46000 24.10500
N  0.69100 43.54000 23.88000
C  -0.31400 43.34400 23.05600
C  0.25100 43.44000 21.57100
C  1.67300 43.96600 21.70600
C  1.82900 43.80200 23.20900
C  0.08000 42.14300 20.72100
C  1.82300 45.44700 21.30700
C  1.20200 46.59700 22.17000
N  2.34300 44.03500 26.09900
C  3.33500 44.16600 25.12900
C  4.65900 44.30700 25.83800
C  4.43400 44.22200 27.19000
C  2.96500 44.02600 27.28600
C  6.00900 44.52200 25.16400
C  4.95100 44.16500 28.55100
O  6.10000 44.15500 29.02000
C  3.76900 44.08600 29.56100
C  4.06700 42.79500 30.26400
O  4.26500 41.67100 29.82600
O  3.95100 43.10200 31.63300
C  4.34000 42.01400 32.54600
H  -3.03600 42.45900 28.74300
H  -2.30000 42.93900 22.43800
H  3.72300 44.03100 22.88300
H  1.16600 43.05500 31.03200
H  -1.53100 44.04500 30.66300
H  -1.47900 41.23600 30.45900
H  -1.91500 42.14500 31.99500
H  -0.24100 41.59700 31.66600
H  -0.21600 45.76600 30.95300
H  1.52100 45.70300 30.70900
H  0.09900 46.15700 33.12300
H  1.84000 45.72800 32.94700
H  -5.88900 42.54300 26.62400
H  -4.87600 42.67000 27.99700
H  -5.25900 41.13400 27.50100
H  -5.94300 40.71400 24.88000
H  -6.57100 40.99600 23.23100
H  -6.61100 42.35300 24.48400
H  -0.24200 44.32800 21.17500
H  2.42300 43.41000 21.14400
H  -0.56400 41.41100 21.20800
H  0.98300 41.63700 20.37900
H  -0.49700 42.45900 19.85200
H  1.36400 45.44200 20.31800
H  2.86800 45.68500 21.11200
H  0.78600 46.24000 23.11100
H  0.43500 46.92100 21.46600
H  1.96600 47.36400 22.29700
H  6.54000 43.57100 25.20400
H  6.57300 45.22800 25.77300
H  5.82100 44.82500 24.13400
H  3.75700 44.98200 30.18100
H  5.39800 41.88000 32.31800
H  3.94900 41.03400 32.27200
H  4.16800 42.39500 33.55300

