158

Mg 48.43300 46.15800 42.67400
C  45.36400 44.87200 41.85000
C  49.80800 43.00400 41.72900
C  51.60200 47.28300 43.00300
C  47.14100 49.25400 43.04700
N  47.68600 44.21000 41.57500
C  46.32400 43.94700 41.51700
C  46.02400 42.53600 40.96700
C  47.46200 41.90700 41.38200
C  48.47300 43.09100 41.45100
C  47.47600 41.04800 42.70600
C  45.46700 42.48200 39.55200
C  44.42400 41.31100 39.22400
H  44.56000 40.64600 37.86500
N  50.43700 45.30400 42.41600
C  50.72700 44.02800 41.94100
C  52.12100 43.86000 41.83300
C  52.71600 45.12800 42.28000
C  51.58500 45.94900 42.54500
C  52.74900 42.54300 41.37000
C  54.23300 45.48000 42.24600
O  55.04100 44.55500 42.12700
C  54.78900 46.79700 42.47700
N  49.27300 48.05500 42.69100
C  50.60400 48.24500 43.00200
C  50.91800 49.72000 43.22100
C  49.52900 50.32100 42.89600
C  48.54700 49.12400 42.83800
C  51.57900 50.00100 44.64300
C  49.49300 51.14800 41.56500
C  49.68900 52.60900 41.79400
N  46.64600 46.87100 42.67500
C  46.19400 48.20500 42.87100
C  44.75100 48.25000 42.88800
C  44.40100 46.87800 42.57100
C  45.62100 46.19300 42.31100
C  43.92800 49.40500 43.35800
C  43.26800 45.99100 42.36600
O  42.02400 46.09500 42.41500
C  43.81900 44.61400 41.82700
C  43.39900 43.48100 42.71100
O  42.41700 42.77500 42.45800
O  44.14400 43.40500 43.80700
C  43.58600 42.46100 44.80000
H  50.21600 42.01400 41.51500
H  52.57600 47.71900 43.23100
H  46.72300 50.25900 43.13600
H  45.20700 42.10600 41.54600
H  47.87600 41.32100 40.56100
H  47.62800 41.62000 43.62100
H  48.26200 40.29400 42.75500
H  46.52300 40.51800 42.72400
H  46.20900 42.35900 38.76400
H  45.06000 43.47900 39.38000
H  43.40800 41.66200 39.40800
H  44.53100 40.54700 39.99400
H  52.45600 42.38000 40.33300
H  52.46100 41.65500 41.93300
H  53.83300 42.65600 41.37300
H  54.28700 47.59200 41.92500
H  55.84000 46.71900 42.20200
H  54.68400 46.96400 43.54900
H  51.56700 49.99000 42.38800
H  49.29500 50.86500 43.81100
H  52.28600 49.18400 44.78600
H  50.76300 49.91900 45.36100
H  52.07100 50.97200 44.58500
H  48.57800 50.94700 41.00800
H  50.35100 50.87400 40.95000
H  49.39500 52.80700 42.82500
H  49.05000 53.01800 41.01100
H  50.71100 52.96300 41.66600
H  44.44500 50.35500 43.48900
H  43.43600 49.19800 44.30800
H  43.16200 49.38800 42.58200
H  43.56700 44.42000 40.78400
H  43.55700 41.38300 44.64400
H  42.59100 42.74400 45.14400
H  44.30800 42.66200 45.59200
Mg 30.45100 58.24100 40.24100
C  27.73900 56.19100 39.39400
C  32.48300 55.54300 40.08400
C  33.00000 60.37500 40.08300
C  28.11500 60.94300 40.70300
N  30.18400 56.14400 39.35600
C  28.97700 55.51500 39.29000
C  29.19400 54.05500 38.98900
C  30.51800 53.75500 39.70200
C  31.12000 55.22300 39.78200
C  30.48000 53.09600 41.06600
C  29.24600 53.80800 37.48500
C  28.04000 52.95100 37.00400
H  27.24100 53.52600 35.86000
N  32.51700 58.01800 40.04800
C  33.17100 56.79300 40.03400
C  34.60400 57.06700 39.86700
C  34.77800 58.51200 39.92900
C  33.37800 59.06000 39.95000
C  35.65500 55.99900 39.63600
C  36.09900 59.19500 40.03200
O  37.11500 58.49900 40.14200
C  36.25500 60.66800 39.99900
N  30.54200 60.35100 40.35200
C  31.73900 60.95100 40.19000
C  31.51400 62.51900 40.24800
C  30.00900 62.69000 40.67000
C  29.52100 61.24000 40.57600
C  32.54600 63.26200 41.04800
C  29.31700 63.75500 39.81400
C  28.21100 64.55700 40.54800
N  28.32300 58.57100 40.09200
C  27.53200 59.68100 40.41400
C  26.13800 59.28200 40.31000
C  26.14100 57.95300 39.91200
C  27.53400 57.50600 39.83800
C  24.89800 60.14400 40.37400
C  25.30400 56.76700 39.53300
O  24.09500 56.67700 39.36800
C  26.28700 55.55700 39.23200
C  26.04000 54.48900 40.26000
O  26.62800 54.46700 41.30200
O  25.16000 53.48500 39.77000
C  24.95000 52.49500 40.84100
H  33.14400 54.68600 40.22900
H  33.76500 61.14800 39.98500
H  27.43000 61.78200 40.84000
H  28.43300 53.39100 39.40100
H  31.21600 53.16200 39.11200
H  31.47100 53.21600 41.50500
H  30.32400 52.04000 40.84700
H  29.67100 53.41400 41.72200
H  30.09800 53.17700 37.23300
H  29.44000 54.71300 36.90900
H  27.30100 52.80900 37.79300
H  28.33500 51.92800 36.76900
H  36.32300 56.53900 38.96500
H  35.24100 55.12000 39.14300
H  36.15200 55.62100 40.52900
H  36.01900 61.21200 39.08400
H  37.20100 61.01700 40.41300
H  35.61000 61.11900 40.75300
H  31.56200 62.86600 39.21500
H  29.93100 63.02100 41.70500
H  33.49200 63.35300 40.51500
H  32.72900 62.78200 42.00900
H  32.00100 64.17500 41.29000
H  28.94900 63.22500 38.93500
H  30.09100 64.45600 39.50200
H  28.44300 65.61000 40.38800
H  28.28800 64.49500 41.63400
H  27.23800 64.37900 40.09000
H  24.62800 60.47500 39.37100
H  25.01200 60.96400 41.08300
H  24.14700 59.43100 40.71400
H  26.16300 55.16000 38.22500
H  25.84200 51.90900 41.05900
H  24.25400 51.76000 40.43800
H  24.43700 52.99800 41.66100

