158

Mg 47.39200 44.96200 43.28800
C  43.90800 44.30500 43.47200
C  47.91900 41.70500 42.78100
C  50.62200 45.71600 42.94100
C  46.50900 48.36500 43.01300
N  46.03800 43.14300 43.26000
C  44.66300 43.08900 43.37300
C  44.16200 41.59400 43.21100
C  45.60300 40.81900 43.25100
C  46.61700 41.96300 43.10700
C  45.88700 39.88700 44.52600
C  43.30400 41.17200 41.95100
C  43.64000 41.99400 40.69200
H  43.11700 41.47600 39.31200
N  49.07900 43.84700 42.97300
C  49.07800 42.47800 42.85900
C  50.47000 41.94700 42.71000
C  51.30100 43.13300 42.83300
C  50.38800 44.33000 43.00000
C  50.76500 40.37300 42.66800
C  52.77900 43.17100 42.77800
O  53.40300 42.12100 42.57000
C  53.59700 44.35900 43.01300
N  48.40800 46.70900 42.97900
C  49.76800 46.81500 43.03100
C  50.20400 48.31500 43.03900
C  48.90900 49.13600 42.80300
C  47.87300 48.02100 42.87300
C  51.01600 48.67500 44.28600
C  48.67700 49.87200 41.38700
C  48.40700 51.36800 41.60200
N  45.62600 46.18200 43.20800
C  45.42900 47.55200 43.09500
C  44.02200 47.86200 43.07300
C  43.41700 46.62700 43.27400
C  44.39000 45.64800 43.33900
C  43.35400 49.18900 42.81500
C  42.09400 45.99300 43.49200
O  40.96400 46.43300 43.56800
C  42.41300 44.42300 43.55600
C  41.96800 44.04500 44.87900
O  42.47100 44.40000 45.90100
O  41.01700 42.97800 44.80200
C  40.70000 42.38400 46.11000
H  48.08200 40.64000 42.60300
H  51.63300 46.12300 42.88600
H  46.27700 49.43100 42.99500
H  43.67000 41.42500 44.16900
H  45.73000 40.13000 42.41600
H  44.90500 39.82600 44.99500
H  46.62700 40.38800 45.15000
H  46.25400 38.88700 44.29400
H  42.24600 41.29300 42.18300
H  43.41000 40.09400 41.82300
H  44.71900 42.14400 40.66300
H  43.13800 42.95100 40.83300
H  51.80100 40.12900 42.90500
H  50.74400 39.87200 41.70000
H  50.00600 39.90600 43.29500
H  53.33900 45.28500 42.49900
H  54.61800 44.07500 42.75900
H  53.66200 44.50300 44.09100
H  50.91900 48.43100 42.22500
H  48.72800 49.74900 43.68600
H  51.62500 49.54300 44.03000
H  51.69900 47.89300 44.61800
H  50.34600 48.94300 45.10300
H  47.89400 49.37200 40.81700
H  49.61100 49.76800 40.83400
H  49.18000 51.93400 41.08200
H  48.35100 51.66800 42.64800
H  47.38500 51.48200 41.24300
H  42.36500 49.13400 43.27000
H  43.22200 49.35000 41.74500
H  43.91300 50.05600 43.16800
H  41.94100 43.91500 42.71500
H  41.56200 42.13700 46.73100
H  40.24100 41.43100 45.84700
H  40.03800 42.95300 46.76200
Mg 30.30100 59.37800 39.15700
C  27.18300 58.06200 38.25500
C  31.74900 56.53500 38.02100
C  33.15100 60.99400 39.44600
C  28.65900 62.49600 39.87200
N  29.55800 57.53200 38.21900
C  28.22000 57.20300 37.92300
C  28.18600 55.81100 37.20200
C  29.63100 55.22500 37.36700
C  30.36300 56.49300 37.94500
C  29.72100 53.94600 38.28400
C  27.67700 55.93800 35.71400
C  26.77600 54.79200 35.18100
H  25.87100 55.05400 33.98100
N  32.17400 58.86900 38.87300
C  32.64400 57.63200 38.42100
C  34.07900 57.60200 38.48700
C  34.52500 58.88500 38.90000
C  33.27400 59.66900 39.10100
C  34.82900 56.50100 37.97900
C  35.93600 59.21400 38.94100
O  36.78000 58.44600 38.57600
C  36.56500 60.45100 39.55200
N  30.82500 61.44200 39.60500
C  32.07100 61.81100 39.74400
C  32.22800 63.34300 40.03100
C  30.75000 63.73000 40.42400
C  30.03700 62.47900 39.85800
C  33.18400 63.82300 41.20200
C  30.26000 65.02300 39.61500
C  29.24200 65.93700 40.29900
N  28.36600 60.21100 39.06500
C  27.87800 61.44800 39.37500
C  26.47300 61.52700 39.28800
C  26.11000 60.19500 38.90100
C  27.33700 59.44200 38.75300
C  25.51800 62.63400 39.65400
C  25.09200 59.29100 38.50100
O  23.87800 59.52000 38.43000
C  25.71600 57.96100 38.11500
C  25.19700 56.83600 38.92000
O  25.18400 56.73200 40.14100
O  24.70700 55.87300 38.05000
C  24.34700 54.61100 38.75300
H  32.15700 55.56800 37.72000
H  34.13900 61.41500 39.64400
H  28.24100 63.47200 40.12900
H  27.43800 55.26200 37.77500
H  30.12100 55.01500 36.41500
H  28.77100 53.69400 38.75500
H  30.54400 54.09600 38.98300
H  29.99600 53.16900 37.57000
H  28.58900 55.92600 35.11600
H  27.09600 56.84500 35.54800
H  26.18700 54.68100 36.09100
H  27.40400 53.91100 35.05200
H  35.57300 56.80300 37.24100
H  34.22700 55.65800 37.64100
H  35.32900 56.14600 38.87900
H  37.53000 60.16700 39.97100
H  35.90300 60.75100 40.36400
H  36.55600 61.31300 38.88500
H  32.61000 63.76100 39.10000
H  30.61400 63.76300 41.50500
H  33.91000 63.01900 41.32800
H  32.74600 64.04200 42.17500
H  33.65000 64.67900 40.71300
H  29.73400 64.64800 38.73600
H  31.10700 65.58800 39.22700
H  29.26300 65.78200 41.37800
H  28.25600 65.61400 39.96400
H  29.55900 66.94400 40.03100
H  24.52200 62.27500 39.39600
H  25.93000 63.50600 39.14800
H  25.62300 62.72800 40.73500
H  25.47900 57.79600 37.06400
H  24.05600 53.88300 37.99700
H  23.44900 54.76400 39.35200
H  25.07700 54.15600 39.42200

