158

Mg 41.49900 7.35300 29.59100
C  43.38100 8.99000 31.96900
C  39.45600 6.22300 32.04500
C  39.71700 5.72100 27.28400
C  44.17800 7.66700 27.36100
N  41.55600 7.52500 31.78300
C  42.25700 8.39700 32.53600
C  41.80300 8.39800 33.97700
C  40.71300 7.29500 34.00000
C  40.56200 6.95200 32.56500
C  41.15200 6.04700 34.83400
C  41.41400 9.78200 34.52700
C  40.68800 9.81600 35.91300
H  41.25900 10.75600 36.92900
N  39.79400 6.20000 29.62000
C  39.03100 5.84500 30.72800
C  37.91700 5.14600 30.31900
C  37.86000 5.27500 28.93100
C  39.13000 5.75000 28.59000
C  37.03700 4.33000 31.26500
C  36.82100 4.84500 27.96800
O  36.96300 4.80200 26.75300
C  35.48500 4.31700 28.49300
N  41.95400 6.67600 27.61300
C  41.02500 6.11900 26.84700
C  41.53900 5.93900 25.39200
C  42.97700 6.62100 25.38700
C  43.06700 6.98100 26.89400
C  41.54900 4.52600 24.79000
C  43.17200 7.83200 24.42600
C  42.61500 9.16300 24.77900
N  43.39000 8.21700 29.60400
C  44.36500 8.28700 28.65100
C  45.45800 9.11200 29.09500
C  45.11300 9.44800 30.42500
C  43.88700 8.80700 30.71000
C  46.63200 9.45200 28.26200
C  45.60800 10.10200 31.58100
O  46.67900 10.72400 31.76800
C  44.47100 9.82500 32.66000
C  45.06600 9.11400 33.76200
O  45.03000 7.92200 33.96700
O  45.76800 10.00200 34.57100
C  46.25900 9.39100 35.79500
H  38.72300 5.92000 32.79600
H  39.20400 5.26900 26.43300
H  44.72100 7.99200 26.47100
H  42.73700 8.19600 34.50100
H  39.72000 7.64000 34.28600
H  41.28200 5.24600 34.10600
H  40.33500 5.75000 35.49100
H  42.09300 6.20200 35.36300
H  40.79800 10.30900 33.79900
H  42.32300 10.38200 34.57100
H  40.55700 8.83700 36.37300
H  39.64300 10.11200 35.82900
H  37.51700 4.38100 32.24200
H  37.00200 3.27200 31.00600
H  36.02100 4.71000 31.37300
H  35.59400 3.34600 28.97700
H  34.87700 4.09100 27.61700
H  34.86200 4.88700 29.18200
H  40.84400 6.48200 24.75100
H  43.74900 5.86200 25.25400
H  41.99100 4.54800 23.79400
H  40.63700 3.92800 24.80100
H  42.20400 3.94000 25.43600
H  42.92500 7.50900 23.41500
H  44.24700 8.00900 24.38900
H  41.83800 8.95000 25.51400
H  42.07700 9.61100 23.94400
H  43.35100 9.85700 25.18600
H  47.20200 8.52500 28.20200
H  47.28200 10.14800 28.79300
H  46.33000 9.89300 27.31200
H  44.05100 10.76400 33.01900
H  47.01700 8.66100 35.51200
H  45.53500 9.08700 36.55100
H  46.87400 10.13800 36.29600
Mg -11.45900 17.16700 42.83400
C  -8.10600 17.46700 43.15800
C  -11.72900 20.52600 42.09400
C  -14.83800 16.75600 42.13800
C  -11.03200 13.70100 42.90600
N  -10.09300 18.68800 42.54600
C  -8.74500 18.61100 42.76500
C  -8.03300 19.89200 42.24300
C  -9.18600 20.88900 42.03000
C  -10.43800 20.04900 42.27800
C  -9.16100 22.21600 42.91600
C  -7.10800 19.62000 41.03600
C  -5.63000 20.15700 41.10000
H  -5.15700 21.01000 39.96900
N  -13.04700 18.51200 42.47000
C  -12.96500 19.88400 42.23400
C  -14.25400 20.45600 42.03500
C  -15.15900 19.38700 42.07700
C  -14.34700 18.10900 42.15000
C  -14.46300 21.87500 41.57300
C  -16.69800 19.54100 41.96900
O  -17.28200 20.60500 41.77100
C  -17.70500 18.35700 42.13400
N  -12.79800 15.52100 42.56400
C  -14.13300 15.59900 42.46400
C  -14.77400 14.20500 42.67600
C  -13.50700 13.31600 42.31200
C  -12.34400 14.22200 42.49500
C  -15.27500 14.01100 44.17500
C  -13.38500 12.72400 40.85400
C  -13.58100 11.23200 40.83000
N  -9.86100 15.76200 42.84300
C  -9.86900 14.41700 42.97300
C  -8.55100 13.91100 43.18900
C  -7.80700 15.08300 43.34100
C  -8.65700 16.17400 43.09400
C  -8.01200 12.53600 43.21500
C  -6.46000 15.59200 43.49600
O  -5.42300 14.99100 43.56900
C  -6.59700 17.15400 43.44600
C  -6.21500 17.76100 44.75300
O  -6.66300 17.39400 45.82800
O  -5.30500 18.72000 44.59400
C  -4.92600 19.51400 45.71700
H  -11.78900 21.61100 41.98800
H  -15.89200 16.58000 41.91300
H  -10.83600 12.63100 43.00000
H  -7.42200 20.35000 43.02100
H  -9.29400 21.16800 40.98200
H  -9.64400 22.93200 42.25100
H  -8.16000 22.60000 43.11200
H  -9.71100 22.15200 43.85500
H  -7.62500 19.96000 40.13800
H  -7.00100 18.53900 40.94400
H  -5.04600 19.23700 41.13700
H  -5.59500 20.75100 42.01300
H  -13.57900 22.50100 41.45300
H  -15.16700 22.41700 42.20500
H  -14.92900 21.79600 40.59100
H  -17.77400 17.80000 41.20000
H  -18.69900 18.74200 42.36100
H  -17.27500 17.79600 42.96400
H  -15.52800 14.02700 41.90900
H  -13.48500 12.47600 43.00600
H  -15.37000 15.01400 44.59000
H  -14.65800 13.29900 44.72300
H  -16.24800 13.51900 44.17200
H  -12.42600 12.80400 40.34300
H  -14.17700 13.25700 40.32800
H  -14.01000 10.74200 41.70400
H  -12.62900 10.76500 40.58000
H  -14.33700 11.15700 40.04800
H  -6.92600 12.53700 43.11500
H  -8.44300 12.07400 42.32700
H  -8.30100 12.21500 44.21600
H  -5.85400 17.41800 42.69300
H  -5.63800 20.33800 45.76900
H  -4.05500 20.09200 45.40900
H  -4.74400 19.12500 46.71800

