158

Mg 24.84200 -7.32600 47.65700
C  27.50900 -5.10600 46.68700
C  23.03400 -5.94500 44.98200
C  22.74100 -9.77500 48.01100
C  27.20900 -9.00300 49.74200
N  25.25500 -5.69500 46.12500
C  26.35300 -4.94200 45.88000
C  26.04300 -3.92700 44.74800
C  24.49900 -3.89900 44.74700
C  24.22600 -5.34100 45.26400
C  23.94100 -2.84200 45.72600
C  26.68000 -4.42400 43.36300
C  27.41300 -3.31700 42.53400
H  26.86300 -3.12800 41.10000
N  23.13800 -7.74700 46.75900
C  22.57000 -7.11300 45.60500
C  21.34900 -7.82100 45.15100
C  21.15600 -8.84900 46.12900
C  22.35100 -8.83900 47.05400
C  20.49500 -7.47800 43.88900
C  19.94600 -9.81200 46.08900
O  18.98600 -9.73800 45.26000
C  19.86200 -11.01500 47.06300
N  24.93400 -9.14500 48.76600
C  23.82400 -9.93400 48.85100
C  24.10800 -11.11700 49.77600
C  25.42500 -10.70400 50.47700
C  26.01300 -9.67900 49.53000
C  22.99100 -11.70100 50.59600
C  26.41700 -11.78100 50.80500
C  27.03300 -11.74100 52.23100
N  26.90500 -7.09100 48.25800
C  27.73000 -7.83200 49.06100
C  29.00500 -7.12500 49.21000
C  28.94700 -6.03100 48.31500
C  27.66500 -6.08700 47.72500
C  30.22900 -7.52800 49.99800
C  29.65600 -4.90200 47.74500
O  30.71800 -4.37600 47.97300
C  28.76800 -4.27000 46.61600
C  28.54000 -2.82000 46.80800
O  28.15900 -2.33500 47.84500
O  28.77300 -2.27200 45.58300
C  28.38400 -0.89800 45.51800
H  22.34900 -5.50900 44.25200
H  21.97600 -10.54200 48.14300
H  27.87600 -9.28700 50.55900
H  26.39600 -2.92000 44.96900
H  24.05100 -3.73600 43.76700
H  23.32700 -2.18900 45.10600
H  24.62800 -2.18500 46.26000
H  23.21300 -3.36200 46.34800
H  25.97700 -4.96100 42.72600
H  27.39800 -5.18000 43.68300
H  28.48400 -3.48200 42.41300
H  27.18800 -2.36500 43.01300
H  19.85400 -8.25800 43.47800
H  21.26300 -7.10800 43.21000
H  19.95400 -6.55700 44.10600
H  19.96200 -10.67600 48.09400
H  20.66300 -11.69300 46.77100
H  18.85300 -11.42400 47.01200
H  24.45700 -11.91300 49.11600
H  25.14600 -10.17200 51.38600
H  22.56100 -12.46200 49.94600
H  22.23100 -10.92700 50.70800
H  23.37300 -12.06200 51.55100
H  27.13700 -11.81400 49.98700
H  25.94500 -12.76400 50.81100
H  27.87100 -11.04300 52.25000
H  27.26300 -12.73800 52.60600
H  26.32600 -11.31100 52.94000
H  30.03000 -7.34900 51.05500
H  31.12300 -7.01500 49.64100
H  30.30000 -8.60100 49.82100
H  29.29100 -4.51100 45.69000
H  27.66200 -0.74500 44.71700
H  29.24700 -0.28500 45.25800
H  27.93600 -0.50200 46.42900
Mg 36.35600 49.71400 24.65600
C  36.24400 47.88300 27.76900
C  35.12300 52.44400 26.26300
C  35.87900 51.11700 21.56200
C  37.28600 46.68100 23.14800
N  35.85100 50.11700 26.74400
C  35.86400 49.22000 27.84900
C  35.52600 50.03000 29.17000
C  34.90300 51.36400 28.64600
C  35.32100 51.33500 27.09300
C  33.37100 51.49400 28.82500
C  36.70200 50.11600 30.16600
C  36.31000 50.15500 31.66100
H  34.86900 49.81600 32.01000
N  35.68500 51.59000 24.05000
C  35.29900 52.58100 24.83500
C  34.97100 53.74900 23.97100
C  35.14700 53.41700 22.64500
C  35.69000 52.01100 22.68900
C  34.33900 55.10400 24.60800
C  34.85800 54.30100 21.41100
O  34.93700 53.85300 20.28400
C  34.54000 55.77400 21.50400
N  36.54500 49.03100 22.62600
C  36.25300 49.75500 21.53300
C  36.39900 48.88900 20.26900
C  37.21600 47.62500 20.83700
C  36.97500 47.73400 22.29100
C  35.06800 48.66200 19.50200
C  38.67300 47.62200 20.37700
C  39.04900 46.29200 19.63000
N  36.74500 47.65800 25.25100
C  37.13200 46.58500 24.49400
C  37.47800 45.45200 25.32500
C  37.13400 45.94400 26.65500
C  36.63000 47.27700 26.52900
C  38.17100 44.09200 25.06800
C  37.16900 45.60100 28.07100
O  37.54800 44.56400 28.52600
C  36.61300 46.79100 28.79700
C  35.50300 46.43800 29.61800
O  34.32600 46.51600 29.35600
O  36.01200 45.70200 30.68100
C  34.97200 45.18000 31.58000
H  34.73000 53.35700 26.71600
H  35.69600 51.57300 20.58700
H  37.51500 45.69900 22.72900
H  34.77500 49.36100 29.59000
H  35.33500 52.21500 29.17300
H  33.01300 50.63400 29.39000
H  32.93500 51.38900 27.83100
H  33.03500 52.44500 29.23800
H  37.28300 51.00700 29.92500
H  37.40600 49.28600 30.10300
H  36.66100 51.10800 32.05700
H  36.92300 49.41100 32.17000
H  33.95100 54.87700 25.60100
H  33.50500 55.46400 24.00600
H  35.19600 55.77600 24.64600
H  35.28500 56.15800 22.20000
H  33.46200 55.86800 21.63500
H  34.79900 56.07700 20.49000
H  37.04100 49.47800 19.61400
H  36.69600 46.72300 20.51300
H  34.25600 49.17700 20.01500
H  34.87900 47.59800 19.36300
H  35.18300 49.12100 18.52000
H  39.43500 47.69400 21.15400
H  38.82600 48.46800 19.70700
H  38.21600 45.61700 19.43700
H  39.88300 45.74300 20.06800
H  39.39000 46.61200 18.64500
H  38.65300 43.80000 26.00100
H  38.87400 44.28100 24.25700
H  37.37400 43.40000 24.79700
H  37.36700 47.32400 29.37600
H  34.43200 44.35100 31.12300
H  34.14200 45.81700 31.88500
H  35.58400 44.75000 32.37400

