158

Mg 9.17500 4.26100 27.65100
C  10.62400 2.86800 30.43500
C  7.36400 6.38100 29.72900
C  8.04900 5.68800 25.04000
C  10.68500 1.68100 25.68300
N  8.92700 4.45900 29.84600
C  9.72800 3.93000 30.80600
C  9.57200 4.49400 32.17300
C  8.40300 5.56200 31.94200
C  8.11500 5.43700 30.40200
C  7.19100 5.30000 32.87200
C  10.85500 4.94500 32.96700
C  10.74600 5.86200 34.13900
H  11.68500 5.68100 35.32500
N  7.80900 5.74100 27.41200
C  7.20200 6.54100 28.33200
C  6.43700 7.50300 27.68100
C  6.74100 7.42900 26.31200
C  7.58900 6.23900 26.19600
C  5.52000 8.43100 28.37900
C  6.33900 8.36100 25.13900
O  6.55700 8.09100 23.98900
C  5.66400 9.63900 25.40500
N  9.20200 3.66200 25.63700
C  8.67400 4.47300 24.71600
C  8.98100 3.98400 23.22500
C  9.96100 2.82100 23.57300
C  9.88300 2.64800 25.02900
C  7.67700 3.61000 22.40300
C  11.35500 3.27600 22.91300
C  12.11900 2.22200 22.18600
N  10.40000 2.59600 27.94100
C  10.90200 1.63300 27.10600
C  11.68600 0.64800 27.85500
C  11.66600 1.14200 29.17600
C  10.82700 2.29800 29.17200
C  12.36300 -0.54800 27.34000
C  12.17500 1.00800 30.53400
O  13.01300 0.19600 30.93300
C  11.54300 2.12000 31.38100
C  10.86800 1.38800 32.50700
O  9.77900 0.81400 32.51500
O  11.69400 1.46500 33.64400
C  11.26300 1.18700 35.03700
H  6.78900 7.04200 30.38100
H  7.74800 6.12400 24.08600
H  11.20100 0.93800 25.07100
H  9.18000 3.61300 32.67900
H  8.88500 6.52500 32.10800
H  6.35600 4.95500 32.26100
H  6.83700 6.21000 33.35500
H  7.49400 4.68900 33.72200
H  11.38000 5.50600 32.19400
H  11.39000 4.11000 33.41900
H  9.69700 5.84600 34.43500
H  10.95900 6.84300 33.71300
H  5.95100 9.39800 28.63800
H  5.33400 8.10400 29.40200
H  4.57700 8.46100 27.83300
H  5.73400 10.37100 24.60000
H  6.28400 10.04600 26.20300
H  4.62300 9.33100 25.50300
H  9.56000 4.80900 22.80900
H  9.53100 1.92300 23.13100
H  6.85000 4.08100 22.93400
H  7.52500 2.54900 22.20300
H  7.79000 4.06100 21.41700
H  11.97700 3.71200 23.69500
H  11.23400 3.96700 22.07900
H  11.57100 1.28400 22.26700
H  13.06000 2.06400 22.71300
H  12.33100 2.35800 21.12500
H  12.11300 -1.33400 28.05200
H  13.43000 -0.37600 27.19800
H  12.00900 -0.81700 26.34400
H  12.29000 2.83900 31.71900
H  11.80000 1.78800 35.77100
H  11.27300 0.11700 35.24500
H  10.24500 1.50300 35.26800
Mg -10.02100 17.06000 40.95000
C  -6.48100 17.05000 41.12000
C  -10.00700 20.45600 40.30700
C  -13.35500 16.93500 40.25400
C  -9.93700 13.54100 40.84000
N  -8.42000 18.60000 40.70100
C  -7.03300 18.39600 40.78000
C  -6.31100 19.71600 40.30700
C  -7.45100 20.81800 40.69500
C  -8.68900 19.93600 40.53300
C  -7.24300 21.51500 42.16600
C  -5.74200 19.71100 38.81100
C  -4.25100 19.17200 38.65300
H  -3.92600 17.86400 37.87700
N  -11.51400 18.50700 40.43800
C  -11.26900 19.83200 40.23800
C  -12.50000 20.50800 40.08400
C  -13.54100 19.50200 39.92000
C  -12.82600 18.25800 40.24000
C  -12.53700 22.02200 39.94400
C  -14.93300 19.74500 39.56600
O  -15.32800 20.83800 39.34100
C  -15.94400 18.71000 39.50400
N  -11.40600 15.50100 40.37400
C  -12.79800 15.66000 40.23700
C  -13.64100 14.34000 40.37100
C  -12.50700 13.31700 40.56400
C  -11.15500 14.09200 40.46200
C  -14.86000 14.37800 41.35700
C  -12.54100 12.00300 39.59700
C  -12.62500 10.63100 40.24100
N  -8.56700 15.58800 41.00100
C  -8.69500 14.21300 41.04700
C  -7.43700 13.62700 41.39200
C  -6.60500 14.71700 41.38800
C  -7.27500 15.84600 41.12900
C  -7.01500 12.20700 41.63100
C  -5.19500 15.05000 41.54200
O  -4.19900 14.34000 41.66300
C  -5.07000 16.58700 41.41300
C  -4.52500 17.11900 42.74900
O  -3.72800 18.00000 42.86500
O  -5.12800 16.43500 43.75900
C  -5.05800 17.08800 45.08200
H  -9.90800 21.54300 40.28200
H  -14.42200 16.71600 40.17700
H  -9.74700 12.46700 40.88600
H  -5.42500 19.94200 40.90000
H  -7.34800 21.65500 40.00400
H  -7.54800 22.56100 42.13000
H  -6.25800 21.32500 42.59200
H  -7.95300 21.05100 42.85000
H  -5.70700 20.69900 38.35300
H  -6.49100 19.17500 38.22800
H  -3.76600 19.15200 39.62900
H  -3.65100 19.93800 38.16200
H  -13.33600 22.28600 39.25100
H  -11.65100 22.44700 39.47200
H  -12.69600 22.39300 40.95700
H  -15.67300 18.10800 38.63700
H  -16.83800 19.22800 39.15800
H  -16.08900 18.12600 40.41400
H  -14.01800 14.11900 39.37300
H  -12.58600 13.10500 41.63000
H  -15.72100 13.93900 40.85300
H  -15.07400 15.35500 41.79000
H  -14.63600 13.66300 42.14800
H  -11.68200 12.25400 38.97500
H  -13.48000 12.05400 39.04500
H  -13.52000 10.06100 39.98900
H  -12.49600 10.79000 41.31200
H  -11.77700 10.11000 39.79700
H  -7.85300 11.52200 41.49800
H  -6.83500 12.06100 42.69600
H  -6.11200 11.93300 41.08600
H  -4.46500 16.88700 40.55800
H  -4.71300 18.12100 45.05600
H  -4.41700 16.37800 45.60500
H  -6.00100 16.84900 45.57300

