158

Mg 36.88800 49.45900 25.19900
C  37.03500 47.79500 28.20500
C  35.41000 52.11900 27.02100
C  36.49000 51.03100 22.27500
C  38.06800 46.73900 23.48900
N  36.12300 49.85400 27.32700
C  36.42300 49.04000 28.40700
C  35.91500 49.61200 29.72500
C  35.25900 50.95100 29.27100
C  35.62200 50.99500 27.80400
C  33.75500 51.13400 29.52700
C  37.16700 49.84100 30.64600
C  37.15300 49.24800 32.06900
H  35.82900 49.24900 32.86900
N  36.12600 51.31700 24.75500
C  35.55100 52.24200 25.61600
C  35.00300 53.32400 24.80300
C  35.39300 53.08200 23.46700
C  36.04200 51.76500 23.42600
C  34.23200 54.50900 25.38700
C  35.11700 53.98500 22.29500
O  35.45600 53.68100 21.10700
C  34.58200 55.39200 22.48500
N  37.37100 48.97100 23.15700
C  37.08000 49.76400 22.13500
C  37.43200 49.19100 20.79100
C  38.14600 47.86300 21.22500
C  37.95000 47.86500 22.70200
C  36.25900 49.02200 19.83600
C  39.67100 47.92400 20.96100
C  40.18800 47.72800 19.52300
N  37.45600 47.57600 25.70800
C  37.89200 46.56300 24.87200
C  38.28000 45.50300 25.77000
C  37.99100 45.89000 27.06700
C  37.41800 47.15600 26.99500
C  38.93000 44.23900 25.28100
C  38.07500 45.55300 28.47400
O  38.54500 44.56200 28.99300
C  37.28700 46.73600 29.29300
C  36.07300 46.11100 29.99400
O  34.88800 46.22100 29.68400
O  36.54200 45.50300 31.15300
C  35.59000 44.87800 32.13500
H  35.14800 53.04200 27.54300
H  36.37800 51.63300 21.37100
H  38.35200 45.87200 22.89000
H  35.32500 48.79500 30.14100
H  35.70000 51.80600 29.78200
H  33.30500 50.35100 30.13700
H  33.23300 51.26400 28.57900
H  33.61700 52.05800 30.08900
H  37.38000 50.90800 30.70600
H  38.04600 49.45000 30.13300
H  37.69200 50.01500 32.62500
H  37.64700 48.28000 32.14900
H  34.06000 54.33500 26.44900
H  33.26900 54.71700 24.92000
H  34.88900 55.37400 25.30100
H  35.13100 55.87400 23.29400
H  33.51800 55.43400 22.71900
H  34.74400 55.91400 21.54200
H  38.20900 49.78200 20.30800
H  37.76200 46.93900 20.79500
H  36.59000 49.47000 18.89900
H  35.40100 49.56400 20.23400
H  35.92600 48.03700 19.50700
H  40.03600 47.13200 21.61500
H  40.07500 48.87200 21.31500
H  40.75300 48.61300 19.23200
H  39.42500 47.31900 18.86100
H  40.87800 46.92200 19.77500
H  40.01000 44.27700 25.13900
H  38.48400 43.87200 24.35700
H  38.78700 43.54900 26.11300
H  37.92400 47.09400 30.10200
H  35.86200 43.84200 32.33700
H  34.56200 44.91800 31.77500
H  35.70200 45.41600 33.07700
Mg -6.01900 25.35700 25.54800
C  -4.63900 26.30800 28.62300
C  -8.10700 23.30500 27.44500
C  -6.97400 23.94400 22.69600
C  -3.61600 27.17700 23.89600
N  -6.40100 24.89900 27.74400
C  -5.85400 25.64800 28.74400
C  -6.32800 25.09300 30.11300
C  -7.20300 23.96400 29.75500
C  -7.20400 24.02000 28.22200
C  -6.76300 22.58000 30.22800
C  -7.01400 26.16100 31.09000
C  -6.50000 26.20800 32.56400
H  -6.04100 25.02800 33.44100
N  -7.39900 23.82700 25.10700
C  -8.25100 23.25700 26.03000
C  -9.21400 22.34200 25.26400
C  -8.85400 22.52100 23.86600
C  -7.70300 23.42600 23.81200
C  -10.35300 21.53900 26.01300
C  -9.50500 21.92000 22.68900
O  -8.96600 21.86200 21.59800
C  -10.85900 21.35800 22.85500
N  -5.23000 25.27200 23.68000
C  -5.89500 24.72900 22.62000
C  -5.17000 25.02000 21.20900
C  -4.26200 26.20600 21.56500
C  -4.36700 26.22800 23.17400
C  -4.41700 23.82700 20.60900
C  -4.33400 27.50200 20.78300
C  -3.08800 27.92300 20.00300
N  -4.41800 26.49100 26.06100
C  -3.51200 27.23100 25.31100
C  -2.62400 28.00100 26.20600
C  -2.96600 27.55200 27.45700
C  -4.01600 26.65600 27.40700
C  -1.51100 28.91900 25.80700
C  -2.67300 27.68000 28.89500
O  -1.83300 28.39600 29.46000
C  -3.76900 26.91100 29.74200
C  -3.11400 25.97100 30.68200
O  -2.89800 24.77700 30.48000
O  -2.83600 26.65100 31.86800
C  -2.34100 25.84500 32.96700
H  -8.60900 22.61900 28.12900
H  -7.33000 23.65800 21.70400
H  -2.84800 27.72200 23.34300
H  -5.46400 24.68500 30.63800
H  -8.21600 24.15100 30.11300
H  -7.57700 22.12700 30.79400
H  -5.81400 22.62600 30.76300
H  -6.73500 21.89000 29.38500
H  -8.06500 25.87600 31.15400
H  -7.08700 27.17900 30.70800
H  -7.30200 26.73200 33.08200
H  -5.66100 26.89400 32.44400
H  -11.34900 21.96900 25.90800
H  -10.30600 21.54100 27.10200
H  -10.42000 20.48100 25.75700
H  -11.61300 22.04600 23.23800
H  -10.90200 20.40900 23.38800
H  -11.24100 21.17600 21.85000
H  -5.95000 25.33900 20.51900
H  -3.25200 25.80500 21.48900
H  -4.13700 23.14700 21.41300
H  -3.62100 24.30600 20.03900
H  -5.08800 23.22300 19.99800
H  -4.56000 28.33000 21.45500
H  -5.24400 27.46700 20.18500
H  -2.82200 27.05600 19.39900
H  -2.29300 28.17800 20.70500
H  -3.11700 28.82300 19.39000
H  -1.82800 29.92500 25.53200
H  -1.04300 28.48500 24.92300
H  -0.72700 29.07500 26.54700
H  -4.43700 27.58200 30.28300
H  -1.27400 26.03500 33.08800
H  -2.33100 24.76400 32.82700
H  -2.83400 26.13100 33.89600

