158

Mg 35.76800 48.57000 25.37800
C  35.75300 46.89200 28.54400
C  34.42200 51.27100 27.02900
C  35.59000 49.95800 22.37000
C  36.65800 45.56400 23.98400
N  35.18800 48.99500 27.52900
C  35.48700 48.28600 28.61600
C  35.15300 49.11000 29.91100
C  34.66700 50.49200 29.45700
C  34.81100 50.26100 27.91600
C  33.17500 50.92400 29.78400
C  36.45000 49.20200 30.69000
C  36.38200 49.05700 32.19700
H  35.10600 49.24100 32.97200
N  34.96400 50.33500 24.74300
C  34.49500 51.30100 25.58500
C  34.20300 52.47200 24.76800
C  34.56500 52.23200 23.41300
C  35.03000 50.82200 23.48300
C  33.57200 53.71200 25.42600
C  34.35400 53.11800 22.20700
O  34.78700 52.77000 21.10400
C  33.47400 54.34500 22.31000
N  35.85800 47.79200 23.45900
C  35.90300 48.60100 22.39000
C  36.44300 47.93600 21.05800
C  36.81100 46.55000 21.69800
C  36.43200 46.61900 23.13900
C  35.43500 47.76100 19.90000
C  38.30700 46.19100 21.55700
C  38.98600 46.33100 20.20800
N  36.26900 46.63100 26.06400
C  36.56600 45.52900 25.37400
C  36.70600 44.38500 26.28300
C  36.35000 44.89000 27.55800
C  36.14500 46.27100 27.36800
C  37.21000 42.88800 25.92300
C  36.31400 44.57000 28.99900
O  36.57500 43.57000 29.67000
C  35.97300 45.91100 29.71400
C  34.64800 45.71700 30.47400
O  33.56400 46.02900 30.10800
O  34.90500 45.13300 31.67200
C  33.75000 44.91300 32.54300
H  33.90100 52.07300 27.55500
H  35.62900 50.54700 21.45100
H  37.00400 44.65800 23.48200
H  34.38700 48.65000 30.53600
H  35.35300 51.27100 29.78900
H  33.29200 51.94100 30.15800
H  32.69700 50.24700 30.49200
H  32.57200 51.12000 28.89700
H  37.01300 50.12100 30.53300
H  37.13700 48.38700 30.46100
H  37.15800 49.77800 32.45700
H  36.66800 48.03300 32.43600
H  34.02700 54.58000 24.94900
H  33.81000 53.81200 26.48500
H  32.49100 53.61600 25.32800
H  32.58400 54.03600 22.85700
H  33.23900 54.78800 21.34200
H  34.05100 55.13700 22.78800
H  37.28700 48.43800 20.58400
H  36.13500 45.79100 21.30600
H  34.36800 47.95400 20.01700
H  35.57700 46.77000 19.46900
H  35.80800 48.47600 19.16700
H  38.38900 45.12400 21.76300
H  38.89700 46.80100 22.24100
H  38.28300 46.60300 19.42100
H  39.48400 45.40400 19.92200
H  39.74400 47.11100 20.14100
H  37.93300 42.92000 25.10700
H  36.31600 42.29600 25.72600
H  37.78000 42.53500 26.78200
H  36.73800 46.03100 30.48100
H  33.93100 44.33100 33.44600
H  33.06600 44.26100 32.00100
H  33.36600 45.87400 32.88500
Mg -10.30600 39.39200 41.76400
C  -8.86500 36.32700 41.06600
C  -7.43200 40.92400 40.48200
C  -11.88900 42.41800 42.01600
C  -13.27100 37.83900 42.47800
N  -8.29500 38.68900 40.91700
C  -7.96600 37.39700 40.72800
C  -6.50300 37.25600 40.19800
C  -6.05100 38.72100 40.19300
C  -7.33100 39.57600 40.59500
C  -4.61500 38.89700 40.86200
C  -6.50100 36.54100 38.75800
C  -5.13100 35.83000 38.45900
H  -4.31900 36.18800 37.23100
N  -9.74600 41.38600 41.35900
C  -8.55500 41.77800 40.79200
C  -8.54400 43.22000 40.62200
C  -9.82200 43.68000 41.10100
C  -10.54000 42.50900 41.59600
C  -7.35400 43.95900 39.93700
C  -10.42100 45.08600 41.01400
O  -9.73000 46.01000 40.64500
C  -11.82600 45.50700 41.45100
N  -12.33100 40.01600 42.18800
C  -12.67100 41.28400 42.31600
C  -14.12600 41.45700 42.86700
C  -14.56300 39.95700 42.92200
C  -13.32800 39.20900 42.41800
C  -14.06100 42.24300 44.23800
C  -15.81500 39.61800 42.09000
C  -17.22900 39.46000 42.80400
N  -11.01900 37.52100 41.69700
C  -12.22000 36.99700 42.05200
C  -12.36000 35.56800 41.92700
C  -11.03500 35.20800 41.62200
C  -10.26200 36.42500 41.46000
C  -13.50000 34.71600 42.42500
C  -10.07500 34.09800 41.42200
O  -10.17900 32.87900 41.59800
C  -8.72800 34.82300 41.04100
C  -7.71200 34.31400 41.98600
O  -7.62300 34.61000 43.17200
O  -6.80500 33.60400 41.27100
C  -5.60100 33.18500 42.00000
H  -6.50000 41.37200 40.13200
H  -12.39800 43.33800 42.31100
H  -14.23200 37.37200 42.70100
H  -5.91100 36.62600 40.86200
H  -5.95000 38.96500 39.13500
H  -4.79800 39.70900 41.56600
H  -3.87200 39.00800 40.07200
H  -4.30300 38.01200 41.41700
H  -6.80600 37.19600 37.94200
H  -7.27000 35.77100 38.82400
H  -5.19700 34.74200 38.46000
H  -4.48700 36.15300 39.27700
H  -6.88100 43.29400 39.21500
H  -6.68300 44.39500 40.67700
H  -7.74500 44.83100 39.41300
H  -11.87700 45.41500 42.53600
H  -12.58600 44.90600 40.95200
H  -12.17300 46.48300 41.11100
H  -14.71000 42.06300 42.17400
H  -14.73800 39.70000 43.96700
H  -13.01300 42.50000 44.39200
H  -14.35400 41.54300 45.02000
H  -14.70000 43.12200 44.32600
H  -15.62200 38.61900 41.70000
H  -15.82100 40.37700 41.30700
H  -17.88700 40.27600 42.50500
H  -17.19600 39.36200 43.88900
H  -17.71200 38.59700 42.34400
H  -14.18700 34.42800 41.62900
H  -14.14400 35.14000 43.19600
H  -13.02700 33.80700 42.79700
H  -8.50800 34.42500 40.05100
H  -5.81500 33.10100 43.06600
H  -4.76700 33.85000 41.77600
H  -5.26800 32.21200 41.64000

