158

Mg 8.51600 3.76900 27.97000
C  9.53900 2.10100 30.87400
C  6.58100 5.83000 29.88000
C  7.04500 4.84200 25.19200
C  9.87100 1.04100 26.13500
N  8.03800 3.87700 30.11700
C  8.66600 3.12600 31.17200
C  8.32800 3.64500 32.56500
C  7.20500 4.67600 32.15400
C  7.18000 4.78500 30.62900
C  5.85000 4.26100 32.79200
C  9.56700 4.29300 33.38700
C  9.81500 3.61000 34.72700
H  9.94600 4.55800 35.92100
N  7.17700 5.28000 27.62000
C  6.53500 6.06900 28.52100
C  5.70700 7.03300 27.82100
C  5.87500 6.75800 26.42000
C  6.76300 5.56600 26.35300
C  4.95400 8.14200 28.54700
C  5.15200 7.44800 25.33100
O  5.29900 7.13500 24.15100
C  4.30900 8.57400 25.56800
N  8.40200 3.00000 26.01900
C  7.77200 3.71300 25.01900
C  8.06100 3.12100 23.65200
C  8.95400 1.91300 23.99400
C  9.05200 1.95300 25.50100
C  6.71000 2.90800 22.82200
C  10.36700 2.11900 23.27700
C  10.84900 0.80300 22.68100
N  9.64400 2.04900 28.31400
C  10.22500 1.06500 27.45800
C  11.13400 0.23500 28.20900
C  10.86700 0.60300 29.53600
C  9.94500 1.65200 29.58200
C  11.89400 -0.90500 27.69100
C  11.18600 0.27900 30.91500
O  11.96100 -0.54800 31.36400
C  10.32700 1.22700 31.79500
C  9.56300 0.35600 32.66900
O  8.54100 -0.22600 32.42700
O  10.11300 0.39500 33.99100
C  9.41300 -0.19300 35.15900
H  5.98400 6.45500 30.54800
H  6.70400 5.35700 24.29200
H  10.25300 0.27700 25.45400
H  7.86100 2.80700 33.08200
H  7.43900 5.67500 32.52300
H  6.15400 3.99000 33.80300
H  5.39000 3.38800 32.32900
H  5.12100 5.07100 32.79600
H  9.53300 5.38100 33.44900
H  10.38500 4.13200 32.68500
H  10.76700 3.07800 34.73300
H  9.00500 2.93200 34.99300
H  5.26800 8.19400 29.59000
H  3.88700 7.92900 28.48500
H  5.02100 9.11300 28.05600
H  3.98700 8.91100 24.58300
H  4.81400 9.40800 26.05600
H  3.44000 8.29300 26.16300
H  8.56200 3.89500 23.07000
H  8.53600 0.92700 23.79100
H  6.68400 3.65800 22.03100
H  5.85600 2.96600 23.49700
H  6.66900 1.88800 22.43900
H  11.12100 2.28200 24.04700
H  10.30600 2.84100 22.46200
H  11.92700 0.83500 22.52400
H  10.48000 0.72100 21.65800
H  10.50400 -0.07300 23.23000
H  11.89600 -1.10500 26.61900
H  11.50300 -1.85100 28.06600
H  12.93000 -0.79100 28.01000
H  11.14700 1.59000 32.41400
H  8.71700 -1.00600 34.95000
H  8.90300 0.68400 35.55800
H  10.06700 -0.47000 35.98500
Mg -11.88500 16.30900 40.76500
C  -8.72000 14.83400 40.34700
C  -10.52900 19.22100 39.31900
C  -15.04300 17.64600 40.45900
C  -13.25300 13.02400 40.89100
N  -9.78200 16.92000 39.93200
C  -8.66300 16.21000 40.05100
C  -7.55600 17.04900 39.44000
C  -8.11900 18.46600 39.29500
C  -9.55500 18.20800 39.54200
C  -7.44400 19.55200 40.14300
C  -7.06500 16.45800 38.11500
C  -5.48500 16.49500 37.86800
H  -5.01700 17.07600 36.56500
N  -12.65500 18.19500 40.10400
C  -11.90100 19.20500 39.60100
C  -12.76400 20.37000 39.27700
C  -14.10500 19.96500 39.67900
C  -13.99600 18.60300 40.20600
C  -12.21100 21.69100 38.83500
C  -15.34100 20.88000 39.56700
O  -15.23600 22.04300 39.21200
C  -16.70500 20.36800 39.93400
N  -13.84200 15.41700 40.53200
C  -14.96400 16.15200 40.55600
C  -16.21700 15.26100 40.50800
C  -15.65700 13.84300 40.82800
C  -14.14200 14.12500 40.80700
C  -17.37200 15.73800 41.39600
C  -16.17900 12.73700 39.81100
C  -17.01000 11.64900 40.45900
N  -11.20500 14.31500 40.76900
C  -11.87600 13.15100 40.86200
C  -10.89000 12.04000 40.87000
C  -9.67100 12.69200 40.72200
C  -9.90000 14.05000 40.62200
C  -11.13900 10.55600 41.04900
C  -8.22400 12.40600 40.58800
O  -7.62000 11.30800 40.62000
C  -7.58500 13.77300 40.26900
C  -6.60100 13.92900 41.36900
O  -6.78900 14.10600 42.57500
O  -5.39500 14.10200 40.79400
C  -4.26600 14.44100 41.63000
H  -10.05700 20.12800 38.93500
H  -16.05100 18.06600 40.48300
H  -13.72600 12.04200 40.95800
H  -6.69400 17.17600 40.09600
H  -8.01000 18.86700 38.28700
H  -6.39200 19.30200 40.27700
H  -8.00900 19.72700 41.05900
H  -7.48900 20.49000 39.58900
H  -7.47400 17.12200 37.35300
H  -7.41700 15.44800 37.90000
H  -5.15700 15.46500 38.01000
H  -5.00400 17.10000 38.63700
H  -11.45000 21.54400 38.06800
H  -11.66100 22.21800 39.61500
H  -12.86900 22.48900 38.49300
H  -17.37600 21.22300 39.85500
H  -16.69000 20.02300 40.96800
H  -17.04600 19.66100 39.17900
H  -16.54300 15.36200 39.47300
H  -15.87100 13.61400 41.87200
H  -17.06200 16.15000 42.35600
H  -17.91000 14.83200 41.67600
H  -18.09800 16.34600 40.85600
H  -15.37700 12.24000 39.26500
H  -16.84400 13.18300 39.07200
H  -16.64300 10.68900 40.09500
H  -18.06100 11.75700 40.19000
H  -16.86400 11.58600 41.53700
H  -11.35600 10.36400 42.09900
H  -10.29700 9.92900 40.75300
H  -12.08800 10.38400 40.54200
H  -7.12200 13.83800 39.28400
H  -4.59300 14.65400 42.64800
H  -3.93100 15.41900 41.28700
H  -3.51700 13.64800 41.63500

