158

Mg 35.45600 49.71400 26.24100
C  35.81600 47.72700 29.05600
C  34.19100 52.23800 28.09400
C  35.34200 51.78700 23.46600
C  36.51400 47.09000 24.22300
N  34.97600 49.89400 28.35100
C  35.23000 48.99500 29.32900
C  34.86200 49.53500 30.65900
C  34.24100 50.90300 30.38700
C  34.44300 51.08200 28.81900
C  32.74000 51.17900 30.89000
C  36.20000 49.67800 31.37500
C  36.30300 49.22400 32.88500
H  35.16200 49.51800 33.85400
N  34.98700 51.77700 25.88200
C  34.46600 52.60000 26.80000
C  34.25300 53.92100 26.22300
C  34.49400 53.80100 24.79000
C  35.02900 52.44800 24.67400
C  33.72300 55.03500 27.10700
C  34.21700 54.82300 23.71500
O  34.22400 54.48100 22.55300
C  33.66300 56.18300 24.02900
N  35.89200 49.44900 24.14700
C  35.64900 50.41000 23.20300
C  36.08400 49.90900 21.78500
C  36.46600 48.38800 22.02300
C  36.27400 48.27900 23.57100
C  35.04300 49.98900 20.62600
C  37.84600 47.98600 21.41000
C  39.14000 48.34300 22.27900
N  35.93700 47.73200 26.54300
C  36.51400 46.86000 25.62000
C  36.93300 45.65300 26.39600
C  36.67300 45.94600 27.73400
C  36.09200 47.25700 27.78000
C  37.55900 44.50100 25.75700
C  36.83600 45.52600 29.12600
O  37.25700 44.49700 29.58700
C  36.14900 46.57400 30.03300
C  34.98900 45.97600 30.70600
O  33.89900 45.65600 30.21300
O  35.38200 45.75000 31.96900
C  34.35800 45.10300 32.83800
H  33.75200 53.02700 28.70700
H  35.29200 52.40500 22.56800
H  37.00300 46.33200 23.60800
H  34.23300 48.95000 31.32900
H  34.80700 51.72000 30.83500
H  32.17000 51.39000 29.98500
H  32.70900 52.06200 31.52800
H  32.25700 50.34100 31.39100
H  36.44200 50.74000 31.41400
H  37.06100 49.24700 30.86500
H  37.20100 49.73100 33.23700
H  36.40200 48.14500 33.00900
H  32.63900 55.10100 27.01900
H  34.09800 56.01300 26.80600
H  34.13000 54.92100 28.11200
H  34.29200 56.96800 24.44700
H  32.75000 56.01500 24.60100
H  33.29400 56.42100 23.03100
H  36.91500 50.47000 21.35800
H  35.70300 47.77400 21.54500
H  34.17500 50.51900 21.01800
H  34.85500 48.98600 20.24200
H  35.43900 50.64600 19.85100
H  37.94800 48.52900 20.47000
H  37.92000 46.90700 21.27500
H  39.92400 48.78300 21.66300
H  39.46300 47.35300 22.60200
H  38.77600 48.88100 23.15400
H  36.78100 43.82900 25.39300
H  38.04700 43.91200 26.53300
H  38.28200 44.79300 24.99600
H  36.82800 47.01600 30.76200
H  34.70200 44.79500 33.82600
H  34.06800 44.20100 32.29900
H  33.54600 45.79600 33.06100
Mg -1.76800 34.45100 27.24100
C  -3.39600 32.42400 29.58400
C  -0.30000 36.21000 29.78800
C  -0.61600 36.60100 25.04700
C  -3.61700 32.76900 24.74300
N  -2.02600 34.46600 29.34800
C  -2.69100 33.55100 30.13500
C  -2.54600 33.84500 31.61100
C  -1.71400 35.16400 31.68800
C  -1.36600 35.34100 30.21900
C  -2.54400 36.34500 32.26600
C  -1.80200 32.58900 32.32200
C  -2.57500 31.99600 33.53300
H  -1.80400 31.81900 34.75300
N  -0.58500 36.20700 27.33000
C  -0.04900 36.76700 28.51300
C  0.89500 37.79400 28.14100
C  0.80100 37.95000 26.70400
C  -0.10900 36.89900 26.32200
C  1.86500 38.47700 29.04200
C  1.64400 38.74500 25.79700
O  1.61400 38.65800 24.54200
C  2.62100 39.68900 26.36900
N  -2.21300 34.73400 25.23300
C  -1.58400 35.68700 24.49600
C  -2.00100 35.73700 23.00400
C  -2.78200 34.34400 22.90900
C  -2.91200 33.90100 24.38100
C  -2.84500 37.04300 22.68900
C  -2.01200 33.26000 22.04800
C  -2.81200 32.40500 21.08400
N  -3.16700 32.86800 27.02300
C  -3.78000 32.25100 25.97100
C  -4.52500 31.11100 26.40100
C  -4.40500 31.15200 27.82600
C  -3.59300 32.24700 28.13100
C  -5.15100 30.00000 25.56300
C  -4.75500 30.50300 29.04200
O  -5.36500 29.43300 29.24200
C  -4.19600 31.38300 30.25500
C  -5.28300 31.90800 31.13800
O  -5.95200 32.89600 30.95400
O  -5.47100 31.06100 32.20800
C  -6.32400 31.55000 33.22800
H  0.31800 36.75300 30.50600
H  -0.09200 37.31500 24.40900
H  -4.18500 32.18000 24.01900
H  -3.55400 33.89900 32.02200
H  -0.78200 34.96300 32.21500
H  -2.09600 36.53500 33.24100
H  -3.57500 36.08700 32.51200
H  -2.44100 37.21800 31.62200
H  -0.83000 32.93000 32.67600
H  -1.73900 31.80800 31.56400
H  -2.81900 30.98500 33.20500
H  -3.49700 32.57100 33.62400
H  2.90900 38.41500 28.73300
H  1.65500 38.19200 30.07300
H  1.65600 39.54600 29.00600
H  2.72400 40.53100 25.68500
H  3.55900 39.21400 26.65800
H  2.26700 40.28400 27.21100
H  -1.18900 35.74300 22.27600
H  -3.76800 34.49500 22.46900
H  -2.30400 37.72500 22.03300
H  -3.05600 37.42600 23.68700
H  -3.81900 36.81700 22.25600
H  -1.43200 32.67400 22.76100
H  -1.28200 33.71900 21.38200
H  -2.31200 32.28500 20.12300
H  -3.78100 32.88800 20.95900
H  -2.93800 31.41400 21.52000
H  -6.02300 30.24900 24.95800
H  -5.47400 29.20100 26.23100
H  -4.32000 29.52200 25.04500
H  -3.59800 30.66100 30.81100
H  -6.30600 32.61000 33.48100
H  -6.13600 30.87000 34.05800
H  -7.33100 31.37500 32.85000

