158

Mg 10.41900 47.60900 26.10200
C  8.09100 47.41300 28.76100
C  12.75600 48.41900 28.58700
C  12.37500 48.49700 23.63200
C  7.77200 47.26000 23.84100
N  10.42400 47.94300 28.47700
C  9.29600 47.71800 29.29300
C  9.64200 47.95100 30.75400
C  11.16600 48.28600 30.73800
C  11.48000 48.32000 29.16700
C  11.52000 49.57700 31.54600
C  9.32900 46.75300 31.80700
C  10.14600 46.64200 33.12400
H  9.51200 45.84100 34.24000
N  12.35600 48.20800 26.07600
C  13.15500 48.43900 27.19100
C  14.45800 48.68100 26.70900
C  14.42200 48.73700 25.26000
C  12.97900 48.52000 24.93100
C  15.67400 48.91900 27.66000
C  15.53100 48.89500 24.29600
O  15.27900 49.17900 23.11800
C  17.01400 48.83000 24.68800
N  10.05400 47.99600 23.98800
C  11.09900 48.29400 23.15100
C  10.68000 48.42300 21.71500
C  9.29400 47.83600 21.80600
C  8.97200 47.70500 23.27500
C  10.80300 49.86300 21.20300
C  9.06000 46.50900 21.04400
C  8.20600 46.62900 19.71700
N  8.33100 47.19900 26.27200
C  7.42700 47.05100 25.21100
C  6.07400 46.81800 25.72800
C  6.30600 46.92800 27.17000
C  7.68300 47.17200 27.40900
C  4.76300 46.73500 24.99600
C  5.65900 46.89600 28.40300
O  4.53000 46.51300 28.76400
C  6.73700 47.25700 29.50700
C  6.65900 46.08500 30.39000
O  7.22500 45.02000 30.24500
O  5.72100 46.41300 31.39000
C  5.72700 45.44500 32.54300
H  13.49900 48.56300 29.37300
H  13.06700 48.57700 22.79100
H  6.93600 47.12200 23.15300
H  9.05300 48.85400 30.91500
H  11.86500 47.49700 31.01600
H  11.70400 50.50800 31.00900
H  12.38100 49.33500 32.16900
H  10.74300 49.66300 32.30600
H  9.41900 45.80200 31.28200
H  8.31700 46.90800 32.18100
H  10.53200 47.61600 33.42400
H  11.03400 46.11100 32.78000
H  16.66000 48.50600 27.44900
H  15.48000 48.84300 28.73000
H  15.85200 49.97700 27.46900
H  17.22500 49.59800 25.43100
H  17.71400 49.05600 23.88400
H  17.14200 47.82900 25.10100
H  11.39500 47.81400 21.16200
H  8.59900 48.55300 21.36800
H  11.14400 50.53100 21.99400
H  9.84500 50.28100 20.89200
H  11.36400 49.81800 20.27000
H  8.72500 45.77600 21.77900
H  10.05800 46.14400 20.79900
H  7.78400 47.62500 19.57900
H  7.42600 45.88200 19.86700
H  8.68400 46.26500 18.80800
H  4.66800 45.66000 24.84000
H  4.77100 47.32900 24.08200
H  3.87400 47.01200 25.56300
H  6.40800 48.05500 30.17200
H  5.52500 46.11500 33.37900
H  6.63300 44.84000 32.59500
H  4.86200 44.86200 32.23000
Mg -10.25500 17.72200 42.94200
C  -6.81000 16.70100 42.63000
C  -9.10400 20.96400 41.99300
C  -13.37000 18.55200 42.13300
C  -11.04200 14.40600 43.34900
N  -8.22900 18.71100 42.25200
C  -6.95500 18.10200 42.39500
C  -5.80100 19.10200 42.15600
C  -6.53600 20.42600 42.18200
C  -8.00500 20.01500 42.20700
C  -6.18300 21.36800 43.36300
C  -5.02400 18.96600 40.81700
C  -5.74700 18.57300 39.52200
H  -4.95800 18.64900 38.20200
N  -11.13300 19.49900 42.22400
C  -10.51200 20.71000 41.95100
C  -11.48500 21.63100 41.56000
C  -12.77500 20.97600 41.55500
C  -12.51200 19.62400 41.94200
C  -11.15300 23.00700 41.01900
C  -14.13700 21.61700 40.99200
O  -14.15100 22.78100 40.61200
C  -15.37700 20.86600 40.85400
N  -11.91500 16.62100 42.70000
C  -13.09900 17.22900 42.50000
C  -14.27900 16.22500 42.68900
C  -13.54400 14.87900 42.95100
C  -12.05500 15.31100 42.97000
C  -15.41400 16.61600 43.73400
C  -13.78200 13.83200 41.81800
C  -13.80000 12.31000 42.19800
N  -9.20000 15.89800 43.08500
C  -9.66100 14.58000 43.15000
C  -8.60800 13.61700 43.14400
C  -7.46000 14.39300 42.97100
C  -7.85500 15.78300 42.87300
C  -8.83000 12.15200 43.42200
C  -5.96300 14.33200 42.89100
O  -5.12300 13.47900 42.89200
C  -5.51800 15.84300 42.50000
C  -4.46000 16.23800 43.48800
O  -3.26200 16.28000 43.35600
O  -5.04900 16.82400 44.59300
C  -4.06000 17.34500 45.62300
H  -8.80600 21.99800 41.80800
H  -14.43300 18.76100 41.99200
H  -11.40500 13.41300 43.62200
H  -5.06600 19.02600 42.95800
H  -6.37700 21.07100 41.31800
H  -5.35300 20.98500 43.95800
H  -7.01600 21.51500 44.05000
H  -5.83100 22.32600 42.97900
H  -4.38400 18.08800 40.91000
H  -4.39600 19.83900 40.64200
H  -6.67100 19.13500 39.38500
H  -6.07300 17.54300 39.66900
H  -11.76000 23.47000 40.24100
H  -10.19000 23.00700 40.50700
H  -10.99900 23.69500 41.85000
H  -15.84700 20.59800 41.80100
H  -15.16200 19.98600 40.24700
H  -16.11200 21.49400 40.35200
H  -14.97800 16.18700 41.85400
H  -13.71500 14.47200 43.94800
H  -16.35400 16.99500 43.33200
H  -14.89200 17.26500 44.43700
H  -15.61600 15.65800 44.21200
H  -12.95100 13.87700 41.11500
H  -14.59400 14.06400 41.12900
H  -14.85600 12.08200 42.04700
H  -13.48700 12.25100 43.24100
H  -13.14200 11.73400 41.54700
H  -8.85200 11.53000 42.52800
H  -9.70500 11.94400 44.03900
H  -7.95300 11.82300 43.97900
H  -5.21300 15.77700 41.45500
H  -3.30600 16.60200 45.88000
H  -4.58000 17.49700 46.56900
H  -3.59400 18.28000 45.31100

