158

Mg 49.41300 45.42300 42.54800
C  46.18600 46.62100 41.75700
C  48.47500 42.35900 41.54000
C  52.65500 44.60400 42.40400
C  50.32500 48.75300 43.21500
N  47.50900 44.64400 41.67200
C  46.32400 45.27100 41.45800
C  45.28000 44.20600 40.97200
C  45.91000 42.86100 41.35600
C  47.39100 43.29400 41.59800
C  45.22600 42.12500 42.52600
C  45.08400 44.42000 39.40200
C  43.68000 44.59300 38.88100
H  43.35400 44.18700 37.45900
N  50.44500 43.73000 42.03300
C  49.86400 42.55900 41.70300
C  50.89100 41.58700 41.56400
C  52.09700 42.14500 41.90200
C  51.80100 43.53900 42.12300
C  50.55700 40.10900 41.19200
C  53.48600 41.51700 41.86900
O  53.53000 40.35500 41.39200
C  54.66800 42.07100 42.57800
N  51.17000 46.48000 42.99300
C  52.37600 45.90700 42.79900
C  53.54800 46.93900 43.12000
C  52.77200 48.22800 43.44900
C  51.29100 47.76700 43.19700
C  54.59800 46.46700 44.17100
C  53.40700 49.47300 42.67000
C  53.56400 50.70600 43.62100
N  48.43300 47.26200 42.66600
C  48.97100 48.51100 42.98000
C  47.92800 49.42300 42.96700
C  46.76800 48.75600 42.50100
C  47.18900 47.45800 42.29000
C  48.06300 50.90500 43.11800
C  45.35300 48.90300 42.20500
O  44.53800 49.78900 42.38100
C  44.94600 47.47300 41.55300
C  43.70900 46.93400 42.26300
O  42.67700 46.68600 41.64600
O  43.71100 46.94200 43.68900
C  42.27500 46.98800 44.19400
H  48.07100 41.35600 41.38900
H  53.70900 44.35700 42.26500
H  50.65200 49.75100 43.51500
H  44.30300 44.39500 41.41600
H  45.95700 42.08200 40.59600
H  45.86500 42.12200 43.40900
H  45.12700 41.07700 42.24400
H  44.23300 42.55800 42.64900
H  45.59500 43.58800 38.91900
H  45.53900 45.33100 39.01100
H  43.42900 45.65300 38.89800
H  42.99800 43.96300 39.45400
H  50.90900 39.82900 40.19900
H  49.50300 39.86400 41.32600
H  50.94300 39.48800 42.00000
H  55.07500 42.74400 41.82300
H  55.30500 41.22700 42.84400
H  54.48400 42.68500 43.45900
H  54.04100 47.02400 42.15200
H  52.83000 48.45300 44.51400
H  55.27000 45.67800 43.83400
H  53.94000 46.01500 44.91400
H  55.12300 47.32600 44.58900
H  52.82700 49.64600 41.76400
H  54.39300 49.07300 42.43400
H  54.59900 51.03900 43.70900
H  53.33600 50.51000 44.66900
H  52.99300 51.51900 43.17200
H  48.06900 51.02300 42.03400
H  48.90600 51.32000 43.66900
H  47.07300 51.24800 43.41900
H  44.86200 47.57100 40.47000
H  42.40400 47.01100 45.27600
H  41.68400 46.11200 43.92500
H  41.79100 47.90500 43.85800
Mg 0.37900 43.68600 26.43500
C  2.78700 43.69400 28.89800
C  -2.06300 43.59700 28.76500
C  -1.72500 43.26400 23.88200
C  3.02600 43.45700 24.00000
N  0.41200 43.53000 28.55400
C  1.48600 43.65000 29.38800
C  1.02600 43.60600 30.91600
C  -0.50900 43.30700 30.85800
C  -0.80000 43.47800 29.33700
C  -0.89900 41.86400 31.27100
C  1.40700 44.80800 31.81100
C  2.11600 44.49500 33.12100
H  1.49400 43.30200 33.83500
N  -1.68800 43.43500 26.34400
C  -2.49600 43.51300 27.43700
C  -3.88300 43.66600 26.92600
C  -3.82900 43.59000 25.54100
C  -2.39900 43.36300 25.17000
C  -5.06300 43.90600 27.86400
C  -4.90300 43.79600 24.52700
O  -4.66100 43.80100 23.28800
C  -6.46400 44.14900 24.96800
N  0.65900 43.27500 24.24100
C  -0.40300 43.29600 23.43600
C  -0.04700 43.03500 21.97500
C  1.52000 43.20300 21.95200
C  1.79400 43.28600 23.49000
C  -0.56600 41.62200 21.51700
C  2.11900 44.47000 21.27800
C  1.77700 45.80900 21.80200
N  2.52600 43.66300 26.40600
C  3.40000 43.57600 25.35800
C  4.74000 43.72500 25.91700
C  4.52600 43.67300 27.28600
C  3.17600 43.69000 27.57000
C  6.03000 43.77100 25.18600
C  5.18900 43.76800 28.60100
O  6.34000 43.96800 28.83500
C  4.04900 43.77800 29.70500
C  4.29700 42.74900 30.67700
O  3.80000 41.62300 30.75300
O  5.18000 43.25200 31.58400
C  5.40000 42.50100 32.86200
H  -2.77400 43.55100 29.59200
H  -2.45300 43.47000 23.09400
H  3.85500 43.41900 23.29000
H  1.52800 42.74900 31.36400
H  -1.15000 43.97300 31.43600
H  -0.02600 41.21700 31.35200
H  -1.59700 41.42000 30.56000
H  -1.35000 41.80600 32.26200
H  0.57900 45.48100 32.03400
H  2.09700 45.51700 31.35400
H  1.99700 45.33800 33.80100
H  3.17300 44.35000 32.89600
H  -5.44900 44.89800 27.62700
H  -4.78600 43.94100 28.91800
H  -5.68500 43.02400 27.71300
H  -6.86500 43.22600 25.38600
H  -7.02800 44.38400 24.06500
H  -6.45800 45.00400 25.64400
H  -0.41600 43.64000 21.14600
H  2.09800 42.35400 21.58600
H  0.19700 40.84700 21.59500
H  -0.96900 41.62000 20.50400
H  -1.41300 41.28700 22.11500
H  1.73500 44.47100 20.25700
H  3.20200 44.35300 21.31400
H  2.73800 46.23800 22.08600
H  1.17800 45.73700 22.71000
H  1.26500 46.42100 21.06000
H  6.73000 44.50400 25.58600
H  5.90500 44.01200 24.13000
H  6.39400 42.74800 25.28300
H  4.14000 44.69400 30.28900
H  6.44000 42.18000 32.80300
H  4.77500 41.61900 33.00600
H  5.17200 43.13900 33.71600

