158

Mg -2.51300 17.57900 27.16300
C  -2.70100 15.53800 30.13300
C  -3.13800 20.28500 29.23400
C  -2.88500 19.47000 24.40500
C  -3.18300 14.77600 25.30800
N  -2.82100 17.85900 29.51600
C  -2.62300 16.95800 30.47400
C  -2.58300 17.61100 31.90300
C  -2.96800 19.10900 31.58000
C  -3.04100 19.10200 30.05400
C  -4.21800 19.67400 32.18800
C  -1.18300 17.42100 32.60900
C  -1.03200 18.19600 33.98200
H  -0.70700 17.43800 35.20100
N  -2.82800 19.54300 26.83700
C  -2.95500 20.48300 27.82500
C  -2.75200 21.79000 27.23300
C  -2.56400 21.52900 25.84700
C  -2.82900 20.14600 25.65200
C  -2.81500 23.10600 28.05700
C  -2.19200 22.51600 24.67200
O  -2.23200 22.28100 23.47200
C  -1.91500 23.97500 25.02600
N  -2.95200 17.15300 25.14700
C  -3.00400 18.11200 24.17100
C  -3.13900 17.49500 22.71100
C  -3.27500 15.96900 23.02300
C  -3.12500 15.97700 24.58000
C  -4.13900 18.13300 21.76400
C  -2.31800 15.00500 22.22700
C  -1.00000 14.72300 23.00400
N  -2.80200 15.60400 27.55600
C  -2.96700 14.55500 26.70400
C  -3.01100 13.28000 27.38100
C  -2.92100 13.64400 28.72800
C  -2.77000 15.03800 28.82000
C  -3.20500 11.86200 26.85000
C  -2.99800 13.09200 30.05300
O  -3.09000 11.94200 30.45800
C  -2.93100 14.30800 31.07700
C  -1.83600 14.14700 31.97900
O  -0.65100 14.10000 31.77800
O  -2.34200 14.13700 33.24300
C  -1.45400 13.87200 34.35400
H  -3.23000 21.18800 29.84200
H  -2.77500 19.96500 23.43800
H  -3.22700 13.82800 24.76700
H  -3.42500 17.25100 32.49300
H  -2.06400 19.67100 31.81300
H  -4.20400 20.75400 32.33400
H  -4.30800 19.15700 33.14300
H  -5.12200 19.57300 31.58700
H  -0.41200 17.84300 31.96500
H  -0.92600 16.37300 32.76000
H  -1.91200 18.83400 34.06700
H  -0.14500 18.80300 33.80200
H  -1.86700 23.64200 28.02000
H  -3.07200 22.99200 29.11000
H  -3.72900 23.63500 27.78500
H  -2.86100 24.44500 25.29500
H  -1.59900 24.49300 24.12000
H  -1.07900 23.98200 25.72500
H  -2.20100 17.70500 22.19600
H  -4.27800 15.67700 22.71300
H  -4.66700 18.95400 22.25000
H  -4.86500 17.39300 21.43000
H  -3.69200 18.60300 20.88800
H  -2.10700 15.48500 21.27100
H  -2.73800 14.05600 21.89300
H  -0.65300 15.52000 23.66200
H  -0.29600 14.45300 22.21600
H  -1.10100 13.73000 23.44200
H  -2.25500 11.37600 26.62700
H  -3.66100 11.80800 25.86200
H  -3.71700 11.25700 27.59900
H  -3.80600 14.46900 31.70600
H  -1.27200 12.80000 34.42000
H  -2.00600 14.09000 35.26800
H  -0.55200 14.47400 34.24700
Mg 24.08800 -4.85300 45.40500
C  25.99500 -2.25500 44.00500
C  21.52100 -4.18300 43.33100
C  22.70500 -7.55400 46.51600
C  27.08900 -5.82500 47.05700
N  23.85100 -3.39600 43.85600
C  24.67600 -2.41700 43.45000
C  24.02800 -1.47400 42.40800
C  22.49900 -1.91100 42.48600
C  22.58400 -3.24800 43.31000
C  21.50600 -0.90500 43.20300
C  24.77400 -1.78800 41.06700
C  25.40400 -0.63200 40.22600
H  25.11700 -0.60700 38.74400
N  22.28300 -5.78300 45.01500
C  21.30800 -5.32900 44.12300
C  20.16000 -6.16100 44.19800
C  20.45200 -7.11200 45.18700
C  21.82900 -6.82700 45.66200
C  18.91500 -5.83000 43.35100
C  19.49700 -8.23600 45.55700
O  18.35500 -8.37300 45.07200
C  19.92900 -9.37800 46.52000
N  24.96100 -6.56400 46.42000
C  24.02800 -7.45700 46.90200
C  24.65100 -8.41000 47.90300
C  25.93000 -7.69300 48.25200
C  26.08200 -6.66700 47.12100
C  23.79200 -8.97300 49.09400
C  27.17600 -8.66100 48.41800
C  27.88500 -8.86900 49.76200
N  26.14800 -4.20300 45.47500
C  27.21600 -4.75800 46.15600
C  28.34800 -3.86500 46.03600
C  27.92500 -2.90000 45.15100
C  26.57600 -3.12600 44.92300
C  29.71800 -4.00000 46.64300
C  28.40600 -1.74100 44.43300
O  29.49000 -1.22300 44.30200
C  27.06600 -1.33700 43.64300
C  26.74900 0.06500 44.08000
O  26.43100 0.51000 45.17400
O  27.02800 0.85000 42.98000
C  27.22300 2.29500 43.16200
H  20.69000 -3.91300 42.67600
H  22.22300 -8.34400 47.09600
H  27.95800 -6.03500 47.68400
H  24.23400 -0.42800 42.63500
H  22.09700 -2.02500 41.48000
H  22.10100 -0.14300 43.70700
H  20.86900 -1.41100 43.92800
H  20.81500 -0.51200 42.45800
H  24.02500 -2.34700 40.50700
H  25.54800 -2.53900 41.23100
H  26.46300 -0.80200 40.41900
H  25.06700 0.34600 40.57100
H  18.00800 -6.29500 43.73500
H  19.00800 -6.29200 42.36800
H  18.72300 -4.76100 43.26100
H  19.12300 -10.09900 46.65500
H  20.14300 -8.96900 47.50800
H  20.79000 -9.94200 46.16100
H  24.94700 -9.32300 47.38600
H  25.75700 -7.04900 49.11400
H  22.92800 -8.33200 49.26700
H  24.46900 -8.96300 49.94800
H  23.35700 -9.94100 48.84500
H  27.93400 -8.40000 47.68000
H  26.98000 -9.70400 48.16800
H  27.60400 -9.86300 50.11000
H  27.50300 -8.12900 50.46600
H  28.94600 -8.72400 49.56200
H  29.45600 -4.02200 47.70100
H  30.33200 -3.10800 46.52100
H  30.19600 -4.95100 46.40500
H  27.26600 -1.44400 42.57700
H  26.71100 2.72800 44.02100
H  26.89800 2.79300 42.24800
H  28.28400 2.54200 43.16300

