158

Mg 27.35900 49.88600 26.05800
C  25.34700 50.60600 28.84300
C  29.70800 48.57900 28.38000
C  29.38000 49.16900 23.49300
C  25.11800 51.48000 24.01000
N  27.48400 49.71700 28.43600
C  26.48300 50.02900 29.27500
C  26.83300 49.63700 30.69000
C  28.29400 49.20800 30.56000
C  28.58400 49.11600 29.03600
C  29.37400 50.03700 31.27000
C  25.89200 48.50500 31.25600
C  25.35900 48.56300 32.68300
H  26.16400 49.25500 33.81600
N  29.25500 49.02400 25.95700
C  30.04200 48.59900 27.00600
C  31.33200 48.23700 26.54300
C  31.34300 48.50500 25.12900
C  29.98000 48.94500 24.77900
C  32.48100 47.74800 27.40200
C  32.41200 48.29400 24.16400
O  32.30900 48.30600 22.93900
C  33.72400 47.93400 24.64900
N  27.23100 50.30800 24.07600
C  28.10400 49.75100 23.22500
C  27.74300 50.10500 21.75900
C  26.18900 50.52600 21.84800
C  26.14600 50.82800 23.39300
C  28.54400 51.22900 21.10800
C  25.19300 49.31400 21.45000
C  24.41000 49.44800 20.14500
N  25.61600 50.93700 26.33700
C  24.85400 51.61200 25.41800
C  23.72100 52.24600 26.15200
C  23.86000 51.79100 27.47900
C  25.03800 51.04500 27.57200
C  22.59200 52.93300 25.60200
C  23.19700 51.66400 28.71400
O  22.09200 52.12200 29.04600
C  24.16900 51.02700 29.67400
C  24.61400 52.15900 30.54600
O  25.29700 53.04500 30.18800
O  24.01200 51.93000 31.77100
C  24.31400 52.94100 32.75500
H  30.45100 48.19800 29.08400
H  30.08100 49.06500 22.66200
H  24.32000 51.87500 23.37700
H  26.82600 50.58400 31.22900
H  28.42600 48.21000 30.97700
H  29.91600 50.60000 30.51000
H  29.95800 49.30200 31.82500
H  28.86000 50.73900 31.92600
H  26.35500 47.51900 31.22600
H  25.04000 48.36900 30.59100
H  25.24700 47.54700 33.06100
H  24.38300 49.04800 32.66100
H  33.26100 48.50900 27.43300
H  32.84400 46.80400 26.99500
H  32.36800 47.53600 28.46500
H  33.62800 46.93500 25.07200
H  33.87300 48.75500 25.35100
H  34.41700 47.96000 23.80800
H  27.69000 49.18400 21.17900
H  25.99600 51.36300 21.17800
H  29.01300 50.87600 20.19000
H  29.36200 51.48100 21.78300
H  27.92200 52.07200 20.80600
H  24.49800 49.15700 22.27400
H  25.78000 48.39700 21.39300
H  24.67700 48.54600 19.59400
H  24.75800 50.30600 19.57000
H  23.33500 49.37600 20.31100
H  22.68000 53.28900 24.57500
H  22.29800 53.81700 26.16900
H  21.76000 52.22900 25.57100
H  23.74900 50.21100 30.26100
H  23.66000 52.79300 33.61500
H  24.05000 53.95400 32.45400
H  25.37200 52.87000 33.00700
Mg -12.15300 39.06700 41.45100
C  -10.17400 36.27600 40.54100
C  -9.68400 41.10000 40.01300
C  -14.34000 41.49000 41.49800
C  -14.78400 36.74400 42.16200
N  -10.21100 38.64200 40.27600
C  -9.58800 37.46300 40.10100
C  -8.14300 37.66100 39.53600
C  -7.94900 39.19000 39.71100
C  -9.36400 39.69900 39.99000
C  -6.89600 39.74500 40.76400
C  -8.01300 37.03800 38.11300
C  -7.26500 35.72300 37.92000
H  -6.08600 35.77900 36.91500
N  -12.01100 41.07200 40.95000
C  -10.95100 41.72600 40.38000
C  -11.30000 43.17900 40.27800
C  -12.66000 43.23900 40.81900
C  -13.08000 41.88800 41.01900
C  -10.42800 44.25400 39.81800
C  -13.39400 44.57000 41.00100
O  -12.87600 45.59600 40.49000
C  -14.81900 44.65800 41.56800
N  -14.26000 39.07700 41.66600
C  -14.90700 40.27400 41.77700
C  -16.42000 40.01900 41.90100
C  -16.57000 38.51200 42.05600
C  -15.10600 38.06000 42.00400
C  -17.07100 40.93800 42.98100
C  -17.39900 37.69300 41.01000
C  -18.49200 36.82600 41.73600
N  -12.42200 37.01000 41.58300
C  -13.53100 36.17800 41.95300
C  -13.14300 34.80500 41.92400
C  -11.82900 34.84000 41.44200
C  -11.44300 36.14100 41.16800
C  -14.00700 33.62100 42.31500
C  -10.77400 33.99500 41.09000
O  -10.60300 32.77900 41.31500
C  -9.70600 34.91900 40.43700
C  -8.38200 34.69500 41.09900
O  -7.50500 33.90400 40.75900
O  -8.18300 35.52100 42.17000
C  -6.98900 35.31900 43.10000
H  -8.84300 41.75100 39.76300
H  -15.17600 42.18200 41.37600
H  -15.56800 36.00600 42.34500
H  -7.45100 37.19700 40.24000
H  -7.53100 39.48100 38.74700
H  -7.25100 40.71800 41.10300
H  -5.91900 39.75400 40.27900
H  -6.90800 38.98800 41.54800
H  -7.60100 37.75300 37.40100
H  -9.05800 36.93900 37.82200
H  -8.00200 34.96800 37.64700
H  -6.78300 35.36900 38.83200
H  -10.46300 45.11000 40.49100
H  -10.66900 44.29500 38.75600
H  -9.39700 43.90800 39.74200
H  -15.61900 44.37500 40.88500
H  -15.04400 45.64400 41.97400
H  -14.84600 44.02400 42.45400
H  -16.72600 40.23800 40.87800
H  -16.93600 38.24700 43.04800
H  -17.71400 41.59700 42.39700
H  -16.29700 41.50800 43.49500
H  -17.58700 40.41400 43.78500
H  -16.85200 36.97500 40.39900
H  -17.98800 38.33600 40.35600
H  -19.43100 37.33900 41.52700
H  -18.40300 36.74500 42.82000
H  -18.53400 35.86500 41.22400
H  -14.87800 33.88900 42.91300
H  -13.45700 32.78700 42.75100
H  -14.43800 33.25400 41.38300
H  -9.47400 34.73600 39.38800
H  -7.31600 35.67900 44.07500
H  -6.07300 35.82700 42.79800
H  -6.76500 34.25200 43.10400

