158

Mg 2.37000 -1.73400 43.34300
C  5.82000 -0.93200 42.73800
C  1.47800 1.04300 41.66600
C  -0.71700 -2.85200 43.48800
C  3.53600 -4.87700 44.61900
N  3.56200 -0.21600 42.16800
C  4.92600 0.03600 42.24600
C  5.32200 1.37000 41.65000
C  3.87500 2.05600 41.44700
C  2.90000 0.89500 41.83500
C  3.69600 3.39700 42.34500
C  6.09700 1.24600 40.30800
C  7.43600 2.00200 40.21000
H  8.05600 2.32900 38.79700
N  0.58500 -1.04800 42.59000
C  0.40300 0.17900 42.04400
C  -0.98100 0.34300 41.66600
C  -1.66000 -0.68600 42.32300
C  -0.61100 -1.61800 42.82000
C  -1.56800 1.41200 40.80600
C  -3.21700 -0.82500 42.30800
O  -3.87000 0.08400 41.86300
C  -3.91100 -2.05100 42.89900
N  1.53000 -3.61000 44.04400
C  0.20200 -3.80200 43.97900
C  -0.16300 -5.19200 44.47300
C  1.21600 -5.81600 44.89800
C  2.11300 -4.70500 44.43400
C  -1.30700 -5.11800 45.60400
C  1.61800 -7.14300 44.27000
C  1.54400 -8.41200 45.15100
N  4.24600 -2.77100 43.62500
C  4.49300 -3.96900 44.24500
C  5.88100 -4.08900 44.49600
C  6.45800 -2.93400 43.92500
C  5.42400 -2.20600 43.31600
C  6.59700 -5.18900 45.24600
C  7.72900 -2.17500 43.73500
O  8.89000 -2.36600 44.09500
C  7.32700 -0.80200 43.04300
C  7.57100 0.38000 43.92000
O  6.82500 0.79400 44.82500
O  8.63400 1.04900 43.44400
C  8.86100 2.40300 43.96300
H  1.18500 2.01200 41.25500
H  -1.77500 -3.12000 43.51200
H  3.88600 -5.74400 45.18200
H  5.88900 1.86200 42.44000
H  3.63500 2.27800 40.40700
H  4.70400 3.68300 42.64400
H  3.16100 3.00900 43.21200
H  3.22400 4.21500 41.80200
H  5.53600 1.52600 39.41700
H  6.49700 0.25100 40.11400
H  8.29300 1.53100 40.69000
H  7.26200 2.94500 40.72800
H  -2.25700 0.94500 40.10200
H  -0.76400 1.86500 40.22500
H  -1.97600 2.20700 41.42900
H  -4.92400 -1.65600 42.81500
H  -3.62700 -1.98300 43.94900
H  -3.82100 -2.93000 42.26100
H  -0.53700 -5.75900 43.62000
H  1.27800 -5.81500 45.98600
H  -2.23500 -5.60600 45.30700
H  -1.67600 -4.11600 45.82400
H  -0.92800 -5.51400 46.54700
H  2.60600 -7.09600 43.81400
H  0.86500 -7.27600 43.49300
H  2.34000 -9.09700 44.85900
H  0.64300 -8.96200 44.88000
H  1.49900 -8.18200 46.21600
H  7.16800 -5.81600 44.56200
H  5.99000 -5.89000 45.81900
H  7.29500 -4.64900 45.88600
H  7.81600 -0.59200 42.09200
H  8.50400 3.23600 43.35800
H  9.94800 2.44500 44.03300
H  8.48400 2.53800 44.97800
Mg 9.37000 48.34100 25.73300
C  7.12600 49.09100 28.37300
C  11.92300 49.23500 27.69900
C  11.36200 47.88600 23.04300
C  6.54800 48.20000 23.57400
N  9.47300 49.18200 27.79000
C  8.46600 49.22300 28.73400
C  9.05800 49.46300 30.17200
C  10.53000 49.87700 29.81600
C  10.66900 49.36000 28.36900
C  10.88800 51.38800 29.91800
C  8.75000 48.21300 31.13900
C  9.78500 48.01700 32.27500
H  9.41600 47.07800 33.41000
N  11.37600 48.52700 25.40200
C  12.29500 48.87000 26.36800
C  13.61800 48.62700 25.87000
C  13.44400 48.13000 24.55000
C  12.04100 48.20400 24.22400
C  14.90700 48.90600 26.64300
C  14.53600 47.67200 23.61000
O  14.36900 47.18100 22.51100
C  15.98300 47.83300 24.03500
N  8.99100 47.93900 23.67400
C  10.01400 47.73500 22.76400
C  9.32900 47.30600 21.44300
C  7.81000 47.45300 21.65700
C  7.81000 48.01100 22.97000
C  9.90900 48.02400 20.21700
C  7.15600 46.16400 21.49300
C  7.44300 45.00600 22.44600
N  7.25000 48.54500 25.88800
C  6.24500 48.37700 24.95900
C  4.95000 48.49100 25.64000
C  5.31400 48.79700 26.99700
C  6.68200 48.77200 27.08600
C  3.56800 48.26400 25.01000
C  4.75400 49.13600 28.27400
O  3.60500 49.29000 28.65200
C  5.88500 49.13900 29.26700
C  5.54000 47.89000 30.15500
O  5.62300 46.72000 29.77800
O  5.05200 48.31500 31.34700
C  4.26800 47.26400 32.11500
H  12.76500 49.54900 28.31900
H  11.99000 47.79300 22.15500
H  5.70500 48.09300 22.88900
H  8.53900 50.31700 30.60700
H  11.19000 49.21000 30.37000
H  10.12000 51.94200 30.45800
H  10.90200 51.64300 28.85900
H  11.87000 51.48100 30.38200
H  8.82200 47.32000 30.51800
H  7.72000 48.19700 31.49400
H  10.05800 48.86300 32.90600
H  10.66500 47.48100 31.92100
H  14.71200 49.15700 27.68600
H  15.42100 49.80400 26.30100
H  15.66900 48.12700 26.60200
H  16.08900 47.05700 24.79300
H  16.18300 48.84500 24.39000
H  16.61100 47.68700 23.15700
H  9.67500 46.27400 21.38600
H  7.43500 48.13700 20.89500
H  10.45300 47.33800 19.56700
H  10.56900 48.82000 20.56300
H  9.11700 48.48400 19.62600
H  7.43800 45.84500 20.49000
H  6.07600 46.31000 21.45400
H  8.10900 44.37200 21.86300
H  6.49500 44.50400 22.64000
H  7.93400 45.32500 23.36600
H  2.82500 47.65300 25.52300
H  3.72800 47.85300 24.01400
H  3.21700 49.28400 24.85500
H  5.75900 50.02900 29.88400
H  3.44700 46.82600 31.54800
H  3.87900 47.64300 33.06000
H  4.98400 46.46900 32.32300

