158

Mg 26.06300 51.29500 26.28300
C  24.12800 52.17200 29.15400
C  28.77300 50.68600 28.43400
C  28.08300 51.29200 23.59000
C  23.33000 52.24000 24.24500
N  26.32700 51.42300 28.49400
C  25.38800 51.70200 29.46600
C  25.93000 51.38200 30.94100
C  27.49500 51.03600 30.60700
C  27.54700 51.03300 29.05600
C  28.62900 51.90000 31.28600
C  25.24200 50.27300 31.65500
C  24.57300 50.58400 33.00500
H  25.32500 51.32100 34.16200
N  28.09100 50.89000 25.99500
C  29.04700 50.59100 27.02900
C  30.37100 50.45400 26.39700
C  30.11900 50.64400 25.01100
C  28.70100 50.92500 24.78200
C  31.59200 50.17400 27.27000
C  31.10900 50.58800 23.80700
O  30.75900 50.67000 22.62200
C  32.54400 50.29800 24.15400
N  25.77100 51.89400 24.18800
C  26.76100 51.64800 23.29600
C  26.28100 52.13500 21.92100
C  24.74700 52.27800 22.01500
C  24.58300 52.18600 23.61100
C  26.91600 53.63200 21.68300
C  23.91500 51.30600 21.14700
C  23.89200 49.94500 21.76200
N  24.09000 51.97700 26.62300
C  23.08900 52.23900 25.68000
C  21.93300 52.66400 26.41100
C  22.27200 52.66100 27.77300
C  23.59300 52.27900 27.82400
C  20.55700 52.96100 25.88500
C  21.79000 52.93600 29.18000
O  20.68600 53.30500 29.60900
C  22.93900 52.51800 30.12600
C  23.24500 53.57000 31.03500
O  23.95300 54.48800 30.71500
O  22.55100 53.37400 32.21000
C  22.63400 54.42600 33.20100
H  29.51100 50.34000 29.16100
H  28.64300 51.24000 22.65300
H  22.41300 52.38500 23.67000
H  25.75700 52.24100 31.58800
H  27.60800 50.00200 30.93100
H  29.26100 51.26000 31.90100
H  28.19500 52.65500 31.94200
H  29.12500 52.55800 30.57200
H  25.90000 49.43000 31.87000
H  24.41400 49.86900 31.07200
H  24.33500 49.57600 33.34600
H  23.65800 51.15700 32.85100
H  31.27400 50.04300 28.30400
H  32.24700 51.04400 27.31100
H  32.11200 49.27400 26.94400
H  32.73600 49.30800 24.56800
H  32.82500 51.08100 24.85900
H  33.10000 50.34400 23.21800
H  26.57500 51.61100 21.01200
H  24.43600 53.29500 21.77600
H  27.87900 53.48000 21.19500
H  26.98200 54.22600 22.59400
H  26.26900 54.15800 20.98100
H  24.35200 51.29300 20.14800
H  22.90200 51.69300 21.03500
H  24.28700 49.27700 20.99600
H  22.86200 49.71900 22.03800
H  24.48700 49.78400 22.66100
H  20.42300 52.39800 24.96100
H  20.68200 54.01800 25.65000
H  19.70300 52.73700 26.52400
H  22.61000 51.60300 30.61900
H  22.26600 54.11800 34.18000
H  21.94300 55.15700 32.78200
H  23.61800 54.89400 33.19600
Mg -10.14400 17.54500 42.65300
C  -6.72300 16.53400 42.24600
C  -9.22600 20.65300 41.89100
C  -13.36800 18.00700 41.99900
C  -10.86900 13.95100 42.76000
N  -8.13500 18.44500 41.93500
C  -6.89100 17.90700 41.99300
C  -5.79000 19.10800 41.85700
C  -6.66100 20.33400 41.98000
C  -8.09000 19.78600 41.96200
C  -6.52500 21.40500 43.13600
C  -4.97800 19.04500 40.55400
C  -5.72000 18.52700 39.32000
H  -5.38700 19.01500 37.88900
N  -11.15900 19.14200 42.04700
C  -10.62700 20.36100 41.76800
C  -11.64700 21.26500 41.37200
C  -12.87700 20.50600 41.39800
C  -12.51300 19.18500 41.85600
C  -11.34900 22.69000 40.97900
C  -14.14400 21.12400 40.95800
O  -14.16400 22.25500 40.55700
C  -15.52200 20.44000 40.90600
N  -11.88700 16.17500 42.63000
C  -13.10500 16.69900 42.34000
C  -14.18800 15.59600 42.30200
C  -13.27600 14.33000 42.17700
C  -11.90200 14.86100 42.59800
C  -15.13700 15.46200 43.52000
C  -13.13700 13.71100 40.69900
C  -14.36900 12.89800 40.28000
N  -9.06200 15.62200 42.74500
C  -9.50900 14.30500 42.80600
C  -8.33600 13.49400 42.99900
C  -7.23500 14.34200 42.88200
C  -7.72800 15.63600 42.63700
C  -8.29900 12.07000 43.21000
C  -5.72300 14.42600 42.88500
O  -4.93100 13.55000 43.03200
C  -5.40300 15.88400 42.61400
C  -4.82600 16.51200 43.81100
O  -5.37800 16.76600 44.89800
O  -3.52200 16.89600 43.60100
C  -2.81800 17.50400 44.73200
H  -8.86500 21.66400 41.69600
H  -14.43600 18.12100 41.80000
H  -11.15100 12.89800 42.82900
H  -5.18300 19.06800 42.76200
H  -6.51300 20.96700 41.10500
H  -5.60100 21.16300 43.66200
H  -7.36600 21.34600 43.82700
H  -6.46100 22.43000 42.77000
H  -4.07400 18.46300 40.73300
H  -4.77400 20.09200 40.33100
H  -6.79600 18.51800 39.49400
H  -5.38000 17.50900 39.12700
H  -11.35600 22.79800 39.89400
H  -10.35500 23.02300 41.27800
H  -12.05800 23.42600 41.35800
H  -15.95500 20.46600 41.90600
H  -15.28400 19.48000 40.44900
H  -16.12300 20.98300 40.17700
H  -14.79100 15.68900 41.39900
H  -13.59700 13.54700 42.86400
H  -15.00200 14.52700 44.06400
H  -16.19700 15.55700 43.28700
H  -14.88500 16.31600 44.14900
H  -12.18100 13.21100 40.54600
H  -13.25900 14.53100 39.99100
H  -14.87400 13.54100 39.55800
H  -15.03700 12.63100 41.09900
H  -14.03600 11.93300 39.90000
H  -7.32000 11.59500 43.15000
H  -8.93500 11.63600 42.43900
H  -8.62400 11.83900 44.22400
H  -4.71400 15.97300 41.77400
H  -2.51000 18.39700 44.18900
H  -2.08300 16.75100 45.01700
H  -3.41500 17.76800 45.60500

