158

Mg 40.64400 9.66500 30.05300
C  42.54600 10.85200 32.72300
C  38.39100 8.22700 32.40200
C  39.11300 8.10400 27.64300
C  43.12300 10.76700 27.86100
N  40.65100 9.41300 32.30700
C  41.42100 10.13400 33.21200
C  40.84300 10.18700 34.55600
C  39.58200 9.27000 34.48600
C  39.49500 8.96800 32.93500
C  39.49200 8.01600 35.39700
C  40.58200 11.59700 35.16000
C  41.12500 11.96200 36.52500
H  40.23100 12.31200 37.69000
N  39.04200 8.31900 30.01200
C  38.18100 7.94600 31.03600
C  37.07100 7.11300 30.48700
C  37.28600 7.08800 29.08800
C  38.50500 7.83000 28.83900
C  35.91200 6.63800 31.31900
C  36.37300 6.49600 27.93400
O  36.60100 6.55000 26.68100
C  35.08300 5.81400 28.29200
N  41.08800 9.54100 28.01100
C  40.24800 8.82100 27.23700
C  40.72800 9.02800 25.72200
C  41.84600 10.00200 25.79700
C  42.06400 10.10500 27.28600
C  41.15000 7.77400 24.84100
C  41.55400 11.39300 25.18100
C  40.69600 12.39600 25.91900
N  42.48600 10.74300 30.24700
C  43.41800 11.08800 29.25800
C  44.51500 11.80900 29.84600
C  44.16900 11.82500 31.25800
C  42.98800 11.08800 31.39800
C  45.67600 12.50800 29.22000
C  44.58500 12.30300 32.53900
O  45.53600 12.94300 32.92000
C  43.51400 11.65300 33.59200
C  44.26200 10.86600 34.65100
O  44.77200 9.70900 34.58300
O  44.27900 11.60300 35.79300
C  44.88100 10.93900 36.94700
H  37.80100 7.73000 33.17500
H  38.67900 7.60900 26.77200
H  43.83200 11.01600 27.06900
H  41.60500 9.81100 35.23900
H  38.68200 9.84100 34.71200
H  39.81900 7.14900 34.82200
H  38.52400 7.88000 35.87800
H  40.31400 8.21400 36.08500
H  39.52200 11.80200 35.31300
H  40.83200 12.32100 34.38600
H  41.71700 12.86800 36.39500
H  41.70100 11.11000 36.88800
H  36.01300 6.74400 32.39900
H  35.63600 5.58700 31.22700
H  35.05500 7.25800 31.05600
H  34.44600 5.67400 27.41900
H  34.64600 6.54800 28.96800
H  35.25600 4.88700 28.84000
H  39.89300 9.43400 25.15000
H  42.79100 9.66400 25.37300
H  40.65600 8.00800 23.89800
H  40.70900 6.88400 25.29100
H  42.23300 7.67400 24.76800
H  41.01800 11.18000 24.25600
H  42.42700 11.96100 24.85900
H  40.27500 12.02400 26.85300
H  39.85000 12.44300 25.23400
H  41.11700 13.39900 25.99300
H  46.01800 13.40500 29.73500
H  45.61300 12.82500 28.17900
H  46.53100 11.83700 29.14400
H  43.05400 12.54400 34.01800
H  44.26000 10.09100 37.23700
H  45.06200 11.62700 37.77300
H  45.87900 10.62600 36.63900
Mg 6.72800 53.93100 41.81500
C  6.46500 50.44200 41.49600
C  9.81000 53.73600 40.32100
C  6.72100 57.19600 41.75300
C  3.53400 53.87800 43.22500
N  7.82100 52.32000 40.73100
C  7.61500 50.98300 40.78000
C  8.62600 50.14900 40.05100
C  9.81400 51.17200 40.09400
C  9.16200 52.51800 40.31700
C  10.94100 50.81400 41.06300
C  8.26900 49.68700 38.63300
C  7.24400 50.48600 37.85200
H  6.89800 50.16800 36.40300
N  8.14500 55.28900 41.20500
C  9.36800 55.07100 40.63700
C  10.05900 56.33400 40.47800
C  9.19500 57.33900 40.96900
C  8.01900 56.66200 41.43300
C  11.41100 56.44800 39.94900
C  9.55900 58.77500 40.95600
O  10.46900 59.19000 40.26800
C  8.77900 59.69200 41.88000
N  5.12800 55.36300 42.13400
C  5.50900 56.72900 42.19000
C  4.47000 57.54200 42.91100
C  3.39000 56.42300 43.37600
C  4.06400 55.15100 42.90500
C  5.01400 58.54300 43.92000
C  1.95200 56.47300 42.82300
C  0.78100 56.60100 43.82500
N  5.20000 52.47800 42.27400
C  4.03700 52.62600 42.90000
C  3.53500 51.32700 43.29900
C  4.44500 50.44100 42.78000
C  5.41100 51.15600 42.09900
C  2.23800 51.01800 43.98100
C  4.77300 48.99900 42.55800
O  4.25000 47.96000 42.90900
C  6.01300 48.97000 41.59800
C  5.52400 48.25000 40.38400
O  4.85100 48.65600 39.43300
O  5.74600 46.89300 40.53200
C  5.29400 46.10400 39.39500
H  10.85300 53.67900 40.00500
H  6.56600 58.27600 41.79800
H  2.59000 53.81100 43.76900
H  9.00300 49.28000 40.59000
H  10.34100 51.26200 39.14500
H  11.87300 50.80100 40.49800
H  10.91000 49.79500 41.44800
H  10.92100 51.63600 41.77800
H  7.86300 48.68100 38.73200
H  9.19100 49.72000 38.05200
H  7.48400 51.54300 37.97300
H  6.29500 50.29200 38.35100
H  11.39900 56.66600 38.88200
H  11.93300 55.52500 40.20000
H  11.90900 57.18100 40.58400
H  8.42800 59.31000 42.83900
H  7.91000 60.07900 41.34700
H  9.49300 60.48600 42.09800
H  3.97500 58.13900 42.14600
H  3.36800 56.48300 44.46400
H  4.88800 59.56800 43.57200
H  6.07300 58.42400 44.15200
H  4.40900 58.56300 44.82700
H  1.80700 55.55500 42.25300
H  1.87300 57.34400 42.17300
H  0.29700 57.57600 43.76900
H  1.00000 56.44800 44.88200
H  -0.00800 55.89800 43.55800
H  1.47700 51.54200 43.40200
H  2.19300 51.18400 45.05800
H  2.02700 49.95100 43.91600
H  6.79400 48.40400 42.10700
H  5.82100 46.49600 38.52500
H  4.22300 46.26900 39.27200
H  5.49300 45.04200 39.53600

