158

Mg 34.90000 3.91300 30.02800
C  32.41900 5.06700 32.26100
C  37.04300 3.67300 32.51800
C  37.24100 3.45000 27.83700
C  32.61100 4.73800 27.49600
N  34.71900 4.30600 32.17600
C  33.60100 4.69800 32.89800
C  33.95900 4.62800 34.37100
C  35.55800 4.50500 34.44500
C  35.79100 4.13000 32.96600
C  36.32500 5.77000 34.83500
C  33.16000 3.38400 34.89100
C  32.43300 3.55300 36.22500
H  33.01700 4.53300 37.16500
N  36.81600 3.44700 30.17400
C  37.52400 3.29200 31.25000
C  38.84800 2.86200 30.89500
C  38.90000 2.72900 29.50800
C  37.60900 3.21000 29.11200
C  39.89800 2.70500 32.04200
C  40.01300 2.26000 28.64300
O  39.90500 1.85300 27.50800
C  41.41500 2.09700 29.28000
N  34.92800 4.09700 27.95400
C  36.09000 3.90100 27.25400
C  35.90900 4.31400 25.75400
C  34.40100 4.77700 25.74200
C  33.95100 4.47100 27.14500
C  36.93500 5.42500 25.35400
C  33.49400 4.06700 24.62500
C  32.70300 2.80600 24.91300
N  32.81500 4.51600 29.82300
C  32.03800 4.81400 28.74900
C  30.72600 5.14400 29.16400
C  30.83700 5.21900 30.55700
C  32.15100 4.92600 30.88900
C  29.48900 5.41900 28.29100
C  30.06600 5.78600 31.71000
O  29.01000 6.41300 31.85400
C  31.05900 5.46400 32.88200
C  31.16900 6.66700 33.70700
O  32.06300 7.48300 33.64200
O  30.22900 6.75500 34.70100
C  30.45800 7.70700 35.83900
H  37.74400 3.64600 33.35500
H  38.01800 3.29700 27.08600
H  32.10500 5.19700 26.64400
H  33.51600 5.53500 34.78200
H  35.90800 3.64800 35.02200
H  36.92400 6.17300 34.01900
H  37.09800 5.60000 35.58500
H  35.73400 6.61700 35.18200
H  33.80400 2.55500 35.18400
H  32.46600 2.91700 34.19200
H  32.49600 2.64900 36.83100
H  31.41800 3.86200 35.97700
H  40.63300 1.93900 31.79500
H  39.50300 2.40400 33.01300
H  40.30700 3.62600 32.45900
H  42.08000 2.22900 28.42700
H  41.58600 1.08700 29.65400
H  41.73500 2.87700 29.97100
H  35.96100 3.40800 25.15100
H  34.36100 5.85000 25.55300
H  36.37300 6.34000 25.16500
H  37.34100 5.09300 24.39900
H  37.70900 5.62900 26.09400
H  34.13800 3.85800 23.77100
H  32.83500 4.80800 24.17100
H  31.64500 2.98800 24.72200
H  32.90100 2.54400 25.95300
H  33.00500 1.94200 24.32100
H  28.72900 4.65300 28.44600
H  29.76300 5.35800 27.23700
H  29.07200 6.42300 28.36000
H  30.68400 4.64600 33.49600
H  29.71100 7.41400 36.57600
H  30.30800 8.66600 35.34200
H  31.46300 7.59400 36.24700
Mg 50.18800 34.56200 27.89100
C  48.05200 33.63100 30.54500
C  50.88200 37.38200 29.49700
C  51.95100 35.47500 25.21800
C  48.99000 31.69300 26.21400
N  49.58100 35.33000 29.80100
C  48.81000 34.71300 30.81600
C  49.08700 35.44700 32.13000
C  49.47100 36.92300 31.66400
C  50.09900 36.52600 30.22700
C  48.31900 37.93600 31.56800
C  50.21400 34.76700 32.90700
C  50.27300 34.92100 34.51700
H  49.18000 35.77800 35.24200
N  51.31000 36.17800 27.43000
C  51.49100 37.28800 28.21200
C  52.45800 38.13200 27.55700
C  52.73600 37.58400 26.25800
C  52.03500 36.34500 26.26800
C  52.95400 39.36200 28.29000
C  53.65300 38.06000 25.18900
O  53.86300 37.46800 24.13800
C  54.57400 39.17000 25.50300
N  50.15000 33.82600 25.85200
C  51.10800 34.34600 25.03600
C  51.43300 33.44000 23.87900
C  50.65100 32.08200 24.27300
C  49.83100 32.58700 25.52600
C  51.02700 34.08800 22.54000
C  51.61000 30.92200 24.60000
C  51.13300 29.51100 24.10600
N  48.77600 32.96500 28.18800
C  48.47100 31.86300 27.51100
C  47.58700 30.97700 28.23900
C  47.31500 31.67900 29.38900
C  48.12000 32.84200 29.37900
C  47.08300 29.68400 27.67900
C  46.52900 31.65800 30.61900
O  45.80400 30.83700 31.10500
C  47.01100 32.95800 31.44600
C  47.37400 32.46500 32.79300
O  48.34600 31.78200 32.95000
O  46.41800 32.92800 33.71400
C  46.63400 32.46700 35.06700
H  51.14300 38.20000 30.17100
H  52.75800 35.53700 24.48500
H  48.90500 30.77700 25.62500
H  48.18900 35.47400 32.74800
H  50.13400 37.45600 32.34500
H  47.67000 37.94400 32.44300
H  47.72500 37.58400 30.72500
H  48.68100 38.94900 31.39400
H  51.15700 35.13100 32.49900
H  50.07800 33.68900 32.81900
H  51.29500 35.15600 34.81300
H  50.15000 33.89600 34.86400
H  54.04200 39.36900 28.34500
H  52.54400 39.57600 29.27700
H  52.70100 40.22800 27.67900
H  54.11900 40.06800 25.92300
H  55.19500 39.45000 24.65300
H  55.25500 38.80500 26.27200
H  52.51200 33.29600 23.91900
H  50.02500 31.80600 23.42500
H  50.71900 35.10500 22.78000
H  50.16100 33.59700 22.09500
H  51.94200 34.05600 21.94700
H  51.69100 30.86200 25.68500
H  52.61300 30.91500 24.17300
H  52.02100 28.96900 23.78100
H  50.44600 29.56800 23.26200
H  50.74300 29.07900 25.02800
H  47.41300 29.62800 26.64200
H  45.99600 29.72900 27.73900
H  47.49300 28.83000 28.21800
H  46.11200 33.57100 31.51000
H  47.60300 32.79400 35.44400
H  46.58200 31.37900 35.09700
H  45.82900 32.73100 35.75300

