158

Mg 26.21300 1.13500 29.75700
C  28.44900 0.92300 32.52100
C  23.68700 1.41100 32.16800
C  24.10600 1.37100 27.21100
C  28.75600 0.26900 27.64900
N  26.11600 0.94300 32.10400
C  27.13800 1.10900 32.98000
C  26.68200 1.30600 34.43200
C  25.17600 1.41800 34.20300
C  24.94400 1.34200 32.71100
C  24.33100 0.46100 35.01800
C  27.29600 2.54600 35.15600
C  27.52600 2.44000 36.66800
H  26.88700 3.46200 37.59500
N  24.12400 1.34000 29.70800
C  23.27400 1.41500 30.76200
C  21.95200 1.59700 30.25300
C  22.06900 1.62300 28.85100
C  23.50600 1.43100 28.52200
C  20.76100 1.63100 31.19200
C  20.98100 1.57300 27.84100
O  21.24500 1.52000 26.66400
C  19.61100 1.73800 28.30300
N  26.33500 0.72200 27.61400
C  25.38300 1.07600 26.75500
C  25.81000 1.12500 25.36700
C  27.39200 0.85700 25.47900
C  27.52700 0.57800 27.02200
C  25.15700 0.13900 24.32500
C  28.34200 2.01800 25.12700
C  29.29300 1.70100 23.99400
N  28.24100 0.59300 30.00400
C  29.14300 0.19000 29.04200
C  30.35500 -0.19100 29.72700
C  30.21200 0.15000 31.12100
C  28.86600 0.61700 31.24100
C  31.58200 -0.53800 29.01500
C  30.76700 0.19200 32.38400
O  31.87100 -0.10000 32.82100
C  29.73300 0.77800 33.35200
C  29.69400 -0.03500 34.54300
O  29.09000 -1.10300 34.68300
O  30.56000 0.57600 35.52100
C  30.34500 -0.07100 36.83800
H  22.92100 1.53600 32.93700
H  23.49600 1.56700 26.32700
H  29.44800 -0.09000 26.88500
H  26.86100 0.39200 34.99800
H  24.91400 2.36100 34.68300
H  24.83700 -0.43500 35.37900
H  23.50000 0.03300 34.45800
H  23.94400 0.87300 35.94900
H  26.73800 3.47300 35.02500
H  28.28100 2.79300 34.76000
H  28.57300 2.45900 36.96900
H  27.20500 1.45300 37.00200
H  20.32900 2.63100 31.15400
H  21.00000 1.41700 32.23400
H  20.05600 0.84000 30.93600
H  19.37200 0.87800 28.92900
H  18.93100 1.90500 27.46800
H  19.61000 2.68600 28.84100
H  25.49100 2.12500 25.07200
H  27.65600 -0.13600 25.11600
H  24.39500 -0.46500 24.81700
H  25.78700 -0.39700 23.61500
H  24.53000 0.72800 23.65600
H  28.96200 2.25500 25.99100
H  27.71100 2.84600 24.80500
H  29.26200 2.53500 23.29300
H  28.93700 0.86500 23.39100
H  30.31400 1.52000 24.32900
H  31.44200 -1.31000 28.25900
H  32.32900 -0.98500 29.67000
H  32.09900 0.35300 28.65900
H  30.02600 1.78900 33.63400
H  31.11200 -0.83100 36.98700
H  29.40800 -0.61900 36.93200
H  30.51500 0.62300 37.66200
Mg 44.58200 5.33900 47.23000
C  42.63600 8.22800 47.01300
C  41.82300 3.52700 46.36000
C  46.62900 2.71700 46.70800
C  47.40500 7.40200 47.57600
N  42.46200 5.82900 46.66900
C  41.89800 7.11800 46.66700
C  40.40600 7.10600 46.20800
C  40.11400 5.55000 46.35100
C  41.50400 4.85800 46.49900
C  39.21600 5.25300 47.63500
C  40.01700 7.89700 44.94900
C  41.11900 7.74700 43.82200
H  40.74400 8.11500 42.38300
N  44.29200 3.37500 46.70100
C  43.03300 2.76400 46.44800
C  43.23400 1.36600 46.04000
C  44.64200 1.15800 45.97800
C  45.26000 2.40300 46.46900
C  42.20200 0.34900 45.58700
C  45.30400 -0.13900 45.30700
O  44.55900 -1.00500 44.87900
C  46.83000 -0.25200 45.29000
N  46.73400 5.15900 47.07700
C  47.29500 3.92600 46.92200
C  48.83600 4.03500 46.89000
C  49.03200 5.55200 47.20600
C  47.64300 6.06400 47.31400
C  49.58200 3.21600 47.98900
C  49.89400 6.32800 46.14600
C  51.02100 7.19900 46.69400
N  45.02600 7.37300 47.31500
C  46.19800 8.08400 47.51100
C  45.91200 9.50100 47.52600
C  44.52200 9.60800 47.36400
C  44.04200 8.27200 47.23400
C  46.86900 10.66200 47.37800
C  43.39000 10.53700 47.14800
O  43.41700 11.77500 47.00000
C  42.09800 9.63100 47.21000
C  41.46700 9.82800 48.46000
O  41.66900 9.18200 49.45400
O  40.49600 10.83200 48.34900
C  39.53700 10.77200 49.45500
H  40.87600 3.04200 46.11400
H  47.21800 1.80300 46.60500
H  48.26800 8.07100 47.58700
H  39.77900 7.62300 46.93400
H  39.68500 5.16300 45.42600
H  39.05900 6.14100 48.24800
H  39.68600 4.49000 48.25600
H  38.31800 4.85900 47.16000
H  40.04400 8.94600 45.24400
H  39.07600 7.44900 44.62800
H  41.38700 6.69500 43.72500
H  41.96200 8.33300 44.18800
H  42.08500 -0.53500 46.21400
H  42.41400 0.08100 44.55200
H  41.25700 0.88600 45.66500
H  46.97600 -1.23900 44.85100
H  47.25200 -0.30900 46.29300
H  47.19900 0.60900 44.73400
H  49.15000 3.63800 45.92500
H  49.46300 5.68600 48.19800
H  49.19900 3.35000 49.00100
H  50.61600 3.51900 47.82700
H  49.49400 2.13400 47.88700
H  49.26300 7.07900 45.67000
H  50.30900 5.65600 45.39500
H  51.91400 7.04700 46.08700
H  51.17700 6.91800 47.73500
H  50.87500 8.27500 46.60400
H  47.51200 10.55700 46.50500
H  47.47000 10.62800 48.28700
H  46.43700 11.66300 47.39500
H  41.48400 10.00800 46.39200
H  38.98300 9.83400 49.49000
H  38.66900 11.40300 49.26300
H  39.92500 10.89200 50.46700

