158

Mg 46.28000 25.42800 28.47000
C  46.96600 27.57800 31.13200
C  45.16700 23.08100 30.61200
C  46.50500 23.15200 25.96600
C  47.59400 27.82900 26.35700
N  46.18900 25.32300 30.53900
C  46.41200 26.33400 31.43500
C  45.88500 25.93800 32.84000
C  45.47200 24.49800 32.68100
C  45.56800 24.32000 31.18300
C  46.39700 23.57300 33.49100
C  44.75800 26.95200 33.35500
C  45.09000 27.72800 34.65200
H  44.03100 27.73000 35.68600
N  45.79500 23.42200 28.31200
C  45.38700 22.56400 29.33500
C  45.10000 21.25500 28.85900
C  45.61900 21.22700 27.55100
C  46.04200 22.58500 27.23900
C  44.38500 20.23600 29.67600
C  45.71600 20.02600 26.59200
O  46.19700 20.12200 25.45900
C  45.31700 18.60300 27.05300
N  46.90100 25.48900 26.58400
C  46.92700 24.41200 25.69400
C  47.32300 24.78500 24.26000
C  47.41500 26.32800 24.32100
C  47.27500 26.58900 25.79500
C  48.73600 24.26700 23.71500
C  46.29800 27.10900 23.58700
C  44.79900 27.08400 24.11800
N  47.12500 27.30200 28.66100
C  47.57100 28.21200 27.69800
C  47.97200 29.39900 28.26400
C  47.86200 29.17300 29.68900
C  47.28500 27.87000 29.85100
C  48.38000 30.63000 27.54100
C  47.92900 29.88000 30.92900
O  48.21700 31.00600 31.28400
C  47.45100 28.75700 32.00900
C  48.57500 28.44100 32.87500
O  49.58700 27.85500 32.54500
O  48.33200 28.94700 34.13400
C  49.27300 28.39900 35.08300
H  44.66500 22.45700 31.35500
H  46.57300 22.45100 25.13200
H  47.88900 28.50600 25.55200
H  46.74500 26.08800 33.49300
H  44.43800 24.35400 32.99200
H  46.85300 24.08600 34.33700
H  47.03100 23.08200 32.75200
H  45.80100 22.83200 34.02400
H  43.93900 26.30400 33.66800
H  44.37500 27.60400 32.57000
H  45.09800 28.77600 34.35300
H  46.05500 27.33100 34.96600
H  43.41100 19.90300 29.31700
H  44.19200 20.52400 30.71000
H  45.03100 19.37100 29.82400
H  44.23000 18.57500 27.13100
H  45.82400 18.33800 27.98100
H  45.41900 17.75300 26.37800
H  46.63900 24.47300 23.47000
H  48.31900 26.83400 23.98300
H  49.53900 25.00300 23.73600
H  48.73400 23.92700 22.67900
H  49.00600 23.41300 24.33700
H  46.27600 26.67300 22.58800
H  46.63600 28.13900 23.47900
H  44.32100 26.45800 23.36500
H  44.26000 28.02000 24.26600
H  44.72700 26.57900 25.08200
H  48.30200 31.51500 28.17300
H  47.71500 30.66000 26.67800
H  49.43400 30.47200 27.31200
H  46.58400 29.17300 32.52100
H  49.01100 28.72900 36.08800
H  50.28600 28.76500 34.91800
H  49.28700 27.30900 35.08400
Mg 0.10900 43.44600 25.34700
C  2.41300 43.00000 27.90000
C  -2.43500 42.58400 27.46700
C  -2.08400 43.71000 22.83000
C  2.80400 43.65500 23.09800
N  0.03400 42.83900 27.48000
C  1.05400 42.86800 28.37000
C  0.47100 42.78200 29.84800
C  -0.96000 42.22400 29.54900
C  -1.16500 42.55200 28.06800
C  -1.21000 40.69100 29.96500
C  0.56100 44.18600 30.52900
C  0.50000 44.13000 32.09900
H  0.39000 42.76900 32.67800
N  -2.03100 43.31600 25.16100
C  -2.85700 42.93100 26.13800
C  -4.19500 42.95500 25.65700
C  -4.14700 43.42300 24.32500
C  -2.73000 43.55100 24.05900
C  -5.41000 42.71300 26.50500
C  -5.20500 43.93200 23.33200
O  -4.84500 44.48400 22.25700
C  -6.72500 43.81500 23.65300
N  0.35200 43.70000 23.26500
C  -0.74300 43.73200 22.43100
C  -0.26600 43.67200 20.94600
C  1.26500 43.98500 21.10400
C  1.51900 43.73800 22.56900
C  -0.57700 42.28800 20.24200
C  1.68300 45.33600 20.54700
C  1.09800 46.56200 21.13800
N  2.26000 43.27400 25.37500
C  3.18100 43.39500 24.41800
C  4.59100 43.37100 25.03700
C  4.27300 43.13100 26.37700
C  2.87300 43.09900 26.56200
C  5.87400 43.54600 24.34200
C  4.91500 42.92300 27.69700
O  6.06900 42.92700 28.04400
C  3.70400 42.81300 28.76000
C  3.79100 41.57000 29.50000
O  3.36800 40.51400 29.05200
O  4.36000 41.74700 30.77000
C  4.29200 40.61300 31.68600
H  -3.29100 42.34700 28.10200
H  -2.72200 43.66300 21.94500
H  3.57700 43.85400 22.35400
H  1.12700 42.06700 30.34400
H  -1.63900 42.79400 30.18400
H  -1.11500 39.87900 29.24500
H  -2.07500 40.71000 30.62700
H  -0.36900 40.45300 30.61600
H  -0.30500 44.74300 30.17300
H  1.50900 44.64200 30.24300
H  -0.31800 44.73900 32.48400
H  1.38500 44.63800 32.48400
H  -6.20900 42.15200 26.02000
H  -5.83900 43.68200 26.76000
H  -5.12300 42.12100 27.37300
H  -7.39000 44.23700 22.90100
H  -6.96200 44.30400 24.59800
H  -7.01500 42.77500 23.80800
H  -0.74600 44.56900 20.55500
H  1.89000 43.22100 20.64100
H  -0.82200 41.53000 20.98600
H  0.28300 41.90800 19.69100
H  -1.48600 42.24000 19.64200
H  1.22600 45.40400 19.56000
H  2.77200 45.39400 20.54200
H  0.75900 47.20000 20.32200
H  1.90100 47.10300 21.63900
H  0.21300 46.36400 21.74300
H  5.90400 44.38200 23.64300
H  6.27900 42.63600 23.89900
H  6.60500 43.89500 25.07100
H  3.82100 43.59100 29.51400
H  5.16200 40.71200 32.33500
H  4.34200 39.66000 31.16000
H  3.45400 40.82600 32.35100

