158

Mg 36.12400 1.96500 29.53400
C  34.04200 2.85300 32.24400
C  38.73200 1.97000 31.81900
C  38.18200 1.70800 26.97500
C  33.47600 2.53000 27.39000
N  36.34400 2.32200 31.86800
C  35.33700 2.60700 32.72500
C  35.83700 2.67000 34.17800
C  37.42000 2.49500 34.05600
C  37.55100 2.27600 32.46200
C  38.24200 3.68800 34.71000
C  35.15000 1.55700 35.14500
C  34.89300 1.92200 36.61000
H  35.68700 3.06900 37.33600
N  38.17500 1.72700 29.39200
C  39.06500 1.58900 30.45600
C  40.39300 1.28500 30.00400
C  40.22600 1.25700 28.59900
C  38.84300 1.61300 28.23700
C  41.64500 0.96400 30.81800
C  41.25000 0.89400 27.52700
O  40.87500 0.70900 26.34000
C  42.76700 0.69500 27.78800
N  35.82200 2.00100 27.54400
C  36.86600 1.88700 26.64800
C  36.50500 2.17800 25.23900
C  34.91900 2.16700 25.32000
C  34.67300 2.22900 26.85400
C  37.22200 3.45000 24.61700
C  34.25000 0.97900 24.55800
C  34.02100 -0.33800 25.35500
N  34.15700 2.56600 29.73600
C  33.20900 2.75700 28.75700
C  31.92900 3.13200 29.40600
C  32.18200 3.20500 30.81600
C  33.59600 2.87500 30.91500
C  30.61000 3.61100 28.72200
C  31.66300 3.40700 32.08600
O  30.48800 3.67300 32.45100
C  32.75200 3.09600 33.08200
C  32.80900 4.22800 34.05000
O  33.40200 5.27000 33.79100
O  32.12500 3.92600 35.20400
C  32.06300 5.19800 36.05900
H  39.52900 1.91100 32.56200
H  38.79200 1.58700 26.07800
H  32.67800 2.83400 26.71000
H  35.68900 3.60400 34.72000
H  37.69300 1.59400 34.60700
H  39.06800 3.28100 35.29400
H  37.72700 4.33100 35.42300
H  38.63800 4.34400 33.93400
H  35.76200 0.65600 35.11000
H  34.23400 1.27000 34.63000
H  34.94700 0.98100 37.15800
H  33.82700 2.14900 36.64100
H  42.15700 0.12100 30.35400
H  41.31000 0.62000 31.79600
H  42.23700 1.87100 30.94400
H  43.19500 0.61700 26.78800
H  42.73700 -0.27500 28.28400
H  43.16700 1.56400 28.31000
H  36.77700 1.30100 24.65200
H  34.65700 3.12500 24.87200
H  37.79500 3.91800 25.41700
H  36.53300 4.22200 24.27600
H  37.83900 3.15200 23.76900
H  34.93300 0.81500 23.72300
H  33.31600 1.31900 24.11000
H  32.97800 -0.34200 25.66900
H  34.59900 -0.44400 26.27300
H  34.25600 -1.22000 24.76000
H  29.90800 2.79300 28.56300
H  30.71600 4.14700 27.77800
H  30.15300 4.24100 29.48400
H  32.51600 2.16000 33.58800
H  31.37100 5.19200 36.90000
H  31.83400 6.00300 35.36000
H  33.04400 5.51300 36.41300
Mg 26.95000 50.55500 26.26100
C  25.04200 51.75900 28.95800
C  29.48400 49.68400 28.38200
C  28.61400 49.35900 23.70700
C  24.38900 51.82000 24.10600
N  27.19800 50.73400 28.43900
C  26.22700 51.09100 29.38300
C  26.74800 50.76900 30.79500
C  28.28800 50.32900 30.61600
C  28.32900 50.24600 29.01600
C  29.36600 51.22700 31.33700
C  25.91600 49.70600 31.63700
C  25.18500 50.26400 32.88200
H  25.94400 50.75800 34.11500
N  28.85800 49.67700 26.10300
C  29.76400 49.37700 27.06800
C  30.89800 48.70100 26.49100
C  30.61900 48.52600 25.12400
C  29.29900 49.18200 24.89600
C  32.04000 48.27900 27.41900
C  31.47300 47.86900 24.03000
O  31.17600 47.87400 22.83200
C  32.68200 47.22400 24.41300
N  26.67700 50.80200 24.08500
C  27.41400 50.01700 23.30200
C  26.81800 50.07700 21.82100
C  25.52400 50.92200 21.93700
C  25.47200 51.20300 23.48300
C  27.80700 50.43200 20.68700
C  24.20600 50.16800 21.43000
C  23.13600 50.99100 20.56500
N  25.12000 51.66500 26.38700
C  24.20900 52.09100 25.47400
C  23.16600 52.75800 26.10500
C  23.47200 52.71700 27.45000
C  24.67300 51.98400 27.60700
C  21.93200 53.22000 25.54400
C  22.94200 53.00200 28.70400
O  21.91700 53.50600 29.05500
C  23.91300 52.40100 29.81400
C  24.34700 53.47800 30.72700
O  25.34700 54.14000 30.54200
O  23.56300 53.50200 31.86800
C  24.13200 54.28200 33.04800
H  30.28100 49.30000 29.02200
H  28.98200 48.62000 22.99200
H  23.52200 52.18200 23.54900
H  26.74200 51.73900 31.29200
H  28.44700 49.30000 30.93800
H  29.48000 52.10700 30.70400
H  30.32200 50.70900 31.25100
H  29.16700 51.51000 32.37000
H  26.53200 48.86000 31.94200
H  25.21200 49.28300 30.92000
H  24.51000 49.46900 33.19900
H  24.62700 51.07000 32.40600
H  32.31000 49.00800 28.18300
H  32.98800 48.19300 26.88800
H  31.90300 47.27500 27.82100
H  32.43000 46.45100 25.13900
H  33.45600 47.88100 24.81000
H  33.12600 46.86500 23.48400
H  26.47500 49.04600 21.72300
H  25.74600 51.85000 21.41000
H  28.76700 50.59100 21.17800
H  27.55000 51.25300 20.01700
H  27.82700 49.55600 20.03900
H  23.74600 49.64900 22.27200
H  24.62100 49.29900 20.91900
H  22.94700 50.32200 19.72500
H  23.45400 52.00300 20.31700
H  22.20800 51.02900 21.13700
H  21.39000 52.48200 24.95300
H  22.23300 54.00200 24.84700
H  21.30200 53.64200 26.32700
H  23.26400 51.73600 30.38500
H  24.96700 53.70600 33.44700
H  23.41800 54.34800 33.86900
H  24.49700 55.27100 32.76900

