158

Mg 24.66900 1.53100 28.76300
C  26.67100 1.26100 31.62700
C  21.92900 1.74400 30.75700
C  22.75900 1.65300 25.88800
C  27.44700 0.78500 26.81500
N  24.40400 1.63600 30.92400
C  25.31300 1.56100 31.96100
C  24.67900 1.67600 33.36500
C  23.16500 1.51400 33.08000
C  23.14100 1.66000 31.43900
C  22.44600 0.18000 33.45300
C  25.14900 3.02700 34.06100
C  25.91200 3.03400 35.44400
H  25.27400 3.92700 36.56400
N  22.70500 1.78300 28.41600
C  21.75200 1.86600 29.34100
C  20.47800 2.03700 28.69100
C  20.68700 1.86400 27.31500
C  22.09800 1.66800 27.16000
C  19.13100 2.17100 29.48700
C  19.62200 1.65800 26.15900
O  19.99900 1.42400 25.01600
C  18.24400 1.81900 26.39600
N  25.05100 1.25600 26.70400
C  24.13800 1.50600 25.71900
C  24.71300 1.52800 24.29300
C  26.25800 1.35900 24.56800
C  26.25300 1.14800 26.11700
C  24.23000 0.48100 23.41400
C  27.13000 2.53600 24.05700
C  27.21400 3.74800 25.03100
N  26.61800 0.97400 29.12600
C  27.62200 0.78300 28.19100
C  28.85800 0.64100 28.91300
C  28.52300 0.71300 30.26100
C  27.15100 1.02100 30.34400
C  30.20100 0.36100 28.41000
C  28.98500 0.65500 31.61900
O  30.11700 0.40300 31.97500
C  27.86400 1.11500 32.58000
C  27.60000 -0.03400 33.51300
O  26.69600 -0.85000 33.54500
O  28.54900 -0.04900 34.48100
C  28.64000 -1.15700 35.39100
H  21.10800 1.90700 31.46000
H  22.26300 1.73100 24.91900
H  28.36000 0.61700 26.23900
H  24.98000 0.86800 34.03300
H  22.56400 2.33900 33.46300
H  22.01700 -0.26800 32.55700
H  21.53100 0.28700 34.03600
H  23.05900 -0.51900 34.02100
H  24.24000 3.61400 34.19000
H  25.79000 3.53000 33.33700
H  26.91700 3.41400 35.26300
H  26.07300 2.00300 35.76100
H  19.43000 2.62800 30.43000
H  18.80100 1.13700 29.58800
H  18.29600 2.75200 29.09500
H  17.98100 2.61000 27.09900
H  17.75000 0.89600 26.70000
H  17.76900 2.05000 25.44300
H  24.51300 2.45700 23.75700
H  26.70900 0.45500 24.15900
H  23.23100 0.78800 23.10600
H  24.10000 -0.33800 24.12200
H  24.92000 0.23000 22.60800
H  26.75000 2.93900 23.11900
H  28.15400 2.21200 23.87300
H  26.28200 3.96900 25.55000
H  27.44100 4.66700 24.48900
H  27.99500 3.57100 25.77000
H  31.00900 0.67400 29.07100
H  30.34300 0.83500 27.43900
H  30.30900 -0.68600 28.12500
H  28.13400 2.07400 33.02300
H  28.70200 -2.07400 34.80600
H  27.92300 -1.25600 36.20500
H  29.61800 -0.97900 35.83600
Mg 48.33700 35.36700 28.27900
C  46.79200 33.51600 30.79700
C  48.58300 38.00900 30.50200
C  49.95400 37.18200 25.79500
C  47.73300 32.80400 26.12900
N  47.93000 35.63700 30.50000
C  47.33300 34.73000 31.29100
C  47.52100 35.15400 32.70600
C  47.51800 36.70900 32.50000
C  47.99000 36.82200 31.04700
C  46.13000 37.33900 32.65200
C  48.80400 34.67900 33.34700
C  48.76000 34.59800 34.81100
H  47.70300 35.47100 35.57500
N  49.07700 37.32600 28.14200
C  49.09900 38.22400 29.18800
C  49.72900 39.46700 28.73600
C  50.18300 39.28700 27.35300
C  49.79800 37.82700 27.04400
C  49.65100 40.64500 29.68000
C  50.91400 40.25900 26.40100
O  51.30800 39.93100 25.26500
C  51.38200 41.60000 26.90700
N  48.71500 35.05200 26.28000
C  49.37600 35.90700 25.47100
C  49.49200 35.39500 24.02200
C  48.98300 33.91700 24.26100
C  48.52100 33.85200 25.68400
C  48.64000 36.15200 22.94800
C  50.00400 32.85500 23.99200
C  49.87500 32.19100 22.55800
N  47.36300 33.52600 28.37900
C  47.14500 32.63100 27.39000
C  46.41700 31.46600 27.86100
C  46.25400 31.79500 29.25100
C  46.78000 33.02100 29.47900
C  46.02000 30.29500 27.09800
C  45.68800 31.33700 30.56800
O  45.15000 30.23800 30.89500
C  45.87800 32.51700 31.57700
C  46.43700 31.94000 32.77200
O  47.54500 31.45600 32.85900
O  45.51900 32.11900 33.76500
C  45.95800 31.83700 35.17800
H  48.60500 38.80300 31.25100
H  50.41700 37.63800 24.91700
H  47.57400 31.97700 25.43300
H  46.60400 34.79000 33.16800
H  48.21000 37.15400 33.21600
H  45.47000 36.82600 33.35100
H  45.71400 37.47800 31.65400
H  46.24200 38.35100 33.04100
H  49.58200 35.39300 33.07600
H  49.16200 33.79900 32.81100
H  49.80500 34.72200 35.09600
H  48.57500 33.53500 34.96600
H  50.59400 40.68500 30.22500
H  48.75200 40.75700 30.28700
H  49.67700 41.52700 29.04000
H  52.27300 41.89000 26.35100
H  51.64200 41.65000 27.96400
H  50.56800 42.30500 26.74000
H  50.54700 35.40700 23.74800
H  48.09200 33.85600 23.63500
H  48.72000 37.23300 23.05400
H  47.60200 35.83200 23.04200
H  49.04600 35.83000 21.98900
H  50.03000 32.09800 24.77700
H  50.96900 33.35500 23.91400
H  49.36400 32.92200 21.93200
H  49.24700 31.30400 22.64000
H  50.85100 31.96000 22.13100
H  45.44700 29.61500 27.72700
H  46.93700 29.83800 26.72600
H  45.42000 30.70400 26.28500
H  44.87300 32.92300 31.69500
H  46.43800 32.75800 35.51000
H  46.60500 30.96800 35.29900
H  45.08700 31.68800 35.81500

