158

Mg 1.79200 -2.32100 44.50300
C  5.04400 -1.05200 44.27200
C  0.66400 0.22800 42.48200
C  -1.29400 -3.79500 44.71200
C  3.19100 -5.28900 45.85600
N  2.80800 -0.64500 43.44000
C  4.13400 -0.30300 43.50600
C  4.41600 0.83500 42.53500
C  3.00800 1.39200 42.12100
C  2.07500 0.24600 42.62500
C  2.60100 2.77100 42.65400
C  5.30200 0.49500 41.28000
C  6.45900 1.52500 40.99400
H  6.42900 2.08200 39.58200
N  -0.05500 -1.79200 43.83400
C  -0.31100 -0.65000 43.02500
C  -1.76300 -0.63500 42.76200
C  -2.36900 -1.78800 43.43400
C  -1.26600 -2.51400 44.04300
C  -2.40300 0.41000 41.92300
C  -3.79600 -2.06100 43.45700
O  -4.62400 -1.33600 42.95800
C  -4.39300 -3.26300 44.10200
N  1.17000 -4.27100 45.10000
C  -0.20700 -4.55400 45.17300
C  -0.49000 -5.87500 45.87700
C  0.88300 -6.48300 46.03500
C  1.82200 -5.31700 45.57200
C  -1.22300 -5.58700 47.20000
C  1.16700 -7.68800 45.12400
C  2.05900 -8.82200 45.59200
N  3.71200 -3.06500 45.10100
C  4.11700 -4.26600 45.62200
C  5.53100 -4.33300 45.90000
C  5.97900 -3.07100 45.39200
C  4.79500 -2.33400 44.92100
C  6.31000 -5.45500 46.49100
C  7.12300 -2.17800 45.17900
O  8.30400 -2.45600 45.29600
C  6.54200 -0.90600 44.38500
C  6.77300 0.35600 45.13700
O  6.28700 0.54500 46.26200
O  7.61500 1.22700 44.45900
C  8.09500 2.32900 45.30500
H  0.32200 1.08500 41.89700
H  -2.23400 -4.30200 44.94000
H  3.43900 -6.18700 46.42600
H  5.04400 1.47400 43.15400
H  2.91400 1.58100 41.05200
H  1.68200 2.68000 43.23200
H  2.22900 3.33800 41.80000
H  3.42100 3.31300 43.12700
H  4.64200 0.45600 40.41400
H  5.68300 -0.52300 41.35800
H  7.35300 0.91800 41.13500
H  6.41500 2.34400 41.71300
H  -3.22800 -0.13900 41.46900
H  -1.85700 0.50900 40.98500
H  -2.69900 1.35300 42.38300
H  -4.05800 -4.09600 43.48400
H  -5.45900 -3.26400 43.87400
H  -4.14100 -3.50400 45.13500
H  -1.20400 -6.43700 45.27300
H  1.11300 -6.59400 47.09500
H  -2.03200 -6.31700 47.22900
H  -1.70600 -4.61000 47.20600
H  -0.55200 -5.67400 48.05500
H  1.53900 -7.28200 44.18400
H  0.23500 -8.20000 44.88200
H  1.37400 -9.61600 45.89400
H  2.46200 -8.44900 46.53400
H  2.91000 -8.89800 44.91600
H  6.51200 -6.25000 45.77400
H  5.87100 -5.92400 47.37200
H  7.22500 -4.93700 46.77800
H  7.06400 -0.83200 43.43100
H  8.58700 2.93000 44.54000
H  8.81900 2.02000 46.05800
H  7.33800 3.02300 45.67100
Mg -11.71000 15.70000 42.30700
C  -8.66800 13.85200 41.86600
C  -10.13000 18.42300 41.13600
C  -14.73300 17.10700 42.14000
C  -13.27700 12.57100 43.21500
N  -9.69500 15.98000 41.31700
C  -8.62300 15.19600 41.46700
C  -7.41900 15.96500 41.02700
C  -7.81900 17.44600 41.22500
C  -9.34800 17.29700 41.27000
C  -7.12200 18.19700 42.36200
C  -6.88200 15.53400 39.69600
C  -5.36800 15.72400 39.36900
H  -4.79600 16.72600 38.38700
N  -12.27800 17.57900 41.83000
C  -11.50200 18.62100 41.31400
C  -12.22300 19.79300 41.17900
C  -13.62800 19.37600 41.46400
C  -13.60400 17.96400 41.88800
C  -11.61700 21.13600 40.65500
C  -14.82700 20.31800 41.35800
O  -14.74500 21.48400 40.94400
C  -16.13600 19.84200 41.87400
N  -13.67200 14.91200 42.62900
C  -14.74700 15.78100 42.49000
C  -16.03800 14.96200 42.46400
C  -15.69400 13.55100 43.14500
C  -14.10500 13.66300 42.93500
C  -17.17300 15.57600 43.39600
C  -16.34400 12.32000 42.50000
C  -16.81000 11.18300 43.42400
N  -11.12700 13.62200 42.59400
C  -11.84600 12.51800 43.02300
C  -10.89900 11.36400 43.21800
C  -9.65600 11.85400 42.72000
C  -9.86800 13.22700 42.29500
C  -11.18500 10.06600 43.81600
C  -8.25100 11.53500 42.50700
O  -7.67600 10.46400 42.63600
C  -7.55900 12.76400 41.92100
C  -6.52100 13.28100 42.88900
O  -6.64500 13.84900 43.95800
O  -5.30200 13.16700 42.30200
C  -4.18900 13.54800 43.07500
H  -9.56700 19.32200 40.87500
H  -15.71600 17.53200 41.92700
H  -13.71000 11.68800 43.68900
H  -6.57100 15.95100 41.71300
H  -7.45300 18.03400 40.38300
H  -7.86300 18.77000 42.92000
H  -6.38900 18.85700 41.89900
H  -6.61900 17.56900 43.09800
H  -7.45400 16.23600 39.08900
H  -7.30000 14.55900 39.44700
H  -5.01100 14.73200 39.09100
H  -4.90600 16.02700 40.30900
H  -10.55800 21.18900 40.90600
H  -12.17800 21.97100 41.07600
H  -11.81600 21.25000 39.58900
H  -16.51300 19.13600 41.13400
H  -16.76800 20.72900 41.84000
H  -16.06100 19.43800 42.88400
H  -16.38300 14.92600 41.43100
H  -15.69300 13.41800 44.22700
H  -18.14200 15.49200 42.90500
H  -16.95400 16.64100 43.46000
H  -17.30400 15.08800 44.36200
H  -15.75600 11.85800 41.70700
H  -17.21400 12.77000 42.02100
H  -16.47500 11.23400 44.46000
H  -16.33900 10.31100 42.97000
H  -17.88600 11.01600 43.46500
H  -10.78200 9.30200 43.15100
H  -12.25600 9.88700 43.91300
H  -10.63200 9.89100 44.73900
H  -7.14200 12.34800 41.00400
H  -3.31500 13.75700 42.45800
H  -3.92300 12.71100 43.72100
H  -4.30300 14.46000 43.66100

