158

Mg 17.09000 -3.26100 28.66000
C  16.12100 -1.09900 31.27700
C  19.49100 -4.66600 30.71400
C  18.46800 -4.75500 26.00300
C  14.96400 -1.34800 26.61500
N  17.73400 -2.83000 30.71400
C  17.22800 -1.95400 31.61100
C  17.92000 -2.07800 33.03000
C  19.02300 -3.10900 32.73300
C  18.74800 -3.58200 31.27500
C  20.47200 -2.55800 32.90300
C  16.89700 -2.66700 34.15300
C  17.12100 -2.17300 35.58100
H  18.48100 -1.57300 35.83800
N  18.69500 -4.64900 28.38400
C  19.45100 -5.18400 29.42400
C  20.35000 -6.23700 28.88200
C  20.04500 -6.33200 27.46500
C  18.98000 -5.24400 27.21200
C  21.33100 -7.00300 29.78400
C  20.54500 -7.24700 26.41600
O  20.04800 -7.33700 25.29300
C  21.57800 -8.21600 26.85300
N  16.66700 -3.13600 26.60900
C  17.52400 -3.77400 25.74300
C  17.16500 -3.36600 24.26200
C  15.99800 -2.31800 24.40800
C  15.79400 -2.27700 25.98600
C  18.37500 -2.88300 23.40600
C  14.65500 -2.65900 23.72600
C  14.36700 -1.88700 22.45000
N  15.69900 -1.68600 28.88600
C  14.87200 -1.07900 27.94200
C  14.08700 -0.08100 28.54500
C  14.45200 -0.16700 29.87900
C  15.52200 -1.08100 30.04000
C  13.09600 0.78500 27.84500
C  14.23600 0.41800 31.18800
O  13.54900 1.32400 31.56400
C  15.16900 -0.26800 32.19300
C  15.70300 0.85300 33.00000
O  16.71700 1.44800 32.71700
O  14.83800 1.14800 34.05200
C  15.40000 2.25200 34.88400
H  20.22600 -5.10600 31.39100
H  18.83000 -5.26400 25.10700
H  14.43500 -0.59100 26.03300
H  18.26600 -1.10300 33.37200
H  18.85300 -3.90800 33.45400
H  20.59100 -1.52400 33.22700
H  21.07400 -2.65200 31.99900
H  21.04800 -3.09300 33.65800
H  16.93700 -3.75100 34.04300
H  15.88200 -2.32800 33.94800
H  17.01100 -3.00000 36.28200
H  16.37500 -1.46000 35.93000
H  21.05200 -8.05000 29.90000
H  21.47400 -6.63000 30.79800
H  22.28900 -6.95200 29.26600
H  21.73100 -8.77700 25.93100
H  21.35700 -8.96200 27.61600
H  22.52700 -7.71300 27.04100
H  16.81300 -4.26600 23.75900
H  16.35000 -1.36500 24.01400
H  19.19000 -2.68600 24.10300
H  18.03200 -1.99300 22.87700
H  18.66300 -3.64800 22.68500
H  13.78500 -2.72000 24.38000
H  14.90100 -3.67400 23.41400
H  14.24400 -2.55900 21.60000
H  15.05200 -1.05600 22.28200
H  13.38900 -1.48900 22.71900
H  12.51100 1.37600 28.55100
H  12.42400 0.30800 27.13100
H  13.74100 1.50700 27.34500
H  14.48200 -0.88100 32.77600
H  14.57200 2.59600 35.50400
H  15.95100 3.00700 34.32300
H  16.14900 1.86500 35.57500
Mg 39.78400 9.60800 29.02300
C  41.53500 11.09600 31.84200
C  37.49600 8.54600 31.16500
C  38.49900 8.15800 26.47700
C  42.68200 10.51200 27.09900
N  39.74700 9.68400 31.29500
C  40.30400 10.50500 32.18600
C  39.64300 10.55200 33.58900
C  38.52500 9.46800 33.39500
C  38.57000 9.24700 31.88100
C  38.57200 8.21500 34.30600
C  39.21700 11.98500 33.98900
C  38.90200 12.14800 35.46000
H  39.72800 13.10000 36.36100
N  38.16400 8.57400 28.87400
C  37.31900 8.17000 29.83500
C  36.25800 7.48600 29.29300
C  36.52900 7.28200 27.90100
C  37.76200 8.04700 27.68000
C  35.08000 6.97900 30.08600
C  35.71400 6.58600 26.88100
O  36.10000 6.48100 25.75700
C  34.37800 6.02100 27.19000
N  40.47700 9.53000 27.01700
C  39.70300 8.85600 26.08700
C  40.39300 8.78100 24.72600
C  41.87800 9.29100 25.06600
C  41.65400 9.89900 26.42800
C  40.25100 7.50200 23.84100
C  42.47000 10.33400 24.06200
C  41.93200 11.80500 24.28200
N  41.71800 10.49300 29.35500
C  42.79700 10.83200 28.45800
C  43.79600 11.51100 29.16100
C  43.35000 11.61900 30.49700
C  42.10700 11.02300 30.54500
C  45.04800 12.11500 28.54400
C  43.73800 12.20600 31.70000
O  44.70600 12.87000 32.04600
C  42.55100 11.86400 32.72700
C  43.06500 11.12500 33.88800
O  43.55600 9.96900 33.95100
O  42.73000 11.86800 35.03800
C  43.04400 11.25700 36.35200
H  36.72600 8.28000 31.89200
H  38.05700 7.56100 25.67600
H  43.64600 10.53300 26.58600
H  40.41500 10.23000 34.28800
H  37.65800 10.10000 33.58800
H  39.52700 8.02100 34.79500
H  38.21900 7.39400 33.68200
H  37.85700 8.40700 35.10600
H  38.39600 12.14200 33.28900
H  40.02300 12.67100 33.72800
H  39.08200 11.15900 35.88100
H  37.85600 12.45100 35.52100
H  34.12300 7.42300 29.81000
H  35.13800 7.29100 31.12900
H  34.89400 5.90500 30.05900
H  33.64900 6.82100 27.32000
H  34.62000 5.42400 28.07000
H  33.98600 5.41000 26.37800
H  39.77100 9.47600 24.16100
H  42.67500 8.54800 25.03200
H  39.45100 7.77100 23.15100
H  40.02400 6.59600 24.40300
H  41.16200 7.29500 23.28100
H  42.18300 9.96900 23.07600
H  43.55400 10.42300 23.99400
H  42.73000 12.31200 24.82500
H  41.05400 11.84300 24.92700
H  41.68600 12.24300 23.31500
H  45.29500 11.75700 27.54500
H  45.82900 11.83100 29.25000
H  44.98500 13.20200 28.49400
H  41.99200 12.73800 33.06000
H  42.35100 11.68200 37.07900
H  44.02900 11.51500 36.74100
H  42.87800 10.18000 36.33500

