158

Mg 2.15700 -2.49600 44.60300
C  5.14600 -0.95900 43.74500
C  0.44600 -0.11100 42.86800
C  -0.57900 -4.43500 45.02700
C  4.05100 -5.32200 45.71600
N  2.72100 -0.94800 43.17600
C  4.01600 -0.42400 43.09400
C  4.05900 0.80000 42.23700
C  2.50200 1.07500 41.98000
C  1.83600 -0.09100 42.68000
C  2.09400 2.40100 42.44700
C  4.81700 0.81900 40.85600
C  6.01200 1.84500 40.67400
H  6.76600 1.34400 39.50500
N  0.22000 -2.24600 44.11500
C  -0.34800 -1.18300 43.38300
C  -1.78600 -1.35400 43.23000
C  -2.08900 -2.63100 43.84000
C  -0.81700 -3.16700 44.40100
C  -2.60600 -0.45100 42.27600
C  -3.48200 -3.40100 43.79700
O  -4.48700 -2.84700 43.35000
C  -3.62700 -4.75100 44.32900
N  1.73700 -4.55800 45.47100
C  0.50400 -5.09600 45.42800
C  0.50100 -6.50000 46.03800
C  1.99400 -6.81400 46.02600
C  2.65200 -5.50700 45.81000
C  -0.27200 -6.78300 47.35000
C  2.52900 -7.91500 45.00600
C  3.49800 -8.94400 45.64300
N  4.22100 -3.03200 44.89300
C  4.79300 -4.18500 45.33500
C  6.26100 -4.05200 45.19800
C  6.48300 -2.74100 44.62500
C  5.20600 -2.19400 44.46200
C  7.21900 -5.21200 45.53800
C  7.45700 -1.81400 44.20500
O  8.66900 -1.87500 44.26300
C  6.61500 -0.56600 43.71700
C  7.10200 0.37700 44.77300
O  7.02800 0.15000 45.97400
O  7.25300 1.60600 44.18700
C  7.59400 2.62300 45.23400
H  -0.06900 0.76800 42.47600
H  -1.44500 -5.07400 45.21300
H  4.59400 -6.24100 45.95000
H  4.43100 1.56600 42.91700
H  2.30600 0.91800 40.91900
H  2.89800 3.13700 42.44800
H  1.72600 2.38600 43.47300
H  1.23100 2.81000 41.92300
H  4.10300 1.13800 40.09700
H  5.16100 -0.17900 40.58400
H  6.65400 1.82800 41.55500
H  5.66100 2.85300 40.45400
H  -2.80400 -1.04900 41.38600
H  -2.13600 0.51100 42.07200
H  -3.61100 -0.28200 42.66200
H  -4.63100 -5.09200 44.07700
H  -3.57300 -4.70600 45.41600
H  -2.92200 -5.47200 43.91400
H  0.06500 -7.10900 45.24500
H  2.22100 -7.05500 47.06400
H  0.41300 -7.02700 48.16200
H  -1.02800 -7.56600 47.29200
H  -0.70600 -5.82500 47.63500
H  3.02400 -7.41100 44.17600
H  1.70700 -8.41900 44.49900
H  3.39200 -9.99600 45.37500
H  3.51200 -8.96800 46.73300
H  4.48200 -8.63900 45.28800
H  8.21600 -5.02700 45.13800
H  6.92200 -6.14100 45.05200
H  7.15600 -5.22100 46.62600
H  6.99300 -0.23600 42.74900
H  6.96200 3.50400 45.35100
H  8.53300 3.08400 44.93000
H  7.85500 2.21100 46.20900
Mg 16.83300 51.84700 26.45600
C  18.70400 50.68200 29.13200
C  14.51600 52.89500 28.94200
C  14.93200 52.83500 24.08100
C  19.13200 50.55300 24.23000
N  16.72100 51.94700 28.75500
C  17.58800 51.37100 29.60900
C  17.28700 51.71500 31.10300
C  15.75800 52.17000 31.01600
C  15.62500 52.31700 29.49600
C  14.68600 51.07900 31.47300
C  18.27200 52.80100 31.69900
C  18.65300 52.62000 33.24800
H  17.69800 51.77500 34.13200
N  15.05000 52.81900 26.45100
C  14.28900 53.23200 27.56400
C  13.11900 53.99600 26.99700
C  13.14600 53.90300 25.56600
C  14.40600 53.18100 25.29000
C  12.10000 54.61000 27.96400
C  12.09600 54.23600 24.54200
O  12.19200 53.91400 23.37000
C  10.89000 54.97300 25.01000
N  16.97000 51.67000 24.38400
C  16.11100 52.32300 23.58400
C  16.48000 52.10600 22.12100
C  17.94900 51.62500 22.24900
C  18.07700 51.36100 23.69700
C  15.63700 50.98300 21.43700
C  18.97500 52.64100 21.72500
C  20.25600 52.06300 21.13400
N  18.54800 50.87500 26.64300
C  19.38200 50.38900 25.64300
C  20.56100 49.82400 26.24400
C  20.25300 49.88500 27.61200
C  19.07700 50.57100 27.78200
C  21.79200 49.35900 25.56800
C  20.89800 49.51700 28.86100
O  21.98700 49.00900 29.09400
C  19.74800 50.05400 29.89200
C  19.20200 48.96900 30.77900
O  18.17100 48.31600 30.53400
O  19.90600 48.95400 32.01400
C  19.36100 48.02900 33.01700
H  13.76000 53.23300 29.65400
H  14.31000 53.26500 23.29300
H  19.95800 50.32100 23.55400
H  17.51800 50.83600 31.70500
H  15.46700 53.13600 31.42800
H  14.07300 51.48900 32.27600
H  15.12500 50.18300 31.91100
H  13.98500 50.90600 30.65700
H  17.83200 53.79400 31.60900
H  19.11800 52.95400 31.02900
H  18.50200 53.63600 33.61200
H  19.71100 52.37900 33.35000
H  11.73500 55.62000 27.77400
H  12.62900 54.70600 28.91200
H  11.25200 53.94800 28.14200
H  11.12700 55.89000 25.54900
H  10.36800 54.32400 25.71400
H  10.20800 55.18900 24.18700
H  16.43100 53.08700 21.64800
H  18.05600 50.62700 21.82500
H  15.18700 50.42500 22.25800
H  16.14900 50.31400 20.74600
H  14.83500 51.41300 20.83800
H  19.29400 53.27600 22.55200
H  18.35600 53.22800 21.04700
H  21.12400 52.32300 21.74000
H  20.39700 52.47500 20.13500
H  20.17500 50.97600 21.15200
H  22.05800 50.17500 24.89600
H  21.42400 48.64000 24.83600
H  22.63800 49.13500 26.21800
H  20.30200 50.72800 30.54600
H  18.30900 47.90000 32.76100
H  19.36000 48.32600 34.06600
H  19.84600 47.05900 32.90700

