158

Mg 26.21200 0.61700 28.85300
C  28.26700 0.35000 31.84900
C  23.42800 0.68600 30.81600
C  24.48100 0.68600 26.03500
C  29.21200 -0.09000 26.98500
N  25.91300 0.43400 31.11700
C  26.87600 0.46600 32.07800
C  26.21600 0.57100 33.42700
C  24.61200 0.64200 33.11800
C  24.61600 0.55300 31.58000
C  23.88200 -0.39800 33.99900
C  26.78900 1.67300 34.25100
C  27.24200 1.32700 35.72700
H  26.71300 2.27600 36.83900
N  24.27000 0.74100 28.48600
C  23.25400 0.73700 29.43500
C  21.98900 0.89200 28.75400
C  22.23800 0.82300 27.32800
C  23.73000 0.73400 27.22300
C  20.73400 1.04900 29.50200
C  21.22600 0.80900 26.20700
O  21.50900 0.54000 25.06500
C  19.73800 1.09800 26.50500
N  26.74800 0.29100 26.76800
C  25.83600 0.51400 25.74300
C  26.49700 0.84200 24.43100
C  27.99200 0.59600 24.73300
C  28.02400 0.27700 26.24700
C  25.93500 -0.02100 23.29900
C  28.86700 1.77700 24.38300
C  29.53700 1.58400 23.01500
N  28.23400 0.11600 29.26500
C  29.30400 -0.14100 28.40800
C  30.50600 -0.33500 29.13800
C  30.20100 -0.16200 30.49900
C  28.77800 0.15700 30.50900
C  31.89700 -0.59500 28.51800
C  30.70100 -0.14300 31.78900
O  31.83700 -0.27100 32.27400
C  29.42800 0.15500 32.79800
C  29.20400 -1.07000 33.71800
O  28.77600 -2.17100 33.38500
O  29.67300 -0.83300 35.00300
C  29.14500 -1.82500 35.96700
H  22.52800 0.81100 31.42300
H  23.88200 0.95200 25.16200
H  30.10500 -0.16200 26.36200
H  26.45400 -0.39200 33.87800
H  24.24000 1.62900 33.39300
H  24.53000 -0.71700 34.81500
H  23.62300 -1.32600 33.48900
H  22.98400 0.04900 34.42500
H  26.00300 2.42400 34.33000
H  27.64400 2.14500 33.76700
H  28.32800 1.31400 35.64400
H  26.82800 0.33400 35.90300
H  20.80300 1.44200 30.51600
H  20.24000 0.07700 29.49300
H  19.98400 1.61900 28.95300
H  19.13500 1.06200 25.59800
H  19.68000 2.08200 26.97000
H  19.32200 0.32200 27.14800
H  26.20700 1.89200 24.38500
H  28.24600 -0.34400 24.24400
H  25.46300 -0.94300 23.63700
H  26.70300 -0.44800 22.65400
H  25.25200 0.53900 22.66000
H  29.67300 1.92200 25.10300
H  28.29600 2.70500 24.37000
H  29.30000 2.44300 22.38600
H  29.25800 0.67700 22.47800
H  30.61700 1.63900 23.15200
H  32.70900 -0.35300 29.20400
H  32.07100 -0.22200 27.50900
H  31.77200 -1.66200 28.33300
H  29.80300 0.91500 33.48300
H  29.66200 -1.52000 36.87700
H  29.31600 -2.87500 35.72700
H  28.07700 -1.62800 36.05700
Mg 26.10500 50.51400 27.55400
C  23.85600 51.91600 29.89900
C  28.21400 49.77800 29.99100
C  28.30600 49.74500 25.16200
C  23.93300 51.95800 25.00900
N  25.93100 50.72200 29.77900
C  25.00500 51.33200 30.56700
C  25.21100 51.02800 32.09000
C  26.69100 50.42200 32.04200
C  27.00100 50.34300 30.54500
C  27.86000 51.12300 32.84500
C  24.16000 50.10100 32.80600
C  23.78800 50.45600 34.24100
H  24.80600 50.76500 35.27500
N  28.02300 49.62100 27.59700
C  28.75300 49.51300 28.68100
C  30.09200 49.03900 28.35400
C  30.11700 48.90200 26.88800
C  28.77700 49.41000 26.45700
C  31.20600 48.86000 29.38700
C  31.24000 48.34300 25.98300
O  31.14100 48.37800 24.79800
C  32.41600 47.47400 26.55400
N  26.19100 50.91300 25.38100
C  27.16900 50.36800 24.60600
C  26.75000 50.40200 23.14000
C  25.23700 50.73300 23.22800
C  25.10000 51.27500 24.65600
C  27.73500 51.21100 22.37000
C  24.20200 49.64800 22.77900
C  24.25700 49.02700 21.38000
N  24.32800 51.80300 27.41800
C  23.56000 52.23200 26.37200
C  22.39100 52.88900 26.82500
C  22.51600 52.83200 28.24000
C  23.70700 52.14600 28.52900
C  21.27400 53.30100 25.87600
C  21.86200 53.24400 29.46700
O  20.76700 53.71800 29.76200
C  22.67500 52.60400 30.61400
C  23.07100 53.70700 31.57100
O  23.82900 54.59800 31.43400
O  22.42800 53.36400 32.75800
C  22.74900 54.27000 33.88000
H  28.95200 49.56300 30.76700
H  28.97800 49.63600 24.30800
H  23.33100 52.27200 24.15400
H  25.14900 51.99600 32.58700
H  26.59100 49.42700 32.47600
H  28.79000 51.14500 32.27700
H  27.94100 50.89900 33.90800
H  27.46300 52.13800 32.88600
H  24.51200 49.08200 32.96500
H  23.24800 49.95000 32.22800
H  23.17300 49.68500 34.70500
H  23.17500 51.35700 34.25800
H  32.22200 48.68600 29.03400
H  31.08500 47.89000 29.87000
H  31.19200 49.66900 30.11700
H  33.14100 48.22500 26.86900
H  32.68600 46.92100 25.65500
H  31.96200 46.85600 27.32900
H  26.68100 49.37300 22.78800
H  25.05400 51.60000 22.59300
H  27.39500 52.19300 22.04000
H  27.92600 50.61000 21.48100
H  28.73000 51.27300 22.81100
H  23.26500 50.19800 22.86600
H  24.13100 48.87000 23.53800
H  24.36900 47.95500 21.54800
H  25.05500 49.42600 20.75500
H  23.36300 49.38500 20.86800
H  21.12000 52.52500 25.12500
H  21.45300 54.26400 25.39800
H  20.47400 53.47500 26.59500
H  22.07100 51.86200 31.13700
H  22.97300 55.29700 33.59100
H  23.61900 53.80400 34.34300
H  21.94900 54.25800 34.62000

