158

Mg 47.61400 25.60500 28.45000
C  48.41500 27.75300 31.14900
C  45.87700 23.51600 30.76200
C  47.22000 23.35300 26.01800
C  49.47800 27.69000 26.32200
N  47.26600 25.66600 30.72900
C  47.51200 26.75500 31.55600
C  46.84300 26.54800 32.95500
C  46.21600 25.06800 32.82400
C  46.47600 24.70000 31.34300
C  46.57500 24.05800 33.94800
C  45.90700 27.64700 33.37500
C  45.91100 28.22000 34.83500
H  46.45500 27.40600 36.02600
N  46.65100 23.72600 28.33800
C  45.98400 23.08300 29.36100
C  45.48600 21.83400 28.86800
C  45.94600 21.64000 27.51700
C  46.61800 22.94700 27.22600
C  44.67100 20.83200 29.68600
C  45.76700 20.51900 26.60000
O  46.28900 20.55600 25.50300
C  45.00800 19.27900 26.77200
N  48.19700 25.52900 26.49900
C  47.99600 24.48100 25.68800
C  48.60100 24.71300 24.27300
C  49.05400 26.17300 24.29500
C  48.99900 26.47600 25.79400
C  49.67800 23.66300 23.98400
C  48.18400 27.20800 23.52000
C  49.02300 28.11900 22.65400
N  48.78200 27.33500 28.66200
C  49.55000 28.05700 27.69700
C  50.06900 29.24300 28.29800
C  49.67700 29.09400 29.64100
C  48.87100 27.99600 29.78900
C  50.69900 30.39300 27.56500
C  49.74800 29.70000 31.01200
O  50.37300 30.76400 31.30200
C  48.89200 28.86900 31.93700
C  49.73400 28.55100 33.10100
O  50.55400 27.62500 33.18500
O  49.41400 29.31400 34.17200
C  50.39100 29.32900 35.33600
H  45.40100 22.84100 31.47700
H  47.05100 22.70300 25.15700
H  50.03300 28.39800 25.70400
H  47.59700 26.41900 33.73200
H  45.12700 25.09300 32.77900
H  47.24800 24.55800 34.64400
H  47.02500 23.17500 33.49300
H  45.72900 23.66500 34.51300
H  44.92900 27.16700 33.37600
H  45.91200 28.47500 32.66600
H  44.87800 28.45700 35.09100
H  46.60100 29.06300 34.79100
H  43.83500 20.59400 29.02900
H  44.29200 21.28400 30.60300
H  45.23200 19.92700 29.91500
H  45.21200 18.74600 27.70000
H  45.23400 18.52800 26.01500
H  43.95700 19.53100 26.63200
H  47.85400 24.58800 23.48900
H  50.12800 26.21800 24.11700
H  50.58100 24.25900 23.85000
H  49.37900 23.14300 23.07400
H  49.69700 22.93100 24.79200
H  47.64100 27.84400 24.21800
H  47.38800 26.74300 22.93900
H  50.07800 27.88700 22.79900
H  48.79200 29.17500 22.79600
H  48.79000 27.84600 21.62500
H  50.17100 30.73800 26.67600
H  51.61800 29.96200 27.16800
H  50.90500 31.17800 28.29400
H  47.98800 29.37200 32.28000
H  49.90000 28.75400 36.12100
H  50.59800 30.32000 35.74100
H  51.36700 28.89700 35.11500
Mg 1.09300 42.06500 26.10600
C  2.84800 41.92800 29.18500
C  -1.86700 41.10600 27.85100
C  -0.52900 41.80800 23.21000
C  4.04500 42.61600 24.49700
N  0.59500 41.57400 28.24200
C  1.45000 41.76500 29.32800
C  0.68800 41.62100 30.71300
C  -0.78300 41.32300 30.27800
C  -0.70900 41.32200 28.72100
C  -1.45200 40.06500 30.98300
C  0.81100 42.89000 31.61900
C  1.24000 42.74300 33.15200
H  0.85100 41.47700 33.83500
N  -0.84600 41.47700 25.56700
C  -1.88600 41.19200 26.42700
C  -3.07600 40.88900 25.66700
C  -2.69100 40.98800 24.26000
C  -1.30700 41.37800 24.26500
C  -4.53800 40.77600 26.21200
C  -3.51300 40.69500 23.00900
O  -3.11200 40.72900 21.89800
C  -4.94900 40.23600 23.14600
N  1.60100 42.29200 24.19600
C  0.81500 42.09400 23.08900
C  1.54500 42.25400 21.76600
C  2.95200 42.73400 22.22100
C  2.88600 42.51600 23.77000
C  1.54800 40.91400 21.01500
C  3.39000 44.13500 21.91900
C  3.59200 44.40200 20.40300
N  3.08800 42.20100 26.63700
C  4.19400 42.47600 25.87000
C  5.42000 42.51300 26.70200
C  4.91000 42.28100 27.95200
C  3.49300 42.06100 27.89000
C  6.72800 42.99200 26.24800
C  5.29800 42.30100 29.29600
O  6.40400 42.40400 29.74100
C  4.01500 42.12700 30.18400
C  4.24800 41.03000 31.27100
O  4.03400 39.87300 31.06200
O  4.65200 41.62700 32.41800
C  5.07300 40.74000 33.48900
H  -2.84900 41.02900 28.32200
H  -0.96100 41.81800 22.20700
H  4.99500 42.75000 23.97500
H  1.15800 40.76100 31.19000
H  -1.51500 42.11300 30.44300
H  -1.88500 39.37700 30.25600
H  -2.26200 40.39700 31.63200
H  -0.94300 39.38300 31.66400
H  -0.14000 43.42300 31.61400
H  1.49900 43.58600 31.13900
H  0.82800 43.60100 33.68300
H  2.31700 42.89800 33.21900
H  -5.21700 41.48200 25.73300
H  -4.53000 41.04100 27.27000
H  -4.96500 39.78000 26.09400
H  -5.37100 40.04100 22.16000
H  -5.65700 40.93000 23.59900
H  -4.96200 39.26500 23.64100
H  1.06200 43.05500 21.20600
H  3.80500 42.13200 21.90700
H  2.50900 40.43100 21.19600
H  1.39800 41.07000 19.94600
H  0.79100 40.24400 21.42100
H  4.40500 44.26500 22.29500
H  2.61500 44.84600 22.20500
H  2.82600 45.12400 20.11900
H  3.55300 43.45300 19.86800
H  4.59600 44.80100 20.25600
H  6.71000 43.22400 25.18300
H  7.57100 42.32700 26.43700
H  6.81500 43.98800 26.68400
H  3.87200 43.04900 30.74700
H  4.37000 39.95100 33.75900
H  5.25600 41.37100 34.35800
H  6.02400 40.25300 33.27400

