158

Mg -2.45100 17.20600 25.66100
C  -3.00500 15.01600 28.30000
C  -2.58300 19.81700 27.69200
C  -2.57100 19.18200 22.90400
C  -3.06600 14.51000 23.48800
N  -2.76100 17.34200 27.81400
C  -2.78700 16.34400 28.73900
C  -2.80100 16.89800 30.15900
C  -2.93300 18.42400 29.87600
C  -2.75900 18.54700 28.33700
C  -4.25400 19.03500 30.33600
C  -1.64800 16.43300 31.07100
C  -1.53400 17.26700 32.32100
H  -1.22700 16.61200 33.69100
N  -2.48800 19.25000 25.33700
C  -2.44000 20.15700 26.32300
C  -2.30600 21.47900 25.77500
C  -2.34500 21.32300 24.46200
C  -2.43700 19.83700 24.18100
C  -2.14500 22.73200 26.70300
C  -2.11600 22.47500 23.40000
O  -2.07900 22.26000 22.22900
C  -2.10200 23.93800 23.85100
N  -2.82200 16.89100 23.45800
C  -2.75300 17.87700 22.51900
C  -2.70900 17.39100 21.04000
C  -2.94800 15.89900 21.31500
C  -2.88600 15.70300 22.84200
C  -3.73200 18.08900 20.02700
C  -1.99900 14.92300 20.49900
C  -2.71100 13.73900 19.85500
N  -2.95200 15.07200 25.79000
C  -3.13400 14.14100 24.83400
C  -3.18700 12.82900 25.46800
C  -3.19600 13.14200 26.80700
C  -3.04300 14.53500 26.95500
C  -3.27600 11.38500 24.75400
C  -3.25400 12.52000 28.08500
O  -3.47000 11.40700 28.36700
C  -3.09700 13.68800 29.06800
C  -1.94500 13.32700 29.96100
O  -0.74300 13.35100 29.63200
O  -2.52100 13.05900 31.20700
C  -1.48900 12.81000 32.25900
H  -2.51000 20.68000 28.35800
H  -2.58900 19.92400 22.10400
H  -3.34400 13.74500 22.76000
H  -3.72900 16.53400 30.60000
H  -2.11500 18.99800 30.31100
H  -4.85300 18.34000 30.92400
H  -4.83400 19.35500 29.47000
H  -4.06900 19.94000 30.91400
H  -0.65800 16.45600 30.61400
H  -1.88600 15.43300 31.43300
H  -2.45500 17.84300 32.41200
H  -0.74600 17.99400 32.12600
H  -3.11300 23.22900 26.63400
H  -1.32800 23.40500 26.44100
H  -1.97400 22.43900 27.73800
H  -2.84800 24.19100 24.60400
H  -2.13200 24.67600 23.04900
H  -1.07800 23.99700 24.22100
H  -1.69500 17.65000 20.73600
H  -3.98800 15.67600 21.07600
H  -3.93000 19.07100 20.45800
H  -4.65400 17.51100 19.96400
H  -3.33000 18.23600 19.02400
H  -1.33800 14.55800 21.28500
H  -1.44700 15.41800 19.69900
H  -2.14700 13.51700 18.94900
H  -3.75900 13.94400 19.63400
H  -2.67600 12.87500 20.51800
H  -2.36000 11.22400 24.18700
H  -4.15500 11.53400 24.12700
H  -3.40200 10.62300 25.52300
H  -4.04700 13.63800 29.59900
H  -0.57200 13.36700 32.06400
H  -1.38900 11.77300 32.58100
H  -1.85600 13.15900 33.22500
Mg 43.45000 4.89800 47.01300
C  41.20200 7.56900 47.12900
C  40.75700 2.80200 47.01400
C  45.66700 2.31600 46.64500
C  46.10300 7.13300 46.27400
N  41.23300 5.21000 47.08200
C  40.54000 6.32000 47.10400
C  39.02600 6.07100 47.19300
C  38.92700 4.55800 47.43300
C  40.40300 4.14200 47.11300
C  38.69100 4.23200 48.92500
C  38.23500 6.56500 45.92200
C  39.05600 6.61300 44.64500
H  38.30200 7.01100 43.36400
N  43.18500 2.81300 46.91700
C  42.01600 2.14600 46.87100
C  42.33600 0.73100 46.84100
C  43.78100 0.52800 46.98100
C  44.29500 1.94800 46.91600
C  41.24200 -0.30100 46.92400
C  44.51000 -0.76400 47.18500
O  43.85000 -1.76900 47.07800
C  46.08200 -0.85100 47.44400
N  45.52500 4.76300 46.43900
C  46.21900 3.60500 46.50400
C  47.73300 3.79700 46.20000
C  47.77200 5.38800 45.80800
C  46.37400 5.81900 46.19200
C  48.79300 3.46600 47.30500
C  48.16700 5.63700 44.27800
C  49.68000 5.91500 44.02500
N  43.67000 6.95000 46.62500
C  44.80900 7.70900 46.51200
C  44.37100 9.16300 46.59000
C  42.95400 9.13500 46.84200
C  42.65100 7.75300 46.87100
C  45.35100 10.28800 46.46900
C  41.81400 9.97600 47.15900
O  41.65300 11.22000 47.16900
C  40.63000 8.98300 47.21700
C  39.95200 9.23200 48.55000
O  40.37700 8.75100 49.58400
O  38.73900 9.76900 48.35000
C  37.69400 9.49000 49.40100
H  39.96000 2.08400 47.21900
H  46.44400 1.54900 46.66300
H  46.94600 7.81100 46.12700
H  38.55500 6.43500 48.10700
H  38.28400 4.09000 46.68700
H  38.09100 4.93400 49.50300
H  39.69100 4.08400 49.33400
H  38.25600 3.23300 48.89400
H  37.94800 7.55100 46.28800
H  37.33000 5.96000 45.85600
H  39.58800 5.67500 44.48800
H  39.88300 7.31300 44.76200
H  40.26600 0.11700 46.67700
H  41.17600 -0.57200 47.97700
H  41.45300 -1.23600 46.40500
H  46.31100 -0.17200 48.26500
H  46.72600 -0.73300 46.57300
H  46.33200 -1.84000 47.83000
H  47.85500 3.13100 45.34500
H  48.50600 5.90800 46.42400
H  49.47500 4.28300 47.54100
H  49.44600 2.64500 47.00800
H  48.24500 3.05500 48.15200
H  47.48300 6.37100 43.85000
H  47.92600 4.68400 43.80700
H  49.60500 6.68400 43.25500
H  50.21900 5.08900 43.56100
H  50.11700 6.39600 44.90000
H  45.58200 10.64100 47.47400
H  44.99100 11.19300 45.98000
H  46.24300 10.03600 45.89500
H  39.90500 9.08100 46.40900
H  36.96800 10.30100 49.34800
H  38.06200 9.29500 50.40800
H  37.20700 8.55100 49.13800

