158

Mg 43.04300 42.08600 26.06100
C  42.20000 44.44600 28.47400
C  44.05300 40.02700 28.54800
C  43.78900 39.91100 23.70700
C  42.49600 44.60600 23.61500
N  42.84700 42.12800 28.28300
C  42.45600 43.18600 29.04900
C  42.65700 43.04300 30.57100
C  43.34000 41.60100 30.51200
C  43.44200 41.19400 29.03200
C  44.63600 41.37500 31.22000
C  41.25000 43.02600 31.25900
C  41.32000 42.76600 32.77800
H  40.76700 43.86200 33.69500
N  43.89200 40.26900 26.10500
C  44.25200 39.60700 27.23100
C  44.62000 38.23100 26.92300
C  44.54900 38.08900 25.51900
C  44.11200 39.42300 25.04100
C  45.13400 37.15600 27.86800
C  44.80900 36.94400 24.64600
O  44.70600 37.07200 23.41500
C  45.26300 35.61600 25.26700
N  43.37200 42.31100 23.93700
C  43.51300 41.16100 23.20400
C  43.44400 41.47500 21.65200
C  42.90500 42.98500 21.63300
C  42.96100 43.32300 23.11800
C  44.84600 41.34700 20.91500
C  41.49800 43.07800 21.05800
C  40.28300 42.65000 21.98800
N  42.46200 44.01400 25.95700
C  42.36000 44.91100 24.90800
C  42.01200 46.20700 25.45600
C  41.94400 46.03100 26.83900
C  42.24500 44.71700 27.07000
C  41.87100 47.44100 24.72200
C  41.70900 46.74200 27.99700
O  41.43700 47.90500 28.22500
C  41.80100 45.76000 29.19000
C  42.61800 46.26400 30.36600
O  43.86200 46.17200 30.42200
O  41.89100 46.68300 31.36400
C  42.68000 46.91200 32.59600
H  44.42800 39.36100 29.32800
H  43.96500 39.26100 22.84800
H  42.28200 45.31900 22.81600
H  43.37300 43.70200 31.06200
H  42.65100 40.91700 31.00700
H  45.44700 40.97500 30.61100
H  44.40700 40.68300 32.03000
H  44.97600 42.26900 31.74400
H  40.77900 42.17300 30.77100
H  40.62800 43.89600 31.05200
H  42.32200 42.52000 33.13000
H  40.80300 41.81600 32.91100
H  46.13800 36.89100 27.53500
H  44.51000 36.26300 27.87700
H  45.22100 37.45300 28.91300
H  45.25700 34.99700 24.37000
H  44.52700 35.32400 26.01500
H  46.28400 35.75200 25.62500
H  42.70300 40.85000 21.15300
H  43.60700 43.48400 20.96500
H  45.03700 42.16400 20.21800
H  44.92100 40.35600 20.46800
H  45.55500 41.35900 21.74300
H  41.43800 42.51700 20.12500
H  41.22800 44.10100 20.79600
H  40.59800 41.82400 22.62500
H  39.37100 42.38800 21.45100
H  40.10300 43.40000 22.75800
H  41.06300 48.00700 25.18600
H  41.65700 47.29800 23.66300
H  42.69400 48.13300 24.89600
H  40.75300 45.68700 29.48100
H  42.89900 45.93900 33.03400
H  41.98300 47.51400 33.18000
H  43.66400 47.37400 32.67300
Mg -5.62100 25.71800 25.99400
C  -3.85100 26.83300 28.88400
C  -7.39600 23.71000 27.82300
C  -6.47400 24.16500 23.11500
C  -3.40100 27.78700 24.08700
N  -5.67000 25.34600 28.12800
C  -4.87900 25.87500 29.10000
C  -5.41000 25.51700 30.43000
C  -6.44700 24.30100 30.10400
C  -6.61200 24.53300 28.64000
C  -5.93500 22.87300 30.42400
C  -6.14400 26.78900 31.01800
C  -5.78200 27.11900 32.38300
H  -5.24400 26.03600 33.33400
N  -6.83000 24.25800 25.52900
C  -7.48300 23.50400 26.45300
C  -8.23600 22.40800 25.86600
C  -7.97600 22.48900 24.49900
C  -7.08000 23.67200 24.31900
C  -9.21200 21.51800 26.59200
C  -8.42800 21.58400 23.37100
O  -8.14500 21.83500 22.23700
C  -9.40000 20.35200 23.59200
N  -5.15500 26.07200 23.85200
C  -5.63900 25.29700 22.84200
C  -5.06100 25.69800 21.44300
C  -4.14000 26.91300 21.78400
C  -4.23100 26.93900 23.33100
C  -4.39900 24.46900 20.80700
C  -4.54400 28.30500 21.17000
C  -3.35800 29.25000 20.74400
N  -3.95000 27.01700 26.28000
C  -3.25000 27.84400 25.43900
C  -2.22400 28.51600 26.23100
C  -2.44100 28.06500 27.53500
C  -3.53800 27.23400 27.52600
C  -1.03100 29.36200 25.82100
C  -1.90800 28.20900 28.90500
O  -0.89400 28.88400 29.27500
C  -2.95600 27.52000 29.87900
C  -2.05600 26.60700 30.58000
O  -1.53000 25.59600 30.08300
O  -1.78200 27.23000 31.79100
C  -0.77500 26.40800 32.42900
H  -8.07800 23.28400 28.56200
H  -6.69000 23.58900 22.21400
H  -2.68000 28.41300 23.55800
H  -4.67300 25.00200 31.04700
H  -7.36300 24.35100 30.69300
H  -5.13600 22.80000 31.16200
H  -5.71700 22.33000 29.50400
H  -6.75900 22.25000 30.77200
H  -7.21000 26.58300 30.92200
H  -6.00200 27.66500 30.38600
H  -6.68000 27.41000 32.92700
H  -4.97500 27.83200 32.21000
H  -10.19000 21.57500 26.11400
H  -9.30300 21.83800 27.63000
H  -8.90900 20.47500 26.68200
H  -9.00000 19.77400 24.42500
H  -9.37900 19.79900 22.65300
H  -10.38300 20.71800 23.88900
H  -6.00100 25.98600 20.97200
H  -3.07700 26.77500 21.58500
H  -5.08700 24.16900 20.01600
H  -4.27600 23.63100 21.49300
H  -3.38500 24.66600 20.45800
H  -5.09100 28.75800 21.99700
H  -5.36900 28.15400 20.47400
H  -2.35900 29.04500 21.12900
H  -3.36800 30.28900 21.07600
H  -3.24500 29.29000 19.66100
H  -0.63100 28.92200 24.90700
H  -0.23100 29.37900 26.56100
H  -1.40100 30.33900 25.51200
H  -3.36400 28.16500 30.65700
H  0.19800 26.59800 31.97700
H  -1.08700 25.36800 32.53200
H  -0.71800 26.63300 33.49400

