158

Mg 0.69700 7.07700 25.14100
C  1.30200 8.92100 28.12400
C  1.02800 4.22900 27.26000
C  0.01900 5.26900 22.60100
C  0.88000 9.99500 23.38200
N  1.01800 6.60400 27.40800
C  1.19600 7.56400 28.41000
C  1.56800 6.89300 29.73400
C  1.72000 5.37500 29.38700
C  1.22800 5.38700 27.95000
C  3.15700 4.80400 29.56100
C  0.59800 7.26700 30.84800
C  1.18200 7.79600 32.17600
H  2.11000 6.91200 32.98900
N  0.60800 4.97700 24.87500
C  0.63900 3.99900 25.89100
C  0.45000 2.71700 25.24500
C  0.24100 2.97100 23.87000
C  0.31900 4.40600 23.67100
C  0.34500 1.46700 25.97100
C  -0.03800 1.96400 22.63800
O  -0.23000 2.50700 21.53400
C  -0.16600 0.47700 22.77900
N  0.71400 7.50000 23.22000
C  0.22000 6.60200 22.35100
C  -0.11700 7.28300 21.00300
C  -0.26700 8.78200 21.44400
C  0.55200 8.77800 22.73000
C  1.16500 7.00800 19.98900
C  -1.66400 9.39400 21.60200
C  -1.75100 10.88200 21.15800
N  1.13400 9.13800 25.61600
C  1.16200 10.22100 24.80300
C  1.36600 11.40000 25.63200
C  1.39600 10.88800 26.88500
C  1.27700 9.52400 26.82100
C  1.40900 12.87100 25.16700
C  1.62100 11.39500 28.24400
O  1.75100 12.47400 28.71400
C  1.52700 10.08000 29.09800
C  2.74000 10.01700 29.94700
O  3.85100 9.59200 29.61600
O  2.56000 10.75500 31.10400
C  3.60700 10.90400 32.04900
H  1.15600 3.28600 27.79500
H  -0.33500 4.69800 21.74000
H  0.70800 10.88900 22.77900
H  2.48800 7.37900 30.05900
H  1.02300 4.77900 29.97700
H  3.66700 5.48600 30.24100
H  3.70300 4.77500 28.61800
H  3.14900 3.79300 29.96800
H  -0.04400 6.40100 31.00500
H  -0.05300 8.03700 30.43400
H  0.48200 8.01800 32.98200
H  1.75200 8.68200 31.89600
H  0.09600 1.57400 27.02600
H  1.31500 0.97300 25.92500
H  -0.44900 0.83600 25.57300
H  -1.15100 0.20900 23.16200
H  0.61200 -0.07300 23.30800
H  -0.15200 0.05300 21.77500
H  -1.08200 7.02000 20.57100
H  0.25100 9.47800 20.78500
H  1.96400 6.80600 20.70300
H  1.34100 7.90200 19.39100
H  0.91200 6.15800 19.35600
H  -1.97900 9.38200 22.64500
H  -2.40800 8.96200 20.93200
H  -2.59700 11.05800 20.49300
H  -0.94800 11.24600 20.51700
H  -1.77700 11.52900 22.03500
H  1.05100 12.84200 24.13800
H  2.37900 13.34600 25.31500
H  0.68100 13.47500 25.70900
H  0.69500 10.29700 29.76700
H  3.39600 11.70900 32.75300
H  4.62300 11.14600 31.73800
H  3.63100 9.91800 32.51300
Mg 43.81100 3.66900 46.77500
C  41.86900 6.62300 46.31100
C  40.83600 1.88400 46.87100
C  45.68700 0.91200 46.22600
C  46.63300 5.66700 46.01200
N  41.59300 4.21900 46.49400
C  41.05100 5.48100 46.41800
C  39.55400 5.46000 46.88900
C  39.37100 3.93700 47.29400
C  40.61100 3.28700 46.86900
C  39.08400 3.72200 48.79700
C  38.52000 5.90400 45.76500
C  38.72900 5.60600 44.25500
H  38.97400 6.81900 43.35400
N  43.36900 1.68900 46.64900
C  42.05000 1.13700 46.70300
C  42.25700 -0.30800 46.69700
C  43.60400 -0.63700 46.66200
C  44.30200 0.67600 46.55000
C  41.04200 -1.20800 46.84700
C  44.20600 -1.97200 46.89200
O  43.52200 -2.99800 47.03500
C  45.68800 -2.20900 47.09300
N  45.81000 3.30500 46.11000
C  46.35400 2.07900 46.12200
C  47.87200 2.15400 45.66800
C  48.17300 3.65900 45.66900
C  46.78700 4.29400 45.92900
C  48.75900 1.40600 46.69200
C  48.81700 4.07800 44.31600
C  50.30000 3.80600 44.16400
N  44.24100 5.72600 46.19900
C  45.41500 6.37100 46.06300
C  45.20000 7.77800 45.98900
C  43.83000 7.96800 46.09200
C  43.26500 6.67800 46.25500
C  46.27700 8.84400 45.69800
C  42.79300 8.98000 46.06400
O  42.92400 10.19300 46.04300
C  41.40300 8.11400 46.17900
C  40.60600 8.59800 47.34600
O  40.68400 8.24300 48.51300
O  39.58900 9.41500 46.85800
C  38.73400 9.95300 47.92100
H  39.96100 1.30000 47.16400
H  46.24100 -0.02400 46.12600
H  47.47400 6.35700 45.92400
H  39.37600 6.06900 47.77600
H  38.57600 3.39800 46.77800
H  40.04400 3.87500 49.28900
H  38.83800 2.68000 49.00400
H  38.32100 4.43100 49.11800
H  38.41700 6.98900 45.73200
H  37.53200 5.54200 46.04900
H  37.82300 5.14300 43.86200
H  39.57800 4.92400 44.22500
H  40.25200 -0.77100 47.45800
H  41.24400 -2.20400 47.24200
H  40.56800 -1.30000 45.87000
H  46.26200 -1.41000 47.56400
H  46.14100 -2.27000 46.10400
H  45.89000 -3.06300 47.74000
H  47.83500 1.78600 44.64200
H  48.87300 4.02900 46.41700
H  49.08900 0.50400 46.17800
H  48.14300 1.11400 47.54200
H  49.68700 1.94200 46.89300
H  48.66900 5.14900 44.17700
H  48.28500 3.61900 43.48200
H  50.80200 4.76000 44.00300
H  50.46800 3.21500 43.26400
H  50.74300 3.24500 44.98800
H  46.61600 8.57700 44.69700
H  47.08700 8.78500 46.42500
H  46.01900 9.87700 45.92900
H  40.87600 8.12800 45.22500
H  39.20900 10.89300 48.20000
H  38.61600 9.37500 48.83700
H  37.72500 10.17600 47.57200

