158

Mg -2.24600 17.16100 25.73300
C  -2.59700 14.90900 28.37100
C  -3.11800 19.69100 27.82300
C  -2.34300 19.14900 23.08100
C  -2.02900 14.36100 23.54000
N  -2.78100 17.23400 27.88300
C  -2.81000 16.28000 28.76100
C  -3.28100 16.72800 30.15500
C  -3.50600 18.27800 29.93900
C  -3.16300 18.44000 28.45400
C  -4.91200 18.78100 30.42500
C  -2.17500 16.53600 31.33800
C  -2.33200 17.38000 32.61600
H  -2.25500 16.68500 33.96300
N  -2.41100 19.18900 25.49500
C  -2.73300 20.06700 26.50100
C  -2.58800 21.37900 25.97500
C  -2.33800 21.24300 24.60400
C  -2.35500 19.79000 24.33100
C  -2.51500 22.65600 26.84100
C  -2.02800 22.35800 23.54300
O  -1.82500 22.08100 22.34600
C  -1.73800 23.72300 24.01800
N  -2.22000 16.82900 23.60100
C  -2.16700 17.83500 22.68100
C  -2.17200 17.30100 21.23100
C  -2.14300 15.71700 21.42200
C  -2.14900 15.57300 22.95400
C  -3.25700 17.84600 20.21500
C  -1.31000 14.89200 20.49100
C  0.12200 14.46600 20.99200
N  -2.26100 15.01700 25.83400
C  -2.06800 14.02700 24.90600
C  -1.98000 12.72600 25.63300
C  -2.28700 13.00200 26.97400
C  -2.35400 14.45100 27.04300
C  -1.88700 11.35200 24.94300
C  -2.38200 12.54200 28.33200
O  -2.11600 11.39800 28.78600
C  -2.53200 13.68700 29.31700
C  -1.31700 13.66700 30.20200
O  -0.15800 13.90700 29.83100
O  -1.66100 13.29000 31.44100
C  -0.54100 13.04100 32.36500
H  -3.24100 20.55400 28.48100
H  -2.45200 19.80300 22.21300
H  -1.90700 13.57500 22.79100
H  -4.20200 16.18300 30.36000
H  -2.78300 18.89200 30.47700
H  -5.39700 19.22900 29.55800
H  -4.81300 19.60500 31.13200
H  -5.70200 18.09500 30.73100
H  -1.20400 16.89200 30.99500
H  -2.36000 15.50800 31.64800
H  -3.36000 17.73600 32.53900
H  -1.57600 18.16500 32.59500
H  -2.52300 22.39800 27.90000
H  -3.21700 23.39200 26.44800
H  -1.51300 23.07800 26.76700
H  -0.81900 23.66400 24.60200
H  -2.61900 23.94400 24.61900
H  -1.56700 24.45500 23.22800
H  -1.17600 17.46400 20.82000
H  -3.10100 15.20800 21.31300
H  -3.92700 17.02400 19.96000
H  -2.81500 18.19700 19.28200
H  -3.79900 18.66700 20.68400
H  -1.37800 15.50600 19.59300
H  -1.92100 14.04300 20.18200
H  0.23400 13.39600 20.81300
H  0.24900 14.62200 22.06300
H  0.94300 14.98200 20.49400
H  -0.84500 11.15500 25.19500
H  -1.97700 11.41600 23.85900
H  -2.55000 10.59800 25.36700
H  -3.43600 13.46300 29.88400
H  -0.54300 13.84100 33.10600
H  0.47700 12.79000 32.06800
H  -0.97600 12.18700 32.88400
Mg -10.72000 39.81500 43.83800
C  -9.61700 36.81100 42.40200
C  -8.10400 41.46700 42.05500
C  -12.23200 42.76600 44.54500
C  -13.57200 38.10000 44.80500
N  -9.05600 39.21200 42.43600
C  -8.84600 37.92200 41.99100
C  -7.62600 37.86800 40.98000
C  -7.07900 39.32100 41.18700
C  -8.11200 40.07700 41.95200
C  -5.65200 39.57300 41.65200
C  -7.94500 37.41700 39.52100
C  -7.19400 36.16400 39.08400
H  -6.01700 36.38200 37.97600
N  -10.19900 41.86300 43.44100
C  -9.13700 42.31200 42.59800
C  -9.21000 43.68700 42.57900
C  -10.38700 44.13100 43.34300
C  -11.00800 42.87800 43.85100
C  -8.26000 44.60100 41.78700
C  -10.68800 45.53600 43.60800
O  -10.04700 46.37900 43.04000
C  -11.70200 45.94500 44.69200
N  -12.61800 40.34300 44.64400
C  -13.01100 41.62100 44.75100
C  -14.55700 41.71900 45.13500
C  -14.92400 40.26500 45.36800
C  -13.65900 39.48800 44.93000
C  -14.80900 42.71800 46.34800
C  -16.16200 39.84500 44.57200
C  -17.05300 38.92900 45.33500
N  -11.46300 37.80900 43.72900
C  -12.61600 37.29000 44.17100
C  -12.65500 35.87200 44.07600
C  -11.48800 35.61400 43.39600
C  -10.80000 36.85100 43.17400
C  -13.56600 34.82800 44.57600
C  -10.67600 34.62000 42.72100
O  -10.79800 33.37100 42.65500
C  -9.39500 35.33900 41.99600
C  -8.24000 34.80400 42.75500
O  -7.75800 35.32700 43.72300
O  -7.74300 33.77900 42.06200
C  -6.53400 33.11900 42.57100
H  -7.35900 42.09600 41.56300
H  -12.87600 43.64800 44.52900
H  -14.52700 37.66900 45.11300
H  -6.96200 37.12900 41.42700
H  -6.89600 39.78900 40.22000
H  -4.99800 38.70300 41.70900
H  -5.68000 39.93200 42.68100
H  -5.15100 40.31100 41.02600
H  -7.57600 38.20800 38.86700
H  -9.01100 37.25500 39.36400
H  -7.99500 35.54000 38.68600
H  -6.81200 35.62200 39.94900
H  -8.83500 44.85300 40.89600
H  -7.45800 43.99300 41.37000
H  -7.98800 45.53300 42.28300
H  -12.71100 45.78100 44.31600
H  -11.50500 46.97600 44.98700
H  -11.62200 45.24600 45.52500
H  -15.00900 42.10700 44.22200
H  -15.01200 40.10300 46.44300
H  -15.26300 42.23000 47.21100
H  -15.44600 43.55900 46.07700
H  -13.81900 43.04300 46.66900
H  -15.94900 39.34100 43.62900
H  -16.73600 40.76900 44.50800
H  -17.07500 37.93700 44.88400
H  -18.06300 39.33000 45.25100
H  -16.78300 38.96300 46.39100
H  -13.95900 35.22900 45.51000
H  -13.06100 33.91900 44.90200
H  -14.29600 34.66100 43.78400
H  -9.27300 35.11200 40.93600
H  -5.66600 33.77100 42.66500
H  -6.39800 32.43900 41.72900
H  -6.69700 32.66600 43.54900

