158

Mg 47.62900 24.25300 28.07800
C  48.49500 26.44600 30.63900
C  47.02000 21.80900 30.29300
C  47.12300 22.20600 25.53800
C  48.69400 26.61900 25.70800
N  47.84700 24.14600 30.31700
C  48.07100 25.25900 31.12800
C  47.88400 24.85800 32.62100
C  47.50900 23.29500 32.42100
C  47.53900 22.97500 30.91300
C  48.39400 22.30900 33.22800
C  46.70200 25.71700 33.25500
C  47.01000 26.43700 34.49800
H  46.08500 26.39800 35.75100
N  46.95200 22.29800 27.94300
C  46.81500 21.39300 28.96200
C  46.43700 20.16400 28.46600
C  46.44400 20.28300 27.07500
C  46.90300 21.64000 26.77200
C  46.17900 18.98700 29.39500
C  46.16200 19.26400 25.98500
O  46.10300 19.50300 24.80300
C  45.82600 17.82600 26.36400
N  47.82400 24.40900 25.89900
C  47.48800 23.48600 25.10300
C  47.42800 23.85100 23.62200
C  47.72900 25.40000 23.67500
C  48.11200 25.47200 25.15000
C  48.39400 23.00100 22.71800
C  46.53600 26.26400 23.26600
C  46.88300 27.16000 22.11500
N  48.60200 26.10800 28.10900
C  48.90500 26.94700 27.05900
C  49.37400 28.18700 27.60000
C  49.19900 28.02500 29.05300
C  48.71000 26.75900 29.22600
C  50.08400 29.19900 26.73500
C  49.42100 28.64800 30.27000
O  49.95600 29.74900 30.49800
C  48.78200 27.70900 31.36400
C  49.88700 27.55400 32.40600
O  50.94200 26.99300 32.14800
O  49.57700 28.26200 33.53700
C  50.52700 28.15800 34.68100
H  46.72800 21.02900 31.00000
H  46.98400 21.51200 24.70700
H  48.95100 27.26500 24.86600
H  48.79500 25.03900 33.19200
H  46.48400 23.22100 32.78400
H  48.68100 21.51100 32.54300
H  47.78800 21.80000 33.97700
H  49.26900 22.87300 33.54900
H  45.81900 25.08000 33.30600
H  46.59700 26.54400 32.55300
H  47.24900 27.48600 34.32300
H  48.00500 26.09100 34.77800
H  46.49800 18.03400 28.97400
H  45.11100 18.91900 29.60200
H  46.60100 19.12300 30.39100
H  45.58000 17.11100 25.57900
H  44.99400 17.88400 27.06500
H  46.79300 17.52600 26.76800
H  46.42700 23.63000 23.25000
H  48.66500 25.53300 23.13200
H  47.96400 23.13900 21.72600
H  48.52700 22.02200 23.17700
H  49.41600 23.37900 22.70500
H  46.28300 26.85900 24.14400
H  45.68000 25.65200 22.98000
H  46.98900 28.20000 22.42600
H  46.05200 27.04500 21.41900
H  47.79200 26.85700 21.59600
H  49.53000 29.52100 25.85300
H  51.06800 28.77600 26.53400
H  50.24200 30.07300 27.36700
H  47.91000 28.22300 31.77000
H  51.53300 27.78400 34.49500
H  50.12600 27.56600 35.50400
H  50.63300 29.16900 35.07400
Mg -10.49200 40.05500 39.79700
C  -9.19100 36.88200 39.19600
C  -7.36800 41.34400 39.17100
C  -11.85400 43.10500 39.73200
C  -13.75500 38.62200 39.85900
N  -8.59900 39.21200 39.13500
C  -8.26500 37.88400 38.97700
C  -6.77500 37.70700 38.43800
C  -6.21900 39.13700 38.74300
C  -7.47300 39.96200 39.08600
C  -5.01500 39.12400 39.78800
C  -6.63800 37.18200 36.99800
C  -7.40300 37.90400 35.88900
H  -8.67500 37.30900 35.30600
N  -9.71200 41.96200 39.58400
C  -8.39400 42.25400 39.38200
C  -8.25600 43.67600 39.32700
C  -9.48200 44.27700 39.51200
C  -10.43000 43.12600 39.68400
C  -6.88800 44.31400 39.05200
C  -9.82100 45.80400 39.58500
O  -8.91900 46.64700 39.46400
C  -11.18100 46.25700 40.04600
N  -12.50700 40.75500 39.66100
C  -12.82500 42.07200 39.80400
C  -14.29000 42.33100 40.00900
C  -14.87300 40.89800 40.16100
C  -13.64900 40.01700 39.85200
C  -14.74200 43.36900 41.09400
C  -16.11500 40.48500 39.27800
C  -17.38600 41.32600 39.56200
N  -11.33600 38.24200 39.66700
C  -12.69600 37.78300 39.79200
C  -12.72600 36.34900 39.68600
C  -11.37400 35.99000 39.45700
C  -10.59300 37.17200 39.46500
C  -13.93900 35.45300 39.64800
C  -10.63200 34.77700 39.11100
O  -10.93800 33.62100 38.89500
C  -9.17500 35.30300 39.02200
C  -8.41200 34.63100 40.12000
O  -8.75800 34.52200 41.24600
O  -7.19400 34.18200 39.70400
C  -6.41600 33.31000 40.58600
H  -6.34200 41.70900 39.10200
H  -12.34600 44.07800 39.79000
H  -14.75800 38.21300 39.99900
H  -6.30800 36.96300 39.08300
H  -5.78600 39.68400 37.90600
H  -4.95200 38.22600 40.40300
H  -5.22100 39.86500 40.56000
H  -4.03100 39.33000 39.36500
H  -6.91400 36.12700 36.97900
H  -5.59500 37.19200 36.68300
H  -6.68700 37.98900 35.07200
H  -7.66400 38.91200 36.21000
H  -6.53700 43.95900 38.08300
H  -6.25500 44.08900 39.91100
H  -6.97900 45.39000 38.90600
H  -11.63200 45.66200 40.84100
H  -11.72900 46.33600 39.10700
H  -11.06800 47.29300 40.36700
H  -14.58600 42.67600 39.01700
H  -15.08800 40.71900 41.21400
H  -15.29800 44.20400 40.66800
H  -13.90300 43.85900 41.58800
H  -15.43500 42.91200 41.80000
H  -16.39000 39.48700 39.62000
H  -15.82000 40.56600 38.23100
H  -18.15200 40.55400 39.62700
H  -17.42600 42.03100 38.73200
H  -17.34500 41.99600 40.42100
H  -14.90000 35.95100 39.52400
H  -13.90100 34.95000 40.61500
H  -13.80800 34.72400 38.84800
H  -8.75600 35.06900 38.04400
H  -6.11500 32.39000 40.08500
H  -6.92000 33.07400 41.52300
H  -5.51000 33.71600 41.03500

