158

Mg 36.13300 1.90600 29.94300
C  33.77500 2.91400 32.39700
C  38.28200 1.25600 32.41600
C  38.14500 0.90300 27.63400
C  33.57800 2.24500 27.56000
N  36.08400 2.33800 32.18000
C  35.01900 2.69100 33.00400
C  35.37900 2.47700 34.48200
C  36.95000 2.29300 34.43500
C  37.07800 1.88400 32.90700
C  37.76600 3.58500 34.64800
C  34.59000 1.43300 35.24600
C  33.95800 1.81700 36.63800
H  34.57100 2.99500 37.42100
N  38.08300 1.30700 30.01300
C  38.78000 1.12700 31.08500
C  40.13300 0.68400 30.66400
C  40.11600 0.52700 29.26700
C  38.78500 0.93200 28.90200
C  41.30500 0.53700 31.67300
C  41.29000 0.06200 28.38000
O  41.14700 0.03800 27.15200
C  42.64000 -0.41400 28.83200
N  35.84200 1.51400 27.93100
C  36.88500 1.14400 27.16600
C  36.53100 1.31000 25.70300
C  35.04400 1.25200 25.70400
C  34.79200 1.75300 27.12300
C  37.22300 2.50000 24.95600
C  34.42500 -0.17100 25.47700
C  33.22000 -0.23200 24.54800
N  33.99000 2.55000 29.88100
C  33.13500 2.69800 28.82300
C  31.81400 3.09800 29.37200
C  32.01500 3.16600 30.73000
C  33.34200 2.84400 31.03200
C  30.57600 3.24400 28.46100
C  31.39700 3.48000 32.04400
O  30.24900 3.78200 32.30800
C  32.50200 3.32300 33.11900
C  32.57200 4.61600 33.76700
O  33.17600 5.60200 33.35600
O  31.73800 4.68500 34.83000
C  31.76600 5.84500 35.78000
H  39.04100 1.04100 33.17200
H  38.77600 0.45200 26.86500
H  32.74300 2.34200 26.86300
H  35.22100 3.43700 34.97300
H  37.14000 1.46000 35.11200
H  37.25700 4.53000 34.45900
H  38.66300 3.51900 34.03200
H  38.02900 3.50700 35.70300
H  35.24200 0.57100 35.38900
H  33.72500 1.13600 34.65200
H  33.99800 0.89200 37.21400
H  32.88500 1.89800 36.46500
H  41.00500 0.97500 32.62500
H  42.25500 1.01000 31.42400
H  41.39800 -0.54700 31.74000
H  43.41100 -0.60400 28.08600
H  42.55700 -1.32200 29.42900
H  43.02800 0.39200 29.45600
H  36.91400 0.40900 25.22300
H  34.65900 2.07300 25.10000
H  36.40800 3.13600 24.61100
H  37.97700 2.25300 24.20900
H  37.70400 3.20200 25.63700
H  34.18700 -0.65700 26.42300
H  35.20900 -0.79400 25.04700
H  33.52700 -0.85500 23.70800
H  32.85500 0.72200 24.16700
H  32.38300 -0.78000 24.98200
H  29.76000 2.69200 28.92800
H  30.77300 2.71000 27.53100
H  30.41200 4.27300 28.14100
H  32.14700 2.60800 33.86100
H  32.68700 6.40000 35.60000
H  31.84900 5.43500 36.78600
H  30.93500 6.54900 35.74200
Mg 48.92900 34.97200 27.62400
C  46.78500 33.43800 29.93800
C  49.36600 37.64500 29.97300
C  50.88700 36.50400 25.42800
C  48.22300 32.40900 25.39300
N  48.18600 35.48900 29.64600
C  47.42500 34.58700 30.45400
C  47.50600 35.08600 31.84700
C  47.73500 36.61300 31.67300
C  48.49500 36.60600 30.37000
C  46.47300 37.46200 31.59900
C  48.59800 34.35300 32.68700
C  48.25000 33.91300 34.10200
H  47.08100 34.68900 34.80800
N  49.92900 36.77400 27.67900
C  50.04600 37.69700 28.74200
C  50.98100 38.75100 28.39500
C  51.53600 38.37500 27.13900
C  50.79600 37.15900 26.71600
C  51.34700 40.00300 29.16400
C  52.74900 38.98300 26.28700
O  53.14800 38.56500 25.21700
C  53.58800 40.15000 26.78200
N  49.22600 34.67500 25.57700
C  50.20800 35.42300 24.92500
C  50.57400 34.77600 23.58400
C  49.87400 33.35900 23.62900
C  49.07000 33.41600 24.96800
C  50.18700 35.76800 22.35900
C  50.92800 32.25000 23.56600
C  50.45100 31.00200 22.79800
N  47.66300 33.32000 27.56500
C  47.54100 32.35300 26.61700
C  46.58100 31.32200 27.11400
C  46.24000 31.76100 28.37600
C  46.90900 32.90200 28.63500
C  46.09400 30.11900 26.37700
C  45.39600 31.49900 29.45600
O  44.50700 30.71500 29.66300
C  45.73200 32.52300 30.54700
C  46.10700 31.79100 31.76200
O  46.99200 30.97000 31.78500
O  45.28500 31.99200 32.79400
C  45.33700 31.02400 33.94800
H  49.38000 38.42100 30.74100
H  51.61900 36.89900 24.72000
H  48.27900 31.58400 24.68000
H  46.50800 34.99400 32.27500
H  48.42300 37.05300 32.39500
H  46.37900 37.92300 30.61600
H  46.38900 38.13000 32.45700
H  45.60000 36.81500 31.68300
H  49.52200 34.92600 32.61300
H  48.88400 33.47100 32.11400
H  49.07000 34.07400 34.80200
H  47.94500 32.87100 34.20500
H  50.72700 39.87600 30.05100
H  51.15000 40.86400 28.52500
H  52.37100 39.88500 29.51600
H  53.09600 40.95800 27.32400
H  54.09200 40.68600 25.97900
H  54.43300 39.80700 27.37900
H  51.65000 34.71200 23.42500
H  49.14700 33.29300 22.82000
H  49.70300 36.63200 22.81300
H  49.64100 35.21000 21.59700
H  51.10200 36.13200 21.89200
H  51.09700 32.05900 24.62600
H  51.86100 32.59100 23.11800
H  50.55100 30.04000 23.29900
H  50.98300 30.99700 21.84600
H  49.38200 31.02600 22.59000
H  46.63400 30.01700 25.43500
H  45.07500 30.15800 25.99100
H  46.37900 29.31000 27.04800
H  44.88400 33.13500 30.85700
H  44.85300 31.57800 34.75300
H  46.30800 30.70500 34.32800
H  44.90700 30.08600 33.59900

