158

Mg 49.05500 35.64100 27.19100
C  47.22400 33.84400 29.61600
C  49.11100 38.33700 29.49800
C  50.38500 37.48200 24.87100
C  48.43300 32.99700 24.97300
N  48.40900 35.94300 29.34300
C  47.75900 35.00700 30.11500
C  47.49500 35.56000 31.51700
C  47.68500 37.12200 31.28200
C  48.42900 37.15200 29.93600
C  46.48100 38.06700 31.35300
C  48.35400 34.89000 32.64300
C  48.63900 35.76200 33.89700
H  47.47500 36.52200 34.48900
N  49.82600 37.55400 27.24700
C  49.74800 38.49300 28.23200
C  50.45600 39.63200 27.80600
C  50.68800 39.48600 26.41500
C  50.27200 38.09600 26.15500
C  50.65500 40.83900 28.76500
C  51.10900 40.47200 25.40500
O  51.34900 40.25800 24.23600
C  51.22100 41.91800 25.83200
N  49.39700 35.26900 25.27600
C  50.06900 36.17700 24.55000
C  50.47100 35.52700 23.16400
C  50.19800 33.97800 23.38800
C  49.26100 34.03100 24.60700
C  49.60400 36.17300 22.09600
C  51.48000 33.18100 23.74300
C  51.99200 32.29200 22.61700
N  47.93500 33.86200 27.20500
C  47.73100 32.92100 26.16600
C  46.88300 31.84500 26.67900
C  46.61500 32.19700 27.98600
C  47.30800 33.41400 28.28000
C  46.62500 30.59300 25.96700
C  46.00200 31.70600 29.29100
O  45.23200 30.74400 29.51000
C  46.32700 32.71900 30.32800
C  47.03700 32.08400 31.43300
O  48.23100 31.85300 31.51200
O  46.15500 31.77900 32.43600
C  46.61900 31.02800 33.61000
H  49.04100 39.14100 30.23300
H  51.09600 37.96700 24.19800
H  48.36600 32.13400 24.30700
H  46.44600 35.37200 31.74200
H  48.40900 37.55600 31.97100
H  46.30800 38.67600 30.46600
H  46.72000 38.79400 32.12800
H  45.70100 37.37900 31.67900
H  49.28800 34.44200 32.30400
H  47.74100 34.09900 33.07300
H  49.54500 36.34900 33.74500
H  48.85500 35.25100 34.83500
H  49.98800 41.65500 28.48600
H  51.64900 41.27100 28.65000
H  50.56500 40.52600 29.80500
H  50.25100 42.23800 26.21400
H  51.61400 42.53400 25.02300
H  51.99200 41.89200 26.60200
H  51.53800 35.61400 22.96000
H  49.70700 33.56800 22.50500
H  48.70200 36.59400 22.53800
H  49.41400 35.42500 21.32600
H  50.14700 37.00300 21.64400
H  51.30500 32.56300 24.62300
H  52.28900 33.88600 23.93700
H  51.44200 32.47400 21.69400
H  51.86700 31.22400 22.79800
H  53.04600 32.49600 22.43000
H  47.51200 29.97300 26.10000
H  46.42800 30.69200 24.90000
H  45.69800 30.20900 26.39400
H  45.41400 33.14900 30.73900
H  45.90300 30.73900 34.37900
H  47.32200 31.66200 34.15000
H  47.00000 30.10300 33.17700
Mg 27.51100 50.46900 26.05300
C  25.64900 51.23700 28.83000
C  29.86100 48.98500 28.23900
C  29.32500 49.60500 23.41000
C  25.15600 51.90100 23.97100
N  27.78300 50.25700 28.29100
C  26.82700 50.61900 29.21400
C  27.11900 50.21600 30.62900
C  28.53400 49.70300 30.45600
C  28.75300 49.53100 28.87000
C  29.70900 50.43300 31.06500
C  26.15200 49.31600 31.39700
C  25.67600 49.81200 32.77300
H  25.39900 48.86600 33.89300
N  29.40700 49.55000 25.87200
C  30.19500 49.01900 26.86500
C  31.38500 48.34200 26.25000
C  31.21900 48.44400 24.82000
C  29.93700 49.20200 24.61500
C  32.48700 47.64400 27.04900
C  32.06000 47.76600 23.67500
O  31.69900 47.72300 22.48600
C  33.27900 47.06400 24.05300
N  27.32400 50.83900 23.95400
C  28.21400 50.40900 23.09700
C  27.81200 50.79200 21.68200
C  26.34100 51.36200 21.79000
C  26.26100 51.35000 23.33600
C  28.75000 51.63100 20.78500
C  25.22800 50.38500 21.19300
C  23.89400 51.05900 20.64800
N  25.81100 51.49800 26.26700
C  24.93700 52.02900 25.37400
C  23.83400 52.62300 26.08000
C  24.01400 52.27600 27.39800
C  25.23000 51.62100 27.47200
C  22.65900 53.20200 25.48900
C  23.43400 52.31400 28.75700
O  22.31300 52.73900 29.11600
C  24.45400 51.65400 29.73200
C  24.85900 52.71600 30.71100
O  25.66600 53.60600 30.47400
O  24.13200 52.48400 31.84600
C  24.30900 53.40600 33.00000
H  30.47100 48.41800 28.94600
H  29.86100 49.25900 22.52300
H  24.47900 52.35300 23.24300
H  27.21500 51.21700 31.04900
H  28.56200 48.73900 30.96300
H  29.62300 51.52000 31.05000
H  30.60600 50.15200 30.51200
H  29.80000 50.27000 32.13900
H  26.57600 48.34300 31.64300
H  25.31000 49.13900 30.72800
H  24.66200 50.13600 32.53600
H  26.29600 50.63600 33.12800
H  32.39100 46.56400 26.93100
H  32.27500 47.80500 28.10600
H  33.48900 48.00600 26.81900
H  33.86400 47.80200 24.60200
H  33.77000 46.73900 23.13500
H  32.97300 46.23000 24.68500
H  27.70100 49.80600 21.23100
H  26.35100 52.39300 21.43700
H  28.60300 51.12400 19.83100
H  29.80900 51.74300 21.01800
H  28.27100 52.58700 20.57200
H  25.02700 49.57500 21.89300
H  25.62200 49.89800 20.30100
H  23.79800 50.66600 19.63600
H  23.81100 52.14500 20.60700
H  22.99800 50.68700 21.14600
H  22.69600 54.14200 26.04000
H  21.73700 52.65800 25.69400
H  22.90600 53.32100 24.43400
H  23.98700 50.78500 30.19500
H  24.66100 54.34900 32.58100
H  25.03500 53.00000 33.70600
H  23.34000 53.51500 33.48600

