158

Mg -1.72300 17.74700 26.55900
C  -2.32000 15.53100 29.23400
C  -2.38600 20.37800 28.70300
C  -1.91500 19.71800 23.78200
C  -1.80800 14.93400 24.42800
N  -2.47900 17.93900 28.74700
C  -2.34200 16.89600 29.66100
C  -2.51500 17.40500 31.11800
C  -2.73500 18.96600 30.90800
C  -2.49000 19.15700 29.38000
C  -3.95000 19.62600 31.61000
C  -1.30800 16.98200 32.10600
C  -1.01400 17.76100 33.36000
H  -0.48700 17.06100 34.54500
N  -2.00200 19.77900 26.31200
C  -2.15200 20.68500 27.36900
C  -2.05800 22.04900 26.75700
C  -1.87000 21.87200 25.37900
C  -1.97300 20.38700 25.08500
C  -1.87400 23.37700 27.56100
C  -1.50100 22.88900 24.26000
O  -1.39000 22.56900 23.06000
C  -1.21800 24.28700 24.51200
N  -1.73900 17.37800 24.38700
C  -1.83300 18.39100 23.42800
C  -1.98000 17.80400 22.01400
C  -1.80800 16.22400 22.27300
C  -1.87200 16.20600 23.76900
C  -3.23400 18.30000 21.21000
C  -0.56600 15.54700 21.61500
C  0.74300 16.23800 21.80100
N  -1.98100 15.66000 26.80100
C  -1.93100 14.66200 25.85300
C  -2.11700 13.37700 26.49300
C  -2.22400 13.69700 27.86200
C  -2.16300 15.08300 27.96100
C  -2.28600 12.13000 25.79500
C  -2.37700 13.08700 29.05600
O  -2.39900 11.93300 29.40600
C  -2.45200 14.28600 30.04500
C  -1.23400 14.08300 30.85800
O  -0.12400 14.39300 30.47600
O  -1.58300 13.36300 31.93400
C  -0.38100 12.84300 32.75500
H  -2.59600 21.23900 29.34200
H  -2.03000 20.49200 23.02000
H  -1.85700 14.14000 23.68000
H  -3.37000 16.81000 31.43700
H  -1.77400 19.41100 31.16400
H  -4.54300 20.31100 31.00500
H  -3.66400 20.28400 32.43000
H  -4.66300 18.91200 32.02300
H  -0.42800 16.94900 31.46300
H  -1.48100 15.96200 32.45000
H  -1.79000 18.47600 33.62900
H  -0.12500 18.32800 33.08500
H  -0.84500 23.72900 27.63700
H  -2.45400 23.33100 28.48300
H  -2.36500 24.20900 27.05700
H  -2.15400 24.61600 24.96400
H  -1.01000 24.97100 23.69000
H  -0.44400 24.40100 25.27200
H  -1.08400 18.16200 21.50600
H  -2.69500 15.72700 21.87900
H  -3.95600 17.48700 21.12000
H  -3.00100 18.51300 20.16700
H  -3.54900 19.23100 21.68100
H  -0.74800 15.38300 20.55300
H  -0.51800 14.52000 21.97600
H  1.30400 16.50800 20.90600
H  1.26800 15.48500 22.38800
H  0.68000 17.02100 22.55600
H  -3.25600 12.09300 25.30000
H  -2.26600 11.27900 26.47600
H  -1.37400 12.00800 25.21000
H  -3.31500 14.13600 30.69400
H  -0.29200 11.76600 32.90000
H  -0.61500 13.22500 33.74800
H  0.57000 13.30500 32.48800
Mg 45.58200 5.04000 48.15400
C  43.21700 7.48700 47.22200
C  43.03400 2.70100 47.72900
C  47.94300 2.61800 48.18500
C  48.14500 7.39500 47.87000
N  43.37700 5.16800 47.76400
C  42.67200 6.25000 47.23300
C  41.26300 5.83900 46.74300
C  41.11200 4.38200 47.32600
C  42.59600 4.02700 47.61800
C  40.23200 4.18600 48.63200
C  40.99000 6.07100 45.22100
C  39.65600 6.77000 44.92100
H  39.54800 7.61800 43.65500
N  45.48900 2.94700 48.15700
C  44.36200 2.18900 47.96000
C  44.75400 0.81200 48.04900
C  46.19300 0.68300 48.14100
C  46.57900 2.09900 48.16200
C  43.72200 -0.33800 48.01000
C  46.92700 -0.62700 48.23300
O  46.32900 -1.70900 48.30900
C  48.47500 -0.69900 48.25800
N  47.76100 5.04100 48.07000
C  48.43600 3.89100 48.17500
C  50.00000 4.17700 48.33000
C  50.01400 5.74100 48.38400
C  48.60000 6.10500 48.07000
C  50.75700 3.47000 49.45200
C  51.05900 6.39400 47.49900
C  52.42900 5.79900 47.40800
N  45.69400 7.05000 47.71500
C  46.79700 7.85900 47.65900
C  46.33800 9.23100 47.36200
C  44.95300 9.08900 47.35000
C  44.58400 7.75800 47.45700
C  47.25400 10.44000 47.02500
C  43.73600 9.87500 47.07000
O  43.60200 11.05000 46.93700
C  42.54800 8.79600 47.02400
C  41.53100 9.16500 48.11800
O  41.23900 8.50600 49.08700
O  40.94200 10.26100 47.69500
C  39.72300 10.60300 48.43500
H  42.24900 1.98200 47.48800
H  48.69200 1.83800 48.33000
H  48.94300 8.13900 47.81100
H  40.51300 6.45700 47.23500
H  40.71100 3.74400 46.53800
H  39.47900 3.43800 48.38600
H  39.64200 5.09600 48.74700
H  40.78300 3.84600 49.50900
H  40.92800 5.07900 44.77500
H  41.79200 6.54900 44.65800
H  39.31200 7.35700 45.77200
H  38.91200 5.97700 44.84700
H  44.04100 -1.06000 48.76200
H  43.70700 -0.76500 47.00700
H  42.71500 -0.01500 48.27100
H  48.77000 -1.73200 48.07000
H  48.75500 -0.32400 49.24200
H  48.88600 -0.13600 47.42000
H  50.29700 3.82500 47.34200
H  50.05200 6.14500 49.39600
H  51.43500 4.08200 50.04600
H  51.29800 2.64900 48.98100
H  49.99400 3.03400 50.09700
H  51.26100 7.37000 47.94100
H  50.81300 6.62200 46.46200
H  52.48900 4.87500 47.98300
H  53.16400 6.46100 47.86600
H  52.71900 5.54900 46.38800
H  47.75400 10.33900 46.06100
H  47.97700 10.57000 47.83100
H  46.60500 11.31500 46.99900
H  42.06000 8.78500 46.04900
H  39.75000 10.57100 49.52400
H  38.80000 10.22600 47.99500
H  39.68000 11.67600 48.25300

