158

Mg 39.62500 9.88900 30.51500
C  41.67600 11.16000 33.18000
C  37.53100 8.73300 32.89500
C  38.01700 8.48500 28.03800
C  42.34000 10.75000 28.27800
N  39.63700 9.97400 32.78900
C  40.52300 10.54900 33.68000
C  40.03300 10.52000 35.19700
C  38.84900 9.47700 35.01600
C  38.59300 9.44100 33.42600
C  39.10100 8.07400 35.55000
C  39.63300 11.88600 35.85100
C  40.40400 12.22500 37.11500
H  39.57600 12.67400 38.28500
N  38.05300 8.67400 30.43700
C  37.29100 8.38700 31.52500
C  36.15100 7.63900 31.09900
C  36.28000 7.55600 29.68000
C  37.52400 8.20500 29.34300
C  34.98000 7.05500 31.96400
C  35.44100 6.75000 28.71500
O  35.74600 6.58100 27.53300
C  34.20900 6.16100 29.17700
N  40.12900 9.61800 28.39000
C  39.16800 9.15500 27.65700
C  39.65700 9.21600 26.10000
C  41.13000 9.75200 26.22000
C  41.22200 10.10100 27.72000
C  39.46000 7.92600 25.29400
C  41.51900 10.97700 25.16300
C  40.78500 12.25500 25.37900
N  41.45700 10.90400 30.59800
C  42.45100 11.11600 29.66400
C  43.55800 11.86300 30.25100
C  43.22100 11.92000 31.58900
C  41.99300 11.27500 31.81200
C  44.61400 12.49200 29.39900
C  43.66700 12.48100 32.91500
O  44.61700 13.15400 33.17900
C  42.60900 11.96200 33.99500
C  43.50700 11.19600 34.88100
O  43.82800 10.02300 34.77200
O  43.77200 11.92400 35.97200
C  44.76900 11.31400 36.93400
H  36.82000 8.43500 33.66900
H  37.41100 8.15000 27.19400
H  43.18100 11.03100 27.64000
H  40.92500 10.15300 35.70600
H  37.94400 9.87300 35.47700
H  38.98400 8.10900 36.63300
H  40.13400 7.74600 35.43500
H  38.36200 7.37600 35.15600
H  38.55200 11.89500 35.99500
H  39.76300 12.69200 35.12800
H  40.98300 13.12100 36.89000
H  41.12800 11.45400 37.37800
H  35.05400 7.49900 32.95700
H  35.10100 5.98300 32.11800
H  33.99900 7.36700 31.60600
H  33.83400 5.55400 28.35300
H  33.39200 6.85900 29.36100
H  34.44700 5.49300 30.00600
H  39.08600 9.99300 25.59300
H  41.86100 8.95600 26.08000
H  39.23200 7.07800 25.94000
H  40.30700 7.66400 24.66100
H  38.64200 7.87300 24.57600
H  41.22900 10.62600 24.17200
H  42.59300 11.16100 25.17100
H  40.02400 12.28400 26.15900
H  40.35300 12.67500 24.47100
H  41.54100 12.99900 25.62800
H  45.02000 13.37600 29.89000
H  44.34900 12.72000 28.36600
H  45.44200 11.79200 29.50300
H  42.26700 12.82400 34.56800
H  45.68200 11.15500 36.35900
H  44.44800 10.37500 37.38500
H  45.04200 12.07000 37.67000
Mg 30.87700 58.11400 40.00400
C  27.84500 56.48900 39.04200
C  32.54500 55.45300 38.75100
C  33.51900 60.02700 40.01900
C  28.89900 60.79900 40.97800
N  30.21700 56.30700 38.75800
C  28.98600 55.78900 38.59100
C  28.93500 54.43600 37.85700
C  30.44400 54.04900 38.12700
C  31.12200 55.37500 38.58000
C  30.67500 52.97100 39.23700
C  28.64000 54.59200 36.38500
C  27.26500 54.19600 35.84200
H  26.43400 55.21600 35.09800
N  32.82100 57.70800 39.65700
C  33.32700 56.56200 39.15700
C  34.71100 56.57700 39.26200
C  35.08600 57.96300 39.54900
C  33.78100 58.65600 39.77500
C  35.62300 55.35400 39.04600
C  36.37800 58.48200 39.64300
O  37.29500 57.76000 39.39500
C  36.72100 59.91900 40.02600
N  31.15900 60.10400 40.36100
C  32.32100 60.66500 40.19100
C  32.35900 62.10400 40.61600
C  30.99900 62.25800 41.36200
C  30.29800 60.99800 40.86100
C  33.50900 62.57400 41.55000
C  30.25700 63.69800 41.05100
C  29.63300 64.38200 42.24700
N  28.79100 58.57900 40.04200
C  28.15900 59.62900 40.59600
C  26.71000 59.49500 40.54600
C  26.54900 58.17700 40.01700
C  27.83700 57.73500 39.62500
C  25.72100 60.52900 40.84400
C  25.52900 57.23200 39.61200
O  24.31900 57.19400 39.70400
C  26.32000 56.05100 38.92300
C  26.01800 54.85100 39.61300
O  26.44000 54.54300 40.68700
O  25.18800 54.02800 38.87600
C  24.94300 52.67700 39.34300
H  33.04200 54.54100 38.41400
H  34.34600 60.73500 39.94200
H  28.34000 61.64300 41.38700
H  28.36100 53.69400 38.41100
H  30.95500 53.70500 37.22800
H  30.63600 53.47100 40.20500
H  31.64600 52.48100 39.16400
H  29.81200 52.30500 39.22800
H  29.36400 53.94000 35.89500
H  28.79100 55.64400 36.14300
H  26.67800 53.71800 36.62700
H  27.29300 53.39800 35.10100
H  36.24100 55.19600 39.93000
H  36.26600 55.72700 38.24800
H  35.11200 54.42300 38.80200
H  36.45900 60.60300 39.21800
H  37.76500 60.01900 40.32300
H  36.11400 60.03900 40.92300
H  32.43800 62.63100 39.66500
H  31.15900 62.08900 42.42700
H  34.08400 61.71000 41.88300
H  33.24000 63.15100 42.43500
H  34.25600 63.15400 41.00700
H  29.58000 63.71900 40.19700
H  30.93800 64.44000 40.63400
H  29.85200 65.44900 42.28900
H  29.98800 64.01100 43.20900
H  28.54400 64.37100 42.27800
H  26.08200 61.52800 40.59900
H  25.67200 60.39000 41.92400
H  24.72300 60.36800 40.43700
H  25.97100 55.98700 37.89300
H  24.10000 52.74800 40.03100
H  25.76700 52.21500 39.88700
H  24.57000 52.08000 38.51100

