158

Mg 47.72600 15.66200 28.53300
C  45.75700 15.73300 31.35300
C  50.34300 17.20200 30.29500
C  49.45800 15.94700 25.57800
C  44.96400 14.24700 26.80500
N  47.93400 16.47600 30.47200
C  47.01800 16.28600 31.49700
C  47.55900 16.76900 32.82300
C  48.93600 17.45100 32.44900
C  49.13400 16.99100 30.96400
C  48.96200 18.93500 32.72400
C  47.84100 15.52700 33.76300
C  47.27600 15.64400 35.24200
H  47.27000 16.97300 36.07900
N  49.65900 16.44400 28.02600
C  50.60100 16.94600 28.87900
C  51.78800 17.26500 28.16300
C  51.49500 16.99700 26.76000
C  50.13900 16.45200 26.72700
C  53.07600 17.71900 28.84300
C  52.44900 17.14100 25.56600
O  52.04000 16.83700 24.46300
C  53.84600 17.78700 25.71100
N  47.26300 15.10100 26.50200
C  48.14700 15.39100 25.50900
C  47.52800 14.98500 24.10300
C  46.28300 14.15400 24.55500
C  46.10400 14.45700 26.03100
C  47.14900 16.22300 23.26600
C  46.46400 12.61400 24.25300
C  45.52900 12.03200 23.22400
N  45.73000 15.16200 28.93500
C  44.75800 14.57400 28.15900
C  43.54300 14.31600 28.98400
C  43.91800 14.64000 30.26800
C  45.26000 15.21600 30.23300
C  42.23400 13.68800 28.59300
C  43.40500 14.81300 31.64100
O  42.28600 14.57200 32.08700
C  44.63700 15.42900 32.44400
C  43.98700 16.59100 33.15400
O  43.48700 17.58500 32.60200
O  43.95400 16.37700 34.48900
C  43.23300 17.26500 35.35900
H  51.17300 17.55800 30.90900
H  49.96400 15.94600 24.61000
H  44.08100 13.85800 26.29500
H  46.78200 17.39800 33.25900
H  49.75400 17.08700 33.07100
H  49.09900 19.32800 33.73200
H  47.94700 19.29900 32.56400
H  49.64400 19.51300 32.10000
H  48.90600 15.29700 33.79500
H  47.47700 14.60100 33.31800
H  47.74500 14.83900 35.80800
H  46.22500 15.37200 35.14600
H  53.14900 17.26400 29.83100
H  53.10900 18.80600 28.92200
H  54.03100 17.46300 28.38300
H  53.55800 18.64400 26.31900
H  54.16500 18.01300 24.69400
H  54.55700 17.23200 26.32300
H  48.17800 14.31000 23.54700
H  45.44800 14.65100 24.06200
H  46.08600 16.31000 23.04100
H  47.76300 16.10600 22.37300
H  47.37900 17.09900 23.87300
H  46.41700 12.12200 25.22400
H  47.41900 12.37800 23.78300
H  46.15500 11.49900 22.50800
H  44.95700 12.73200 22.61400
H  44.83100 11.42500 23.80100
H  41.99400 13.85500 27.54300
H  41.52400 14.20100 29.24200
H  42.18000 12.60900 28.73200
H  44.88100 14.63200 33.14700
H  43.15000 16.85200 36.36400
H  42.20900 17.49100 35.06400
H  43.84100 18.15700 35.50600
Mg -12.96500 16.41300 42.33500
C  -9.85400 14.81900 41.72300
C  -11.95200 19.10000 40.51300
C  -16.13800 17.41200 42.30900
C  -14.08400 13.21500 43.61000
N  -11.07100 16.95500 41.37800
C  -9.91400 16.19000 41.23900
C  -8.83600 17.00700 40.50100
C  -9.53000 18.38600 40.31700
C  -10.93200 18.14800 40.70800
C  -8.90600 19.43900 41.33300
C  -8.48200 16.40000 39.10800
C  -6.94100 16.30000 38.87100
H  -6.39000 15.09600 38.16300
N  -13.91000 18.09200 41.59500
C  -13.27500 19.09200 40.89600
C  -14.29100 20.12800 40.56800
C  -15.50700 19.76400 41.18400
C  -15.22700 18.35500 41.70300
C  -13.97700 21.41100 39.81100
C  -16.80900 20.57600 41.21800
O  -16.85400 21.70800 40.69900
C  -18.00500 20.02400 41.90500
N  -14.80600 15.44900 42.75400
C  -16.05300 16.09800 42.79800
C  -17.23500 15.16600 43.12000
C  -16.51600 13.95900 43.69300
C  -15.02700 14.13500 43.19300
C  -18.29200 15.84500 44.13300
C  -17.07500 12.53000 43.34500
C  -16.95400 11.44700 44.36800
N  -12.20300 14.37700 42.63700
C  -12.74300 13.22600 43.23300
C  -11.68300 12.25100 43.41900
C  -10.53600 12.88600 42.86500
C  -10.96600 14.12700 42.37800
C  -11.90700 10.98100 44.13400
C  -9.08300 12.77900 42.66700
O  -8.31500 11.88400 42.97200
C  -8.57500 14.08100 41.91700
C  -7.53900 14.66200 42.81000
O  -7.75800 15.03400 43.95100
O  -6.35800 14.96700 42.18100
C  -5.39600 15.86200 42.81800
H  -11.79200 19.99900 39.91400
H  -17.16500 17.77600 42.23600
H  -14.29600 12.22400 44.01600
H  -7.88900 17.00100 41.04000
H  -9.38800 18.82600 39.33000
H  -9.70100 19.93500 41.88900
H  -8.51200 20.24600 40.71600
H  -8.17300 18.98600 42.00000
H  -8.83800 16.97700 38.25400
H  -8.86400 15.38700 38.98300
H  -6.36300 16.39500 39.79000
H  -6.70600 17.22800 38.34900
H  -14.81300 21.68300 39.16700
H  -13.21500 21.20800 39.05800
H  -13.66800 22.21300 40.48100
H  -18.37400 19.20300 41.29100
H  -18.80100 20.76300 41.81400
H  -17.89600 19.75300 42.95500
H  -17.73700 14.93200 42.18100
H  -16.48800 14.06000 44.77800
H  -19.25800 15.36800 43.96700
H  -18.32600 16.91900 43.95100
H  -17.95400 15.66500 45.15300
H  -16.37600 12.29200 42.54300
H  -18.07800 12.77900 43.00000
H  -17.92600 10.99800 44.57200
H  -16.56100 11.95800 45.24700
H  -16.22300 10.68100 44.11000
H  -10.90400 10.61100 44.34600
H  -12.47800 10.29600 43.50600
H  -12.42600 11.09400 45.08500
H  -8.12700 13.60500 41.04500
H  -4.83000 15.36700 43.60600
H  -5.88900 16.77400 43.15400
H  -4.57000 16.18000 42.18200

