158

Mg 44.10400 3.57200 47.35000
C  42.31200 6.58500 47.11100
C  41.13900 1.86200 46.97900
C  45.91600 0.64800 47.10600
C  47.07800 5.39400 47.31000
N  41.93600 4.18400 47.01600
C  41.46900 5.45100 47.07000
C  39.97200 5.52200 46.93700
C  39.61000 3.95500 47.07500
C  40.95100 3.25900 47.01400
C  38.76700 3.47500 48.20300
C  39.46600 6.20500 45.58900
C  39.91500 5.64100 44.28500
H  40.91600 6.53200 43.50300
N  43.59300 1.51900 47.19900
C  42.30800 1.06200 47.05100
C  42.38600 -0.39700 46.88100
C  43.72800 -0.79400 46.79100
C  44.48400 0.43600 47.04400
C  41.12300 -1.21400 46.54600
C  44.28100 -2.20000 46.54200
O  43.43100 -3.06200 46.74600
C  45.71800 -2.48700 46.20200
N  46.16500 3.11600 47.10600
C  46.68100 1.90300 47.18300
C  48.18000 1.94900 47.16400
C  48.52700 3.43200 47.50700
C  47.17900 4.03100 47.20600
C  48.84400 0.85900 47.95800
C  49.74900 4.02300 46.70700
C  50.96900 4.53800 47.52600
N  44.64200 5.50400 47.34000
C  45.86400 6.11800 47.37200
C  45.69700 7.52800 47.48300
C  44.29700 7.80300 47.39500
C  43.70900 6.48800 47.27500
C  46.77700 8.52300 47.70100
C  43.25000 8.83100 47.38900
O  43.33100 10.00600 47.44400
C  41.88500 8.07500 47.11200
C  40.88700 8.47300 48.19200
O  40.76200 7.78300 49.21800
O  40.05400 9.57600 47.88100
C  38.82200 9.73800 48.66500
H  40.21500 1.31600 46.77800
H  46.56200 -0.23100 47.07800
H  47.96000 5.98600 47.56400
H  39.45200 6.14300 47.66600
H  38.97900 3.67100 46.23300
H  39.30900 2.98900 49.01400
H  38.11300 2.67100 47.86600
H  38.22700 4.24400 48.75500
H  39.59700 7.28600 45.64000
H  38.37700 6.23700 45.58900
H  39.02800 5.35900 43.71700
H  40.43000 4.72200 44.56300
H  40.23700 -0.79800 47.02500
H  41.21500 -2.19600 47.01000
H  41.04000 -1.37000 45.47000
H  45.97300 -1.97200 45.27600
H  45.92000 -3.55800 46.20400
H  46.42800 -2.08400 46.92400
H  48.43400 1.74000 46.12400
H  48.81100 3.44500 48.56000
H  49.82800 1.20000 48.28200
H  48.96300 -0.01200 47.31400
H  48.35200 0.52800 48.87300
H  49.30500 4.80900 46.09600
H  50.09400 3.20300 46.07600
H  50.78800 4.65300 48.59500
H  51.06200 5.58300 47.23000
H  51.85300 3.93100 47.33500
H  46.59100 8.86900 48.71800
H  46.79000 9.35600 46.99800
H  47.76200 8.08100 47.84900
H  41.69800 8.37400 46.08000
H  38.25600 10.60700 48.33000
H  39.10000 9.83300 49.71400
H  38.24800 8.82000 48.53800
Mg -5.47900 24.74000 26.31500
C  -3.83200 26.68300 28.65700
C  -6.49100 22.68300 28.82200
C  -6.51000 22.57000 23.97600
C  -3.93000 26.67700 23.71000
N  -5.17600 24.78500 28.44800
C  -4.54800 25.66500 29.22800
C  -4.74100 25.40500 30.75800
C  -5.40600 24.02100 30.73700
C  -5.79700 23.80400 29.24500
C  -4.52400 22.86000 31.37700
C  -5.58500 26.64500 31.33800
C  -5.15500 27.13600 32.75500
H  -4.80200 26.02200 33.71000
N  -6.43600 22.89700 26.37300
C  -6.85500 22.29700 27.50900
C  -7.68400 21.13900 27.23400
C  -7.74400 21.09700 25.74500
C  -6.91600 22.21300 25.24500
C  -8.33700 20.25200 28.26100
C  -8.66000 20.43300 24.77900
O  -8.68100 20.73500 23.58600
C  -9.59000 19.36400 25.39800
N  -5.34000 24.74400 24.16100
C  -5.79000 23.60300 23.48400
C  -5.52200 23.72600 21.96400
C  -4.69500 25.03900 21.79300
C  -4.69700 25.59700 23.30500
C  -4.91700 22.43700 21.29300
C  -5.23300 26.03200 20.74800
C  -6.12100 27.18900 21.24000
N  -4.30700 26.39200 26.08700
C  -3.71900 27.08200 25.00600
C  -2.95700 28.16200 25.47100
C  -2.91400 28.00100 26.88000
C  -3.80200 26.95500 27.22900
C  -2.15500 29.05200 24.58900
C  -2.25300 28.46500 28.03400
O  -1.44200 29.37800 28.05600
C  -2.88000 27.69700 29.26900
C  -1.90300 27.19600 30.23500
O  -1.08300 26.35700 29.91400
O  -2.07800 27.66900 31.53200
C  -1.06400 27.06300 32.41500
H  -6.75400 22.02500 29.65300
H  -6.69200 21.74900 23.27900
H  -3.46600 27.21300 22.88000
H  -3.82800 25.28900 31.34200
H  -6.36400 23.98800 31.25700
H  -5.03300 21.91200 31.55300
H  -4.17300 23.17100 32.36100
H  -3.60100 22.71900 30.81600
H  -6.55600 26.15000 31.35300
H  -5.53400 27.45100 30.60600
H  -6.00900 27.68300 33.15500
H  -4.28800 27.79400 32.81500
H  -9.42500 20.29100 28.19500
H  -7.91900 20.41000 29.25500
H  -8.01600 19.25800 27.94700
H  -10.45400 19.90000 25.79100
H  -9.03200 18.89500 26.20800
H  -9.99300 18.67000 24.66100
H  -6.48800 23.87900 21.48300
H  -3.67300 24.88500 21.44500
H  -4.22600 22.04400 22.03900
H  -4.33500 22.77600 20.43600
H  -5.72500 21.72200 21.13500
H  -5.81900 25.46600 20.02400
H  -4.37000 26.36300 20.17000
H  -5.69700 28.13700 20.90900
H  -6.30100 27.33900 22.30500
H  -7.11100 27.15000 20.78500
H  -2.88700 29.81200 24.31500
H  -1.83400 28.52700 23.68900
H  -1.36000 29.53300 25.15800
H  -3.46800 28.42000 29.83400
H  -1.13900 25.97700 32.37100
H  -1.28700 27.35300 33.44200
H  -0.03300 27.37400 32.24500

