158

Mg 17.14900 -2.60800 28.34000
C  16.07900 -0.16400 30.87700
C  18.51800 -4.34200 30.76000
C  18.35800 -4.37300 25.89200
C  15.61000 -0.26800 25.90800
N  17.15100 -2.34300 30.64000
C  16.67400 -1.33000 31.40000
C  17.08200 -1.58900 32.84700
C  18.08100 -2.78600 32.76800
C  17.90300 -3.22800 31.31000
C  19.57400 -2.30900 33.19000
C  15.83800 -1.91200 33.73700
C  15.87100 -1.66900 35.31000
H  17.09300 -0.99500 36.00600
N  18.17800 -4.21800 28.28700
C  18.66600 -4.84200 29.40100
C  19.43900 -5.95700 29.04200
C  19.40700 -5.99600 27.61900
C  18.66500 -4.79600 27.19900
C  20.06400 -6.95500 30.05600
C  20.04400 -7.05300 26.70900
O  19.96800 -6.98000 25.48800
C  20.78400 -8.26000 27.19500
N  16.95400 -2.39600 26.20000
C  17.60000 -3.32100 25.46400
C  17.21000 -3.15100 24.01700
C  16.37400 -1.82400 23.96200
C  16.30800 -1.45300 25.41900
C  18.35100 -3.08900 22.98200
C  15.00900 -1.91100 23.26100
C  14.93100 -1.13900 21.98500
N  16.17000 -0.63600 28.32600
C  15.53600 0.06900 27.25200
C  14.69500 1.18200 27.81900
C  15.07500 1.20500 29.20800
C  15.90200 0.04900 29.49800
C  13.82600 2.10100 27.09600
C  14.75400 1.83300 30.44700
O  13.97200 2.79500 30.67500
C  15.48700 1.00800 31.64900
C  16.61500 1.78300 32.30200
O  17.73700 2.01700 31.90700
O  16.12500 2.39400 33.39200
C  17.03800 3.16800 34.18700
H  18.95400 -4.87700 31.60700
H  18.63300 -5.06900 25.09700
H  14.98400 0.29600 25.21400
H  17.48000 -0.67900 33.29800
H  17.88000 -3.60400 33.46100
H  19.71100 -1.29600 32.81100
H  20.31600 -2.98200 32.76200
H  19.46700 -2.24900 34.27300
H  15.56600 -2.96000 33.61600
H  15.01100 -1.33900 33.31800
H  15.74400 -2.63500 35.79700
H  15.04600 -1.00800 35.57600
H  19.64000 -7.92800 29.80700
H  19.85800 -6.78000 31.11200
H  21.15000 -7.00900 29.97900
H  20.23800 -9.09100 27.64200
H  21.58200 -7.94500 27.86600
H  21.20800 -8.73900 26.31200
H  16.64300 -4.04200 23.74500
H  16.95900 -1.01400 23.52700
H  18.37100 -4.15700 22.76200
H  19.32800 -2.93000 23.43800
H  18.15700 -2.47400 22.10300
H  14.20500 -1.51700 23.88300
H  14.83600 -2.95900 23.02000
H  15.77800 -0.52600 21.67600
H  14.04500 -0.50900 22.06200
H  14.73800 -1.89100 21.21900
H  13.16100 2.55600 27.83100
H  13.20000 1.55900 26.38800
H  14.41700 2.83000 26.54300
H  14.83300 0.68600 32.46000
H  17.22800 4.13100 33.71400
H  17.99900 2.65700 34.23300
H  16.53800 3.46500 35.10800
Mg 36.07700 48.93400 25.45600
C  36.15500 47.26800 28.43400
C  35.34700 51.88000 27.10800
C  36.14100 50.45300 22.36200
C  36.66000 45.82300 23.78900
N  35.62500 49.46800 27.49800
C  35.90500 48.64300 28.52700
C  35.76200 49.32400 29.87800
C  35.28800 50.70400 29.47900
C  35.46700 50.74300 27.93500
C  33.93700 51.13400 29.94800
C  37.13500 49.27800 30.63900
C  37.14200 48.96500 32.06300
H  36.04100 49.47800 32.95000
N  35.68300 50.90300 24.79600
C  35.46900 51.96400 25.64400
C  35.35900 53.15300 24.81400
C  35.54200 52.78700 23.46400
C  35.76000 51.26900 23.46000
C  35.16000 54.55000 25.41500
C  35.35200 53.65300 22.27200
O  35.28300 53.10600 21.16300
C  35.23200 55.14500 22.26500
N  36.25900 48.22300 23.28600
C  36.35100 49.08400 22.28200
C  36.70700 48.36700 20.97600
C  37.14800 46.99300 21.53900
C  36.63400 46.97500 22.92400
C  35.42200 48.38200 20.07000
C  38.64200 46.73700 21.46600
C  39.12700 45.34100 21.11800
N  36.25400 46.96500 25.94000
C  36.50200 45.80900 25.20400
C  36.60200 44.64300 26.06400
C  36.50400 45.19200 27.33000
C  36.33100 46.57800 27.20600
C  36.83800 43.19000 25.65300
C  36.54400 44.85000 28.73900
O  36.61400 43.77200 29.28100
C  36.16500 46.14900 29.49400
C  34.85100 45.85500 30.19200
O  33.74300 45.94800 29.71500
O  35.11600 45.56100 31.46300
C  33.97500 45.65200 32.32600
H  35.20800 52.79300 27.69000
H  36.34400 50.91000 21.39200
H  37.08900 44.93100 23.32800
H  34.98200 48.79300 30.42400
H  35.96800 51.45800 29.87400
H  33.53500 50.35400 30.59400
H  33.30400 51.49900 29.13900
H  34.08700 52.03500 30.54400
H  37.53900 50.29000 30.62700
H  37.84600 48.61900 30.14100
H  38.11000 49.30200 32.43200
H  37.22400 47.89200 32.23600
H  34.35700 55.03500 24.86000
H  36.06300 55.15800 25.45400
H  34.86900 54.54800 26.46600
H  34.32800 55.58600 22.68500
H  35.35000 55.43600 21.22100
H  36.00200 55.73700 22.76000
H  37.54200 48.94200 20.57600
H  36.58200 46.18700 21.07200
H  35.62900 48.91200 19.14000
H  34.60700 48.97000 20.49200
H  35.13000 47.45500 19.57600
H  39.00300 46.88600 22.48400
H  39.17700 47.46600 20.85700
H  38.43000 44.81400 20.46700
H  39.34200 44.73300 21.99700
H  40.03500 45.35900 20.51400
H  36.70900 43.12000 24.57300
H  36.33400 42.37400 26.17300
H  37.89600 43.00000 25.83200
H  36.91200 46.38500 30.25200
H  33.45700 44.69900 32.21400
H  33.43900 46.58000 32.12500
H  34.23400 45.69200 33.38400

