158

Mg 42.00400 41.26800 27.17000
C  41.40100 43.80500 29.39200
C  42.82400 39.29400 29.76200
C  42.83700 38.83200 24.94100
C  41.55800 43.48000 24.57100
N  42.31900 41.58200 29.33200
C  41.74400 42.63200 30.05900
C  41.68700 42.36600 31.61600
C  42.48400 41.02700 31.72500
C  42.52700 40.56100 30.24300
C  43.85400 40.84300 32.47900
C  40.24700 42.37400 32.21300
C  39.94400 43.36500 33.36100
H  39.31500 42.76900 34.58500
N  42.75700 39.30300 27.31000
C  42.92600 38.62600 28.50500
C  43.18600 37.23800 28.20100
C  43.23300 37.05700 26.79000
C  42.90900 38.41300 26.28200
C  43.42600 36.21700 29.35900
C  43.58000 35.78900 25.95500
O  43.78400 35.82100 24.75700
C  43.91400 34.46500 26.57100
N  42.33100 41.25400 25.06100
C  42.50300 40.08600 24.41500
C  42.33200 40.23000 22.90100
C  41.85800 41.69900 22.72000
C  41.92000 42.18000 24.18300
C  43.50700 39.68800 22.04000
C  40.52100 41.91900 21.91600
C  39.24700 42.18300 22.70000
N  41.72600 43.28400 26.95900
C  41.53300 44.03500 25.85100
C  41.11200 45.41500 26.27900
C  41.01200 45.34300 27.64100
C  41.42800 44.02400 27.99400
C  40.61300 46.52500 25.29800
C  40.70000 46.08400 28.75400
O  40.16400 47.18500 28.90000
C  40.83900 45.11400 29.96300
C  41.51900 45.87500 31.05400
O  42.70300 46.24900 31.08500
O  40.54300 46.22100 31.96300
C  40.98100 46.72400 33.26900
H  42.94500 38.73300 30.69200
H  42.98100 38.04900 24.19300
H  41.21200 44.04000 23.70100
H  42.20200 43.11000 32.22500
H  41.78100 40.31800 32.16300
H  44.71600 40.97400 31.82400
H  43.75900 39.91100 33.03500
H  43.88700 41.64700 33.21400
H  39.97300 41.35800 32.49700
H  39.57600 42.46000 31.35900
H  39.22600 44.13300 33.07500
H  40.86400 43.82200 33.72600
H  43.74700 36.64300 30.31000
H  44.23100 35.49700 29.21400
H  42.50200 35.63900 29.38200
H  43.02000 34.33200 27.18100
H  44.79500 34.36100 27.20500
H  43.95100 33.63300 25.86800
H  41.45100 39.60200 22.76900
H  42.53500 42.21700 22.04100
H  43.70300 40.44400 21.28000
H  43.25500 38.72500 21.59500
H  44.42700 39.55600 22.61100
H  40.49600 41.09100 21.20700
H  40.88400 42.79300 21.37500
H  39.40000 41.79000 23.70500
H  38.36500 41.64000 22.36000
H  38.99000 43.23000 22.53800
H  39.82000 46.22100 24.61500
H  41.38400 47.10300 24.78900
H  40.14000 47.26700 25.94100
H  39.94600 44.81900 30.51400
H  41.88100 47.32700 33.14600
H  40.99900 45.96700 34.05300
H  40.11700 47.37500 33.40300
Mg -1.21700 34.89700 27.17500
C  -2.88200 33.23400 29.84500
C  -0.08200 37.08100 29.60300
C  0.02200 36.80300 24.71100
C  -2.74500 32.75400 24.95100
N  -1.45600 35.17500 29.50300
C  -2.13500 34.30800 30.32200
C  -1.99900 34.78500 31.77900
C  -1.31600 36.13600 31.63700
C  -0.84700 36.11100 30.17800
C  -2.17600 37.36100 32.03200
C  -1.22800 33.64900 32.64300
C  -1.90700 33.37200 33.93900
H  -0.97400 33.17100 35.13300
N  -0.02700 36.56000 27.19600
C  0.37100 37.32400 28.23700
C  1.16700 38.42300 27.75700
C  1.36100 38.28400 26.35000
C  0.41300 37.17500 26.03300
C  1.79800 39.49800 28.56200
C  2.17000 39.03400 25.29400
O  2.16000 38.80000 24.10900
C  3.05400 40.00800 25.69500
N  -1.33300 34.71800 25.12700
C  -0.76600 35.69600 24.27200
C  -1.18500 35.33100 22.84100
C  -1.72900 33.89500 22.93700
C  -2.00100 33.74800 24.39100
C  -2.18800 36.29500 22.13700
C  -0.79100 32.91900 22.18500
C  0.22000 32.14300 23.11900
N  -2.59800 33.34600 27.29000
C  -3.12800 32.56600 26.30200
C  -3.87200 31.45700 26.87600
C  -3.81600 31.71700 28.20700
C  -3.01300 32.85400 28.47400
C  -4.57600 30.32500 26.18000
C  -4.29900 31.15700 29.45600
O  -4.96900 30.16300 29.68500
C  -3.59600 32.08600 30.59100
C  -4.60500 32.46000 31.43400
O  -5.43700 33.28500 31.24000
O  -4.56800 31.71200 32.57900
C  -5.53500 32.09000 33.63300
H  0.31500 37.72400 30.39100
H  0.34400 37.46300 23.90300
H  -3.25600 32.16600 24.18600
H  -3.01000 34.81600 32.18400
H  -0.44200 36.28400 32.27100
H  -2.29700 38.03900 31.18700
H  -1.54100 37.78300 32.81100
H  -3.17600 37.19400 32.43400
H  -0.16600 33.89800 32.65600
H  -1.25800 32.71800 32.07600
H  -2.41400 32.42000 33.78400
H  -2.63200 34.13000 34.23400
H  1.54700 40.48000 28.16100
H  2.87100 39.39000 28.71800
H  1.39700 39.53100 29.57600
H  3.69400 39.63200 26.49400
H  2.34600 40.71800 26.12200
H  3.57800 40.33300 24.79600
H  -0.21400 35.38600 22.34900
H  -2.63900 33.90600 22.33600
H  -2.51300 37.12000 22.77100
H  -3.09500 35.79200 21.80100
H  -1.70000 36.72200 21.26100
H  -0.13900 33.38800 21.44900
H  -1.43400 32.19200 21.68800
H  0.46800 32.65200 24.05100
H  1.16100 32.06000 22.57400
H  -0.11300 31.12400 23.31900
H  -4.17000 29.37400 26.52500
H  -4.40600 30.34800 25.10300
H  -5.58300 30.44400 26.57900
H  -2.94600 31.41800 31.15600
H  -5.33400 33.11600 33.94100
H  -5.39100 31.40900 34.47200
H  -6.47800 31.76600 33.19400

