158

Mg 35.62800 1.87100 30.45500
C  33.33600 3.10200 32.79900
C  38.06100 2.21000 32.80700
C  38.03300 1.03900 28.12300
C  33.26100 2.16800 28.01800
N  35.69200 2.47200 32.54200
C  34.60600 2.91900 33.34000
C  34.95600 3.06700 34.85200
C  36.46300 3.06600 34.71800
C  36.77500 2.52900 33.27500
C  37.17400 4.48200 35.03800
C  34.24400 2.01900 35.76000
C  33.78600 2.41100 37.16100
H  34.47900 3.56800 37.88400
N  37.75200 1.57700 30.47900
C  38.51100 1.69000 31.58000
C  39.84500 1.20000 31.27600
C  39.88300 0.88300 29.88900
C  38.56800 1.16400 29.40200
C  40.96000 1.08800 32.27900
C  41.00300 0.18200 29.09600
O  41.01000 -0.02700 27.83500
C  42.14300 -0.38500 29.85800
N  35.63500 1.61200 28.40300
C  36.75300 1.31200 27.66500
C  36.36500 1.02000 26.17800
C  34.76700 1.16600 26.15800
C  34.52900 1.66100 27.60600
C  37.07300 1.90000 25.18800
C  34.06000 -0.18100 25.78400
C  32.76800 0.00200 25.04700
N  33.66400 2.44400 30.35500
C  32.83500 2.51700 29.31600
C  31.53000 3.00100 29.77500
C  31.66500 3.24900 31.14900
C  33.02500 2.92000 31.44300
C  30.36200 3.18300 28.92200
C  31.01700 3.74700 32.28200
O  29.89900 4.15300 32.61000
C  32.08100 3.67000 33.42500
C  32.26000 5.09700 33.80900
O  33.17800 5.86700 33.47700
O  31.23900 5.39000 34.67200
C  31.18600 6.67800 35.33700
H  38.80800 2.29500 33.59800
H  38.67200 0.63500 27.33500
H  32.54300 2.23500 27.19800
H  34.53500 4.00500 35.21400
H  36.77700 2.30900 35.43700
H  37.73400 4.74300 34.14000
H  37.90200 4.32800 35.83400
H  36.56300 5.37100 35.19800
H  34.83300 1.10200 35.74500
H  33.34100 1.64100 35.28100
H  33.67400 1.52700 37.78900
H  32.76900 2.75800 36.97800
H  41.79200 1.67100 31.88500
H  41.19100 0.05400 32.53500
H  40.62100 1.49000 33.23400
H  42.80900 0.32100 30.35300
H  42.74500 -0.88400 29.09800
H  41.80500 -1.21000 30.48500
H  36.68600 -0.00100 25.97500
H  34.55000 1.93900 25.42000
H  38.05900 1.43500 25.16000
H  37.27200 2.84800 25.68900
H  36.57700 2.13200 24.24600
H  33.79700 -0.80100 26.64100
H  34.75700 -0.87700 25.31700
H  32.96600 -0.56500 24.13700
H  32.49600 1.04000 24.85900
H  31.94700 -0.35800 25.66700
H  30.60500 3.37700 27.87700
H  29.75800 3.94800 29.40900
H  29.73400 2.29900 29.04000
H  31.65800 3.18600 34.30500
H  32.20000 6.84100 35.70200
H  30.42500 6.72600 36.11600
H  30.91100 7.46900 34.64000
Mg 26.66900 50.88300 27.29200
C  24.48600 51.74000 29.89800
C  28.88100 49.69200 29.76700
C  28.68100 49.96500 24.81800
C  24.16600 51.92500 25.00500
N  26.69200 50.84300 29.53100
C  25.62000 51.21100 30.36800
C  25.94300 50.77700 31.82200
C  27.46400 50.27600 31.79700
C  27.68600 50.29300 30.28500
C  28.43100 51.15700 32.63400
C  24.89400 49.75900 32.49500
C  24.12000 50.24500 33.73900
H  23.95200 49.24800 34.87200
N  28.55800 50.03400 27.26800
C  29.31500 49.61300 28.42100
C  30.60100 49.25400 27.91300
C  30.67700 49.34300 26.48500
C  29.26500 49.80400 26.09400
C  31.64200 48.76300 28.89200
C  31.81200 49.09400 25.51000
O  31.63200 49.05000 24.30300
C  33.20900 48.82600 26.10100
N  26.45400 51.10500 25.23100
C  27.50200 50.58000 24.37900
C  27.07000 50.62800 22.88400
C  25.63100 51.24000 22.98500
C  25.37100 51.40600 24.48800
C  27.94500 51.56500 22.05100
C  24.62700 50.22000 22.38800
C  23.81000 50.74300 21.19800
N  24.76200 51.77200 27.31300
C  23.84800 52.05100 26.33300
C  22.71600 52.66200 26.93000
C  22.87100 52.57600 28.29900
C  24.16300 52.05600 28.56300
C  21.51400 53.26700 26.19200
C  22.17200 52.73900 29.57000
O  21.09000 53.20600 29.95000
C  23.21500 52.23400 30.60700
C  23.54800 53.35600 31.43200
O  24.07200 54.39400 31.06000
O  23.09400 53.07300 32.75300
C  23.39700 53.94900 33.87700
H  29.44900 49.28000 30.60400
H  29.24100 49.55900 23.97400
H  23.29000 52.16000 24.39700
H  25.86400 51.66500 32.44900
H  27.55200 49.26800 32.20100
H  28.70500 50.62000 33.54200
H  27.89800 52.01700 33.03800
H  29.31400 51.58200 32.15700
H  25.28600 48.76500 32.71200
H  24.09600 49.62500 31.76500
H  23.14300 50.66600 33.50100
H  24.71100 51.03900 34.19600
H  32.42600 49.47800 29.14300
H  32.18700 47.97400 28.37500
H  31.18700 48.32400 29.78000
H  33.45500 49.27800 27.06200
H  33.80600 49.32300 25.33600
H  33.38800 47.75000 26.11100
H  27.12700 49.58300 22.57900
H  25.54200 52.25800 22.60700
H  28.59500 52.15600 22.69600
H  27.45100 52.12100 21.25400
H  28.62900 50.90300 21.52000
H  23.94500 49.81800 23.13700
H  25.12200 49.31600 22.03200
H  23.92900 51.80900 21.00400
H  22.73900 50.65200 21.37700
H  24.19900 50.23900 20.31300
H  20.73300 53.41900 26.93700
H  21.17100 52.49100 25.50800
H  21.70300 54.22500 25.70700
H  22.70200 51.40800 31.10000
H  23.95800 54.82700 33.55700
H  23.99600 53.36800 34.57800
H  22.47200 54.20200 34.39400

