158

Mg -1.55500 17.28900 26.35100
C  -2.59900 15.25100 29.02700
C  -2.78400 20.04600 28.02000
C  -1.09700 19.01200 23.50000
C  -1.20500 14.30300 24.32800
N  -2.50600 17.61300 28.33800
C  -2.85800 16.61600 29.21800
C  -3.32500 17.31400 30.48500
C  -3.88700 18.64900 29.85900
C  -2.96800 18.85800 28.69000
C  -5.38000 18.65300 29.48100
C  -2.13300 17.53000 31.39300
C  -2.36600 17.09600 32.88700
H  -1.21400 16.67000 33.74100
N  -1.71700 19.25300 25.88300
C  -2.15100 20.23900 26.75300
C  -1.95100 21.48000 26.04700
C  -1.45100 21.20200 24.74100
C  -1.39500 19.79800 24.66600
C  -2.42700 22.81500 26.68800
C  -1.12900 22.12600 23.59300
O  -0.78800 21.75100 22.47500
C  -1.19400 23.53000 23.82500
N  -1.42100 16.66400 24.20000
C  -1.09400 17.65100 23.34500
C  -0.98500 17.07200 21.87400
C  -0.61800 15.54500 22.24100
C  -1.16600 15.46900 23.67900
C  -2.18000 17.32800 21.00400
C  0.89600 15.08100 22.20600
C  1.90700 15.86200 23.01300
N  -1.76700 15.25300 26.57900
C  -1.53500 14.14400 25.75800
C  -1.90800 12.97300 26.47000
C  -2.19500 13.32200 27.78300
C  -2.12900 14.71800 27.76000
C  -1.76300 11.59500 25.87200
C  -2.47400 12.78900 29.10900
O  -2.52400 11.63100 29.46400
C  -2.89800 14.01300 29.93800
C  -2.18000 13.94300 31.23800
O  -1.03300 14.18800 31.39700
O  -3.06700 13.55500 32.20400
C  -2.46800 12.99400 33.42600
H  -3.21100 20.94800 28.46200
H  -1.15700 19.48200 22.51700
H  -1.17300 13.47500 23.61700
H  -4.08200 16.65300 30.90800
H  -3.71800 19.48700 30.53600
H  -5.78200 17.64700 29.35600
H  -5.40700 19.17100 28.52300
H  -5.98100 19.03800 30.30600
H  -1.75200 18.55000 31.33500
H  -1.18500 17.12600 31.03800
H  -3.02800 16.23500 32.79600
H  -2.92400 17.90300 33.36100
H  -2.87800 22.80700 27.68000
H  -3.19300 23.20100 26.01600
H  -1.47800 23.34900 26.74400
H  -2.21600 23.76300 24.12500
H  -0.84000 24.09800 22.96500
H  -0.60200 23.73600 24.71700
H  -0.09300 17.50000 21.41700
H  -1.25200 14.89500 21.63700
H  -2.79800 18.05700 21.52900
H  -2.75700 16.40300 21.01400
H  -1.84200 17.58400 20.00000
H  1.03100 15.30300 21.14800
H  0.86000 14.00100 22.35400
H  1.45200 16.64900 23.61300
H  2.64000 16.28600 22.32700
H  2.36300 15.04900 23.57900
H  -2.12900 11.63800 24.84600
H  -2.19700 10.78400 26.45700
H  -0.71000 11.42900 25.64600
H  -3.95700 13.83900 30.13000
H  -1.72800 13.73200 33.73500
H  -1.90000 12.07600 33.27900
H  -3.16000 12.84700 34.25600
Mg -10.01000 17.73000 42.25000
C  -6.54700 17.26100 42.29400
C  -9.47200 21.01800 41.72400
C  -13.21100 17.94300 41.47500
C  -10.21000 14.18900 42.28500
N  -8.12900 18.99100 42.08600
C  -6.86500 18.61400 42.10900
C  -5.90800 19.77300 41.99200
C  -6.89400 21.04200 41.94100
C  -8.23400 20.33700 41.94800
C  -6.78900 22.10800 43.14800
C  -4.92200 19.62300 40.79900
C  -5.37100 18.85500 39.53200
H  -4.73000 19.26800 38.16500
N  -11.21700 19.34200 41.80400
C  -10.76800 20.57200 41.70600
C  -11.91200 21.45200 41.38400
C  -13.03400 20.58600 41.33300
C  -12.51400 19.21700 41.47400
C  -11.87400 22.88500 40.89600
C  -14.61000 21.05300 41.10700
O  -14.83600 22.19300 40.86400
C  -15.75400 20.15200 41.30400
N  -11.53300 16.25700 41.66600
C  -12.77400 16.63000 41.67100
C  -13.76000 15.46400 41.68900
C  -12.78200 14.28400 41.94300
C  -11.40000 14.90400 42.02000
C  -15.00000 15.58900 42.64500
C  -12.82000 13.12600 40.80700
C  -13.68900 11.96100 41.13900
N  -8.73200 16.02300 42.38900
C  -8.96400 14.73700 42.56900
C  -7.79700 13.97300 42.87600
C  -6.81900 14.95200 42.77300
C  -7.40000 16.17000 42.46300
C  -7.57700 12.51900 43.10800
C  -5.37400 15.12600 42.73900
O  -4.46700 14.34000 42.91700
C  -5.18000 16.63400 42.56900
C  -4.44800 17.03300 43.76200
O  -3.23700 17.05100 43.80300
O  -5.19200 17.40300 44.82300
C  -4.45900 18.04900 45.88500
H  -9.32200 22.07300 41.48600
H  -14.29000 18.11500 41.46800
H  -10.46500 13.15600 42.52800
H  -5.37800 19.89700 42.93700
H  -6.84000 21.60600 41.01000
H  -5.76700 22.44500 43.32100
H  -7.31000 21.72600 44.02600
H  -7.35700 22.95000 42.75100
H  -4.01100 19.13100 41.14100
H  -4.58200 20.61100 40.48800
H  -6.39100 18.47900 39.45600
H  -4.78800 17.94600 39.67600
H  -12.81000 23.36600 41.18000
H  -11.86900 23.03700 39.81600
H  -10.99200 23.33300 41.35200
H  -15.86000 19.54000 40.40800
H  -16.55400 20.88400 41.41000
H  -15.51800 19.62600 42.22900
H  -14.19200 15.24300 40.71300
H  -12.95300 13.67000 42.82700
H  -15.12500 16.58800 43.06400
H  -15.06800 14.73700 43.32100
H  -15.84900 15.60900 41.96200
H  -11.84000 12.66500 40.68800
H  -13.18000 13.41300 39.81900
H  -14.54300 11.92700 40.46300
H  -14.14500 12.12600 42.11600
H  -13.10800 11.04700 41.26000
H  -8.30000 11.98000 42.49600
H  -7.78600 12.22200 44.13600
H  -6.57500 12.25000 42.77200
H  -4.46200 16.73800 41.75500
H  -5.21900 18.32900 46.61300
H  -3.97800 18.93300 45.46600
H  -3.81300 17.28800 46.32300

