158

Mg 41.47000 8.26100 29.62000
C  43.18600 9.71700 32.33700
C  39.14000 6.98700 31.75500
C  39.87900 6.89500 26.86400
C  43.98900 9.40100 27.49000
N  41.38000 8.14800 31.81500
C  42.04300 8.95100 32.73900
C  41.44800 8.83900 34.14000
C  40.33200 7.81100 33.88200
C  40.23500 7.66700 32.35000
C  40.62400 6.53100 34.63300
C  41.07400 10.22000 34.78500
C  39.88500 10.32500 35.84200
H  40.17500 11.25800 36.97000
N  39.78500 7.10400 29.33500
C  38.95900 6.68200 30.35900
C  37.80900 6.07400 29.75800
C  38.03400 6.02700 28.36200
C  39.31400 6.65500 28.14000
C  36.88900 5.22100 30.67700
C  37.08600 5.45100 27.29700
O  37.37700 5.29100 26.06700
C  35.66700 5.10200 27.63700
N  41.95600 8.02700 27.52100
C  41.07100 7.49100 26.55900
C  41.59800 7.74300 25.08500
C  42.72000 8.72900 25.33900
C  42.91100 8.78900 26.86000
C  42.02000 6.37500 24.41800
C  42.25800 10.08800 24.68800
C  41.08000 10.80700 25.27700
N  43.31400 9.18400 29.78300
C  44.12100 9.70800 28.84700
C  45.09200 10.55500 29.54800
C  44.77900 10.54600 30.86900
C  43.67600 9.77000 31.02200
C  46.18700 11.22000 28.83500
C  45.19200 11.09400 32.15600
O  46.13300 11.77500 32.50200
C  44.15600 10.45500 33.21600
C  44.79400 9.56700 34.22300
O  45.57100 8.64000 33.91800
O  44.27400 9.91500 35.47500
C  44.68400 8.98800 36.57800
H  38.33300 6.62300 32.39500
H  39.25900 6.72900 25.98000
H  44.65200 9.89500 26.77600
H  42.36500 8.46300 34.59400
H  39.38900 8.20400 34.26100
H  41.41000 6.59400 35.38600
H  41.00000 5.76100 33.95900
H  39.63800 6.19700 34.95600
H  40.81200 10.83200 33.92200
H  41.91500 10.61500 35.35500
H  39.70000 9.34400 36.28000
H  38.97900 10.64500 35.32800
H  35.96800 5.79800 30.76300
H  37.33800 4.93900 31.62900
H  36.78500 4.26000 30.17200
H  35.66700 4.19500 28.24200
H  35.04400 5.00000 26.74900
H  35.33200 5.86200 28.34200
H  40.84100 8.16100 24.42000
H  43.59000 8.36700 24.79200
H  41.47300 5.53200 24.84000
H  43.08500 6.21700 24.59000
H  41.88700 6.39800 23.33700
H  41.97900 9.91900 23.64800
H  43.14500 10.72200 24.69700
H  40.48500 11.21300 24.45900
H  41.44800 11.67700 25.82100
H  40.45000 10.29500 26.00400
H  46.15200 12.27900 29.09100
H  46.13500 11.02800 27.76300
H  47.07300 10.77300 29.28600
H  43.58400 11.20300 33.76500
H  45.67700 8.57300 36.40800
H  43.91500 8.23000 36.72100
H  44.73000 9.54700 37.51300
Mg 29.43800 58.52400 41.14800
C  26.25200 57.02100 40.42100
C  30.93300 55.83800 39.74500
C  32.25800 60.28300 41.08900
C  27.60600 61.53200 41.88500
N  28.72000 56.73600 40.06500
C  27.36700 56.24900 39.97000
C  27.34300 55.03000 39.11000
C  28.76200 54.49300 39.25500
C  29.54400 55.74100 39.69800
C  28.92100 53.35400 40.27900
C  26.88400 55.45700 37.63300
C  25.85500 54.47300 36.95900
H  26.09200 54.00500 35.49300
N  31.34200 58.04500 40.69900
C  31.79500 56.86400 40.12600
C  33.22400 56.93400 40.07200
C  33.71700 58.16800 40.58200
C  32.43600 58.87900 40.81600
C  34.00800 55.72000 39.56200
C  35.18700 58.72400 40.72700
O  36.17800 58.00900 40.56300
C  35.42500 60.21700 41.16400
N  29.86300 60.61400 41.45500
C  31.14700 61.04900 41.42700
C  31.20300 62.47000 41.81400
C  29.73600 62.91100 42.18500
C  28.98400 61.65100 41.73700
C  32.37100 63.00300 42.65400
C  29.17700 64.29800 41.65000
C  28.50600 65.28800 42.68900
N  27.40000 59.12900 41.22300
C  26.83800 60.36500 41.51100
C  25.39300 60.25100 41.51500
C  25.14600 58.94700 41.04700
C  26.39700 58.32700 40.85300
C  24.36700 61.38800 41.84100
C  24.09100 58.00800 40.73700
O  22.88300 58.14800 40.71100
C  24.78500 56.72400 40.31500
C  24.49800 55.66900 41.27700
O  24.94600 55.70600 42.39500
O  23.89900 54.61000 40.66200
C  23.58100 53.49000 41.53300
H  31.35000 54.89600 39.38000
H  33.20400 60.82900 41.10900
H  26.91000 62.35300 42.06900
H  26.65100 54.32700 39.57400
H  29.02500 54.03400 38.30200
H  28.00700 53.11100 40.82100
H  29.58400 53.54900 41.12200
H  29.25700 52.44600 39.77900
H  27.77800 55.44500 37.01000
H  26.42900 56.44700 37.59400
H  24.82200 54.82100 36.93400
H  25.92200 53.53300 37.50800
H  34.28200 55.95700 38.53400
H  33.43400 54.79400 39.56300
H  34.86800 55.57800 40.21600
H  35.22700 60.85600 40.30300
H  36.49000 60.30800 41.38100
H  35.04600 60.46100 42.15600
H  31.36000 62.99200 40.87100
H  29.68800 62.96600 43.27200
H  32.88700 62.12300 43.03800
H  32.20600 63.56000 43.57600
H  33.01500 63.59000 42.00000
H  28.41900 64.11200 40.88800
H  29.92400 64.85900 41.08900
H  27.54300 65.72000 42.41700
H  29.19700 66.08700 42.95600
H  28.20400 64.83000 43.63100
H  24.80900 61.98900 42.63600
H  23.35900 61.15300 42.18300
H  24.05600 62.01500 41.00500
H  24.37300 56.36100 39.37400
H  22.60700 53.58100 42.01400
H  24.47700 53.23700 42.10000
H  23.39500 52.64200 40.87400

