158

Mg 53.19300 24.58200 45.13300
C  50.68600 26.87100 44.13500
C  51.50300 22.07100 43.50100
C  55.86600 22.62500 45.59500
C  55.11600 27.36000 46.01700
N  51.30300 24.57000 43.82700
C  50.38200 25.56500 43.67000
C  49.14900 25.03200 42.87000
C  49.28800 23.48200 43.03000
C  50.81100 23.35400 43.49700
C  48.45100 22.60500 44.04200
C  49.12700 25.55500 41.37000
C  50.48200 25.81000 40.70400
H  50.40600 26.23000 39.28500
N  53.51800 22.66200 44.78200
C  52.73000 21.73900 44.13100
C  53.27900 20.43000 44.29200
C  54.48600 20.51800 45.02800
C  54.64800 21.98100 45.21100
C  52.55100 19.21400 43.85200
C  55.39500 19.37200 45.50200
O  55.15800 18.17100 45.31000
C  56.68300 19.51200 46.33700
N  55.24800 24.98300 45.49700
C  56.15700 24.00800 45.64100
C  57.52900 24.59900 45.85800
C  57.34200 26.13300 45.77700
C  55.84300 26.21000 45.70400
C  58.23200 24.07100 47.17100
C  58.15400 26.71900 44.58000
C  57.38600 27.09300 43.27700
N  52.91900 26.64900 45.22700
C  53.73500 27.62400 45.73800
C  53.00300 28.90300 45.78700
C  51.79100 28.61300 45.21400
C  51.79300 27.25400 44.85100
C  53.48600 30.13300 46.46700
C  50.56100 29.17900 44.78400
O  50.17700 30.32100 44.86400
C  49.72700 28.04500 44.05800
C  49.50600 28.56400 42.68700
O  50.39600 28.91100 41.91700
O  48.14500 28.76700 42.46700
C  47.80300 29.10300 41.09200
H  50.97900 21.18900 43.12500
H  56.75700 22.03700 45.82700
H  55.75500 28.23500 46.15000
H  48.30300 25.43100 43.43100
H  49.10400 22.91400 42.11800
H  48.22100 21.71800 43.45200
H  47.55200 23.19100 44.23200
H  48.86100 22.32500 45.01200
H  48.55700 26.48100 41.44000
H  48.61100 24.84900 40.71900
H  51.12200 24.92900 40.76100
H  51.10200 26.44000 41.34100
H  51.59400 19.11300 44.36200
H  53.07200 18.26100 43.93800
H  52.29100 19.43900 42.81700
H  56.98300 18.58500 46.82500
H  56.52200 20.26800 47.10600
H  57.55300 19.79800 45.74600
H  58.17800 24.24000 45.05900
H  57.58300 26.66200 46.69900
H  58.68800 24.80700 47.83400
H  59.14700 23.52000 46.95400
H  57.59300 23.40400 47.75000
H  58.93100 26.07800 44.16400
H  58.40500 27.73400 44.88900
H  56.69000 26.36600 42.86000
H  58.08600 27.18500 42.44600
H  56.94600 28.08800 43.35200
H  53.60200 30.98100 45.79200
H  54.47100 30.08700 46.93300
H  52.75800 30.37300 47.24100
H  48.85000 27.86700 44.68000
H  47.88100 30.19000 41.11300
H  46.78600 28.85700 40.78700
H  48.39600 28.58900 40.33500
Mg 6.66800 54.10300 41.49200
C  6.06500 50.58600 41.77300
C  9.87400 53.41900 40.34600
C  7.00300 57.28900 40.78600
C  3.45100 54.58400 42.68300
N  7.72900 52.14300 40.96100
C  7.30100 50.89900 41.14900
C  8.41500 49.92300 40.67100
C  9.66900 50.82600 40.71800
C  9.07300 52.26800 40.63500
C  10.50400 50.57700 41.92900
C  8.02700 49.23000 39.26600
C  8.38100 50.13300 38.04800
H  7.17000 50.44200 37.17800
N  8.21900 55.17300 40.57900
C  9.48800 54.75800 40.29200
C  10.35000 55.86900 39.89300
C  9.53900 57.04000 40.11500
C  8.17200 56.53100 40.49000
C  11.78100 55.85800 39.47800
C  10.10000 58.42700 40.04200
O  11.26200 58.65300 39.74200
C  9.19100 59.67500 40.26900
N  5.33500 55.67900 41.52700
C  5.75600 56.92700 41.26300
C  4.74900 57.99000 41.68900
C  3.64500 57.16500 42.42400
C  4.09000 55.70100 42.09600
C  5.25400 59.21500 42.57200
C  2.07800 57.36700 42.09300
C  1.20900 57.89400 43.23700
N  5.03900 52.92800 42.14600
C  3.80500 53.25800 42.58600
C  3.10400 52.07000 43.06600
C  4.02700 51.01100 42.76000
C  5.15100 51.59400 42.21600
C  1.68500 52.03300 43.57300
C  4.22500 49.60400 42.88100
O  3.39900 48.81100 43.34600
C  5.46400 49.26100 42.13700
C  5.15300 48.45300 40.90800
O  4.22300 48.72900 40.10500
O  5.90600 47.28600 40.92000
C  5.53400 46.24800 40.03200
H  10.96300 53.40800 40.26000
H  7.08500 58.37000 40.65500
H  2.57700 54.82400 43.29200
H  8.60900 49.08800 41.34400
H  10.28900 50.70900 39.82800
H  10.09900 49.74600 42.50800
H  10.41700 51.42300 42.61100
H  11.51900 50.26400 41.68500
H  6.96400 49.00000 39.20000
H  8.53300 48.26400 39.26300
H  9.08100 49.62400 37.38600
H  8.79100 51.10700 38.31800
H  11.75100 56.60200 38.68200
H  12.15200 54.86900 39.20500
H  12.43900 56.15700 40.29400
H  8.41200 59.71800 39.50800
H  9.82900 60.54600 40.11600
H  8.74000 59.76700 41.25700
H  4.30300 58.37000 40.77000
H  3.83900 57.36700 43.47700
H  4.56400 59.38900 43.39800
H  5.34100 60.09600 41.93600
H  6.21200 59.04600 43.06300
H  1.65800 56.43100 41.72700
H  2.19200 58.04200 41.24400
H  1.72300 57.71700 44.18300
H  0.21900 57.44500 43.16700
H  1.10100 58.97800 43.21400
H  0.91800 52.03100 42.79900
H  1.57900 52.87800 44.25400
H  1.65400 51.12600 44.17700
H  6.10000 48.63800 42.76600
H  5.99300 46.41900 39.05900
H  4.47000 46.19900 39.80400
H  5.91800 45.29700 40.40200

