158

Mg -2.19100 17.42800 26.10100
C  -2.54500 15.48900 28.92900
C  -3.26100 20.13100 27.94000
C  -2.36900 19.24400 23.24400
C  -1.90500 14.49600 24.19800
N  -2.72800 17.77100 28.24300
C  -2.83200 16.79700 29.20700
C  -3.22100 17.34400 30.59000
C  -3.72600 18.80200 30.13000
C  -3.27800 18.94500 28.67000
C  -5.29100 18.99100 30.28800
C  -2.02300 17.53600 31.59200
C  -2.47000 18.22600 32.88100
H  -2.40200 17.30300 34.20700
N  -2.42500 19.49800 25.68500
C  -2.76900 20.44700 26.58700
C  -2.53700 21.69800 25.89400
C  -2.39200 21.45600 24.52400
C  -2.48500 19.99600 24.45600
C  -2.77700 23.05400 26.54700
C  -2.09500 22.39700 23.32300
O  -2.09000 22.09300 22.13900
C  -1.70100 23.82100 23.62200
N  -2.10200 16.92100 23.98000
C  -2.21200 17.86800 22.98800
C  -2.23100 17.25700 21.58800
C  -2.06600 15.68400 21.97200
C  -1.97000 15.69000 23.45400
C  -3.42200 17.59100 20.63500
C  -0.90100 15.02400 21.27900
C  0.40600 14.96700 21.91800
N  -2.31800 15.47600 26.47000
C  -2.02700 14.40600 25.56800
C  -2.10800 13.19300 26.31900
C  -2.27100 13.51700 27.68200
C  -2.37600 14.93200 27.68200
C  -1.92400 11.74900 25.81900
C  -2.38900 12.99500 29.01300
O  -2.37500 11.87700 29.46500
C  -2.49300 14.25600 29.91600
C  -1.24100 14.21400 30.70000
O  -0.19900 14.62800 30.19000
O  -1.45000 13.86800 32.02000
C  -0.29400 13.98100 32.92100
H  -3.35900 21.01700 28.57100
H  -2.19500 19.82000 22.33300
H  -1.83500 13.56000 23.64000
H  -3.97800 16.66900 30.99000
H  -3.41100 19.70400 30.65600
H  -5.73600 19.36700 29.36700
H  -5.49200 19.60000 31.17000
H  -5.93600 18.12300 30.43100
H  -1.34800 18.18100 31.03000
H  -1.38200 16.67900 31.80100
H  -3.51500 18.53300 32.84100
H  -2.00700 19.21100 32.92600
H  -3.16700 23.05000 27.56500
H  -3.53500 23.60200 25.98800
H  -1.82900 23.59300 26.53300
H  -1.02500 23.83800 24.47700
H  -2.67900 24.25800 23.82200
H  -1.17600 24.26300 22.77500
H  -1.27700 17.58500 21.17500
H  -2.98700 15.16100 21.71400
H  -3.92100 18.44600 21.09200
H  -4.13700 16.77100 20.70300
H  -3.13000 17.73700 19.59500
H  -0.64000 15.49200 20.32900
H  -1.11900 13.96900 21.11100
H  0.57000 13.96500 22.31500
H  0.44000 15.71900 22.70600
H  1.24000 15.20500 21.25800
H  -2.88300 11.23600 25.89800
H  -1.20500 11.27200 26.48500
H  -1.58900 11.60300 24.79200
H  -3.32100 14.31600 30.62200
H  0.24200 14.89900 32.67600
H  0.31500 13.07900 32.86600
H  -0.63300 14.01100 33.95600
Mg 44.98800 3.13200 46.65200
C  42.63900 5.54500 45.81200
C  42.30900 0.84300 46.43500
C  47.04600 0.61300 46.85200
C  47.39400 5.52600 46.71800
N  42.82400 3.12700 45.95600
C  42.07200 4.29500 45.78400
C  40.53100 4.01200 45.43800
C  40.43900 2.60000 46.15300
C  41.94100 2.14200 46.23800
C  39.50900 2.59300 47.40100
C  40.41700 4.07800 43.82700
C  39.45200 5.17600 43.16400
H  39.99000 5.88900 41.85600
N  44.69600 0.99900 46.65800
C  43.52500 0.21400 46.54100
C  43.84800 -1.20800 46.62700
C  45.23000 -1.26100 46.76900
C  45.74700 0.12300 46.67800
C  42.83000 -2.26300 46.55800
C  46.07400 -2.56100 46.81500
O  45.42100 -3.57700 46.84300
C  47.55600 -2.61900 46.87600
N  47.05600 3.06100 46.74500
C  47.65500 1.89300 46.97900
C  49.20100 2.07800 46.95700
C  49.23100 3.66900 47.12700
C  47.84200 4.13700 46.83600
C  49.88500 1.31900 48.12900
C  50.33700 4.35400 46.23200
C  51.71900 4.33300 46.92700
N  45.11300 5.15800 46.30000
C  46.10700 6.00600 46.52600
C  45.62800 7.41700 46.31000
C  44.27600 7.23400 46.00900
C  44.02400 5.86500 45.99400
C  46.43000 8.69900 46.50500
C  43.03200 7.97400 45.68700
O  42.77300 9.10700 45.49600
C  41.96400 6.87600 45.59400
C  40.90700 7.24600 46.60800
O  40.78300 6.79500 47.71300
O  39.98200 8.01700 45.92400
C  38.86900 8.47400 46.77500
H  41.37300 0.29000 46.33000
H  47.80400 -0.16100 46.98500
H  48.10800 6.35100 46.70400
H  39.85600 4.68700 45.96600
H  40.06400 1.86900 45.43700
H  38.93400 3.51900 47.42300
H  40.13700 2.60100 48.29200
H  38.87900 1.70300 47.39200
H  40.09600 3.07100 43.55900
H  41.43700 4.20200 43.46400
H  39.21000 5.92400 43.91900
H  38.51000 4.68300 42.92500
H  41.92800 -1.89100 47.04400
H  42.95900 -3.22600 47.05100
H  42.55300 -2.41800 45.51500
H  47.89200 -2.21000 45.92300
H  47.88700 -3.65600 46.92300
H  47.84900 -2.04800 47.75700
H  49.67600 1.68100 46.06100
H  49.46100 4.00600 48.13700
H  50.72800 0.73800 47.75600
H  49.28600 0.59700 48.68500
H  50.29300 2.05500 48.82100
H  50.04000 5.39600 46.11500
H  50.55200 3.83900 45.29600
H  51.68800 3.75400 47.85100
H  52.11600 5.31400 47.18900
H  52.49700 4.01600 46.23200
H  47.11000 9.00600 45.71100
H  46.87000 8.72300 47.50200
H  45.70800 9.50700 46.62800
H  41.62200 6.97100 44.56300
H  38.33000 9.32300 46.35400
H  39.26600 8.88200 47.70500
H  38.29700 7.56200 46.94300

