158

Mg 35.72000 49.59700 25.75800
C  35.30700 47.81100 28.73100
C  34.91800 52.41800 27.54500
C  35.90000 51.19300 22.85900
C  36.27500 46.52600 24.13900
N  35.01600 50.01000 27.88400
C  35.06900 49.15700 28.91800
C  34.90500 49.88800 30.28200
C  34.58900 51.31000 29.80700
C  34.88100 51.29000 28.32300
C  33.14000 51.98800 30.06100
C  36.26800 49.72300 31.00500
C  36.30800 49.58000 32.49400
H  35.07200 49.85100 33.36900
N  35.46300 51.51000 25.29300
C  35.16800 52.53400 26.12500
C  34.91700 53.75500 25.45600
C  35.21700 53.48500 24.09000
C  35.50500 51.96600 23.98800
C  34.75600 55.09700 26.21100
C  35.23000 54.55400 22.99500
O  35.64300 54.28300 21.84000
C  34.94100 56.07900 23.31200
N  35.88200 48.86400 23.69700
C  36.17000 49.80200 22.78300
C  36.55000 49.17100 21.45200
C  36.90500 47.71100 21.94700
C  36.36000 47.67600 23.35900
C  35.42300 49.27200 20.37200
C  38.41900 47.28700 21.80800
C  38.55100 45.87600 21.20200
N  35.72600 47.55000 26.26000
C  35.93000 46.46100 25.51900
C  35.99400 45.26200 26.35500
C  35.74800 45.75700 27.67100
C  35.59900 47.16900 27.56000
C  36.19600 43.81300 25.90000
C  35.59400 45.37000 29.00500
O  35.46500 44.23000 29.48800
C  35.42200 46.71600 29.79200
C  34.21100 46.47700 30.61100
O  33.07200 46.69600 30.25700
O  34.42000 45.83500 31.82600
C  33.40300 45.83700 32.86200
H  34.60500 53.30600 28.09800
H  35.99500 51.76700 21.93400
H  36.69000 45.60700 23.72200
H  34.11000 49.45000 30.88600
H  35.33600 51.97500 30.24200
H  33.24900 52.78200 30.80000
H  32.63200 51.17200 30.57400
H  32.68300 52.37200 29.14900
H  36.86300 50.59700 30.74000
H  36.76800 48.86700 30.55100
H  37.16300 50.18500 32.79500
H  36.48300 48.52000 32.67900
H  33.88200 55.74000 26.10800
H  35.65100 55.70900 26.10900
H  34.73400 54.97700 27.29400
H  35.17300 56.64000 22.40600
H  35.71200 56.31300 24.04600
H  33.94300 56.29700 23.69100
H  37.49100 49.58500 21.09000
H  36.16400 47.05300 21.49200
H  35.65500 48.84900 19.39400
H  35.25900 50.34000 20.23000
H  34.54800 48.66200 20.59500
H  39.00400 47.28900 22.72800
H  38.85600 48.00900 21.11900
H  38.63300 45.90700 20.11500
H  37.68000 45.25100 21.39900
H  39.26800 45.28000 21.76600
H  35.67800 43.51000 24.99000
H  35.78500 43.08300 26.59700
H  37.27800 43.69300 25.83900
H  36.34900 46.84000 30.35200
H  33.84000 46.28400 33.75500
H  33.06700 44.81400 33.03000
H  32.56800 46.50400 32.64600
Mg 25.42000 52.03200 26.64400
C  23.31800 53.14200 29.34700
C  27.94800 51.58600 28.80400
C  27.48600 51.81900 23.84000
C  22.86400 53.17400 24.42200
N  25.60900 52.29400 28.78600
C  24.63000 52.70100 29.73200
C  25.11700 52.53900 31.20400
C  26.64800 52.15900 30.96400
C  26.75800 52.01500 29.39400
C  27.72000 53.11000 31.61500
C  24.28500 51.46900 32.05100
C  24.00800 51.75300 33.53800
H  25.01200 52.25900 34.45900
N  27.35400 51.73700 26.35400
C  28.28100 51.47900 27.40000
C  29.59100 51.26400 26.75400
C  29.54300 51.40000 25.35000
C  28.07500 51.62500 25.12900
C  30.78900 51.13700 27.71000
C  30.65900 51.34300 24.28300
O  30.51300 51.45800 23.06800
C  32.06400 51.03000 24.87200
N  25.17000 52.24500 24.49300
C  26.18000 52.11400 23.54000
C  25.72800 52.46700 22.13600
C  24.20300 52.58200 22.24300
C  24.05300 52.64600 23.83300
C  26.49500 53.59100 21.48000
C  23.36500 51.50800 21.62400
C  23.17800 51.69200 20.07700
N  23.45900 52.93600 26.76500
C  22.54100 53.28900 25.80900
C  21.32500 53.67900 26.46200
C  21.65000 53.66400 27.80600
C  22.89300 53.18900 28.00100
C  20.00600 54.23600 25.83300
C  21.01200 53.86300 29.07200
O  19.85800 54.20100 29.39100
C  22.10600 53.44500 30.14200
C  22.39200 54.68100 30.96500
O  22.63200 55.78600 30.54000
O  22.39700 54.39300 32.26800
C  22.49500 55.56200 33.14800
H  28.59200 51.29500 29.63700
H  28.15600 51.68800 22.98800
H  22.12100 53.53300 23.70600
H  25.10200 53.49000 31.73500
H  26.87500 51.21400 31.45800
H  28.36600 52.57900 32.31400
H  27.21200 53.92800 32.12700
H  28.40900 53.43800 30.83700
H  24.80600 50.51200 32.03600
H  23.30700 51.29200 31.60500
H  23.72700 50.81100 34.00800
H  23.12300 52.37800 33.65900
H  30.54900 50.99100 28.76300
H  31.33600 52.08000 27.69700
H  31.38300 50.25100 27.48800
H  32.80300 50.96100 24.07300
H  32.11000 50.08500 25.41300
H  32.34700 51.82900 25.55700
H  25.92100 51.55600 21.56900
H  23.98800 53.56000 21.81300
H  27.53900 53.41400 21.73700
H  26.18200 54.62100 21.64900
H  26.40400 53.61100 20.39400
H  22.34700 51.42800 22.00600
H  23.88600 50.59900 21.92500
H  23.66100 50.81500 19.64400
H  23.75500 52.56400 19.77100
H  22.12300 51.73800 19.80900
H  20.01300 54.01700 24.76500
H  20.01300 55.32300 25.91500
H  19.11400 53.88700 26.35400
H  21.76000 52.58400 30.71400
H  21.67000 56.24200 32.93600
H  23.52500 55.91800 33.16700
H  22.34000 55.22800 34.17400

