158

Mg 46.09400 44.87000 42.56900
C  42.63200 44.03300 42.36000
C  46.92600 41.67100 41.78100
C  49.30200 45.74400 42.35000
C  45.10900 48.15800 42.65600
N  44.86300 43.09400 42.04000
C  43.49100 42.93700 42.02200
C  43.08600 41.47100 41.97000
C  44.49700 40.78100 41.76700
C  45.51900 41.93100 41.84300
C  44.75800 39.63500 42.80700
C  42.00000 41.12000 40.85900
C  42.04400 41.93000 39.52700
H  41.81800 41.19600 38.11200
N  47.86600 43.89500 42.23000
C  48.00800 42.52600 41.97300
C  49.40400 42.11800 41.90400
C  50.18300 43.34400 42.02800
C  49.13700 44.43300 42.17200
C  49.95500 40.69000 41.83000
C  51.71400 43.40300 41.96700
O  52.40500 42.39700 41.87700
C  52.39200 44.73700 42.07300
N  47.05000 46.73400 42.22700
C  48.40500 46.82600 42.41600
C  48.85000 48.30400 42.55900
C  47.39400 49.00600 42.56500
C  46.47900 47.87200 42.57800
C  49.83600 48.72900 43.73300
C  47.11900 49.97600 41.40000
C  46.97200 51.47300 41.82500
N  44.25700 45.95600 42.67800
C  44.00000 47.29100 42.70500
C  42.63700 47.60100 42.77400
C  42.00300 46.37700 42.64700
C  43.06800 45.39200 42.55500
C  41.96800 48.97600 43.17100
C  40.75500 45.65500 42.56700
O  39.59400 46.02000 42.51900
C  41.12800 44.10200 42.42100
C  40.68600 43.40800 43.64900
O  40.40300 42.24300 43.68200
O  40.71200 44.11900 44.84200
C  40.90000 43.38200 46.15700
H  47.19100 40.63300 41.57100
H  50.31900 46.13200 42.43900
H  44.81800 49.19000 42.85800
H  42.76400 41.33800 43.00300
H  44.61800 40.34400 40.77600
H  45.51300 39.92300 43.53900
H  45.06300 38.77800 42.20600
H  43.87300 39.36700 43.38400
H  41.00600 41.13600 41.30700
H  42.31200 40.08600 40.71100
H  43.01400 42.42300 39.46500
H  41.31500 42.73400 39.42500
H  50.70900 40.67600 41.04300
H  49.19200 39.94600 41.60200
H  50.47400 40.50200 42.77000
H  51.98300 45.34300 41.26400
H  53.47300 44.68500 41.94100
H  52.13000 45.13100 43.05500
H  49.34600 48.74200 41.69300
H  47.28900 49.48100 43.54000
H  49.29000 49.37900 44.41600
H  50.72600 49.17800 43.29200
H  50.20900 47.77600 44.10800
H  46.23000 49.62700 40.87500
H  47.95100 50.01000 40.69700
H  47.63500 52.06100 41.19100
H  47.38700 51.56800 42.82800
H  45.96900 51.88300 41.70200
H  41.30300 48.82400 44.02200
H  41.33700 49.31700 42.35100
H  42.68200 49.77200 43.38500
H  40.64900 43.67400 41.54000
H  40.67200 44.04100 46.99500
H  41.98200 43.25300 46.13300
H  40.27800 42.48700 46.17900
Mg 0.18100 43.29200 25.53600
C  2.65800 42.80900 27.86900
C  -2.16000 42.29100 27.67800
C  -1.99800 43.74100 22.97100
C  2.76100 43.61000 23.09900
N  0.26300 42.47500 27.54400
C  1.39400 42.49200 28.34400
C  0.92800 42.28100 29.81800
C  -0.65600 42.04100 29.71200
C  -0.90800 42.38000 28.20400
C  -1.08400 40.64000 30.07900
C  1.24500 43.55000 30.70700
C  1.82400 43.16100 32.15100
H  1.51100 41.81500 32.83500
N  -1.79900 43.08400 25.41200
C  -2.58800 42.62300 26.38600
C  -3.93900 42.61300 25.96900
C  -3.97600 43.10400 24.58700
C  -2.52900 43.33600 24.26300
C  -5.07600 41.98100 26.86900
C  -5.19900 43.26800 23.69400
O  -5.15100 43.60400 22.47700
C  -6.52600 42.95800 24.26900
N  0.33200 43.46500 23.29500
C  -0.70600 43.78300 22.51900
C  -0.34400 44.09600 21.06900
C  1.19300 44.08700 21.16200
C  1.47700 43.73600 22.62900
C  -1.09100 43.16200 20.06900
C  1.79200 45.34500 20.64500
C  2.29000 46.43800 21.61200
N  2.30300 43.16500 25.42200
C  3.25400 43.34600 24.39100
C  4.64200 43.26300 24.82200
C  4.39300 43.12400 26.21900
C  3.01800 43.03900 26.51100
C  5.84000 43.35900 23.85900
C  5.08000 42.95600 27.51300
O  6.28800 42.81500 27.75500
C  3.90800 42.84800 28.63400
C  4.29300 41.64100 29.45100
O  4.11100 40.45600 29.18900
O  4.71600 42.06200 30.67600
C  5.18100 40.98100 31.56000
H  -2.97300 42.14900 28.39300
H  -2.73300 43.83000 22.16800
H  3.49300 43.92800 22.35400
H  1.38600 41.38300 30.23100
H  -1.14600 42.78300 30.34300
H  -1.25200 40.02500 29.19400
H  -1.94200 40.67600 30.75000
H  -0.24600 40.16300 30.58600
H  0.37900 44.19300 30.86100
H  1.95200 44.25300 30.26700
H  1.42700 44.01100 32.70800
H  2.90000 43.24500 32.30000
H  -5.80600 41.37600 26.33100
H  -5.65600 42.68400 27.46600
H  -4.70900 41.32900 27.66200
H  -7.38000 43.26800 23.66600
H  -6.66500 43.56200 25.16600
H  -6.57900 41.87500 24.38000
H  -0.61100 45.14100 20.91000
H  1.41000 43.19800 20.56900
H  -1.27300 43.71500 19.14800
H  -2.10600 42.86800 20.33700
H  -0.49900 42.28500 19.80500
H  1.05300 45.78200 19.97400
H  2.54000 45.17500 19.87000
H  1.84000 47.36900 21.26600
H  3.37900 46.46200 21.60500
H  1.86500 46.48600 22.61400
H  5.66400 44.06400 23.04600
H  6.19200 42.41000 23.45500
H  6.66000 43.76000 24.45400
H  4.03100 43.70300 29.29900
H  5.98100 40.37400 31.13700
H  4.27400 40.46800 31.88200
H  5.69300 41.42500 32.41400

