158

Mg 44.85800 3.97400 48.58300
C  42.92600 6.87900 47.71200
C  42.22200 2.03700 47.90300
C  46.97200 1.53200 48.37600
C  47.71300 6.25500 48.52000
N  42.86900 4.39800 47.69800
C  42.27800 5.65700 47.62800
C  40.80600 5.50700 47.15600
C  40.50000 3.97700 47.39200
C  41.93300 3.42700 47.71600
C  39.47100 3.72100 48.57100
C  40.65700 6.03100 45.72900
C  39.68000 7.18400 45.58200
H  38.62900 6.72500 44.45000
N  44.59100 2.02000 48.27700
C  43.46600 1.34900 48.04900
C  43.71000 -0.05800 47.96100
C  45.11800 -0.21800 48.14800
C  45.65400 1.13400 48.24600
C  42.70500 -1.01000 47.66600
C  45.82700 -1.52700 48.22400
O  45.30400 -2.61100 47.93900
C  47.40700 -1.65200 48.60900
N  47.03600 3.95500 48.76400
C  47.59600 2.70600 48.61500
C  49.10700 2.79000 48.53500
C  49.36500 4.33000 48.63200
C  47.96600 4.88400 48.66500
C  49.78500 1.89200 49.55000
C  50.30400 4.97600 47.58100
C  51.70400 5.39600 48.02900
N  45.28500 6.12300 48.26600
C  46.44400 6.90100 48.28400
C  46.11900 8.31700 48.12800
C  44.71400 8.33400 47.88500
C  44.28500 7.02500 48.03100
C  47.14100 9.53200 47.99100
C  43.63800 9.22400 47.68300
O  43.59500 10.43300 47.49700
C  42.38900 8.30600 47.56900
C  41.36700 8.67500 48.68300
O  41.53000 8.28500 49.83200
O  40.25800 9.32400 48.23900
C  39.20900 9.75500 49.17100
H  41.34300 1.38900 47.88700
H  47.74200 0.76600 48.26000
H  48.50600 7.00400 48.47200
H  40.14100 6.05600 47.82200
H  40.15500 3.43800 46.50900
H  39.09500 4.60400 49.08700
H  39.97900 3.09600 49.30600
H  38.57500 3.14600 48.33900
H  40.29800 5.18900 45.13700
H  41.59500 6.39000 45.30400
H  40.04900 8.10400 45.13000
H  39.20100 7.45100 46.52400
H  43.06900 -1.81800 47.03100
H  41.77200 -0.65100 47.23000
H  42.47400 -1.53700 48.59100
H  47.60400 -0.96600 49.43300
H  47.97500 -1.42600 47.70600
H  47.80700 -2.62100 48.90800
H  49.41100 2.45300 47.54400
H  49.79400 4.40800 49.63100
H  50.42000 2.39000 50.28300
H  50.47900 1.17400 49.11200
H  49.10600 1.41400 50.25600
H  49.89100 5.77900 46.96900
H  50.54800 4.13000 46.93900
H  51.71800 6.46100 47.79700
H  52.37200 4.83700 47.37300
H  51.90300 5.24700 49.09000
H  48.09700 9.22800 48.41700
H  46.74100 10.42300 48.47500
H  47.22700 9.69400 46.91700
H  41.95400 8.62500 46.62200
H  38.34000 9.10500 49.06600
H  38.92000 10.78700 48.97100
H  39.52500 9.69000 50.21200
Mg 8.94100 48.43100 25.88700
C  6.83600 49.11700 28.75600
C  11.53900 49.80500 27.77500
C  10.81400 48.14700 23.30200
C  5.91500 48.21400 24.03000
N  9.14900 49.24000 28.00100
C  8.17300 49.26300 28.99300
C  8.81100 49.62700 30.34900
C  10.14300 50.34700 29.91000
C  10.29900 49.73700 28.47800
C  9.98300 51.89400 29.82100
C  9.10800 48.41600 31.28600
C  9.38400 48.81800 32.80800
H  8.89200 47.90300 33.88200
N  10.91100 48.65800 25.66000
C  11.82300 49.24900 26.54000
C  13.10200 49.22700 26.00700
C  12.99000 48.66500 24.67700
C  11.51600 48.43700 24.49000
C  14.37500 49.49900 26.83900
C  14.00500 48.30700 23.62400
O  13.77600 47.70400 22.54700
C  15.45000 48.74800 23.83900
N  8.42300 48.35400 23.91000
C  9.42000 48.11600 23.11500
C  8.85700 47.80900 21.67100
C  7.33700 47.66400 21.92500
C  7.22000 48.14300 23.35600
C  9.18100 48.84800 20.58100
C  6.71000 46.21500 21.77800
C  5.51400 46.26900 20.81700
N  6.70200 48.57000 26.26600
C  5.64900 48.40100 25.39500
C  4.42600 48.71800 26.13800
C  4.89800 48.89100 27.49400
C  6.27100 48.81000 27.49300
C  3.03100 48.61200 25.58300
C  4.43300 49.17800 28.86200
O  3.28800 49.21600 29.28500
C  5.70600 49.45000 29.70500
C  5.65300 48.57100 30.83100
O  5.57100 47.36200 30.85300
O  5.56200 49.38300 31.94200
C  4.94200 48.74400 33.16700
H  12.26900 50.26800 28.44300
H  11.45800 48.22300 22.42400
H  5.12200 48.14800 23.28300
H  8.19000 50.33000 30.90400
H  11.01100 50.01100 30.47800
H  9.06000 52.24100 30.28400
H  10.08000 52.13300 28.76200
H  10.83800 52.29700 30.36400
H  9.95000 47.90000 30.82600
H  8.27600 47.71500 31.22300
H  8.78700 49.72500 32.90000
H  10.44200 48.90600 33.05500
H  14.21100 49.87800 27.84800
H  14.99000 50.12000 26.18700
H  14.91600 48.56100 26.96400
H  15.54500 49.71600 23.34700
H  16.20800 48.21000 23.27100
H  15.79500 48.87800 24.86500
H  9.22800 46.90500 21.19000
H  6.81500 48.40200 21.31600
H  9.52400 49.72300 21.13300
H  8.43100 49.04200 19.81300
H  10.07500 48.60200 20.00800
H  6.37500 45.92000 22.77200
H  7.52900 45.62700 21.36400
H  4.76200 45.72300 21.38600
H  5.78100 45.84000 19.85100
H  5.07800 47.25800 20.67500
H  2.90900 47.57800 25.26000
H  2.88600 49.39100 24.83500
H  2.35600 48.88800 26.39300
H  5.77000 50.46200 30.10300
H  4.40900 49.37000 33.88300
H  5.79900 48.22800 33.60000
H  4.19300 47.99400 32.91300

