158

Mg 17.30200 -0.56500 28.57300
C  15.96700 0.64500 31.57800
C  19.45500 -2.49800 30.53900
C  18.40600 -1.94400 25.79900
C  15.17000 1.46800 26.74400
N  17.72800 -0.88300 30.83600
C  17.04600 -0.24900 31.84900
C  17.52000 -0.69700 33.25000
C  18.82900 -1.50700 32.89600
C  18.66300 -1.71100 31.34700
C  20.14200 -0.82500 33.36500
C  16.33800 -1.51600 33.91200
C  15.87600 -0.95100 35.37300
H  16.98400 -0.56300 36.33000
N  18.72200 -1.99500 28.24300
C  19.49000 -2.69700 29.13000
C  20.21600 -3.77000 28.43900
C  19.84700 -3.67100 27.05700
C  18.94400 -2.49200 26.97900
C  21.19200 -4.73600 29.14400
C  20.22500 -4.51700 25.79600
O  19.75400 -4.34300 24.68900
C  21.29700 -5.55800 26.03800
N  16.99900 -0.21000 26.54500
C  17.57000 -0.85700 25.59400
C  17.16400 -0.35700 24.18200
C  16.08300 0.78200 24.55900
C  16.01900 0.65600 26.03700
C  18.27400 0.10500 23.22900
C  14.61300 0.76000 23.88200
C  14.39100 0.61900 22.35700
N  15.82000 0.78300 29.01600
C  15.08500 1.56100 28.10400
C  14.18800 2.41600 28.88900
C  14.50300 2.13600 30.21900
C  15.49800 1.10600 30.27800
C  13.21800 3.40800 28.36300
C  14.31500 2.48000 31.63500
O  13.50200 3.27600 32.09600
C  15.24600 1.58700 32.54400
C  16.15800 2.55300 33.14900
O  17.10500 3.11700 32.59400
O  15.76200 2.82300 34.42300
C  16.59300 3.79800 35.13300
H  20.10600 -3.12400 31.15200
H  18.69700 -2.45500 24.87900
H  14.67200 2.31100 26.26000
H  17.65900 0.21800 33.82600
H  18.75200 -2.52800 33.27100
H  20.64900 -0.58600 32.43000
H  20.84100 -1.43300 33.93900
H  19.98100 0.12200 33.88100
H  16.78700 -2.47900 34.15600
H  15.57400 -1.62600 33.14200
H  15.35800 -1.75700 35.89300
H  15.16300 -0.13800 35.23800
H  22.25200 -4.73200 28.89300
H  20.81000 -5.74700 28.99700
H  21.07100 -4.63000 30.22200
H  22.22900 -5.00000 26.12500
H  21.34200 -6.15100 25.12400
H  21.02000 -6.22600 26.85400
H  16.71300 -1.23900 23.72600
H  16.44100 1.78400 24.32000
H  18.06100 1.13800 22.95200
H  18.35200 -0.52900 22.34600
H  19.24100 0.19500 23.72500
H  14.10100 1.67800 24.17200
H  14.08300 -0.05900 24.36700
H  15.30500 0.19900 21.93700
H  14.32500 1.63000 21.95500
H  13.46800 0.05400 22.22600
H  12.92700 3.10600 27.35600
H  13.72200 4.37000 28.27300
H  12.41000 3.47900 29.09000
H  14.69600 1.06100 33.32400
H  16.34800 4.83000 34.88500
H  17.62900 3.50600 34.96000
H  16.48600 3.62200 36.20400
Mg 49.53700 45.62000 41.45800
C  46.17900 45.72200 40.32600
C  49.55900 42.17500 40.57000
C  52.89000 45.61600 41.47300
C  49.44600 49.17200 41.60100
N  48.04900 44.18200 40.50200
C  46.82200 44.49200 40.15000
C  46.19900 43.30100 39.47700
C  46.91200 42.12900 40.14100
C  48.29600 42.87400 40.40900
C  46.23500 41.42500 41.31100
C  46.23800 43.36500 37.83800
C  44.88600 43.24300 37.16900
H  44.68800 44.26200 36.02100
N  51.00900 44.09000 41.07000
C  50.86300 42.72100 40.81200
C  52.11900 42.06700 40.79000
C  53.06500 43.05200 41.08600
C  52.33100 44.37600 41.17800
C  52.24700 40.62100 40.49200
C  54.53100 42.74500 41.12700
O  54.95600 41.61800 40.82800
C  55.51500 43.78100 41.52100
N  50.99600 47.22300 41.49600
C  52.32400 46.90600 41.64600
C  53.17400 48.15500 41.71400
C  52.06500 49.30800 41.81500
C  50.75000 48.59500 41.62800
C  54.17000 48.05400 42.87800
C  52.27300 50.52900 40.90000
C  52.13900 51.93500 41.56500
N  48.09800 47.13900 41.37700
C  48.19900 48.56900 41.51000
C  46.87900 49.15900 41.40500
C  46.09400 48.04800 40.89800
C  46.82500 46.84900 40.97500
C  46.65700 50.68000 41.45500
C  44.75500 47.69200 40.39300
O  43.75900 48.40700 40.13200
C  44.78300 46.17500 40.02200
C  43.71200 45.61600 40.84400
O  43.61700 45.52000 42.06000
O  42.68000 45.32000 39.93400
C  41.38200 45.16800 40.52300
H  49.38200 41.10800 40.42100
H  53.98000 45.60800 41.41900
H  49.50800 50.24700 41.78400
H  45.19600 43.36800 39.89800
H  47.13600 41.30700 39.46200
H  45.19000 41.71800 41.21600
H  46.62300 41.70100 42.29100
H  46.16400 40.35400 41.11800
H  46.78600 42.50400 37.45500
H  46.80200 44.24700 37.53500
H  44.13500 43.54000 37.90000
H  44.60400 42.23900 36.85200
H  52.73500 40.60200 39.51800
H  51.31500 40.06100 40.42500
H  52.92800 40.05800 41.13200
H  55.15200 44.20800 42.45600
H  55.64900 44.57900 40.79100
H  56.51000 43.33800 41.56400
H  53.74700 48.32900 40.80300
H  52.09000 49.72200 42.82300
H  54.02100 47.07700 43.33800
H  54.24200 48.92900 43.52300
H  55.11500 48.22500 42.36200
H  51.53200 50.60400 40.10500
H  53.23700 50.43100 40.40100
H  53.14000 52.12800 41.95000
H  51.49200 51.85600 42.43900
H  51.86100 52.72500 40.86800
H  46.54800 51.08900 42.45900
H  45.67500 50.72100 40.98500
H  47.45600 51.13900 40.87300
H  44.77200 46.07100 38.93700
H  41.31000 44.27800 41.14900
H  40.65300 45.04200 39.72200
H  41.18100 46.03600 41.15000

