158

Mg 17.93800 -1.25700 27.52000
C  17.13800 0.52100 30.46100
C  19.68600 -3.53000 29.57500
C  19.13300 -2.67900 24.74800
C  16.31700 1.14100 25.64700
N  18.42700 -1.33200 29.86000
C  17.95300 -0.55100 30.81300
C  18.35000 -1.10600 32.20200
C  19.09400 -2.46200 31.87100
C  18.99100 -2.50400 30.34300
C  20.54000 -2.56100 32.43000
C  17.19000 -1.49800 33.16000
C  17.41900 -1.14000 34.63800
H  18.70500 -0.44600 35.05600
N  19.24000 -2.84600 27.21700
C  19.85300 -3.65800 28.19100
C  20.72900 -4.61800 27.49200
C  20.63000 -4.32200 26.09400
C  19.57900 -3.29200 25.95000
C  21.60200 -5.55500 28.30400
C  21.46700 -4.91300 24.90700
O  21.33500 -4.52400 23.76400
C  22.49700 -5.88300 25.15400
N  17.74500 -0.88100 25.49200
C  18.32200 -1.55900 24.51300
C  18.09100 -0.97400 23.11700
C  16.91900 0.01400 23.39800
C  16.98500 0.09800 24.93100
C  19.38400 -0.30200 22.60200
C  15.49600 -0.35700 22.77200
C  14.78100 0.83500 22.07700
N  16.93600 0.48200 27.88700
C  16.25800 1.29800 27.00700
C  15.48700 2.30000 27.76100
C  15.76800 1.98600 29.08500
C  16.72500 0.93600 29.10400
C  14.49900 3.37400 27.26900
C  15.53500 2.42000 30.48400
O  14.81500 3.36700 30.83800
C  16.36100 1.49400 31.39200
C  17.25000 2.32500 32.21100
O  18.28200 2.74500 31.78100
O  16.61900 2.59500 33.40600
C  17.28600 3.49700 34.32900
H  20.42600 -4.03600 30.19800
H  19.47200 -3.12100 23.80900
H  15.75900 1.94200 25.15900
H  19.02900 -0.35800 32.61100
H  18.60100 -3.37500 32.20400
H  20.78800 -1.64700 32.97100
H  21.30100 -2.56600 31.65000
H  20.77100 -3.39800 33.09000
H  16.88100 -2.53300 33.01700
H  16.32100 -0.90400 32.87900
H  17.17400 -2.00700 35.25200
H  16.63400 -0.42600 34.88900
H  22.24200 -5.07400 29.04300
H  22.35900 -6.19700 27.85300
H  20.99600 -6.32400 28.78400
H  23.44300 -5.70100 25.66300
H  22.62000 -6.45800 24.23600
H  22.08100 -6.74700 25.67200
H  17.79800 -1.67000 22.33100
H  17.24400 1.02600 23.16000
H  19.71800 -0.76400 21.67200
H  20.21200 -0.43100 23.29900
H  19.34500 0.77600 22.44600
H  14.82900 -0.70500 23.56200
H  15.65200 -1.19700 22.09600
H  14.56700 0.37800 21.11100
H  15.40000 1.72300 21.95600
H  13.84900 1.11000 22.57100
H  13.71800 3.00600 26.60400
H  15.10400 4.09600 26.72000
H  14.08700 3.81200 28.17800
H  15.67700 0.96600 32.05700
H  16.70100 4.41500 34.26600
H  18.32100 3.66000 34.02900
H  17.34800 3.07200 35.33100
Mg -11.03900 16.44400 42.84400
C  -7.79900 15.22900 42.29700
C  -9.97700 19.47300 41.57500
C  -14.31100 17.43000 42.55900
C  -12.04200 13.35900 44.08000
N  -9.14000 17.18500 41.77500
C  -7.96400 16.51200 41.88300
C  -6.88300 17.37800 41.35100
C  -7.48400 18.84300 41.37100
C  -8.96400 18.48700 41.68200
C  -6.79000 19.77300 42.46300
C  -6.43700 16.91800 39.91100
C  -4.92400 17.01900 39.55700
H  -4.31400 15.87200 38.66500
N  -11.98500 18.21800 42.05100
C  -11.40900 19.32000 41.52800
C  -12.39600 20.31200 41.12700
C  -13.69600 19.76200 41.54300
C  -13.40100 18.42400 42.16300
C  -11.88800 21.66000 40.62300
C  -14.95200 20.45200 41.35000
O  -14.96100 21.56500 40.84900
C  -16.19700 19.85100 41.88600
N  -12.91900 15.54600 43.20800
C  -14.10500 16.16200 43.05100
C  -15.32100 15.12300 43.30000
C  -14.56000 13.98400 43.87400
C  -13.05500 14.34700 43.82400
C  -16.40700 15.68300 44.25400
C  -14.95800 12.53900 43.31300
C  -14.83100 11.37600 44.30100
N  -10.22400 14.65800 43.15600
C  -10.69700 13.46000 43.69900
C  -9.64100 12.50200 43.81800
C  -8.48600 13.13400 43.26200
C  -8.86000 14.45400 42.86000
C  -9.74300 11.15700 44.41100
C  -7.10500 12.95100 42.94900
O  -6.40000 11.99000 43.12800
C  -6.59300 14.32400 42.35200
C  -5.59000 14.82600 43.27100
O  -5.71400 14.96800 44.45000
O  -4.42000 14.93700 42.60700
C  -3.38400 15.62600 43.35200
H  -9.46000 20.38700 41.27800
H  -15.40100 17.48900 42.51900
H  -12.38100 12.43400 44.54900
H  -6.08500 17.24300 42.08200
H  -7.35300 19.43600 40.46600
H  -6.06300 19.16500 43.00100
H  -7.61200 20.09200 43.10400
H  -6.37900 20.61800 41.91200
H  -7.06400 17.55000 39.28200
H  -6.77200 15.90700 39.67600
H  -4.36100 17.15800 40.48100
H  -4.83600 17.98800 39.06600
H  -10.91200 21.54800 40.15200
H  -11.76300 22.47000 41.34200
H  -12.63100 21.99000 39.89700
H  -16.95100 20.63300 41.97500
H  -16.01100 19.31400 42.81700
H  -16.66900 19.19000 41.15900
H  -15.89700 15.04300 42.37800
H  -14.75600 13.92900 44.94400
H  -16.97500 14.92800 44.79700
H  -17.18500 16.15600 43.65600
H  -15.95600 16.37100 44.97000
H  -14.35700 12.25400 42.45000
H  -15.98000 12.61200 42.94200
H  -15.83800 10.97600 44.41800
H  -14.41400 11.65400 45.26900
H  -14.15900 10.66900 43.81400
H  -10.12400 11.31200 45.42000
H  -8.79200 10.62600 44.35700
H  -10.57300 10.74800 43.83600
H  -6.31000 14.16200 41.31200
H  -2.37400 15.24100 43.21100
H  -3.46500 15.39000 44.41300
H  -3.40700 16.70300 43.18800

