158

Mg 48.02200 15.98200 28.51700
C  46.06800 15.53300 31.48300
C  49.94200 18.10900 30.43800
C  49.47200 16.85100 25.77600
C  45.34600 14.47000 26.75100
N  47.92600 16.73800 30.67100
C  47.07700 16.44800 31.67600
C  47.58100 16.89300 33.07500
C  48.70400 17.85400 32.65500
C  48.85800 17.55400 31.15600
C  48.44000 19.36900 33.06200
C  48.05600 15.66900 33.91900
C  48.17000 15.85300 35.44200
H  47.58400 17.11900 36.11500
N  49.58700 17.13800 28.18900
C  50.26500 17.95000 29.06700
C  51.41300 18.56900 28.41200
C  51.36200 18.11500 27.08200
C  50.08800 17.35900 26.96600
C  52.38300 19.44100 29.09800
C  52.37800 18.27700 25.93600
O  52.32700 17.55800 24.99200
C  53.58800 19.11100 26.18800
N  47.42600 15.76300 26.48500
C  48.26000 16.21200 25.52700
C  47.83400 15.79900 24.15300
C  46.53600 14.92300 24.47400
C  46.36400 15.10700 25.96200
C  47.67700 17.04500 23.17300
C  46.43000 13.44800 24.02900
C  47.00700 12.31600 24.93000
N  46.14600 15.06300 28.99000
C  45.20800 14.53300 28.19400
C  44.12800 13.98700 28.94500
C  44.49700 14.31100 30.26900
C  45.72300 15.01300 30.26500
C  42.83300 13.31000 28.52100
C  44.14600 14.10000 31.58000
O  43.24400 13.41900 32.11500
C  45.07000 14.96700 32.45100
C  44.35000 16.03700 33.17500
O  43.92400 17.09500 32.71400
O  44.16100 15.64400 34.44700
C  43.33600 16.48600 35.32400
H  50.50800 18.80800 31.05700
H  49.99600 17.32600 24.94400
H  44.48700 13.94300 26.32900
H  46.76800 17.31400 33.66700
H  49.58500 17.53400 33.21200
H  48.35800 20.01100 32.18500
H  49.35300 19.65700 33.58300
H  47.58100 19.46700 33.72500
H  49.07800 15.43900 33.61500
H  47.51500 14.77300 33.61400
H  49.22200 15.95900 35.70700
H  47.88400 14.93000 35.94700
H  52.75000 20.20700 28.41500
H  53.19900 18.87000 29.54000
H  52.03900 20.07500 29.91600
H  53.96400 18.81500 27.16800
H  53.28400 20.15500 26.25900
H  54.33400 18.95000 25.41000
H  48.58600 15.10800 23.77100
H  45.67400 15.39300 24.00000
H  46.64300 17.15700 22.84700
H  48.44800 16.72800 22.47000
H  48.05200 17.92000 23.70300
H  46.84100 13.23400 23.04200
H  45.34800 13.32300 23.99200
H  47.73100 12.56700 25.70500
H  47.57300 11.63100 24.29900
H  46.13600 11.89600 25.43400
H  42.05700 13.31400 29.28600
H  42.97100 12.26700 28.23500
H  42.42200 13.81000 27.64400
H  45.63700 14.38500 33.17800
H  42.69900 15.89500 35.98200
H  42.56800 17.09400 34.84600
H  43.99200 17.08700 35.95400
Mg 6.89500 54.43500 41.22200
C  5.80000 51.18500 41.27400
C  9.89000 53.40600 40.00400
C  7.63300 57.71300 40.52500
C  3.81400 55.54000 42.32500
N  7.67400 52.48700 40.61800
C  7.07200 51.29300 40.69700
C  8.02400 50.23100 40.12500
C  9.45400 50.89500 40.28200
C  8.96000 52.33900 40.23500
C  10.35000 50.63300 41.54200
C  7.67100 49.59300 38.69600
C  6.73300 50.36700 37.75300
H  7.42000 50.83700 36.40400
N  8.56800 55.45200 40.35900
C  9.74100 54.83400 40.07900
C  10.72400 55.83700 39.77600
C  10.08200 57.12600 39.80900
C  8.70500 56.80200 40.25600
C  12.17600 55.58400 39.40600
C  10.70000 58.41100 39.50300
O  11.93400 58.47300 39.43400
C  9.90000 59.71500 39.28600
N  5.82700 56.36800 41.39300
C  6.35600 57.52200 41.03100
C  5.37100 58.73300 41.33600
C  4.33000 58.05100 42.24700
C  4.65700 56.55400 42.06100
C  5.99300 59.98500 42.07600
C  2.90300 58.44400 41.70100
C  2.46800 59.92300 42.00900
N  5.10100 53.58300 41.62700
C  3.92200 54.14300 42.17800
C  2.95200 53.06700 42.51400
C  3.66500 51.92800 42.22700
C  4.98200 52.26900 41.65200
C  1.56000 53.22500 43.07400
C  3.66700 50.49900 42.23300
O  2.84900 49.61200 42.54800
C  4.99400 49.94100 41.68500
C  4.62600 49.01300 40.57100
O  4.08100 49.33400 39.54200
O  5.04400 47.71500 40.74900
C  4.65600 46.70500 39.68200
H  10.89400 53.17000 39.64800
H  7.91200 58.76800 40.56100
H  2.79000 55.75200 42.64000
H  7.86100 49.45000 40.86700
H  9.99700 50.69900 39.35700
H  9.75900 50.01600 42.21900
H  10.49900 51.56500 42.08700
H  11.34600 50.24100 41.33800
H  7.38500 48.57700 38.96600
H  8.58600 49.45500 38.11900
H  6.43500 51.23800 38.33600
H  5.83700 49.78100 37.54800
H  12.34200 55.80600 38.35200
H  12.40700 54.52200 39.49000
H  12.93500 56.09600 39.99600
H  9.07300 59.61700 38.58300
H  10.44400 60.52400 38.80000
H  9.55300 60.04800 40.26400
H  4.97700 59.04800 40.37000
H  4.45700 58.28800 43.30400
H  5.55600 60.22600 43.04500
H  5.87100 60.81100 41.37500
H  7.05200 59.87700 42.30700
H  2.21000 57.74200 42.16400
H  2.78700 58.32200 40.62400
H  1.48200 59.95200 42.47300
H  2.41200 60.60300 41.15900
H  3.15900 60.42000 42.68900
H  1.72400 53.89800 43.91600
H  1.25000 52.27600 43.51100
H  0.95000 53.70100 42.30600
H  5.40900 49.22800 42.39800
H  5.36900 45.91000 39.90300
H  5.02400 47.07600 38.72500
H  3.59000 46.48100 39.66300

