158

Mg 23.71700 -6.22600 47.35600
C  26.30800 -4.41800 46.00700
C  21.54500 -5.08300 44.90200
C  21.37700 -8.74600 48.12600
C  26.02700 -7.83000 49.34800
N  24.06500 -5.01800 45.50000
C  25.15400 -4.36500 45.18800
C  24.89700 -3.27700 44.15200
C  23.35800 -3.61700 43.68300
C  22.92100 -4.63600 44.79400
C  22.48000 -2.31300 43.49900
C  25.88800 -3.44100 43.01200
C  26.83800 -2.18800 42.75500
H  26.78100 -1.62500 41.28500
N  21.65400 -6.72400 46.72700
C  20.95900 -6.04700 45.73200
C  19.63500 -6.64200 45.62400
C  19.57500 -7.79000 46.49000
C  20.87900 -7.78900 47.18300
C  18.59700 -6.25000 44.56300
C  18.44100 -8.81000 46.41400
O  17.51400 -8.63600 45.56300
C  18.38700 -10.08100 47.34900
N  23.74100 -8.10100 48.54000
C  22.63000 -8.85900 48.78800
C  22.99000 -10.02300 49.59900
C  24.43600 -9.66000 50.17200
C  24.80300 -8.50700 49.25700
C  21.93400 -10.36300 50.70000
C  25.45100 -10.87000 50.03100
C  26.72700 -10.91000 50.90400
N  25.78300 -6.09900 47.69600
C  26.48400 -6.69100 48.64800
C  27.78700 -6.01600 48.72700
C  27.72000 -5.06400 47.68600
C  26.51400 -5.22600 47.08100
C  28.89100 -6.31800 49.75100
C  28.49400 -4.02900 47.13500
O  29.64100 -3.63100 47.36300
C  27.52800 -3.50100 45.92400
C  27.29500 -2.08400 46.24100
O  26.40200 -1.64300 46.97300
O  28.12700 -1.22100 45.55600
C  28.02800 0.17600 45.76600
H  20.86800 -4.59600 44.19600
H  20.63900 -9.49500 48.42200
H  26.65100 -8.17000 50.17700
H  24.97700 -2.29000 44.60700
H  23.40500 -4.15300 42.73500
H  23.08700 -1.43400 43.71700
H  21.77400 -2.33600 44.32800
H  22.13600 -2.25500 42.46600
H  25.28200 -3.39700 42.10700
H  26.46800 -4.36200 43.06400
H  27.91300 -2.35800 42.81700
H  26.56400 -1.33300 43.37200
H  18.95500 -5.34000 44.08100
H  17.58900 -6.27300 44.97600
H  18.65200 -7.01900 43.79200
H  17.44000 -10.57400 47.13000
H  18.46300 -9.67400 48.35800
H  19.15200 -10.82900 47.14000
H  23.09500 -10.79900 48.84100
H  24.73700 -9.32000 51.16300
H  21.07600 -9.69200 50.67300
H  22.45500 -10.25800 51.65200
H  21.50700 -11.36500 50.65400
H  25.71300 -11.08100 48.99400
H  24.86900 -11.73900 50.33900
H  26.72400 -11.79600 51.53900
H  27.04400 -9.99800 51.41000
H  27.45600 -10.98300 50.09700
H  29.01800 -7.36200 49.46300
H  28.52500 -6.22800 50.77400
H  29.83000 -5.77000 49.68000
H  28.02200 -3.66900 44.96700
H  27.98300 0.33700 46.84300
H  27.11900 0.64300 45.38800
H  28.88100 0.65200 45.28200
Mg 35.19100 1.99100 29.90200
C  33.26300 3.42200 32.17900
C  37.95500 2.16000 32.18500
C  37.32400 1.01000 27.39500
C  32.67500 2.36500 27.38900
N  35.47800 2.58900 31.99800
C  34.47400 3.07700 32.78400
C  34.91800 3.19200 34.24100
C  36.46200 2.95400 34.22500
C  36.69300 2.51400 32.70700
C  37.45400 4.17900 34.68300
C  34.20600 2.16600 35.22800
C  33.54900 2.75900 36.48300
H  34.27200 3.82900 37.19000
N  37.29900 1.52800 29.85500
C  38.23300 1.69200 30.88500
C  39.50300 1.26200 30.38900
C  39.31200 0.83900 28.99300
C  37.94500 1.08000 28.68200
C  40.71700 1.23400 31.25200
C  40.41100 0.38100 28.00300
O  40.18800 0.03200 26.82800
C  41.80500 0.13000 28.55900
N  34.97200 1.58400 27.74000
C  36.03900 1.27000 26.97500
C  35.59500 1.27000 25.51100
C  34.07300 1.32000 25.52000
C  33.87100 1.76300 27.00500
C  36.33100 2.45500 24.73100
C  33.32600 0.05600 25.07900
C  32.38500 0.23300 23.88000
N  33.32200 2.65100 29.78500
C  32.37700 2.67900 28.72400
C  31.19100 3.29100 29.27600
C  31.49900 3.63200 30.57500
C  32.81300 3.15600 30.83200
C  29.95900 3.58900 28.47000
C  30.91700 4.15900 31.77500
O  29.76300 4.54800 31.97100
C  31.99100 3.98100 32.88800
C  32.32700 5.25100 33.52000
O  33.19200 6.12700 33.29100
O  31.33900 5.39400 34.49200
C  31.37300 6.56600 35.39500
H  38.79400 2.17700 32.88400
H  37.91300 0.79800 26.50000
H  31.95900 2.41800 26.56600
H  34.70000 4.23000 34.49000
H  36.84300 2.19200 34.90500
H  36.91000 5.06200 35.01600
H  37.92100 4.66900 33.82900
H  38.27900 3.94800 35.35700
H  34.87200 1.35200 35.51500
H  33.49300 1.62200 34.60800
H  33.28300 2.01400 37.23200
H  32.56900 3.12600 36.17800
H  41.13500 0.23100 31.34700
H  40.60700 1.57500 32.28100
H  41.49000 1.79900 30.73100
H  42.37200 1.05800 28.48300
H  42.34200 -0.55500 27.90300
H  41.87000 -0.40100 29.50800
H  35.93900 0.30100 25.14900
H  33.65100 2.01700 24.79600
H  37.10100 1.98800 24.11800
H  36.88700 3.14200 25.36900
H  35.70100 3.05500 24.07500
H  32.72100 -0.29400 25.91600
H  34.04700 -0.73000 24.85600
H  32.38100 -0.74100 23.39100
H  32.56900 1.02800 23.15800
H  31.39200 0.38800 24.30200
H  29.22800 2.78200 28.52000
H  30.18300 3.79600 27.42300
H  29.42000 4.42500 28.91600
H  31.51600 3.29200 33.58700
H  32.28600 6.62400 35.98900
H  30.64000 6.36700 36.17700
H  31.27500 7.51800 34.87400

