158

Mg 25.85000 0.36600 29.58100
C  27.68600 0.14500 32.61400
C  22.94400 0.99300 31.52500
C  23.96300 0.16300 26.86500
C  28.65500 -0.58300 27.90900
N  25.35100 0.45200 31.81900
C  26.32300 0.45300 32.79600
C  25.66600 0.81300 34.15600
C  24.09600 0.87900 33.88400
C  24.09700 0.75800 32.31900
C  23.18200 -0.28800 34.45800
C  26.23200 2.08400 34.86100
C  26.93600 1.82100 36.22400
H  26.55000 2.73400 37.40200
N  23.78300 0.53300 29.26900
C  22.77900 0.87200 30.12200
C  21.54600 1.10300 29.42200
C  21.74500 0.86600 28.04600
C  23.20900 0.41400 28.02500
C  20.26200 1.56300 30.19300
C  20.94200 0.92500 26.87100
O  21.37100 0.87000 25.71600
C  19.43500 1.17100 26.98300
N  26.19900 -0.40600 27.68900
C  25.28400 -0.21500 26.65900
C  25.97600 -0.30700 25.23100
C  27.45800 -0.67600 25.60800
C  27.48300 -0.56700 27.13900
C  25.25800 -1.42200 24.34100
C  28.52200 0.35000 25.05400
C  28.47700 1.76000 25.63200
N  27.80500 -0.05400 30.16400
C  28.77900 -0.50300 29.29700
C  29.98600 -0.82400 30.09500
C  29.54300 -0.48600 31.42400
C  28.24600 -0.08800 31.37800
C  31.23400 -1.40700 29.63600
C  29.97600 -0.45300 32.79800
O  31.09200 -0.68100 33.29500
C  28.74100 -0.04300 33.61400
C  28.49400 -1.10000 34.63400
O  27.87100 -2.16800 34.43600
O  29.12900 -0.73800 35.81500
C  28.89000 -1.69500 36.85900
H  22.05500 1.16000 32.13600
H  23.52100 0.26400 25.87200
H  29.63300 -0.68000 27.43200
H  25.75600 -0.09200 34.75700
H  23.61700 1.85100 34.00400
H  23.05500 -1.09600 33.73700
H  22.26900 0.10100 34.90700
H  23.73400 -0.76900 35.26600
H  25.39000 2.76900 34.95900
H  27.00600 2.57300 34.26800
H  27.98700 1.89900 35.94800
H  26.61600 0.84800 36.59900
H  19.88000 0.62100 30.58800
H  19.53800 2.16500 29.64400
H  20.61000 2.23900 30.97400
H  19.06000 0.47600 27.73500
H  18.98100 0.92100 26.02500
H  19.20100 2.17200 27.34400
H  25.99300 0.70000 24.81500
H  27.79100 -1.65800 25.27100
H  25.74100 -2.37700 24.13300
H  25.17500 -0.99100 23.34300
H  24.26900 -1.65700 24.73400
H  28.36700 0.47100 23.98200
H  29.49300 -0.11200 25.23300
H  29.33900 2.04200 26.23500
H  27.59500 1.95500 26.24300
H  28.44700 2.50200 24.83500
H  31.93600 -0.57400 29.59800
H  31.11800 -1.86400 28.65300
H  31.51200 -2.11800 30.41500
H  28.86600 0.87200 34.19400
H  28.12100 -1.34700 37.55000
H  29.88800 -1.70300 37.29600
H  28.63000 -2.71500 36.57300
Mg 48.37700 14.31600 27.88800
C  46.47400 14.84400 30.96000
C  50.77100 16.39200 29.38800
C  49.91100 14.14800 24.94400
C  45.67300 12.53400 26.59000
N  48.53100 15.63200 29.94600
C  47.67000 15.61300 30.99400
C  48.32100 16.29700 32.18300
C  49.52800 16.99900 31.60800
C  49.67700 16.24300 30.29500
C  49.50200 18.59900 31.37800
C  48.51700 15.32600 33.33700
C  47.89700 15.68000 34.69600
H  48.79700 15.49300 35.91900
N  50.08000 15.15200 27.21100
C  50.99800 15.91800 28.04900
C  52.16700 16.03800 27.19000
C  51.91300 15.45100 25.89700
C  50.58800 14.89300 25.96800
C  53.38500 16.88600 27.70900
C  52.86300 15.46000 24.61500
O  52.48800 15.00500 23.52500
C  54.20900 16.09000 24.60600
N  47.78900 13.62600 25.94900
C  48.65500 13.59700 24.91500
C  48.23900 12.58500 23.79400
C  46.81800 12.20800 24.24000
C  46.72200 12.80300 25.71200
C  48.26500 13.33000 22.37400
C  46.42300 10.70900 24.22400
C  47.44400 9.77600 24.94500
N  46.44400 13.76000 28.59600
C  45.50400 12.94800 27.95700
C  44.37300 12.76000 28.91600
C  44.71100 13.42200 30.02900
C  45.96900 14.03300 29.84300
C  43.07100 12.07000 28.57600
C  44.16900 13.75700 31.37800
O  43.19200 13.44000 31.98300
C  45.38300 14.60800 32.02900
C  44.79500 15.83500 32.49900
O  44.66300 16.85500 31.85100
O  44.33700 15.53800 33.77600
C  43.61100 16.64700 34.36500
H  51.61300 16.89800 29.86600
H  50.32700 13.84000 23.98200
H  44.83800 12.04500 26.08400
H  47.67600 17.12900 32.46400
H  50.36300 16.73100 32.25500
H  48.51100 19.02400 31.53500
H  49.64100 18.83000 30.32200
H  50.28300 19.03700 31.99900
H  49.59000 15.15600 33.42400
H  47.98100 14.39800 33.13800
H  46.94400 15.16600 34.82100
H  47.58600 16.72500 34.69300
H  54.29900 16.36500 27.99700
H  53.15200 17.59400 28.50500
H  53.85300 17.53100 26.96600
H  54.79600 15.76100 25.46300
H  54.02300 17.15700 24.72800
H  54.71300 16.00000 23.64300
H  48.86100 11.69100 23.82100
H  46.04300 12.79000 23.74200
H  48.40700 14.38000 22.63100
H  47.36000 13.27400 21.76800
H  49.10600 12.91500 21.81800
H  46.51300 10.55700 23.14900
H  45.38500 10.49400 24.47800
H  46.84600 9.01800 25.45000
H  48.03000 10.45000 25.57000
H  48.14300 9.25900 24.28700
H  43.36500 11.02000 28.59000
H  42.83300 12.32300 27.54200
H  42.28800 12.33700 29.28600
H  45.77200 14.01300 32.85500
H  44.21500 17.31600 34.97900
H  42.87000 16.21900 35.04100
H  42.98900 17.31600 33.77100

