158

Mg 7.15700 1.68900 28.15700
C  8.96400 0.51200 30.89900
C  5.66300 4.01900 30.22500
C  5.55000 2.96900 25.49100
C  8.40400 -0.85900 26.18000
N  7.36500 2.27600 30.26200
C  8.00500 1.52000 31.26100
C  7.81800 2.11700 32.68700
C  6.51700 3.04800 32.39000
C  6.48800 3.12100 30.88000
C  5.20000 2.39100 33.02600
C  9.04500 2.83400 33.28900
C  9.49100 2.43900 34.70700
H  9.92100 3.57200 35.65900
N  5.81200 3.30600 27.86200
C  5.38300 4.15500 28.86100
C  4.58300 5.18500 28.25700
C  4.65400 5.00700 26.84500
C  5.37800 3.71300 26.67000
C  3.90400 6.35100 28.94200
C  4.08600 5.88800 25.66100
O  4.13800 5.51400 24.54000
C  3.20100 7.20800 25.89100
N  6.93600 1.02100 26.16100
C  6.26400 1.77700 25.24900
C  6.38600 1.11300 23.80800
C  7.45100 -0.06000 24.05300
C  7.49000 -0.05000 25.53900
C  5.06700 0.60800 23.12900
C  8.83100 0.20000 23.43700
C  9.50500 -0.96900 22.65900
N  8.39600 0.17800 28.40500
C  8.83000 -0.77900 27.49600
C  9.90800 -1.56700 28.15300
C  9.96100 -1.14600 29.46800
C  8.99600 -0.10300 29.60500
C  10.77700 -2.56500 27.45800
C  10.64500 -1.28200 30.70000
O  11.55000 -2.04700 30.92600
C  10.01000 -0.29000 31.73100
C  9.52200 -0.99300 32.94800
O  8.60300 -1.84100 32.83400
O  10.19900 -0.58300 34.05900
C  9.42100 -0.90200 35.26800
H  5.20400 4.75100 30.89300
H  5.16000 3.23900 24.50700
H  8.79400 -1.75900 25.70000
H  7.47000 1.24200 33.23700
H  6.52600 4.10100 32.67300
H  4.78000 3.13000 33.70700
H  5.43200 1.44000 33.50600
H  4.55100 2.17800 32.17700
H  8.77100 3.88900 33.31000
H  9.90200 2.62700 32.64900
H  10.39000 1.82500 34.66400
H  8.67500 1.90500 35.19400
H  4.24000 7.30100 28.52600
H  4.21600 6.38300 29.98600
H  2.82300 6.21600 28.92000
H  3.09300 7.77100 24.96400
H  3.58000 7.86200 26.67700
H  2.23300 6.82800 26.21600
H  6.77500 1.95100 23.22900
H  7.22800 -1.04100 23.63400
H  4.55600 0.21800 24.00900
H  5.13500 -0.14000 22.34000
H  4.49400 1.45300 22.74500
H  9.54900 0.40300 24.23200
H  8.88700 1.09800 22.82200
H  10.32800 -1.32200 23.28000
H  9.94800 -0.53300 21.76300
H  8.91900 -1.85700 22.41800
H  11.28000 -2.07800 26.62300
H  10.32900 -3.50900 27.15100
H  11.71800 -2.78700 27.96100
H  10.73500 0.47600 32.00900
H  10.00300 -0.73000 36.17300
H  8.97700 -1.89500 35.19700
H  8.57100 -0.24600 35.45900
Mg 16.22500 -2.89400 28.32500
C  15.15700 -0.76100 30.86600
C  18.64800 -4.17500 30.33400
C  17.65000 -4.56600 25.72400
C  14.32700 -0.99200 26.02400
N  16.83600 -2.48000 30.33700
C  16.20700 -1.64500 31.26500
C  16.87400 -1.75300 32.64400
C  18.04200 -2.81700 32.38100
C  17.87500 -3.14100 30.89100
C  19.53600 -2.35800 32.77600
C  15.79700 -2.13600 33.73100
C  15.68000 -1.29000 35.04100
H  16.89200 -0.51400 35.60500
N  17.73100 -4.44900 28.11100
C  18.58100 -4.81300 29.06500
C  19.50200 -5.82500 28.58000
C  19.29900 -5.96600 27.17000
C  18.13600 -4.98400 26.92200
C  20.58100 -6.39200 29.42000
C  19.84800 -6.94200 26.15800
O  19.50400 -6.93800 24.93800
C  20.94000 -7.86600 26.59800
N  16.08300 -2.74400 26.14400
C  16.83800 -3.45200 25.37600
C  16.65900 -2.94000 23.91000
C  15.48300 -1.97200 23.99200
C  15.20900 -1.92900 25.45200
C  17.89700 -2.27500 23.26200
C  14.22700 -2.37900 23.09500
C  13.98300 -1.44800 21.89100
N  15.11100 -1.20300 28.32300
C  14.25900 -0.64000 27.34200
C  13.41600 0.31000 27.97500
C  13.76600 0.33400 29.28100
C  14.77500 -0.63100 29.51100
C  12.30200 1.06500 27.28500
C  13.45300 0.94400 30.55200
O  12.69300 1.89200 30.87100
C  14.39000 0.33400 31.61900
C  15.33100 1.39300 32.14500
O  16.48800 1.51400 31.79900
O  14.76300 2.17100 33.16300
C  15.60000 3.20900 33.82200
H  19.52300 -4.46500 30.91900
H  18.13900 -4.97100 24.83500
H  13.69000 -0.42900 25.33800
H  17.35200 -0.84800 33.01800
H  17.91900 -3.71500 32.98700
H  20.15700 -3.24800 32.87500
H  19.46700 -1.73300 33.66600
H  20.06200 -1.88700 31.94500
H  16.07700 -3.13000 34.07800
H  14.81000 -2.17600 33.27200
H  15.55600 -2.00100 35.85800
H  14.71000 -0.79500 34.99900
H  20.92400 -7.35300 29.03700
H  20.31300 -6.52000 30.46900
H  21.34500 -5.62000 29.51200
H  21.77800 -7.22600 26.87700
H  21.24700 -8.54500 25.80300
H  20.70000 -8.42500 27.50200
H  16.35000 -3.74100 23.23800
H  15.76400 -0.96400 23.68700
H  18.12300 -2.61500 22.25100
H  18.73000 -2.54800 23.90900
H  17.78500 -1.19200 23.31900
H  13.30900 -2.43900 23.68100
H  14.29100 -3.36400 22.63200
H  12.91700 -1.57900 21.70800
H  14.57200 -1.82200 21.05300
H  14.23300 -0.40600 22.09000
H  11.91800 0.74300 26.31700
H  12.47000 2.13800 27.19800
H  11.42800 0.95400 27.92700
H  13.80700 -0.03500 32.46200
H  15.87000 3.85500 32.98600
H  16.53500 2.77200 34.17300
H  15.02900 3.59800 34.66500

