158

Mg -2.27400 17.52500 27.40600
C  -2.67100 15.29300 30.04900
C  -2.86600 20.14900 29.59200
C  -2.08500 19.73900 24.77200
C  -1.99800 14.82000 25.26000
N  -2.76900 17.62900 29.49900
C  -2.83800 16.63700 30.42000
C  -2.95200 17.17000 31.86900
C  -3.04900 18.69300 31.66700
C  -2.85700 18.86800 30.11900
C  -4.34200 19.38100 32.31900
C  -1.76500 16.67500 32.85000
C  -1.33600 17.51800 34.03200
H  -0.75800 16.78500 35.23600
N  -2.31600 19.69900 27.22600
C  -2.68300 20.56100 28.23100
C  -2.68100 21.93700 27.66000
C  -2.45700 21.77900 26.28600
C  -2.32200 20.32400 26.02300
C  -2.84400 23.11800 28.52100
C  -2.33000 22.92200 25.24900
O  -1.98400 22.69800 24.12000
C  -2.64300 24.29600 25.51500
N  -2.11500 17.36100 25.33400
C  -2.05100 18.36200 24.46600
C  -1.89100 17.90300 22.96700
C  -1.66300 16.39400 23.19500
C  -1.91100 16.16200 24.72600
C  -3.11500 18.19600 22.00900
C  -0.32600 15.73500 22.63000
C  0.92400 15.89000 23.49400
N  -2.36200 15.50600 27.52000
C  -2.23700 14.51300 26.56200
C  -2.49300 13.22300 27.12700
C  -2.66200 13.48600 28.48800
C  -2.50200 14.87200 28.73400
C  -2.50300 11.81700 26.49800
C  -2.76900 12.81600 29.78300
O  -2.86100 11.67300 30.24300
C  -2.87300 13.98400 30.89600
C  -1.84000 13.57000 31.83200
O  -0.64000 13.73800 31.69900
O  -2.42500 12.90300 32.89600
C  -1.56700 12.34500 33.96500
H  -3.01600 20.92100 30.35000
H  -2.05700 20.38600 23.89300
H  -1.84500 13.98200 24.57700
H  -3.90100 16.83000 32.28400
H  -2.11700 19.06200 32.09600
H  -4.84100 18.74900 33.05400
H  -5.04900 19.66200 31.53800
H  -3.96800 20.31300 32.74200
H  -0.96400 16.40300 32.16200
H  -2.15800 15.77300 33.31900
H  -2.26700 17.95400 34.39500
H  -0.72500 18.37400 33.74500
H  -2.53700 23.03600 29.56400
H  -3.89600 23.40500 28.51500
H  -2.18900 23.87700 28.09200
H  -3.50400 24.24000 26.18100
H  -2.75500 24.87400 24.59800
H  -1.94200 24.81400 26.17100
H  -0.94300 18.23900 22.54700
H  -2.40000 15.82100 22.63100
H  -2.53300 18.50700 21.14100
H  -3.58200 19.08800 22.42700
H  -3.86300 17.41900 21.85300
H  -0.15500 16.12700 21.62700
H  -0.57200 14.67400 22.61100
H  1.59600 16.45300 22.84700
H  1.43100 14.97400 23.79800
H  0.77700 16.40400 24.44400
H  -2.94900 11.07200 27.15800
H  -1.46400 11.59100 26.25900
H  -3.10800 11.80300 25.59100
H  -3.74300 13.98700 31.55200
H  -2.17300 12.10700 34.83900
H  -0.76900 12.99700 34.32200
H  -1.06200 11.40700 33.73300
Mg 17.33200 -0.42700 27.41700
C  16.12000 1.45000 29.95100
C  19.56500 -1.99100 29.48700
C  18.52800 -2.02200 24.73100
C  15.32800 1.45400 25.21700
N  17.96000 -0.07600 29.48600
C  17.10500 0.64100 30.41900
C  17.50600 0.20900 31.85700
C  18.75700 -0.70600 31.66900
C  18.80900 -0.95100 30.11500
C  20.09800 -0.18100 32.24400
C  16.33100 -0.49800 32.71300
C  16.21800 0.05800 34.11300
H  17.40500 0.65200 34.90200
N  18.71000 -1.89700 27.19200
C  19.63400 -2.37800 28.14200
C  20.51600 -3.32100 27.52800
C  20.23100 -3.42500 26.12900
C  19.11800 -2.40300 25.98600
C  21.43800 -4.11600 28.43100
C  20.76900 -4.38600 25.02300
O  20.24500 -4.41900 23.89900
C  21.84800 -5.28600 25.25600
N  17.03200 -0.31200 25.25500
C  17.56900 -1.09500 24.37700
C  17.01500 -0.98000 22.99500
C  15.86400 -0.05000 23.21700
C  16.04700 0.41600 24.66000
C  18.09800 -0.49600 21.95500
C  14.49000 -0.67000 22.91100
C  14.16200 -0.67000 21.35600
N  16.17900 1.26400 27.44900
C  15.33200 1.87100 26.51400
C  14.55500 2.89300 27.20400
C  14.77900 2.77700 28.52900
C  15.84200 1.80000 28.61600
C  13.59000 3.86400 26.52400
C  14.49900 3.21400 29.78300
O  13.88500 4.20000 30.16400
C  15.19000 2.30700 30.79900
C  15.83800 3.21000 31.70800
O  16.82300 3.85400 31.42400
O  15.10800 3.41200 32.82400
C  15.54600 4.27800 33.90900
H  20.10300 -2.48700 30.29700
H  18.87900 -2.51800 23.82400
H  14.55300 2.03000 24.70800
H  17.72800 1.18800 32.28200
H  18.52000 -1.61200 32.22600
H  20.49200 -0.88300 32.98000
H  20.04600 0.80200 32.71100
H  20.91000 -0.07100 31.52600
H  16.35800 -1.58600 32.64700
H  15.45900 -0.05500 32.23200
H  15.85800 -0.76200 34.73400
H  15.40400 0.78300 34.09500
H  21.77100 -3.50300 29.26800
H  22.33000 -4.49900 27.93500
H  20.87400 -4.96900 28.80900
H  21.50500 -5.87000 26.11000
H  22.69800 -4.65100 25.50700
H  22.19300 -5.93000 24.44700
H  16.58100 -1.92200 22.65900
H  15.99900 0.79800 22.54600
H  17.92000 0.50600 21.56400
H  18.10300 -1.19900 21.12300
H  19.10400 -0.53800 22.37400
H  13.72100 -0.01800 23.32600
H  14.40600 -1.73200 23.14200
H  13.50600 0.11900 20.98900
H  13.68400 -1.64900 21.31200
H  15.08100 -0.75300 20.77500
H  14.13400 4.66100 26.01700
H  12.82500 4.21500 27.21600
H  12.99900 3.17600 25.91900
H  14.41500 1.79700 31.37200
H  16.06800 3.64100 34.62300
H  14.64000 4.71900 34.32400
H  16.30400 5.03400 33.70100

