158

Mg 24.75700 -4.03500 45.67200
C  26.98500 -1.76400 43.89700
C  22.34300 -3.06500 43.56100
C  23.13300 -6.87400 46.48900
C  27.73400 -5.26400 47.33400
N  24.70800 -2.47800 43.95800
C  25.64500 -1.70800 43.38500
C  25.09200 -0.79500 42.25400
C  23.62500 -1.26300 42.25300
C  23.52100 -2.34900 43.31000
C  22.60400 -0.12700 42.36300
C  25.78000 -1.00800 40.92800
C  25.88300 0.07700 39.89000
H  25.16800 -0.14400 38.52600
N  22.92300 -4.76400 45.25300
C  22.05700 -4.23400 44.33800
C  20.80100 -4.95900 44.35000
C  21.01000 -6.10100 45.19800
C  22.44200 -5.97300 45.70900
C  19.57400 -4.51800 43.57200
C  20.00000 -7.22200 45.35700
O  18.84400 -7.06900 44.97000
C  20.35800 -8.57200 45.99000
N  25.45800 -5.87700 46.57200
C  24.48200 -6.82100 46.92800
C  25.15800 -7.96800 47.70900
C  26.54500 -7.34000 48.14800
C  26.62700 -6.10000 47.25400
C  24.35200 -8.67600 48.82400
C  27.80200 -8.31300 48.13700
C  28.24200 -8.91600 49.38800
N  26.85500 -3.58300 45.79300
C  27.88300 -4.13500 46.52100
C  29.06700 -3.37100 46.31100
C  28.80200 -2.44100 45.29800
C  27.42500 -2.63000 44.93200
C  30.38600 -3.46300 47.03900
C  29.36600 -1.32500 44.48800
O  30.51000 -0.83800 44.46500
C  28.19000 -0.79200 43.62900
C  28.04800 0.68400 43.96200
O  27.32600 1.10100 44.79500
O  28.63500 1.46300 42.95300
C  28.32200 2.91500 42.94300
H  21.49500 -2.73700 42.95700
H  22.65200 -7.76400 46.89900
H  28.55500 -5.65900 47.93500
H  25.28000 0.24800 42.50800
H  23.30900 -1.78900 41.35200
H  21.84700 -0.13300 41.57900
H  23.11100 0.83100 42.24200
H  22.15300 -0.18000 43.35400
H  25.22300 -1.83600 40.49100
H  26.82100 -1.30700 41.05400
H  26.89300 0.38700 39.62000
H  25.34800 0.92400 40.31800
H  19.78100 -4.60500 42.50600
H  19.61700 -3.43000 43.62600
H  18.63700 -5.02600 43.79900
H  20.57600 -8.39500 47.04300
H  21.12500 -9.13200 45.45300
H  19.48400 -9.22200 46.02800
H  25.31700 -8.68400 46.90300
H  26.46400 -6.99200 49.17800
H  24.18200 -9.74700 48.70800
H  23.33600 -8.36200 49.06100
H  24.95900 -8.48300 49.70800
H  28.67100 -7.80600 47.71600
H  27.63500 -9.17400 47.49100
H  28.02700 -9.98500 49.39100
H  27.63400 -8.46700 50.17400
H  29.28900 -8.85900 49.68400
H  31.10700 -2.89600 46.45000
H  30.72100 -4.43800 47.39200
H  30.41400 -2.85700 47.94400
H  28.47700 -0.97100 42.59300
H  28.72900 3.52800 43.74700
H  27.24800 3.10200 42.97800
H  28.67700 3.35500 42.01200
Mg 48.51500 16.53700 28.87600
C  46.28300 16.27800 31.74800
C  50.81200 18.12300 30.89100
C  50.24900 17.01400 26.10300
C  45.71500 15.53400 26.95800
N  48.42200 17.23700 31.01600
C  47.52900 16.89500 32.04600
C  48.08800 17.36400 33.44800
C  49.34300 18.25700 32.96300
C  49.58700 17.77100 31.54500
C  49.22400 19.73600 33.22700
C  48.31500 16.19200 34.47400
C  47.48700 16.45800 35.84200
H  47.41400 17.92500 36.34200
N  50.31400 17.33500 28.54500
C  51.13600 17.84800 29.48600
C  52.38300 18.24000 28.77500
C  52.24800 17.91800 27.40200
C  50.86600 17.40000 27.30400
C  53.54800 19.00800 29.47000
C  53.27900 18.04200 26.23800
O  53.19300 17.59500 25.10400
C  54.60600 18.63900 26.63900
N  48.02800 16.33500 26.87600
C  49.02200 16.41300 25.94400
C  48.42400 16.10700 24.53100
C  47.00100 15.53900 24.87200
C  46.92300 15.75500 26.34100
C  48.37900 17.44000 23.74200
C  46.81000 14.11600 24.42600
C  46.20500 13.80600 23.05800
N  46.47200 15.84000 29.24000
C  45.45300 15.53300 28.29900
C  44.25600 15.16400 29.03300
C  44.52800 15.42700 30.39700
C  45.85600 15.97400 30.42500
C  43.01100 14.70200 28.54300
C  43.98500 15.38900 31.70100
O  42.89500 14.89600 32.09800
C  45.13800 15.89700 32.63300
C  44.59300 17.07900 33.40800
O  44.32900 18.22000 32.98700
O  44.14400 16.52100 34.59500
C  43.42100 17.38300 35.50000
H  51.54600 18.58800 31.55300
H  50.94700 17.10200 25.26800
H  44.93500 15.31500 26.22600
H  47.36500 18.11700 33.76500
H  50.15700 17.98200 33.63300
H  50.18000 20.13600 33.56700
H  48.49900 19.97900 34.00300
H  48.85800 20.34200 32.39800
H  49.38900 16.06000 34.60300
H  47.94000 15.30800 33.95900
H  48.02700 15.83900 36.55800
H  46.49000 16.10800 35.57300
H  53.74100 19.96700 28.98900
H  54.39800 18.32500 29.47000
H  53.23900 19.14900 30.50600
H  54.79100 19.70700 26.75500
H  55.30900 18.42900 25.83200
H  55.09900 18.17900 27.49500
H  49.10600 15.41900 24.03300
H  46.28500 16.14200 24.31400
H  48.55800 17.10600 22.72000
H  49.10900 18.22900 23.91800
H  47.43400 17.98300 23.76000
H  46.08700 13.67100 25.11000
H  47.79400 13.65000 24.46600
H  46.96800 13.55600 22.32100
H  45.70200 14.73000 22.77600
H  45.51100 12.97300 23.17000
H  42.44200 15.42800 27.96100
H  42.38700 14.52700 29.41900
H  43.13600 13.76400 28.00200
H  45.34500 15.11400 33.36200
H  42.44800 17.68900 35.11500
H  44.01300 18.28600 35.65000
H  43.28500 16.85300 36.44200

