158

Mg 25.71200 1.81800 29.36300
C  27.52300 1.42300 32.36000
C  22.89600 2.23300 31.22100
C  24.07600 2.12500 26.54100
C  28.60800 1.09600 27.67500
N  25.32000 1.79500 31.55200
C  26.14900 1.70900 32.57100
C  25.45100 1.89100 33.96600
C  23.92800 2.04500 33.53700
C  24.05500 2.01500 32.01600
C  23.09300 0.81400 33.98500
C  26.05800 3.12500 34.58300
C  26.82100 2.97500 35.97200
H  26.55700 4.06200 37.07300
N  23.80100 2.24600 29.01100
C  22.73800 2.19800 29.84700
C  21.46200 2.47000 29.14900
C  21.76100 2.42800 27.76000
C  23.26000 2.23000 27.72600
C  20.13000 2.69000 29.88800
C  20.81900 2.76200 26.61800
O  21.12500 2.77200 25.42100
C  19.35300 2.95800 26.96300
N  26.22500 1.40300 27.39400
C  25.41300 1.74700 26.35200
C  26.09000 1.59400 24.96500
C  27.57600 1.45200 25.37600
C  27.48000 1.33100 26.90800
C  25.46400 0.48600 24.04500
C  28.52100 2.63900 24.90700
C  29.67000 2.23700 23.99400
N  27.66500 1.25900 29.81700
C  28.75500 0.98400 29.06400
C  29.95500 0.71700 29.85200
C  29.42700 0.76400 31.16900
C  28.10100 1.14600 31.04100
C  31.34200 0.48400 29.35700
C  29.79200 0.62300 32.63000
O  30.78900 0.26300 33.19900
C  28.50900 0.99200 33.38700
C  28.13700 -0.11100 34.35200
O  27.36300 -1.00700 34.05800
O  28.87200 -0.00700 35.54600
C  28.41300 -0.86100 36.67800
H  22.01700 2.36700 31.85600
H  23.59100 2.27500 25.57400
H  29.49400 0.77100 27.12500
H  25.55000 0.92700 34.46500
H  23.45300 2.93300 33.95300
H  23.17500 -0.08500 33.37500
H  22.05500 1.14700 33.97800
H  23.22800 0.44300 35.00100
H  25.27000 3.79200 34.93200
H  26.63100 3.66100 33.82700
H  27.88500 2.93000 35.73900
H  26.59300 1.96800 36.32100
H  19.74800 3.70300 29.76100
H  20.18400 2.34600 30.92100
H  19.48800 2.04400 29.28900
H  18.81700 3.46200 26.15900
H  19.15100 3.64900 27.78200
H  18.86000 1.98900 27.04700
H  25.94200 2.51300 24.39800
H  27.86100 0.50100 24.92500
H  24.57200 0.06600 24.50900
H  26.19600 -0.25000 23.71200
H  25.04900 1.02800 23.19500
H  28.98200 3.10400 25.77900
H  27.89500 3.30300 24.31100
H  29.56500 2.82800 23.08400
H  29.61800 1.20300 23.65300
H  30.63100 2.36000 24.49300
H  32.05500 0.91200 30.06200
H  31.42400 0.89200 28.34900
H  31.56400 -0.58100 29.29700
H  28.78100 1.83900 34.01800
H  28.67500 -1.89200 36.44300
H  27.36300 -0.69000 36.91200
H  29.01500 -0.62900 37.55700
Mg 8.57300 48.11000 26.26700
C  7.01600 48.06600 29.23100
C  11.42000 49.54800 27.82200
C  10.33600 48.06200 23.27700
C  5.68900 47.45600 24.56700
N  9.20700 48.69300 28.32800
C  8.37900 48.31400 29.37000
C  9.07400 48.75400 30.70800
C  10.29300 49.69000 30.15100
C  10.38500 49.32200 28.74200
C  10.03500 51.20800 30.27700
C  9.48900 47.64300 31.67900
C  9.04900 47.94600 33.15800
H  8.85200 46.74900 34.10300
N  10.58900 48.58100 25.61200
C  11.58200 49.11100 26.46700
C  12.80800 49.12800 25.64900
C  12.50800 48.71600 24.37600
C  11.05400 48.43900 24.35800
C  14.15500 49.50300 26.26100
C  13.50400 48.58200 23.21100
O  13.14400 48.21900 22.03100
C  14.96700 48.77700 23.50800
N  8.13300 47.99600 24.21900
C  9.01200 47.82600 23.19700
C  8.28100 47.54900 21.89000
C  6.79200 47.30600 22.29200
C  6.88000 47.60500 23.78300
C  8.42700 48.66000 20.73600
C  6.31000 45.85700 21.92200
C  6.80000 44.66300 22.72400
N  6.64400 47.97500 26.73700
C  5.57700 47.69600 25.96500
C  4.35400 47.75600 26.77800
C  4.93000 47.84800 28.09000
C  6.31600 47.99600 28.01600
C  2.95400 47.49600 26.32000
C  4.58400 47.86000 29.50800
O  3.49500 47.86400 30.08800
C  5.97300 48.01500 30.29300
C  6.06800 46.81200 31.18600
O  6.80800 45.88100 31.00300
O  5.35000 47.08100 32.34700
C  5.22600 45.92000 33.24100
H  12.24100 50.09400 28.29200
H  10.83800 48.06500 22.30700
H  4.82300 47.00200 24.08000
H  8.37000 49.42800 31.19600
H  11.29600 49.47600 30.52200
H  9.70100 51.58300 29.31000
H  10.91900 51.80700 30.49400
H  9.27600 51.57500 30.96800
H  10.57500 47.72200 31.63300
H  9.19700 46.66100 31.30600
H  8.17100 48.58900 33.21100
H  9.88500 48.50000 33.58400
H  14.92300 48.74800 26.42500
H  13.90400 49.73900 27.29600
H  14.56200 50.42700 25.85000
H  15.55300 48.32000 22.71000
H  15.30300 48.30100 24.42900
H  14.93700 49.86500 23.56200
H  8.71900 46.71700 21.34000
H  6.04700 47.98400 21.87400
H  9.15700 49.37000 21.12600
H  7.47200 49.11300 20.47100
H  8.76800 48.12800 19.84800
H  6.70200 45.68300 20.92000
H  5.22600 45.96300 21.97900
H  7.56000 44.16400 22.12200
H  6.05200 43.89500 22.92300
H  7.20700 44.98800 23.68100
H  2.57900 48.28600 25.66900
H  2.36700 47.29000 27.21500
H  2.89300 46.59700 25.70700
H  5.94400 48.92800 30.88700
H  4.18600 45.63300 33.08500
H  5.43000 46.29300 34.24400
H  5.86200 45.06800 32.99800

