158

Mg 53.27900 23.57400 44.51900
C  50.55600 25.65600 43.72500
C  51.86600 21.04300 42.86500
C  56.30100 22.17900 44.46200
C  54.80300 26.70900 45.55600
N  51.54800 23.47500 43.23300
C  50.52800 24.36900 43.12500
C  49.44300 23.86600 42.17000
C  49.68200 22.23400 42.29900
C  51.14600 22.24200 42.77100
C  48.69900 21.41100 43.17500
C  49.63700 24.42300 40.72500
C  48.37400 24.79600 39.95300
H  47.88300 23.72600 38.88600
N  53.95900 21.77600 43.88900
C  53.18900 20.88400 43.26000
C  54.02200 19.70300 43.07500
C  55.31400 19.97000 43.44000
C  55.28400 21.38200 43.90700
C  53.46600 18.39300 42.53000
C  56.56800 19.03900 43.42700
O  56.56200 17.89500 43.00500
C  57.85600 19.42100 43.96800
N  55.25000 24.34400 44.84700
C  56.29500 23.45400 44.95700
C  57.59600 24.11100 45.70300
C  57.11100 25.57700 45.85500
C  55.63600 25.56400 45.41500
C  57.96200 23.46600 47.08000
C  57.88000 26.70500 45.06100
C  58.54700 27.80200 45.82400
N  52.81300 25.74300 44.71900
C  53.49100 26.83000 45.28100
C  52.56800 27.89800 45.50400
C  51.42800 27.50600 44.87900
C  51.63400 26.20900 44.38500
C  53.01000 29.12600 46.31400
C  50.07100 27.84200 44.64800
O  49.47900 28.85400 44.99500
C  49.44600 26.71800 43.80400
C  49.04100 27.31000 42.47700
O  49.70200 27.59800 41.53000
O  47.66000 27.46200 42.53500
C  47.12200 27.89800 41.31700
H  51.37000 20.12800 42.53600
H  57.26400 21.74400 44.73700
H  55.24200 27.61100 45.98900
H  48.46100 24.08100 42.59300
H  49.70600 21.71500 41.34100
H  48.69900 21.55400 44.25500
H  48.77200 20.34500 42.96000
H  47.66300 21.54800 42.86400
H  50.26100 23.77200 40.11200
H  50.29800 25.27700 40.87200
H  48.60900 25.73400 39.44900
H  47.59500 25.00700 40.68600
H  53.92000 17.55200 43.05600
H  53.60300 18.42700 41.45000
H  52.39100 18.32000 42.69500
H  58.34700 20.10000 43.27100
H  58.55800 18.58900 44.00800
H  57.76500 19.81000 44.98200
H  58.41300 24.09200 44.98000
H  57.13400 25.75400 46.93000
H  58.09800 24.12000 47.94200
H  58.97700 23.08400 46.97300
H  57.37900 22.57100 47.29300
H  57.19400 27.20100 44.37400
H  58.67800 26.24000 44.48200
H  58.18000 28.68700 45.30300
H  59.62500 27.63900 45.84300
H  58.18200 27.80100 46.85100
H  52.14100 29.76400 46.47100
H  53.65300 29.71100 45.65700
H  53.61200 28.93800 47.20300
H  48.53600 26.32400 44.25500
H  47.49500 28.88500 41.04200
H  46.06000 27.78300 41.52900
H  47.37400 27.24300 40.48200
Mg 47.57900 44.94700 42.93300
C  44.13300 44.96900 42.28100
C  47.56800 41.57000 42.30700
C  51.06300 45.00000 42.61100
C  47.50000 48.42900 43.06400
N  46.00200 43.51500 42.28400
C  44.66400 43.70200 42.20000
C  43.96000 42.36200 41.90200
C  45.02400 41.24000 41.97300
C  46.31700 42.15600 42.25200
C  44.96100 40.16300 43.09400
C  43.11400 42.41900 40.64100
C  43.79800 42.92100 39.36400
H  43.58000 42.12500 38.09500
N  49.12600 43.45900 42.74600
C  48.88900 42.12200 42.53500
C  50.15600 41.43700 42.62800
C  51.17500 42.40100 42.81400
C  50.47500 43.72000 42.79100
C  50.30900 39.88300 42.44000
C  52.68100 42.10000 42.86200
O  53.16400 40.98300 42.61500
C  53.59700 43.26400 43.29500
N  49.06400 46.46700 42.89600
C  50.44200 46.23700 42.66800
C  51.22700 47.61500 42.52500
C  50.11900 48.66700 42.88200
C  48.79400 47.86200 42.98700
C  52.50900 47.65200 43.42100
C  50.04100 49.91200 41.92500
C  49.74000 51.22000 42.56400
N  46.18200 46.41500 42.78900
C  46.27800 47.78700 42.83600
C  44.97000 48.42100 42.68900
C  44.11000 47.30500 42.47900
C  44.91100 46.15600 42.48800
C  44.60400 49.89300 42.61000
C  42.72300 46.97800 42.25100
O  41.74500 47.68700 42.12600
C  42.70400 45.43700 42.14400
C  41.78000 44.92700 43.20200
O  40.59400 45.03000 43.12400
O  42.43600 44.57600 44.39900
C  41.58600 44.26200 45.47800
H  47.52700 40.50200 42.08000
H  52.13100 45.03600 42.38700
H  47.37500 49.50300 43.21600
H  43.22800 42.25100 42.70200
H  45.14700 40.74600 41.01000
H  43.94100 40.02300 43.45200
H  45.70700 40.30400 43.87600
H  45.30000 39.25300 42.59800
H  42.15600 42.89900 40.84000
H  42.92800 41.34900 40.56000
H  44.85100 43.20100 39.39800
H  43.35800 43.89200 39.13700
H  51.03100 39.71000 41.64200
H  49.39700 39.35300 42.16500
H  50.67900 39.40800 43.34900
H  54.05400 43.66500 42.39100
H  54.35700 42.85300 43.95900
H  53.15100 44.00400 43.96000
H  51.61600 47.76700 41.51900
H  50.24000 49.02500 43.90400
H  52.78900 48.60100 43.87900
H  53.41000 47.35700 42.88300
H  52.35900 46.91400 44.20900
H  49.34400 49.63000 41.13600
H  50.99000 50.04900 41.40500
H  50.71100 51.70100 42.67900
H  49.20100 51.18000 43.51000
H  49.26400 51.79300 41.76800
H  44.99000 50.13500 41.62000
H  45.19900 50.59700 43.19200
H  43.54300 50.06300 42.79200
H  42.40700 45.12400 41.14300
H  42.21000 44.41400 46.35900
H  41.27800 43.21700 45.49600
H  40.81300 45.02500 45.56600

