158

Mg 44.83400 2.31000 46.89400
C  42.69500 5.07200 46.87300
C  42.06300 0.33800 46.66600
C  46.89900 -0.26500 46.60900
C  47.63500 4.60000 46.66900
N  42.53700 2.78100 46.47900
C  41.95500 3.92600 46.74000
C  40.40300 3.72600 46.87000
C  40.27000 2.17200 47.00800
C  41.71500 1.66800 46.65600
C  39.82300 1.65800 48.37800
C  39.46100 4.33200 45.71100
C  39.68300 3.72200 44.33400
H  40.42200 4.74800 43.50000
N  44.48800 0.28400 46.58000
C  43.29100 -0.34900 46.54200
C  43.51800 -1.76100 46.44600
C  44.88300 -1.96100 46.61000
C  45.50000 -0.60300 46.59900
C  42.44200 -2.80800 46.49600
C  45.61100 -3.27200 46.82700
O  45.01200 -4.35800 46.99400
C  47.09100 -3.49000 47.12000
N  46.97500 2.19600 46.72200
C  47.59100 0.96000 46.67900
C  49.09200 1.06300 46.73500
C  49.40500 2.56300 46.41300
C  47.94500 3.22100 46.64400
C  49.60500 0.45800 48.07900
C  49.89000 2.83200 44.99300
C  51.44900 3.16000 44.82600
N  45.18800 4.46400 46.77300
C  46.35600 5.20500 46.78700
C  45.98000 6.61500 46.83900
C  44.62100 6.63700 46.91900
C  44.12500 5.26300 46.88500
C  46.99000 7.78700 47.02700
C  43.39400 7.47300 46.99400
O  43.28900 8.70600 46.99600
C  42.18200 6.51000 46.88800
C  41.33400 6.81900 48.07300
O  41.29300 6.13400 49.08100
O  40.43700 7.82300 47.78100
C  39.68800 8.16500 48.99800
H  41.10600 -0.18700 46.68100
H  47.64300 -1.05500 46.48400
H  48.52600 5.23200 46.65700
H  39.91700 4.05500 47.78900
H  39.63200 1.77500 46.21800
H  40.70000 1.29000 48.91100
H  39.13700 0.81700 48.27800
H  39.40400 2.34000 49.11800
H  39.70800 5.39000 45.61300
H  38.44000 4.29500 46.09100
H  38.74000 3.41000 43.88300
H  40.25700 2.79700 44.38800
H  42.56200 -3.70400 47.10500
H  42.28600 -3.08900 45.45400
H  41.54200 -2.34100 46.89500
H  47.50700 -3.34400 46.12400
H  47.27000 -4.49100 47.51300
H  47.39500 -2.71500 47.82400
H  49.38700 0.42700 45.89900
H  49.99100 3.13600 47.13100
H  50.36900 1.06800 48.56100
H  50.03600 -0.51300 47.83900
H  48.72800 0.26200 48.69500
H  49.28900 3.65300 44.60200
H  49.57500 1.97300 44.40100
H  51.88400 2.67500 43.95200
H  51.87800 2.76400 45.74600
H  51.53300 4.23000 44.63600
H  46.37100 8.68200 46.96000
H  47.74800 7.83700 46.24500
H  47.49500 7.83300 47.99200
H  41.61600 6.72700 45.98200
H  38.75100 7.60700 48.99300
H  39.44800 9.22800 48.98300
H  40.16800 7.94200 49.95000
Mg 29.90400 58.55500 40.20300
C  27.36600 56.28000 39.46500
C  32.23600 55.99600 39.67100
C  32.13500 60.90000 40.07400
C  27.37800 61.14900 39.63200
N  29.80900 56.43300 39.59300
C  28.67800 55.68600 39.33200
C  29.02400 54.34900 38.75300
C  30.49300 54.18300 39.29900
C  30.91100 55.64700 39.59400
C  30.75500 53.23400 40.57800
C  28.86600 54.28300 37.19400
C  27.74000 53.33900 36.73100
H  26.81600 54.07200 35.73900
N  31.94200 58.49800 39.95300
C  32.73900 57.31300 39.81200
C  34.17700 57.74900 39.82200
C  34.18500 59.21300 40.07200
C  32.73700 59.58100 40.02800
C  35.24200 56.67000 39.62900
C  35.45400 60.09400 40.35000
O  36.55800 59.56200 40.33100
C  35.30400 61.65900 40.61300
N  29.73400 60.68800 39.93400
C  30.81200 61.43200 39.97900
C  30.62300 62.95400 39.97100
C  29.08200 63.00300 39.74100
C  28.69400 61.53700 39.72700
C  31.06400 63.76500 41.25800
C  28.70600 63.83500 38.49600
C  27.78500 65.00900 38.60900
N  27.75700 58.75000 40.04800
C  26.95000 59.81000 39.73100
C  25.63800 59.32000 39.52800
C  25.70500 57.96800 39.53100
C  27.05400 57.64400 39.70600
C  24.47800 60.28500 39.33200
C  24.95100 56.81200 39.41000
O  23.71700 56.65600 39.25200
C  26.00200 55.62700 39.30300
C  25.68900 54.57100 40.23700
O  25.82800 54.64900 41.43900
O  24.97900 53.54400 39.64500
C  24.45800 52.51500 40.52600
H  33.00100 55.21600 39.66600
H  32.88800 61.69100 40.07500
H  26.60400 61.91400 39.54500
H  28.40200 53.66200 39.32600
H  31.02400 53.83400 38.41400
H  31.42900 52.43100 40.28100
H  29.77600 52.82600 40.83100
H  31.04400 53.92000 41.37300
H  29.79300 53.93200 36.74000
H  28.70200 55.31500 36.88500
H  27.12400 52.93200 37.53300
H  28.27700 52.49000 36.30700
H  34.89600 55.98600 38.85400
H  35.21800 56.18500 40.60500
H  36.25200 57.01500 39.41100
H  36.25400 62.09100 40.92900
H  34.65500 61.74600 41.48400
H  34.93900 62.24500 39.76900
H  31.19800 63.25100 39.09400
H  28.65800 63.43900 40.64700
H  30.23600 64.41000 41.55300
H  31.94700 64.39100 41.13000
H  31.36800 63.00400 41.97700
H  28.20400 63.12700 37.83700
H  29.60200 64.21300 38.00300
H  26.77000 64.69100 38.37000
H  28.11100 65.87900 38.03900
H  27.67400 65.26400 39.66200
H  24.55000 60.75900 38.35400
H  24.51100 60.93400 40.20700
H  23.63100 59.60800 39.43600
H  25.81400 55.39000 38.25500
H  23.44400 52.73700 40.86100
H  25.03300 52.34000 41.43500
H  24.37600 51.56700 39.99300

