158

Mg 25.53100 -8.06700 47.36700
C  27.49400 -5.42600 46.58300
C  23.29700 -7.15100 44.85800
C  23.65700 -10.72700 48.13200
C  28.23200 -9.53100 49.35200
N  25.47300 -6.58800 45.84900
C  26.48800 -5.65300 45.66400
C  26.01300 -4.59400 44.52400
C  24.64400 -5.15400 44.08800
C  24.42900 -6.38100 44.97300
C  23.39400 -4.15300 44.21700
C  27.09100 -4.59400 43.51000
C  27.49000 -3.11000 43.07400
H  27.17500 -2.69000 41.63300
N  23.70500 -8.85800 46.59700
C  22.93600 -8.30100 45.57500
C  21.78500 -9.13700 45.42100
C  21.87500 -10.24000 46.35500
C  23.09100 -9.94500 47.14200
C  20.73100 -8.92900 44.37200
C  20.83600 -11.40800 46.43100
O  19.78500 -11.40300 45.78300
C  21.12500 -12.61300 47.18400
N  25.90800 -9.93100 48.54900
C  24.90700 -10.78500 48.79900
C  25.29900 -11.88700 49.78300
C  26.88700 -11.69300 49.83200
C  27.05400 -10.34700 49.22100
C  24.52800 -11.69400 51.15000
C  27.65500 -12.70700 49.03500
C  29.16600 -12.85700 49.42400
N  27.42700 -7.62100 47.90800
C  28.39000 -8.26400 48.65400
C  29.60300 -7.42600 48.70400
C  29.25300 -6.19500 48.03700
C  27.94900 -6.41300 47.48800
C  30.95700 -7.73200 49.32400
C  29.67300 -4.84100 47.66100
O  30.71500 -4.24100 47.84900
C  28.50800 -4.28000 46.74300
C  27.76600 -3.24500 47.47900
O  27.00300 -3.45600 48.45600
O  27.98800 -2.02000 46.85900
C  27.18500 -0.89600 47.42100
H  22.63300 -6.78900 44.07000
H  23.06400 -11.51900 48.59400
H  29.02300 -9.96800 49.96500
H  25.81400 -3.64200 45.01500
H  24.65000 -5.58300 43.08600
H  23.77800 -3.14000 44.09800
H  23.08400 -4.09500 45.26100
H  22.62200 -4.31600 43.46500
H  26.86300 -5.08200 42.56200
H  27.96400 -5.11400 43.90300
H  28.56300 -2.98100 43.21600
H  26.98400 -2.37800 43.70300
H  21.09000 -9.34100 43.42900
H  20.60600 -7.87400 44.13100
H  19.76300 -9.38900 44.57100
H  20.97400 -12.40300 48.24300
H  22.19500 -12.79800 47.08600
H  20.50500 -13.43300 46.82400
H  24.96900 -12.82100 49.32800
H  27.11200 -11.84800 50.88700
H  23.86800 -12.53900 51.34400
H  23.89600 -10.80700 51.10800
H  25.23200 -11.48900 51.95600
H  27.37100 -12.59600 47.98800
H  27.22100 -13.62300 49.43500
H  29.68900 -12.28700 48.65700
H  29.61300 -13.85000 49.36400
H  29.59000 -12.44200 50.33900
H  30.77400 -8.54800 50.02400
H  31.39600 -6.84800 49.78500
H  31.68000 -8.08000 48.58600
H  29.00700 -3.88500 45.85800
H  27.26000 0.07900 46.94000
H  27.35400 -0.79100 48.49300
H  26.14300 -1.20200 47.51600
Mg 41.13500 8.12400 29.53500
C  42.52300 9.74000 32.21700
C  38.79600 6.88800 31.83300
C  39.85200 6.41300 27.02600
C  43.73200 9.36700 27.47200
N  40.77900 8.11200 31.79500
C  41.46600 8.99400 32.61000
C  40.90200 9.00500 33.99900
C  39.71300 7.99600 33.91600
C  39.62900 7.69900 32.42800
C  39.90000 6.67600 34.75900
C  40.44600 10.44500 34.51300
C  39.48700 10.48000 35.72100
H  39.96500 11.50000 36.79000
N  39.56300 6.93900 29.46500
C  38.70400 6.51300 30.47700
C  37.68200 5.68900 29.93600
C  37.95600 5.53700 28.58700
C  39.20200 6.26800 28.28900
C  36.73200 4.93300 30.87400
C  37.15500 4.83300 27.46000
O  37.52100 4.64200 26.30800
C  35.88100 4.15000 27.62700
N  41.66100 7.97500 27.53800
C  40.92700 7.19800 26.68800
C  41.63100 7.18300 25.33900
C  42.62900 8.37200 25.41400
C  42.65000 8.65300 26.90900
C  42.25100 5.76900 25.05600
C  42.32500 9.65400 24.68800
C  40.94100 10.22300 25.01000
N  42.84600 9.23600 29.73100
C  43.73600 9.68000 28.81600
C  44.63800 10.54900 29.44600
C  44.29100 10.58000 30.82600
C  43.14700 9.74100 30.94900
C  45.72500 11.35100 28.74200
C  44.54200 11.11700 32.06300
O  45.42300 11.89400 32.48100
C  43.36200 10.59900 33.05200
C  43.98500 9.92300 34.16300
O  44.61600 8.88600 34.11700
O  43.75400 10.53900 35.40300
C  44.18900 9.82900 36.61800
H  38.03500 6.56300 32.54600
H  39.48200 5.88600 26.14400
H  44.50700 9.77200 26.81800
H  41.68700 8.67700 34.68000
H  38.79300 8.49400 34.21900
H  40.24300 5.84600 34.14100
H  38.96900 6.36100 35.23000
H  40.62900 6.75200 35.56600
H  40.13700 10.91900 33.58100
H  41.33900 10.98700 34.82500
H  39.43800 9.47700 36.14300
H  38.54300 10.89800 35.37000
H  35.81400 4.66100 30.35300
H  36.36900 5.56300 31.68600
H  37.24100 4.09700 31.35300
H  35.15100 4.73300 28.18800
H  36.12300 3.22100 28.14400
H  35.44600 4.05900 26.63100
H  40.87500 7.38900 24.58200
H  43.61700 8.07900 25.05800
H  43.28800 5.88600 24.74100
H  41.58100 5.25300 24.36700
H  42.24100 5.11000 25.92400
H  42.21200 9.42800 23.62800
H  43.13600 10.36500 24.84600
H  41.08600 11.30100 25.08100
H  40.51000 9.93300 25.96900
H  40.31300 10.00600 24.14600
H  46.00600 12.23800 29.31000
H  45.46500 11.45000 27.68800
H  46.60900 10.71700 28.67100
H  42.99500 11.54700 33.44400
H  44.41500 8.77300 36.46700
H  43.48200 9.89000 37.44500
H  45.06000 10.34900 37.01800

