158

Mg 17.25800 50.88000 25.99100
C  19.07900 49.48400 28.64600
C  14.91600 51.91000 28.24400
C  15.34400 51.93100 23.36700
C  19.49700 49.53800 23.81000
N  16.99300 50.60800 28.17000
C  17.93200 50.17200 29.04800
C  17.57700 50.54100 30.46600
C  16.06800 50.98300 30.29300
C  16.01700 51.23100 28.85000
C  14.98400 50.03100 30.83800
C  18.43400 51.76400 30.96400
C  18.26000 52.11400 32.49500
H  17.28800 51.19800 33.37100
N  15.40800 51.82100 25.87200
C  14.62600 52.17500 26.91500
C  13.48900 53.00500 26.48000
C  13.69000 53.06800 25.01400
C  14.87800 52.28100 24.68700
C  12.49400 53.65600 27.48800
C  12.90400 53.82100 24.01300
O  13.18700 53.91900 22.79600
C  11.65300 54.50400 24.41400
N  17.33600 50.68900 23.84000
C  16.45200 51.14100 22.96500
C  17.08300 51.19400 21.59000
C  18.51400 50.45700 21.73600
C  18.45500 50.33300 23.22500
C  16.23800 50.43800 20.53000
C  19.77000 51.30000 21.28700
C  20.87200 50.43300 20.68200
N  19.02800 49.88800 26.13900
C  19.81100 49.26700 25.18100
C  20.95000 48.59700 25.75700
C  20.75400 48.70000 27.11400
C  19.54400 49.40900 27.32500
C  21.94700 47.78100 24.97200
C  21.14700 48.24100 28.38800
O  22.05100 47.51700 28.69300
C  20.23700 48.89600 29.42500
C  19.68000 47.90200 30.32700
O  18.72800 47.15700 30.01400
O  20.36800 47.88200 31.54000
C  19.76300 47.06800 32.66200
H  14.34400 52.43900 29.00900
H  14.83900 52.45300 22.55100
H  20.27300 49.17400 23.13300
H  17.74200 49.61200 31.01100
H  15.90400 51.85300 30.92900
H  15.30500 49.21300 31.48300
H  14.62600 49.45500 29.98500
H  14.11900 50.59700 31.18600
H  18.10600 52.61600 30.36900
H  19.48400 51.61700 30.71100
H  17.72500 53.05100 32.34000
H  19.19400 52.25900 33.03700
H  11.60800 53.86200 26.88800
H  12.88000 54.59000 27.89600
H  12.33000 52.94700 28.30000
H  11.04800 54.79800 23.55700
H  11.94800 55.41800 24.92900
H  11.16100 53.74000 25.01600
H  17.16300 52.21900 21.23100
H  18.44200 49.44400 21.34000
H  15.22200 50.26400 20.88500
H  16.69100 49.50200 20.20400
H  16.26600 51.15500 19.70900
H  20.21700 51.74900 22.17300
H  19.46300 52.04000 20.54700
H  21.81900 50.51500 21.21600
H  21.04600 50.90900 19.71700
H  20.59700 49.40100 20.46800
H  22.20700 48.18500 23.99400
H  21.41100 46.84000 24.84100
H  22.80800 47.59800 25.61500
H  20.79000 49.62900 30.01200
H  18.68900 47.25100 32.69100
H  20.16200 47.39100 33.62300
H  20.07000 46.03800 32.48100
Mg 10.44300 46.20700 25.56000
C  7.95700 46.49300 28.08900
C  12.65600 47.67900 27.65900
C  12.63600 46.04200 23.03100
C  7.88200 45.90300 23.18400
N  10.28000 47.05700 27.57400
C  9.23400 46.89800 28.47300
C  9.55100 47.57700 29.79900
C  11.02100 47.92700 29.63700
C  11.40100 47.56500 28.17500
C  11.39300 49.40400 29.97100
C  9.16700 46.75800 31.09800
C  9.80200 46.89600 32.46800
H  8.90700 46.74400 33.71500
N  12.38200 46.64400 25.42500
C  13.16800 47.26900 26.41400
C  14.55300 47.37100 25.90500
C  14.55700 46.91400 24.59300
C  13.15500 46.56600 24.28200
C  15.55100 48.17300 26.77100
C  15.70000 46.73000 23.68000
O  15.64000 46.26300 22.58000
C  17.11100 46.95700 24.13100
N  10.34000 45.83700 23.42300
C  11.38700 45.85300 22.58800
C  10.97100 45.55400 21.14100
C  9.44000 45.53300 21.23700
C  9.20300 45.74300 22.72600
C  11.50000 46.54000 20.04800
C  8.80100 44.29300 20.60200
C  9.28000 43.84400 19.22100
N  8.40000 46.05600 25.57800
C  7.49600 45.91200 24.49700
C  6.12300 45.82400 25.02700
C  6.27800 45.94800 26.43700
C  7.66700 46.18400 26.71300
C  4.91500 45.50500 24.21000
C  5.48800 45.81800 27.62700
O  4.31400 45.57000 27.80700
C  6.55500 46.26700 28.76600
C  6.46200 45.26200 29.81500
O  7.25800 44.38500 30.03700
O  5.45300 45.62400 30.66000
C  5.14700 44.69900 31.68700
H  13.42000 47.88100 28.41300
H  13.39300 45.97600 22.24700
H  7.11900 45.90200 22.40300
H  8.80600 48.36500 29.68300
H  11.55300 47.24800 30.30300
H  10.47700 49.97400 30.12800
H  11.91200 49.88300 29.14200
H  11.96100 49.31100 30.89700
H  9.31800 45.73400 30.75900
H  8.09500 46.80200 31.29400
H  10.20900 47.90700 32.49900
H  10.56900 46.12500 32.53300
H  16.25400 47.43600 27.15800
H  15.02200 48.76300 27.52000
H  16.05500 48.96400 26.21600
H  17.12600 46.61100 25.16400
H  17.44100 47.99100 24.03600
H  17.86700 46.41500 23.56300
H  11.22200 44.52300 20.89200
H  8.98700 46.35100 20.67700
H  10.65500 46.95900 19.50200
H  12.00800 45.80500 19.42400
H  12.05100 47.39800 20.43400
H  7.77500 44.59600 20.39700
H  8.81000 43.44500 21.28700
H  9.92900 44.65800 18.89700
H  8.60600 43.56400 18.41200
H  9.91100 42.96500 19.34800
H  4.90100 46.29400 23.45800
H  4.11000 45.63100 24.93300
H  4.95700 44.48200 23.83800
H  6.28700 47.22400 29.21400
H  4.49200 43.94500 31.25100
H  4.43300 45.09000 32.41200
H  6.04200 44.32600 32.18500

