158

Mg 43.35900 4.14600 47.60700
C  41.43200 7.07000 47.55300
C  40.41700 2.39300 47.22300
C  45.10200 1.49700 47.11000
C  46.24200 6.23800 47.00400
N  41.14500 4.62600 47.37100
C  40.62200 5.90300 47.45700
C  39.06000 5.81500 47.34100
C  38.75100 4.27700 47.51000
C  40.18400 3.72200 47.32800
C  38.24800 3.73800 48.83800
C  38.51700 6.50000 46.05800
C  39.47800 6.48600 44.88900
H  38.92400 6.85600 43.52400
N  42.83000 2.15700 47.44600
C  41.60200 1.62200 47.35200
C  41.62500 0.17400 47.28700
C  43.04600 -0.16300 47.24300
C  43.74100 1.16400 47.31500
C  40.45500 -0.77800 47.31200
C  43.70600 -1.57500 46.98200
O  43.02300 -2.60400 46.80800
C  45.17800 -1.74600 46.88800
N  45.32200 3.92300 47.17700
C  45.84300 2.70700 47.02500
C  47.40400 2.64100 47.11200
C  47.68200 4.14700 47.06400
C  46.35600 4.86700 47.03600
C  48.04000 1.99500 48.36800
C  48.66900 4.72400 45.96000
C  49.86800 5.36900 46.65600
N  43.80600 6.22900 47.38000
C  45.00200 6.92300 47.20800
C  44.72300 8.39900 47.15800
C  43.35700 8.43700 47.43400
C  42.87100 7.15300 47.49000
C  45.72300 9.46900 46.91300
C  42.25800 9.41700 47.62100
O  42.18300 10.62800 47.65700
C  40.98500 8.46800 47.62200
C  40.09400 8.71400 48.86000
O  40.15000 8.10200 49.88000
O  39.14300 9.66200 48.50300
C  38.16400 10.04200 49.54200
H  39.48800 1.82400 47.29300
H  45.91400 0.77000 47.18100
H  47.14100 6.85800 47.01900
H  38.59700 6.37500 48.15300
H  38.22100 3.82300 46.67300
H  39.07400 3.40800 49.46800
H  37.53400 2.94000 48.63500
H  37.80700 4.54800 49.41800
H  38.30100 7.51300 46.39900
H  37.63300 5.98400 45.68200
H  40.01700 5.53900 44.85900
H  40.26800 7.22100 45.04700
H  40.21000 -1.09000 46.29700
H  39.63700 -0.24900 47.80200
H  40.63700 -1.66900 47.91400
H  45.72700 -1.49100 47.79400
H  45.46000 -1.15800 46.01400
H  45.28800 -2.80700 46.66300
H  47.75600 2.17600 46.19100
H  48.08200 4.37600 48.05200
H  47.53700 2.17500 49.31900
H  49.07500 2.31000 48.49800
H  48.15900 0.91400 48.28800
H  48.14900 5.37000 45.25400
H  48.93200 3.85700 45.35400
H  50.16300 4.76900 47.51800
H  49.64600 6.37800 47.00200
H  50.72600 5.34700 45.98400
H  45.30100 10.30600 46.35600
H  46.59500 9.22500 46.30600
H  46.06900 9.79600 47.89400
H  40.50900 8.81500 46.70500
H  38.48400 10.10400 50.58200
H  37.37700 9.28800 49.56400
H  37.78400 10.99500 49.17300
Mg 40.60700 8.92900 29.26100
C  42.35900 10.03300 31.94100
C  38.26500 7.49100 31.42000
C  38.95900 7.59900 26.54100
C  43.01200 10.19700 27.06900
N  40.33300 8.91900 31.43700
C  41.17500 9.46600 32.34100
C  40.56400 9.46600 33.72300
C  39.21700 8.67400 33.57800
C  39.22700 8.28600 32.07800
C  39.10900 7.42400 34.48800
C  40.54100 10.86700 34.43600
C  39.35100 11.11700 35.50300
H  39.74800 11.77800 36.78600
N  38.83600 7.78600 29.04300
C  38.09500 7.17600 30.05300
C  37.06200 6.35100 29.46400
C  37.11600 6.51000 28.05700
C  38.29800 7.34200 27.78000
C  36.10100 5.46300 30.15100
C  36.26200 5.86700 26.99400
O  36.42400 6.12600 25.82100
C  35.18100 4.83800 27.40200
N  40.85200 9.01700 27.03800
C  40.12100 8.35800 26.16700
C  40.48500 8.74800 24.74600
C  41.80500 9.58100 24.90400
C  41.96100 9.58800 26.42600
C  40.51200 7.59800 23.66300
C  41.80900 10.98000 24.18300
C  41.11000 12.16600 24.89300
N  42.39900 9.71300 29.46700
C  43.29100 10.23400 28.46800
C  44.39600 10.87600 29.12900
C  44.07100 10.84200 30.52500
C  42.86500 10.11800 30.65200
C  45.57100 11.57900 28.54300
C  44.50400 11.27800 31.79300
O  45.42700 11.97900 32.13200
C  43.36100 10.83500 32.78500
C  44.03600 9.98300 33.76900
O  44.84800 9.11900 33.57100
O  43.76400 10.48700 34.99700
C  44.37800 9.77100 36.13700
H  37.57600 7.04900 32.14300
H  38.48600 7.15500 25.66300
H  43.73100 10.61700 26.36200
H  41.24500 8.85800 34.31800
H  38.38300 9.34400 33.78700
H  38.73200 6.55900 33.94200
H  38.40900 7.78300 35.24200
H  40.08600 7.20400 34.91900
H  40.41000 11.63300 33.67200
H  41.43600 11.09100 35.01600
H  38.84300 10.18100 35.73800
H  38.73500 11.85900 34.99500
H  36.28900 5.63500 31.21100
H  36.30100 4.45100 29.79700
H  35.07000 5.75600 29.95600
H  34.40500 5.36300 27.95800
H  35.59200 3.98000 27.93400
H  34.71800 4.48700 26.48000
H  39.75800 9.49000 24.41600
H  42.65400 8.96900 24.59900
H  40.50000 6.65200 24.20500
H  41.43200 7.66900 23.08300
H  39.69900 7.69800 22.94400
H  41.28100 10.73300 23.26200
H  42.84600 11.22200 23.94900
H  40.23000 12.47900 24.33000
H  41.82400 12.98100 25.00900
H  40.73900 11.92900 25.89000
H  46.42000 10.89700 28.58600
H  45.76500 12.49500 29.10100
H  45.38900 11.82500 27.49700
H  43.00300 11.80000 33.14500
H  43.58100 10.06000 36.82200
H  45.37100 10.13600 36.40100
H  44.26400 8.69400 36.00900

