158

Mg 48.42500 46.21200 43.41800
C  45.21800 46.71800 41.91100
C  48.69500 43.37100 41.68400
C  51.68200 46.12600 44.26900
C  48.31800 49.63800 44.39700
N  47.06200 45.12700 41.97500
C  45.74200 45.44000 41.65300
C  45.16200 44.38300 40.64100
C  46.29300 43.27300 40.66400
C  47.48800 43.99600 41.45200
C  45.80200 41.89500 41.11900
C  44.86900 44.90300 39.20200
C  43.60600 44.37300 38.57800
H  43.61400 43.96000 37.13600
N  49.94500 44.87700 43.02900
C  49.76400 43.68700 42.42200
C  51.05200 42.97500 42.40800
C  51.98100 43.80100 43.13000
C  51.23600 45.02400 43.52800
C  51.22900 41.62200 41.71800
C  53.42700 43.37600 43.30600
O  53.91100 42.40600 42.76300
C  54.45100 44.12600 44.10800
N  49.83600 47.71400 44.25800
C  51.11200 47.36200 44.57100
C  51.85100 48.54900 45.31000
C  50.80800 49.71700 45.19200
C  49.57000 49.02100 44.56500
C  52.28800 48.24100 46.80000
C  51.20600 50.90800 44.30400
C  51.16400 52.29300 45.05500
N  47.13100 47.84600 43.27500
C  47.16700 49.13100 43.79800
C  45.92200 49.80300 43.52900
C  45.14200 48.93100 42.75600
C  45.93000 47.71500 42.65800
C  45.50300 51.32800 43.81500
C  43.85900 48.72400 42.01600
O  42.88800 49.47200 41.80500
C  43.87600 47.26900 41.48600
C  42.74100 46.48800 42.02000
O  42.50800 46.22100 43.16200
O  41.96900 45.96300 41.02200
C  41.00100 44.92900 41.34500
H  48.75600 42.37900 41.23100
H  52.68500 45.98500 44.67700
H  48.39600 50.68500 44.69800
H  44.19900 44.04900 41.02700
H  46.68100 43.16500 39.65100
H  45.99100 41.93000 42.19200
H  46.26300 41.00200 40.69600
H  44.73200 41.88600 40.91100
H  45.73300 44.56900 38.62700
H  44.88300 45.98900 39.10500
H  42.91400 45.21400 38.60200
H  43.14800 43.65800 39.26100
H  50.37900 40.98900 41.46200
H  51.66600 40.99800 42.49800
H  51.91500 41.79100 40.88800
H  54.11200 44.18900 45.14200
H  54.45100 45.08400 43.58800
H  55.42400 43.63700 44.06200
H  52.76100 48.77300 44.75200
H  50.49500 50.00800 46.19400
H  52.16200 47.18200 47.02900
H  51.80200 48.90000 47.51900
H  53.36300 48.40100 46.87900
H  50.52500 50.98400 43.45600
H  52.21100 50.82200 43.89300
H  52.14600 52.74800 45.18200
H  50.88100 52.17700 46.10200
H  50.46300 52.91900 44.50300
H  44.44200 51.37800 44.05800
H  45.78600 51.85800 42.90500
H  46.00100 51.78400 44.67100
H  43.88100 47.24600 40.39600
H  41.42700 43.98800 40.99500
H  40.05000 45.16200 40.86600
H  40.83500 44.79100 42.41300
Mg 28.29800 58.69700 42.35200
C  25.80900 56.92100 40.69000
C  30.67600 56.73800 40.86400
C  30.66600 60.77700 43.56300
C  25.75600 60.76300 43.67400
N  28.17900 56.95900 40.93700
C  27.08000 56.38300 40.36400
C  27.47000 55.32900 39.35900
C  28.92700 55.08100 39.81300
C  29.34200 56.31000 40.62500
C  28.99200 53.81700 40.65400
C  27.34700 55.92500 37.93200
C  26.69000 54.90400 36.93000
H  27.39700 54.67800 35.62700
N  30.39300 58.77300 42.20200
C  31.17600 57.88200 41.60000
C  32.52400 58.39600 41.60900
C  32.57000 59.62500 42.37200
C  31.19900 59.73700 42.77500
C  33.60400 57.77500 40.83900
C  33.73500 60.39800 42.65500
O  34.85800 59.95700 42.32800
C  33.70800 61.73300 43.33700
N  28.20400 60.45500 43.58400
C  29.33300 61.05300 43.99300
C  29.01100 62.34000 44.78400
C  27.45500 62.29400 44.86500
C  27.10400 61.10400 43.94700
C  29.76600 62.45900 46.14900
C  26.76200 63.64600 44.47300
C  26.34200 64.62900 45.61500
N  26.14900 58.81200 42.30900
C  25.27700 59.72100 42.84800
C  23.92000 59.35100 42.52000
C  24.07800 58.28400 41.57900
C  25.45800 57.95500 41.53300
C  22.79600 60.15500 42.94600
C  23.37500 57.36900 40.77200
O  22.22700 57.18100 40.54500
C  24.49400 56.50900 40.11300
C  24.03100 55.08600 40.55300
O  23.88500 54.69400 41.68700
O  23.88900 54.33100 39.44200
C  23.62500 52.92700 39.53000
H  31.37800 55.96300 40.54900
H  31.28600 61.60000 43.92600
H  25.08800 61.49100 44.13800
H  26.82700 54.45100 39.41600
H  29.69300 54.82100 39.08300
H  29.66500 53.10200 40.18100
H  28.02200 53.33300 40.76400
H  29.31300 54.01600 41.67700
H  28.36200 56.13600 37.59700
H  26.73400 56.82500 37.88100
H  25.70600 55.30100 36.68200
H  26.61900 53.89400 37.33500
H  34.18100 57.01000 41.36000
H  34.18900 58.59800 40.42800
H  33.21100 57.25500 39.96600
H  32.88100 62.37800 43.04000
H  34.63300 62.23800 43.05800
H  33.72600 61.59000 44.41700
H  29.37800 63.15700 44.16300
H  27.19200 62.20100 45.91900
H  30.54300 61.69500 46.14800
H  29.13200 62.30000 47.02100
H  30.27400 63.41800 46.04500
H  25.82000 63.46000 43.95600
H  27.36900 64.27200 43.81900
H  25.26200 64.76700 45.65700
H  26.94600 65.53200 45.52700
H  26.76800 64.28300 46.55800
H  21.88700 59.65000 42.62000
H  22.79900 61.09300 42.39100
H  22.72600 60.27500 44.02700
H  24.51200 56.61100 39.02800
H  22.71300 52.74200 40.09700
H  24.42300 52.35100 40.00000
H  23.40000 52.51100 38.54900

