158

Mg 54.71800 24.47300 44.55700
C  52.10400 26.76100 43.82300
C  52.58400 21.86600 43.54000
C  57.32900 22.39500 44.59300
C  56.69300 27.10300 45.38300
N  52.55700 24.34500 43.94000
C  51.75800 25.43100 43.58200
C  50.40700 24.87800 42.92400
C  50.47800 23.32000 43.37400
C  52.01800 23.14700 43.59600
C  49.70900 22.82400 44.58400
C  50.20000 25.04600 41.41100
C  48.83200 25.05200 40.74700
H  48.68100 24.28100 39.45100
N  54.94100 22.42000 44.03600
C  53.92700 21.49100 43.71600
C  54.54300 20.20600 43.53100
C  55.89500 20.30000 43.94600
C  56.10100 21.71600 44.17600
C  53.72900 19.06600 43.21300
C  56.89500 19.08600 44.07700
O  56.62900 17.90200 43.71200
C  58.18800 19.29000 44.73600
N  56.76000 24.67500 44.86800
C  57.70600 23.68800 44.84300
C  59.04100 24.14300 45.39600
C  58.70400 25.70200 45.60800
C  57.30200 25.83900 45.26000
C  59.57600 23.40400 46.69700
C  59.56200 26.59100 44.66300
C  60.58300 27.42000 45.40400
N  54.54800 26.55600 44.58200
C  55.38100 27.48900 45.12700
C  54.75900 28.76500 45.24400
C  53.49400 28.54600 44.64000
C  53.39800 27.20500 44.30600
C  55.37200 29.96000 45.86600
C  52.27800 29.20700 44.26500
O  51.94300 30.38500 44.39900
C  51.27900 28.05700 43.62300
C  50.84200 28.34500 42.24300
O  51.62500 28.41900 41.24700
O  49.52500 28.42900 42.22100
C  49.08100 28.71600 40.89000
H  51.85000 21.08200 43.34200
H  58.19600 21.74800 44.74200
H  57.36100 27.91700 45.67100
H  49.60100 25.32700 43.50500
H  50.27300 22.69900 42.50200
H  50.43900 22.69900 45.38400
H  49.04900 21.97100 44.42700
H  49.00400 23.61000 44.85300
H  50.88700 24.31700 40.98100
H  50.61100 26.01600 41.13200
H  48.57800 26.10600 40.64200
H  48.13800 24.57600 41.43900
H  53.26000 19.22400 42.24100
H  52.96200 18.94400 43.97800
H  54.22400 18.09700 43.15200
H  58.46900 18.28300 45.04500
H  58.12800 19.83300 45.68000
H  59.02000 19.67200 44.14600
H  59.78800 24.00200 44.61600
H  58.91200 25.91900 46.65600
H  59.33000 24.03300 47.55300
H  60.63800 23.16100 46.72900
H  59.06200 22.44400 46.75700
H  58.99400 27.29200 44.05100
H  60.11900 25.94700 43.98300
H  60.38900 27.41100 46.47600
H  60.54700 28.47900 45.15100
H  61.54000 26.97700 45.12600
H  56.39700 30.16400 45.55500
H  55.31900 29.79600 46.94200
H  54.79400 30.84100 45.59000
H  50.34900 27.91500 44.17200
H  48.84600 29.77400 40.77400
H  48.13100 28.20500 40.73300
H  49.70300 28.41100 40.04800
Mg 1.29700 42.72700 25.29100
C  2.79600 42.70000 28.61000
C  -1.60500 41.97200 26.84900
C  0.08700 42.05700 22.24300
C  4.50200 43.04800 23.92600
N  0.68900 42.24300 27.50900
C  1.40400 42.46100 28.69000
C  0.52400 42.34100 29.96100
C  -0.86300 41.93800 29.31700
C  -0.61700 42.15100 27.82500
C  -1.47200 40.56500 29.67200
C  0.51800 43.60900 30.88300
C  0.54700 43.45500 32.38100
H  0.44100 41.99900 32.90200
N  -0.60300 42.24000 24.61900
C  -1.71500 42.01900 25.44700
C  -2.85000 41.83000 24.57500
C  -2.33700 41.81000 23.16600
C  -0.90100 42.04000 23.26800
C  -4.17100 41.63600 25.16700
C  -3.08400 41.70200 21.84500
O  -2.57800 41.77400 20.74100
C  -4.56700 41.30000 21.91600
N  2.16500 42.55600 23.41900
C  1.40800 42.29900 22.31200
C  2.30300 42.18700 21.02100
C  3.72100 42.68300 21.43300
C  3.46200 42.83600 22.99600
C  2.35400 40.75400 20.36500
C  4.25500 43.97300 20.69700
C  5.02500 43.70900 19.46700
N  3.21600 42.89200 26.05900
C  4.41100 43.01200 25.37300
C  5.46000 43.22000 26.33300
C  4.93700 43.14800 27.57600
C  3.52000 42.89000 27.40300
C  6.83600 43.48500 26.02500
C  5.18900 43.12500 29.02700
O  6.25600 43.20400 29.62100
C  3.81300 42.89900 29.73700
C  4.01600 41.72700 30.64200
O  3.80700 40.54600 30.42400
O  4.48000 42.26400 31.81600
C  4.77000 41.33600 32.88500
H  -2.50200 41.72400 27.42100
H  -0.12200 41.71600 21.22700
H  5.50400 43.27900 23.55800
H  0.89100 41.53200 30.59300
H  -1.57400 42.71600 29.59300
H  -0.84500 40.05800 30.40600
H  -1.75300 39.95100 28.81700
H  -2.37100 40.84100 30.22400
H  -0.33700 44.21300 30.57900
H  1.29700 44.19100 30.39000
H  -0.29500 43.97700 32.83600
H  1.50700 43.84000 32.72500
H  -4.22300 41.91100 26.22100
H  -4.46500 40.60100 24.99100
H  -4.84200 42.25800 24.57400
H  -4.80000 41.01600 20.89000
H  -5.09100 42.17800 22.29300
H  -4.71000 40.46500 22.60200
H  1.91800 42.84800 20.24400
H  4.50400 41.93700 21.29300
H  1.72400 40.05500 20.91400
H  3.38200 40.42000 20.23100
H  1.92300 40.91400 19.37600
H  4.83500 44.61000 21.36600
H  3.32500 44.51600 20.52500
H  4.44400 44.04300 18.60800
H  5.15400 42.65700 19.21400
H  5.93400 44.31100 19.46400
H  7.28600 43.79400 26.96800
H  6.83100 44.29200 25.29200
H  7.39100 42.65500 25.59000
H  3.55800 43.78700 30.31400
H  5.85800 41.33500 32.95100
H  4.35000 40.33200 32.81800
H  4.48100 41.74600 33.85200

