158

Mg 41.40900 9.03200 30.13700
C  43.43900 10.00500 32.86300
C  38.92500 8.06100 32.45900
C  39.61300 8.14100 27.66800
C  44.11500 9.62400 27.99700
N  41.23700 9.02800 32.40000
C  42.14400 9.59600 33.27700
C  41.54800 9.64800 34.70400
C  40.18100 8.82000 34.57700
C  40.12800 8.60300 33.06200
C  40.14200 7.52500 35.41900
C  41.49400 11.11900 35.33700
C  40.65400 11.36500 36.59000
H  41.29300 12.34200 37.56600
N  39.51200 8.16200 30.08500
C  38.62300 7.84800 31.10100
C  37.44100 7.23500 30.51000
C  37.63900 7.24700 29.12000
C  38.95100 7.82300 28.85500
C  36.36100 6.60900 31.25700
C  36.72600 6.72100 28.02700
O  37.14400 6.38100 26.97800
C  35.19700 6.63600 28.31700
N  41.78600 8.87200 28.04000
C  40.85900 8.51300 27.25300
C  41.24400 8.67300 25.81100
C  42.64700 9.29300 25.89400
C  42.92400 9.18200 27.40100
C  41.03200 7.48100 24.83300
C  42.79800 10.70400 25.38300
C  44.12300 11.09300 24.78500
N  43.41400 9.63100 30.34400
C  44.42400 9.75700 29.37800
C  45.60800 10.20300 30.02500
C  45.29100 10.34000 31.37800
C  43.93000 9.96300 31.56000
C  46.88700 10.53300 29.40700
C  45.79900 10.82200 32.64700
O  46.85000 11.28600 32.97200
C  44.55200 10.74700 33.61000
C  45.09300 10.17300 34.83100
O  45.49000 9.03400 34.91300
O  45.18700 11.11300 35.83200
C  46.00900 10.91000 37.05400
H  38.13500 7.88300 33.19100
H  39.12800 7.82100 26.74400
H  44.97600 9.95300 27.41100
H  42.30900 9.15700 35.31100
H  39.28200 9.32200 34.93400
H  40.08800 6.63600 34.79200
H  39.29100 7.55000 36.09900
H  40.98400 7.47400 36.11000
H  40.95500 11.59100 34.51600
H  42.51400 11.50300 35.37000
H  40.64300 10.39100 37.08000
H  39.66200 11.68800 36.27400
H  35.42500 7.16000 31.35300
H  36.74500 6.49900 32.27100
H  36.09400 5.65900 30.79400
H  34.64700 7.55900 28.50200
H  34.87100 6.03900 29.16900
H  34.68300 6.19600 27.46300
H  40.61900 9.47000 25.40800
H  43.32000 8.56100 25.44700
H  40.58400 6.65400 25.38300
H  41.97800 7.20900 24.36600
H  40.30800 7.85300 24.10800
H  42.63100 11.39000 26.21400
H  41.99800 10.85300 24.65800
H  44.47900 12.00300 25.26700
H  44.19700 11.33600 23.72500
H  44.87500 10.34700 25.04100
H  47.12700 11.58300 29.24000
H  46.90000 10.13300 28.39300
H  47.72300 10.11500 29.96800
H  44.27800 11.78400 33.80300
H  45.38100 10.95000 37.94300
H  46.84800 11.59000 37.20300
H  46.38900 9.88900 37.07500
Mg 0.29400 43.85700 26.16500
C  2.73500 43.35500 28.72800
C  -2.17300 43.53400 28.43500
C  -1.71100 43.15300 23.60000
C  3.11100 43.79300 23.92000
N  0.36800 43.43600 28.29600
C  1.41600 43.40300 29.17300
C  0.91900 43.50100 30.66300
C  -0.62300 43.38200 30.56800
C  -0.88600 43.47500 28.97700
C  -1.32400 42.15200 31.18800
C  1.29600 44.83700 31.37000
C  1.51400 44.97800 32.86100
H  1.12600 43.70600 33.67300
N  -1.71400 43.51300 26.03000
C  -2.57400 43.43900 27.06400
C  -3.84600 43.27900 26.56600
C  -3.70900 43.07000 25.14100
C  -2.35300 43.17800 24.88600
C  -5.08300 43.27700 27.33700
C  -4.86900 42.75400 24.11100
O  -4.58900 42.72100 22.89100
C  -6.24000 42.39900 24.59600
N  0.67300 43.29200 24.03800
C  -0.39600 43.34300 23.22700
C  -0.13200 43.52800 21.73900
C  1.39000 44.06300 21.89200
C  1.81200 43.71000 23.34000
C  -0.35800 42.38700 20.67600
C  1.66600 45.56300 21.61300
C  2.95000 45.85700 20.80700
N  2.43200 43.66500 26.24900
C  3.37500 43.69500 25.32200
C  4.67200 43.61000 25.83000
C  4.53000 43.50500 27.16700
C  3.07600 43.54900 27.37100
C  5.95100 43.73800 25.06200
C  5.17700 43.37000 28.52700
O  6.34900 43.23000 28.82800
C  4.00000 43.41600 29.51200
C  4.11100 42.47200 30.68000
O  3.83700 41.31800 30.68400
O  4.69200 43.15500 31.72800
C  5.20200 42.26800 32.75500
H  -3.03500 43.55200 29.10600
H  -2.37900 43.08100 22.73900
H  3.91000 43.94900 23.19300
H  1.23500 42.72800 31.36400
H  -1.08600 44.20300 31.11500
H  -1.76200 42.48400 32.12900
H  -0.57300 41.48000 31.60200
H  -1.99500 41.68200 30.47000
H  0.45000 45.48100 31.12900
H  2.20200 45.24700 30.92300
H  1.01800 45.87900 33.22200
H  2.58400 45.11200 33.01800
H  -5.89900 43.83100 26.87400
H  -4.87600 43.89400 28.21200
H  -5.32100 42.23200 27.53500
H  -6.20300 41.55900 25.29000
H  -6.91100 42.20200 23.76000
H  -6.56200 43.32100 25.08200
H  -0.75400 44.36700 21.42700
H  1.96300 43.41800 21.22600
H  0.22700 42.65100 19.79500
H  -1.42300 42.41300 20.44600
H  -0.10200 41.47100 21.21000
H  1.83800 46.04200 22.57700
H  0.76300 45.99400 21.18100
H  2.55700 46.07500 19.81400
H  3.59700 44.98000 20.83100
H  3.33400 46.68500 21.40200
H  5.85600 44.28600 24.12500
H  6.42500 42.85700 24.63000
H  6.69700 44.20800 25.70200
H  4.17500 44.42000 29.90100
H  4.34900 41.84200 33.28500
H  5.97000 42.70500 33.39400
H  5.74600 41.39000 32.40500

