158

Mg 2.22300 -1.78900 43.01000
C  5.69900 -1.42100 42.51500
C  1.70900 1.08700 41.16600
C  -1.15300 -2.49500 42.77600
C  2.75000 -4.98800 44.07500
N  3.56700 -0.29000 41.93800
C  4.98900 -0.34500 41.92500
C  5.50100 0.86200 41.17200
C  4.17700 1.64900 40.80800
C  3.04900 0.79000 41.35800
C  4.19300 3.12400 41.28700
C  6.40800 0.54900 39.99700
C  5.90900 -0.62700 39.06900
H  5.65200 -0.43500 37.63400
N  0.46000 -0.74900 42.26300
C  0.51900 0.41500 41.55500
C  -0.77900 0.93100 41.35200
C  -1.68600 -0.08100 41.76300
C  -0.83800 -1.14500 42.29300
C  -1.13700 2.30100 40.80400
C  -3.17200 0.04200 41.66500
O  -3.78600 1.07700 41.29000
C  -3.95600 -1.15600 42.07600
N  0.99300 -3.52800 43.25800
C  -0.37500 -3.56200 43.14200
C  -0.87100 -5.01700 43.40500
C  0.28900 -5.71700 44.09500
C  1.44100 -4.67700 43.80600
C  -2.30900 -5.32800 43.94700
C  0.51700 -7.19800 43.67400
C  0.55800 -8.31600 44.80400
N  3.86900 -3.05300 43.26000
C  3.96000 -4.26900 43.87700
C  5.38900 -4.62000 44.01800
C  6.07700 -3.54400 43.50800
C  5.10100 -2.61400 43.01800
C  5.90100 -5.82400 44.68200
C  7.38500 -2.91800 43.30300
O  8.46300 -3.43200 43.66700
C  7.20300 -1.61400 42.44800
C  8.00800 -0.52400 43.09400
O  8.94900 0.08000 42.57900
O  7.51100 -0.24700 44.38100
C  8.36600 0.59100 45.26700
H  1.47700 1.96500 40.56000
H  -2.16900 -2.85800 42.94600
H  2.89200 -5.90900 44.64400
H  6.12100 1.43600 41.86000
H  4.18400 1.65400 39.71800
H  4.31300 3.85000 40.48300
H  4.97000 3.22400 42.04400
H  3.22700 3.40700 41.70500
H  7.44900 0.30300 40.20900
H  6.62700 1.49000 39.49300
H  4.91200 -0.94900 39.36800
H  6.65900 -1.41700 39.12200
H  -1.25500 2.97900 41.65000
H  -2.12000 2.26200 40.33500
H  -0.37800 2.58600 40.07600
H  -5.02400 -1.01600 41.90600
H  -3.63900 -1.21600 43.11700
H  -3.60200 -1.98300 41.46000
H  -0.81600 -5.43900 42.40100
H  0.13000 -5.74000 45.17300
H  -2.92900 -4.49800 44.28600
H  -2.33400 -5.90400 44.87200
H  -2.97500 -5.78100 43.21400
H  1.45900 -7.29400 43.13500
H  -0.24900 -7.54700 42.98100
H  0.35200 -9.29900 44.38100
H  -0.07600 -8.04400 45.64900
H  1.59100 -8.36300 45.14800
H  6.81700 -5.58000 45.22100
H  6.18200 -6.62600 43.99900
H  5.13200 -6.32500 45.27000
H  7.59800 -1.90000 41.47300
H  7.79500 1.49600 45.47800
H  9.39800 0.74000 44.94900
H  8.43800 0.04200 46.20600
Mg 6.07500 55.70900 40.11200
C  5.57100 52.22900 39.89000
C  9.37700 55.10000 39.18200
C  6.59600 58.84200 40.03300
C  2.58200 56.14500 40.50100
N  7.30000 53.82800 39.31600
C  6.91700 52.55300 39.55300
C  7.97100 51.62000 39.26100
C  9.29000 52.45200 39.53500
C  8.66200 53.92500 39.35700
C  9.85500 52.34200 40.97100
C  7.94300 50.85400 37.80800
C  7.52400 51.65800 36.61200
H  6.94600 50.95400 35.41400
N  7.69800 56.81600 39.59700
C  8.92900 56.43300 39.24800
C  9.82200 57.54700 38.94600
C  9.07900 58.67300 39.22300
C  7.69500 58.14400 39.59800
C  11.26700 57.53500 38.46400
C  9.46700 60.17400 39.00700
O  10.62200 60.44800 38.90000
C  8.49100 61.43800 38.99400
N  4.65900 57.30500 39.77400
C  5.24300 58.48800 40.08500
C  4.07100 59.54700 40.26300
C  2.86400 58.55400 40.62100
C  3.36800 57.23000 40.18700
C  4.31800 60.57100 41.38200
C  1.52200 59.01000 40.02000
C  0.25600 59.06500 40.91800
N  4.35600 54.50800 40.15300
C  3.04400 54.83600 40.39500
C  2.31100 53.62700 40.51300
C  3.23700 52.57400 40.41900
C  4.51300 53.14700 40.19400
C  0.76600 53.49700 40.79600
C  3.33200 51.07900 40.38600
O  2.49100 50.23100 40.43300
C  4.91500 50.84100 40.15000
C  5.00000 49.95800 39.00900
O  4.73400 50.18200 37.80300
O  5.30000 48.63600 39.52000
C  5.47200 47.57300 38.50300
H  10.46100 54.98700 39.10200
H  6.78800 59.87400 40.33400
H  1.51000 56.20500 40.70300
H  7.89500 50.71300 39.86000
H  10.06100 52.18700 38.81100
H  10.93900 52.23600 40.94100
H  9.28900 51.51700 41.40500
H  9.62600 53.27600 41.48400
H  7.28000 49.99000 37.82700
H  8.97200 50.53900 37.63500
H  8.49200 52.02700 36.27200
H  6.88700 52.48700 36.92100
H  11.76700 57.89700 39.36200
H  11.53500 58.24700 37.68400
H  11.58100 56.49300 38.42000
H  8.93800 62.35000 38.59900
H  8.10300 61.60900 39.99800
H  7.67100 61.19200 38.31900
H  3.93600 60.00900 39.28500
H  2.75900 58.49600 41.70400
H  5.31700 60.47500 41.80600
H  3.65500 60.51600 42.24600
H  4.17700 61.57900 40.99200
H  1.39400 58.41300 39.11700
H  1.63000 60.02900 39.64600
H  -0.39500 58.32300 40.45700
H  -0.19600 60.04700 41.05400
H  0.52200 58.77100 41.93400
H  0.34000 52.78900 40.08500
H  0.29800 54.43500 40.49900
H  0.48200 53.06800 41.75700
H  5.40400 50.35600 40.99400
H  4.44200 47.21700 38.49400
H  6.08000 46.73800 38.84900
H  5.87300 47.86400 37.53200

