158

Mg 49.28900 35.55800 27.96900
C  47.07200 34.35700 30.32200
C  49.75100 38.42600 30.11600
C  51.12800 37.22300 25.62400
C  48.70900 32.99200 25.76800
N  48.50400 36.29100 30.01400
C  47.62600 35.53800 30.76200
C  47.36900 36.30900 32.07600
C  48.13400 37.72200 31.86600
C  48.81900 37.48200 30.51300
C  47.12600 38.87200 31.72100
C  47.72500 35.61900 33.39000
C  49.02500 34.76500 33.54100
H  50.28100 35.40700 34.10700
N  50.21300 37.57000 27.81600
C  50.34300 38.49800 28.80400
C  51.12300 39.65900 28.30800
C  51.49000 39.35100 26.94200
C  50.91600 37.99700 26.72200
C  51.36600 40.92700 29.22300
C  52.25600 40.16600 25.95700
O  52.64000 39.75100 24.86900
C  52.79700 41.48600 26.43700
N  49.86400 35.13700 26.00000
C  50.72700 35.89100 25.30500
C  51.21500 35.08400 24.07600
C  50.45200 33.72700 24.17600
C  49.60600 33.93800 25.36000
C  51.02500 35.84400 22.66200
C  51.36700 32.48700 24.16200
C  50.87500 31.40900 23.12400
N  48.18300 33.95700 28.02900
C  48.02800 33.00500 27.02800
C  46.85400 32.16200 27.51700
C  46.50000 32.59100 28.85100
C  47.33300 33.68600 29.05600
C  46.20500 31.01000 26.77500
C  45.58100 32.41000 29.88000
O  44.61800 31.62100 29.95600
C  45.85800 33.55600 30.93300
C  46.30500 32.76900 32.10100
O  47.36000 32.18400 32.21900
O  45.35300 32.83300 33.05400
C  45.59800 32.11300 34.29600
H  50.00100 39.26900 30.76400
H  51.80700 37.56500 24.84000
H  48.45300 32.13900 25.13700
H  46.29700 36.47400 31.97000
H  48.93200 37.97300 32.56400
H  46.82500 39.25200 32.69700
H  46.24200 38.72200 31.10100
H  47.65600 39.68000 31.21700
H  46.83100 35.02100 33.56700
H  47.85700 36.42200 34.11500
H  49.21100 34.39400 32.53300
H  48.76800 33.93700 34.20200
H  52.37700 41.03000 29.61600
H  50.65500 40.93600 30.05000
H  51.16100 41.81900 28.63200
H  52.15600 42.33700 26.66700
H  53.43400 41.90000 25.65500
H  53.44200 41.19700 27.26700
H  52.27400 34.84900 24.18200
H  49.86600 33.78000 23.25800
H  50.44700 36.76600 22.72000
H  50.64700 35.13300 21.92800
H  52.02800 36.05500 22.29200
H  51.29800 31.93500 25.09900
H  52.43500 32.69900 24.10800
H  51.78700 31.13600 22.59200
H  49.96600 31.66900 22.58200
H  50.61500 30.47000 23.61400
H  45.50400 30.48100 27.42100
H  46.97500 30.29000 26.49900
H  45.61800 31.25700 25.89000
H  44.88300 34.01100 31.10900
H  45.67000 31.03600 34.14500
H  44.81700 32.43800 34.98400
H  46.59200 32.29500 34.70400
Mg 7.43300 52.16300 40.92300
C  6.99200 48.64900 40.81800
C  10.81300 51.58000 40.54100
C  7.83000 55.43700 40.39000
C  4.01900 52.45200 41.16300
N  8.74400 50.28600 40.51400
C  8.29300 49.00000 40.50400
C  9.49900 48.10200 40.26400
C  10.71600 49.07800 40.55600
C  10.05100 50.40300 40.47200
C  11.53300 48.85000 41.85000
C  9.56800 47.45400 38.92100
C  9.39100 48.37100 37.64600
H  8.24700 48.28000 36.62600
N  9.07800 53.35900 40.36900
C  10.38500 52.93900 40.38400
C  11.25100 54.13300 40.26600
C  10.44200 55.25900 40.16600
C  9.04000 54.73400 40.30400
C  12.67500 53.90000 40.14400
C  10.84400 56.71900 39.97000
O  12.02600 57.01000 39.92300
C  9.93600 57.86700 39.79500
N  6.08900 53.71400 40.61700
C  6.54200 55.00900 40.45500
C  5.32300 55.96000 40.72000
C  4.10400 55.00800 40.92200
C  4.72600 53.62900 40.81800
C  5.55300 56.94400 41.90300
C  3.00400 55.20800 39.86400
C  2.06400 56.40800 39.99700
N  5.73900 50.86100 41.07500
C  4.43800 51.17800 41.30300
C  3.72300 49.91300 41.56600
C  4.64800 48.92900 41.35200
C  5.91200 49.54000 41.04700
C  2.30000 49.63600 42.14900
C  4.86300 47.57600 41.38000
O  4.09400 46.65400 41.63500
C  6.35500 47.25800 40.99700
C  6.38200 46.40700 39.75400
O  6.22200 46.76700 38.60700
O  6.59700 45.07900 40.11400
C  6.48900 44.21500 38.97500
H  11.89500 51.58200 40.68900
H  7.88600 56.52400 40.30800
H  2.95200 52.56100 41.36800
H  9.45900 47.25700 40.95200
H  11.34000 49.04900 39.66200
H  11.27800 49.44600 42.72600
H  12.60700 48.84100 41.66300
H  11.32400 47.78500 41.94800
H  8.87700 46.61200 38.96800
H  10.56600 47.01600 38.90300
H  10.21700 48.04900 37.01300
H  9.57000 49.41500 37.90300
H  12.87800 53.28300 39.26900
H  13.25600 53.42000 40.93100
H  13.23600 54.81900 39.97500
H  9.65500 58.13100 40.81500
H  9.09400 57.73200 39.11700
H  10.53300 58.65400 39.33500
H  5.36600 56.47200 39.75900
H  3.70100 55.03400 41.93400
H  4.97300 56.53900 42.73100
H  5.20600 57.95200 41.67200
H  6.57800 57.05200 42.25800
H  2.29500 54.38100 39.90100
H  3.48900 55.13100 38.89100
H  0.99000 56.29800 40.14400
H  2.14600 57.00800 39.09100
H  2.57700 56.93500 40.80200
H  1.55800 49.62700 41.35000
H  1.99000 50.44600 42.80900
H  2.40600 48.70200 42.70200
H  6.98300 46.69100 41.68400
H  7.34600 44.28200 38.30600
H  5.54300 44.35800 38.45200
H  6.52900 43.26500 39.50800

