158

Mg 24.45900 -7.57800 46.11500
C  26.63500 -5.12700 44.66500
C  21.95100 -6.27400 44.24500
C  22.76300 -10.36600 46.68000
C  27.42300 -9.02400 47.45400
N  24.38600 -5.88600 44.61200
C  25.36200 -5.01700 44.22400
C  24.82600 -4.06200 43.12400
C  23.24800 -4.34100 43.27600
C  23.13000 -5.51500 44.18900
C  22.49400 -3.08800 43.84500
C  25.46300 -4.24800 41.72900
C  26.04500 -3.01800 40.95900
H  25.57800 -2.98800 39.43900
N  22.54500 -8.19300 45.67800
C  21.66200 -7.48200 44.83100
C  20.46700 -8.26000 44.77000
C  20.61900 -9.44500 45.50500
C  22.00400 -9.35800 45.96500
C  19.27600 -7.85800 43.91500
C  19.49600 -10.47400 45.77900
O  18.33800 -10.35300 45.33400
C  19.77600 -11.64900 46.67800
N  24.96900 -9.40200 47.08500
C  24.07100 -10.43700 47.08300
C  24.73500 -11.70600 47.59100
C  26.24000 -11.30800 47.90800
C  26.28700 -9.76500 47.56300
C  24.04900 -12.34900 48.84200
C  27.33700 -12.12100 47.07000
C  28.61700 -12.44600 47.81700
N  26.57300 -7.03000 46.36400
C  27.62400 -7.77700 46.82900
C  28.84900 -7.01400 46.72200
C  28.52200 -5.91500 45.93300
C  27.15400 -6.04300 45.62100
C  30.15300 -7.45000 47.27700
C  28.98200 -4.74200 45.24500
O  30.07300 -4.14200 45.19200
C  27.75500 -4.19700 44.34900
C  27.41400 -2.71300 44.54700
O  27.41500 -1.86300 43.69100
O  27.15200 -2.46100 45.88200
C  26.63300 -1.14200 46.16100
H  21.15300 -5.78500 43.68300
H  22.30500 -11.35600 46.73900
H  28.27700 -9.54600 47.89000
H  25.06000 -3.05000 43.45300
H  22.78300 -4.58500 42.32100
H  21.77000 -3.50400 44.54600
H  21.91300 -2.67600 43.02000
H  23.15500 -2.35700 44.30900
H  24.79800 -4.87800 41.13800
H  26.30500 -4.91400 41.91900
H  27.12600 -3.03100 41.09600
H  25.71500 -2.09500 41.43500
H  18.39400 -8.06900 44.52000
H  19.23800 -8.55700 43.08000
H  19.38500 -6.84700 43.52400
H  20.37300 -11.37700 47.54800
H  20.35500 -12.42500 46.17800
H  18.79500 -11.99600 47.00100
H  24.70200 -12.39600 46.74800
H  26.53700 -11.46300 48.94500
H  22.98600 -12.11200 48.88800
H  24.43600 -11.88100 49.74800
H  24.34800 -13.39400 48.76800
H  27.68400 -11.54300 46.21300
H  26.88200 -13.00500 46.62200
H  29.38700 -11.79600 47.40100
H  28.97000 -13.46500 47.66200
H  28.36700 -12.23500 48.85700
H  30.67300 -8.18600 46.66300
H  29.95700 -7.86000 48.26800
H  30.81200 -6.59000 47.40200
H  27.89500 -4.20000 43.26800
H  25.81800 -0.87400 45.48800
H  27.38800 -0.36300 46.05500
H  26.25000 -1.22000 47.17800
Mg 46.86400 24.80000 28.53800
C  47.24600 27.03100 31.27900
C  45.32200 22.62100 30.60100
C  47.47200 22.31000 26.29600
C  48.83100 27.03100 26.55400
N  46.40700 24.82700 30.70300
C  46.63900 25.84700 31.58500
C  46.11900 25.53700 33.01700
C  45.46700 24.06600 32.76000
C  45.74400 23.78000 31.32100
C  46.15000 22.92200 33.58300
C  45.24900 26.61300 33.69700
C  45.65600 27.02500 35.06100
H  44.65900 26.80100 36.27400
N  46.30100 22.84500 28.35600
C  45.50600 22.15600 29.25300
C  45.06200 20.88400 28.74500
C  45.80100 20.78600 27.48200
C  46.55500 22.00700 27.31600
C  44.32700 19.82200 29.59500
C  45.75100 19.68200 26.57200
O  46.35500 19.63800 25.52500
C  44.85400 18.45600 26.81800
N  47.96700 24.70600 26.70400
C  48.04600 23.54500 25.97000
C  48.73700 23.81000 24.65400
C  49.21100 25.30800 24.71600
C  48.64300 25.74400 26.03800
C  49.79100 22.73600 24.29100
C  48.59200 26.14900 23.52900
C  47.12700 26.67000 23.58500
N  47.78500 26.69300 28.77700
C  48.48800 27.44000 27.87400
C  48.85800 28.70800 28.47500
C  48.36500 28.61900 29.86100
C  47.73200 27.36100 29.96200
C  49.77100 29.76200 27.88200
C  48.30000 29.22100 31.17400
O  48.66400 30.32400 31.60500
C  47.58900 28.13500 32.12400
C  48.56900 27.70100 33.22000
O  49.46100 26.86300 33.09500
O  48.39900 28.54700 34.23600
C  49.23000 28.41400 35.49900
H  44.68000 22.00200 31.23100
H  47.65000 21.55100 25.53100
H  49.20800 27.81100 25.89000
H  46.91000 25.36600 33.74800
H  44.43300 23.96200 33.09000
H  46.45900 23.27700 34.56600
H  47.04700 22.52400 33.10900
H  45.47100 22.11400 33.85700
H  44.28100 26.16900 33.92900
H  45.02400 27.53300 33.15800
H  45.95100 28.07400 35.02100
H  46.57800 26.56100 35.41400
H  43.52000 19.36300 29.02400
H  43.97300 20.26800 30.52400
H  45.06100 19.09500 29.94000
H  45.07300 18.16000 27.84300
H  45.06500 17.65600 26.10800
H  43.80900 18.71800 26.65100
H  48.08300 23.66500 23.79400
H  50.29900 25.28200 24.78200
H  50.11000 22.29100 25.23400
H  50.60300 23.11300 23.66800
H  49.45100 21.87400 23.71800
H  48.69600 25.46000 22.69200
H  49.16400 27.03400 23.24900
H  46.56000 26.05700 22.88400
H  47.04900 27.74900 23.45500
H  46.77400 26.48700 24.60000
H  50.42600 29.45600 27.06700
H  50.40000 30.22900 28.64000
H  49.10700 30.51600 27.46000
H  46.78500 28.71600 32.57600
H  49.83100 29.32100 35.56400
H  49.82500 27.50200 35.55600
H  48.59300 28.42400 36.38400

