158

Mg 0.96200 7.31700 27.06800
C  1.31000 9.78800 29.49600
C  1.29300 5.02100 29.49900
C  0.79400 4.95500 24.55200
C  1.18400 9.74700 24.56700
N  1.31600 7.39000 29.29000
C  1.24700 8.50400 30.05400
C  1.11400 8.10300 31.61200
C  1.43600 6.61000 31.56300
C  1.33800 6.30300 30.03400
C  2.67900 6.00800 32.27200
C  -0.38000 8.44900 32.03500
C  -0.68800 8.58900 33.54000
H  0.39600 8.57600 34.59100
N  1.10700 5.30300 26.97700
C  1.17600 4.56900 28.13100
C  1.14300 3.23100 27.72600
C  1.16600 3.07700 26.33900
C  1.02800 4.47400 25.90700
C  1.30800 2.18200 28.73000
C  1.22100 1.90200 25.37000
O  1.31400 2.06600 24.16500
C  1.26500 0.46700 25.85600
N  1.08300 7.36300 24.83000
C  0.84300 6.25100 24.03700
C  0.41500 6.66700 22.63800
C  0.63100 8.21800 22.56900
C  0.97300 8.47000 24.03100
C  1.09800 5.82300 21.56000
C  -0.56300 9.02200 22.00200
C  -0.26000 10.46300 21.53100
N  1.18900 9.31100 27.00200
C  1.34800 10.13400 25.90700
C  1.55100 11.46500 26.38000
C  1.61100 11.36400 27.80800
C  1.38800 10.04300 28.09100
C  1.83000 12.64800 25.48700
C  1.85200 12.14900 28.97300
O  2.03100 13.34500 29.13100
C  1.57200 11.12700 30.13900
C  2.76700 11.14000 31.02100
O  3.92900 10.88400 30.69400
O  2.30700 11.38500 32.31800
C  3.31300 11.62600 33.43000
H  1.28500 4.26400 30.28600
H  0.70400 4.30500 23.68000
H  1.21500 10.52100 23.79600
H  1.84400 8.61000 32.24300
H  0.67000 6.04900 32.09800
H  2.48100 5.25200 33.03200
H  3.31900 6.76500 32.72600
H  3.28800 5.62500 31.45300
H  -0.92700 7.60300 31.62000
H  -0.67300 9.31900 31.44800
H  -1.40600 7.79400 33.74300
H  -1.22200 9.54000 33.56100
H  1.82700 1.31200 28.32700
H  0.40000 1.95400 29.28800
H  2.01800 2.48400 29.49900
H  2.29900 0.39700 26.19400
H  1.04200 -0.21700 25.03800
H  0.53200 0.46300 26.66300
H  -0.64700 6.42100 22.64000
H  1.35200 8.54000 21.81700
H  0.39400 5.12600 21.10600
H  1.88900 5.19500 21.97100
H  1.45900 6.56000 20.84300
H  -1.19100 9.19300 22.87600
H  -1.18000 8.40400 21.35000
H  -0.77700 10.64200 20.58800
H  0.80300 10.62200 21.34900
H  -0.65300 11.22200 22.20800
H  0.87300 12.87400 25.01800
H  2.50800 12.35900 24.68400
H  2.19200 13.54400 25.99100
H  0.70400 11.49900 30.68300
H  3.21200 10.74900 34.06900
H  3.14200 12.48500 34.07900
H  4.32500 11.65900 33.02500
Mg 35.49800 48.83300 25.92400
C  36.10300 46.90300 28.79600
C  34.55500 51.41100 27.97000
C  34.56000 50.44800 23.41100
C  36.23000 45.83200 24.01600
N  35.25100 49.08700 28.10800
C  35.64500 48.20500 29.05100
C  35.48400 48.75500 30.48800
C  34.87200 50.17600 30.19700
C  34.92100 50.28600 28.65600
C  33.44100 50.44000 30.74800
C  36.92500 48.78400 31.19500
C  36.95900 48.40400 32.70200
H  35.65600 48.57100 33.42800
N  34.66400 50.68000 25.73100
C  34.43000 51.62000 26.64200
C  34.01700 52.86100 25.99900
C  34.07000 52.62200 24.62500
C  34.42200 51.20700 24.55900
C  33.69600 54.16000 26.75900
C  33.88500 53.61300 23.47800
O  34.02300 53.31400 22.24100
C  33.36800 55.00400 23.79800
N  35.32100 48.16400 24.05900
C  34.89200 49.12100 23.13300
C  35.31000 48.63200 21.71200
C  35.91100 47.22900 22.00700
C  35.82200 47.06700 23.43500
C  34.17000 48.66000 20.70900
C  37.36900 47.27700 21.42800
C  38.68000 47.74000 22.13400
N  36.27800 46.76300 26.25000
C  36.49700 45.76300 25.40000
C  37.05700 44.68400 26.20000
C  36.97700 45.05500 27.51600
C  36.42100 46.31400 27.51900
C  37.61500 43.39900 25.68800
C  37.14600 44.67100 28.85500
O  37.48800 43.65700 29.35600
C  36.48000 45.80700 29.73500
C  35.35900 45.14300 30.42300
O  34.33800 44.62900 29.87400
O  35.49700 45.16200 31.77600
C  34.37200 44.70000 32.50400
H  34.26300 52.36200 28.42100
H  34.25500 50.93500 22.48200
H  36.63400 45.10600 23.30800
H  34.80500 48.09500 31.02700
H  35.48600 50.99700 30.56800
H  33.43700 51.36800 31.32000
H  33.05900 49.70600 31.45800
H  32.73300 50.70400 29.96300
H  37.32500 49.78900 31.05300
H  37.68200 48.18900 30.68400
H  37.66800 48.99300 33.28400
H  37.17300 47.34100 32.81300
H  33.52000 54.02800 27.82700
H  32.74000 54.51700 26.37600
H  34.40400 54.98500 26.68200
H  32.40600 54.90800 24.30200
H  33.20900 55.56500 22.87700
H  33.94800 55.59700 24.50500
H  36.09100 49.32700 21.40200
H  35.41000 46.39800 21.50900
H  33.88700 47.66600 20.36300
H  34.63300 49.15600 19.85500
H  33.35200 49.28400 21.06900
H  37.40100 47.71600 20.43100
H  37.52000 46.21900 21.21200
H  38.44300 47.83100 23.19400
H  39.09600 48.66600 21.73700
H  39.45800 46.98800 22.00500
H  37.35400 42.55900 26.33200
H  38.69200 43.43700 25.52500
H  37.18100 43.16800 24.71500
H  37.18100 46.19000 30.47600
H  33.41900 45.06300 32.12200
H  34.40700 45.16500 33.49000
H  34.38700 43.61400 32.59300

