158

Mg 4.85200 53.16900 42.09800
C  5.01400 49.78000 41.25600
C  7.83200 53.69900 40.47300
C  4.39700 56.49300 42.58800
C  1.55500 52.56600 43.30300
N  6.17400 51.92700 40.87900
C  6.06100 50.59300 40.73900
C  7.29800 50.09800 39.93700
C  8.30800 51.18400 40.18800
C  7.38500 52.39100 40.53600
C  9.28400 51.03900 41.42800
C  6.99200 49.92200 38.41300
C  7.62100 48.79400 37.62000
H  6.92000 48.05100 36.38800
N  5.93700 54.85300 41.57800
C  7.18200 54.83500 40.96200
C  7.70500 56.20700 40.93400
C  6.66700 57.04800 41.44200
C  5.61300 56.18000 41.93800
C  9.11100 56.55100 40.49800
C  6.68500 58.53200 41.50200
O  7.71800 59.17700 41.21100
C  5.63700 59.34000 42.10300
N  3.21200 54.33500 42.80100
C  3.31400 55.69700 42.94000
C  2.09100 56.38700 43.39600
C  1.10800 55.14700 43.56800
C  1.97500 53.89900 43.22200
C  2.25100 57.15500 44.73100
C  -0.12600 55.21900 42.57900
C  -1.43700 54.54300 43.21300
N  3.47400 51.55100 42.22300
C  2.28900 51.46700 42.86000
C  1.87200 50.07700 42.95000
C  2.91200 49.36700 42.31000
C  3.83900 50.29700 41.86100
C  0.63200 49.51300 43.44600
C  3.34700 48.06300 41.90600
O  2.80200 47.02300 41.97900
C  4.80500 48.25400 41.30800
C  4.86700 47.54900 40.06700
O  4.21600 47.81100 39.07800
O  5.77600 46.49800 40.15700
C  5.83100 45.53300 39.04200
H  8.82200 53.81100 40.02500
H  4.24100 57.54900 42.81900
H  0.55900 52.42600 43.72900
H  7.58400 49.12900 40.34600
H  9.02200 51.44300 39.40600
H  10.20500 51.49000 41.06100
H  9.37500 49.99100 41.71300
H  8.97800 51.64100 42.28400
H  7.28800 50.86300 37.95200
H  5.92500 49.92400 38.19000
H  7.83100 48.07000 38.40700
H  8.61500 49.02700 37.23900
H  9.66700 55.66200 40.20100
H  9.60300 56.97300 41.37500
H  9.05300 57.29800 39.70600
H  5.80600 60.41000 42.22100
H  5.41300 58.96200 43.10100
H  4.81700 59.12800 41.41700
H  1.81500 57.05800 42.58300
H  0.86300 54.87500 44.59500
H  2.40900 58.18400 44.40800
H  3.11700 56.80700 45.29400
H  1.33300 57.03700 45.30600
H  0.24100 54.59800 41.76200
H  -0.39000 56.23500 42.28300
H  -1.69400 53.63200 42.67200
H  -2.27000 55.22400 43.38600
H  -1.21200 54.14400 44.20200
H  0.66800 49.35300 44.52300
H  0.38900 48.61000 42.88500
H  -0.14800 50.22600 43.17900
H  5.59200 47.79100 41.90300
H  6.85800 45.55600 38.67600
H  5.16800 45.72000 38.19800
H  5.36300 44.58200 39.29800
Mg -12.96400 16.62300 41.99000
C  -9.60000 15.23700 41.65700
C  -11.57500 19.64400 41.18700
C  -15.99200 17.72300 42.06700
C  -14.08900 13.31800 42.50800
N  -10.79200 17.35400 41.67800
C  -9.62300 16.65100 41.50700
C  -8.45300 17.54800 41.12500
C  -9.02200 18.97000 41.37500
C  -10.52800 18.70500 41.36900
C  -8.55800 19.59300 42.73700
C  -7.98700 17.27000 39.70700
C  -6.45500 16.96100 39.46700
H  -5.76000 17.59000 38.26800
N  -13.71400 18.42500 41.64100
C  -13.02800 19.58200 41.27300
C  -13.96000 20.65000 41.12300
C  -15.21900 20.09100 41.34600
C  -15.05500 18.67700 41.70100
C  -13.47000 22.03300 40.71400
C  -16.52800 20.88000 41.40100
O  -16.41900 22.06800 41.00700
C  -17.90400 20.40800 41.72000
N  -14.78600 15.59100 41.91100
C  -15.92900 16.34100 42.19400
C  -17.11000 15.47800 42.58200
C  -16.51000 14.06700 42.47600
C  -15.04000 14.30400 42.32700
C  -17.68500 15.74100 44.00500
C  -16.98100 13.24800 41.26800
C  -17.89400 12.06900 41.69600
N  -12.08500 14.63500 42.03500
C  -12.64800 13.38900 42.32900
C  -11.62700 12.40500 42.27700
C  -10.49200 13.11300 42.06700
C  -10.75400 14.45500 41.91900
C  -11.83200 10.89000 42.40800
C  -9.00900 12.95500 41.77200
O  -8.30500 11.97900 41.80000
C  -8.37100 14.29900 41.54200
C  -7.35800 14.47100 42.61200
O  -7.42800 13.95400 43.74700
O  -6.23100 15.09900 42.17700
C  -4.99100 15.18700 42.94000
H  -11.24600 20.67800 41.06400
H  -16.98200 18.15600 42.22500
H  -14.55800 12.40000 42.86700
H  -7.67600 17.33400 41.85900
H  -8.69200 19.60400 40.55200
H  -9.21900 20.45000 42.86500
H  -7.59600 20.08500 42.59100
H  -8.57100 18.90600 43.58300
H  -8.16900 18.08600 39.00800
H  -8.61100 16.45500 39.34000
H  -6.37900 15.87700 39.38200
H  -5.87700 17.24700 40.34600
H  -13.40700 22.22800 39.64400
H  -12.50200 22.23400 41.17500
H  -14.09600 22.77800 41.20500
H  -18.17900 19.56400 41.08700
H  -18.55900 21.25800 41.53000
H  -17.92800 20.24900 42.79800
H  -17.78600 15.72900 41.76400
H  -16.75700 13.44000 43.33300
H  -18.53200 15.08100 44.19400
H  -18.00900 16.78200 43.98100
H  -17.04200 15.64400 44.87900
H  -16.27000 12.86600 40.53700
H  -17.61800 13.82400 40.59700
H  -18.95400 12.28500 41.56300
H  -17.70800 11.71200 42.70900
H  -17.65200 11.32200 40.94000
H  -12.38000 10.62900 43.31200
H  -10.82900 10.50600 42.59700
H  -12.29800 10.45200 41.52500
H  -7.90200 14.37700 40.56100
H  -4.87000 14.41000 43.69600
H  -4.99400 16.18900 43.36900
H  -4.05900 15.18700 42.37400

