158

Mg 24.58000 -4.64900 45.58000
C  26.25100 -1.84400 44.16100
C  21.70400 -3.86900 43.84000
C  23.39700 -7.63700 46.48000
C  27.56600 -5.27100 47.27000
N  24.03700 -3.02000 44.16900
C  24.92600 -2.08000 43.67700
C  24.26300 -1.30900 42.57100
C  22.73300 -1.84300 42.53000
C  22.81300 -2.91500 43.66900
C  21.62300 -0.76800 42.78000
C  24.96000 -1.43400 41.18400
C  25.16300 -0.25700 40.32000
H  24.85700 -0.44900 38.83200
N  22.73800 -5.57200 45.28200
C  21.68800 -5.09700 44.53900
C  20.74000 -6.13600 44.32500
C  21.14300 -7.28200 45.05000
C  22.44800 -6.88500 45.69700
C  19.45800 -5.95900 43.46900
C  20.33000 -8.49000 45.17200
O  19.30800 -8.65800 44.61100
C  20.79500 -9.59100 45.96100
N  25.43900 -6.28700 46.65600
C  24.69700 -7.40400 46.88200
C  25.51300 -8.30900 47.78700
C  26.72500 -7.44400 48.24400
C  26.62200 -6.25500 47.29300
C  24.77900 -8.98600 48.97400
C  28.17500 -8.10300 48.06300
C  29.07800 -7.99100 49.27500
N  26.52700 -3.80200 45.70300
C  27.62800 -4.23600 46.40100
C  28.69300 -3.27300 46.29800
C  28.17900 -2.32200 45.41500
C  26.86900 -2.68000 45.08800
C  29.99900 -3.23000 46.95300
C  28.48100 -1.08700 44.80600
O  29.49200 -0.44200 44.96200
C  27.30800 -0.74200 43.76600
C  26.78800 0.60300 44.03900
O  26.20500 0.94300 45.06300
O  26.98300 1.44500 42.98500
C  26.45500 2.75100 42.98600
H  20.81700 -3.60200 43.26300
H  23.07700 -8.66900 46.64400
H  28.44100 -5.47900 47.88900
H  24.23900 -0.26700 42.89000
H  22.50500 -2.46000 41.66100
H  21.95100 0.26900 42.84900
H  20.99000 -1.03600 43.62600
H  20.96200 -0.93800 41.93000
H  24.57000 -2.27800 40.61700
H  25.93800 -1.88800 41.34200
H  26.22100 -0.07900 40.51400
H  24.70200 0.68400 40.61900
H  19.24400 -6.81300 42.82700
H  19.56700 -5.07600 42.83900
H  18.55800 -5.64400 43.99700
H  21.76500 -9.73400 45.48300
H  20.11500 -10.43100 45.82000
H  21.00800 -9.33300 46.99800
H  25.89600 -9.07200 47.11000
H  26.56000 -7.10700 49.26700
H  24.80200 -10.05700 48.76900
H  23.77500 -8.56100 48.99000
H  25.23200 -8.77600 49.94200
H  28.72000 -7.69600 47.21100
H  28.09800 -9.17300 47.87000
H  29.98200 -7.42700 49.04900
H  29.35500 -9.02200 49.49500
H  28.43800 -7.50600 50.01200
H  30.68100 -2.53200 46.46700
H  30.51900 -4.18800 46.91200
H  29.98800 -3.06800 48.03100
H  27.65100 -0.78000 42.73200
H  25.96000 3.02100 43.91800
H  25.77600 2.61200 42.14400
H  27.24100 3.42800 42.65200
Mg 46.61100 25.30600 28.59500
C  47.53000 27.22500 31.37500
C  45.83700 22.77100 30.80700
C  45.80200 23.37700 26.06900
C  48.08700 27.53600 26.55300
N  46.65400 25.09100 30.88500
C  46.91100 26.02600 31.79000
C  46.57400 25.60100 33.26300
C  46.03000 24.15700 32.98500
C  46.16400 23.93900 31.44300
C  46.68500 23.04000 33.87100
C  45.58900 26.56600 34.13100
C  45.97100 26.96700 35.58600
H  44.97000 27.53200 36.61400
N  45.90000 23.40600 28.44200
C  45.75300 22.46500 29.39600
C  45.32900 21.20000 28.87000
C  45.17500 21.32100 27.48200
C  45.65700 22.74200 27.26500
C  45.13900 19.94000 29.79300
C  44.70100 20.35100 26.44200
O  44.60700 20.62200 25.27000
C  44.17900 18.93000 26.88900
N  46.95500 25.44500 26.61600
C  46.49800 24.52500 25.72000
C  46.93100 24.82300 24.27600
C  47.45000 26.31400 24.46300
C  47.42900 26.52700 25.95800
C  47.95100 23.81500 23.68200
C  46.60100 27.36900 23.62700
C  47.42100 27.80400 22.39100
N  47.64800 26.99100 28.82500
C  48.10500 27.84600 27.88000
C  48.74400 29.02100 28.50500
C  48.55400 28.75500 29.88400
C  47.88900 27.51100 30.03500
C  49.34800 30.20800 27.87000
C  48.88200 29.22300 31.21900
O  49.50900 30.16300 31.63700
C  48.18000 28.25500 32.20700
C  49.20000 27.74400 33.07200
O  50.00000 26.84600 32.83800
O  49.10100 28.42500 34.26200
C  49.99900 27.78900 35.30700
H  45.56800 21.94800 31.47300
H  45.59000 22.76000 25.19300
H  48.59400 28.34700 26.02600
H  47.54300 25.53700 33.75800
H  44.95400 24.12600 33.15800
H  46.12500 22.10500 33.88300
H  46.72500 23.49900 34.85900
H  47.66700 22.75000 33.49500
H  44.54000 26.27500 34.07800
H  45.57400 27.46500 33.51400
H  46.78200 27.69600 35.57000
H  46.41100 26.08400 36.04900
H  45.62200 20.01900 30.76700
H  45.65100 19.21300 29.16200
H  44.09000 19.64700 29.80500
H  43.32800 18.97900 27.56900
H  44.95900 18.32800 27.35300
H  43.94800 18.39100 25.97000
H  46.07500 24.82400 23.60000
H  48.47800 26.40000 24.11400
H  48.96100 24.20800 23.56300
H  47.61400 23.43400 22.71800
H  47.82800 22.97400 24.36500
H  46.24900 28.19600 24.24400
H  45.66700 26.85300 23.40100
H  47.93100 26.95500 21.93700
H  48.16200 28.54700 22.68600
H  46.88100 28.41200 21.66600
H  50.42800 30.06200 27.86300
H  48.91200 31.04900 28.40900
H  49.02800 30.28600 26.83100
H  47.54300 28.93200 32.77600
H  51.00100 28.00100 34.93400
H  49.80000 26.79500 35.70900
H  50.04200 28.35200 36.24000

