158

Mg 35.76300 1.22100 28.79300
C  33.77800 2.25600 31.50400
C  38.46100 1.24900 30.89000
C  37.68200 0.53200 26.16800
C  32.94000 1.55800 26.69000
N  36.01200 1.66600 30.92500
C  35.09500 1.97300 31.82100
C  35.68400 2.07900 33.21700
C  37.23800 1.99700 32.96400
C  37.25300 1.55800 31.49800
C  38.07900 3.28100 33.23400
C  35.04700 1.02800 34.18200
C  34.75500 1.65500 35.53900
H  35.97800 2.27000 36.27800
N  37.82900 0.88400 28.55000
C  38.72700 0.89200 29.53800
C  39.97700 0.57400 29.00400
C  39.79400 0.21900 27.63800
C  38.38800 0.59300 27.38100
C  41.27600 0.43300 29.86700
C  40.71700 -0.38600 26.54900
O  40.34400 -0.75100 25.44900
C  42.12800 -0.75800 26.96900
N  35.32200 0.90400 26.71900
C  36.35400 0.82500 25.79500
C  35.77100 0.77700 24.29200
C  34.26600 0.99600 24.48300
C  34.19000 1.14400 26.05800
C  36.40000 1.87400 23.34900
C  33.27000 0.00600 24.02100
C  33.54300 -0.73700 22.62800
N  33.80000 1.69000 29.01400
C  32.78000 1.83000 28.07600
C  31.58400 2.39300 28.65800
C  31.93700 2.50800 30.00800
C  33.30600 2.10100 30.17100
C  30.30700 2.64700 27.96300
C  31.37800 2.91500 31.32100
O  30.23800 3.25500 31.66900
C  32.54000 2.76300 32.35100
C  32.80900 4.08200 32.89700
O  33.31600 5.09300 32.28200
O  32.45000 4.10600 34.23400
C  32.66500 5.43700 34.88400
H  39.35700 1.16900 31.51000
H  38.27700 0.33500 25.27300
H  32.08900 1.84500 26.06900
H  35.45700 3.02700 33.70500
H  37.66800 1.15500 33.50600
H  38.67500 3.56800 32.36800
H  38.83700 3.09900 33.99600
H  37.56500 4.18700 33.55400
H  35.70000 0.16800 34.32900
H  34.16900 0.52900 33.77200
H  34.24300 0.96800 36.21300
H  34.07600 2.49100 35.36700
H  41.16400 0.74700 30.90500
H  42.09300 1.04300 29.48300
H  41.57000 -0.61600 29.90000
H  42.74900 -1.23100 26.20800
H  41.91700 -1.47000 27.76700
H  42.56800 0.20000 27.24700
H  35.87200 -0.22700 23.88100
H  34.02600 1.99300 24.11300
H  37.10300 1.33700 22.71300
H  36.92000 2.62700 23.94100
H  35.61400 2.25300 22.69500
H  32.29700 0.49800 24.03000
H  33.18400 -0.78600 24.76400
H  33.71800 -1.81200 22.69100
H  34.46400 -0.32300 22.21700
H  32.76800 -0.52500 21.89200
H  29.85600 1.76300 27.51200
H  30.53600 3.41900 27.22900
H  29.61200 3.12100 28.65600
H  32.15700 2.14700 33.16500
H  32.25300 6.18400 34.20500
H  33.72600 5.49500 35.12400
H  32.09700 5.43800 35.81500
Mg 29.88300 58.37800 39.99100
C  26.93500 56.52500 39.36600
C  31.65800 55.51200 39.07000
C  32.80200 60.19900 40.31600
C  28.04100 61.29800 40.36700
N  29.31400 56.28000 39.33300
C  28.06300 55.81600 39.05000
C  28.07500 54.33500 38.61700
C  29.61300 53.91400 38.61300
C  30.24500 55.30500 38.99600
C  30.01900 52.69000 39.43500
C  27.31400 54.16400 37.21800
C  27.38500 55.36500 36.10900
H  27.40400 54.97900 34.64400
N  31.96200 57.90900 39.82000
C  32.44400 56.65800 39.47900
C  33.87100 56.71500 39.55100
C  34.24100 58.07100 39.80400
C  32.99200 58.83500 40.04500
C  34.78500 55.50300 39.36100
C  35.62100 58.67700 39.85700
O  36.57700 57.90900 39.71100
C  35.89800 60.15800 40.19100
N  30.35000 60.51700 40.36300
C  31.61700 60.98100 40.51800
C  31.59000 62.51300 40.58300
C  30.11500 62.83500 40.82300
C  29.43900 61.46600 40.49300
C  32.55800 63.16300 41.65800
C  29.54600 63.96100 39.95800
C  28.69500 64.81800 40.80800
N  27.89200 58.88200 40.00600
C  27.27400 60.08000 40.23000
C  25.85400 59.80000 40.28900
C  25.64400 58.44900 39.87300
C  26.93000 57.89500 39.78900
C  24.80400 60.83600 40.55300
C  24.65100 57.40300 39.61700
O  23.44300 57.38000 39.66300
C  25.46400 56.14200 39.22000
C  25.10800 55.09900 40.16700
O  25.65300 54.97800 41.28700
O  24.09700 54.29100 39.78400
C  23.40000 53.55100 40.87900
H  32.08000 54.67200 38.51500
H  33.64100 60.89700 40.33900
H  27.47100 62.23000 40.40300
H  27.57300 53.73500 39.37500
H  29.99200 53.75300 37.60300
H  30.84900 52.87000 40.11800
H  30.40800 51.93000 38.75800
H  29.12800 52.34400 39.96000
H  26.28400 53.98500 37.52800
H  27.61200 53.21400 36.77500
H  28.30200 55.92700 36.28500
H  26.62000 56.13400 36.21600
H  35.28100 55.53100 38.39100
H  34.14600 54.62400 39.26600
H  35.46000 55.43700 40.21400
H  35.51300 60.87000 39.46200
H  36.98800 60.19700 40.19700
H  35.51700 60.42100 41.17700
H  31.93100 62.93900 39.64000
H  29.87100 63.08900 41.85400
H  32.06400 63.71800 42.45500
H  33.23000 63.82500 41.11100
H  33.27800 62.50400 42.14300
H  29.00200 63.53600 39.11500
H  30.28700 64.64100 39.53700
H  28.46100 64.37800 41.77700
H  27.66800 64.84400 40.44400
H  29.08500 65.83100 40.90700
H  24.34800 61.29700 39.67600
H  25.20100 61.59400 41.22800
H  23.94200 60.36500 41.02500
H  25.30800 55.82900 38.18800
H  24.08400 52.82900 41.32400
H  22.48400 53.13500 40.46000
H  23.16800 54.31600 41.62000

