158

Mg 40.37300 9.89800 29.00900
C  42.32700 11.18100 31.68400
C  38.11000 8.67900 31.35000
C  38.67600 8.47700 26.55600
C  43.04600 10.60300 26.86100
N  40.32200 9.72300 31.27800
C  41.15100 10.56400 32.08300
C  40.55100 10.52100 33.56600
C  39.41900 9.52000 33.42300
C  39.17600 9.34300 31.95300
C  39.71300 8.14300 34.19500
C  40.11300 11.96600 34.01700
C  40.44500 12.39600 35.48000
H  40.50100 13.94000 35.76700
N  38.62400 8.71700 28.90900
C  37.83600 8.34500 29.98400
C  36.74600 7.47900 29.47100
C  36.80000 7.58400 28.08400
C  38.03700 8.30000 27.77200
C  35.57400 7.02800 30.25800
C  35.77600 7.18100 26.97500
O  35.95500 7.45300 25.86700
C  34.44900 6.53900 27.42200
N  40.73900 9.72600 27.03500
C  39.89800 9.01800 26.24400
C  40.50800 8.74100 24.85300
C  41.92000 9.38900 24.90000
C  41.93100 9.93600 26.34700
C  40.57600 7.28400 24.33400
C  42.19100 10.53000 23.86700
C  41.82100 11.95200 24.27400
N  42.23600 10.80600 29.18000
C  43.23400 11.06600 28.25300
C  44.41700 11.77600 28.82100
C  44.05600 11.90500 30.12700
C  42.74000 11.23200 30.33200
C  45.68400 12.04600 28.14300
C  44.45500 12.34600 31.41400
O  45.53000 12.85000 31.77900
C  43.34700 12.01600 32.43400
C  43.92700 11.44700 33.63100
O  44.26600 10.30000 33.86100
O  43.88800 12.43100 34.59700
C  44.06200 11.83300 35.92200
H  37.41100 8.53000 32.17700
H  38.31100 7.82300 25.76100
H  43.98100 10.70800 26.30700
H  41.29200 10.14000 34.26800
H  38.55700 10.06400 33.81000
H  40.75400 8.04600 34.50200
H  39.63100 7.50200 33.31700
H  39.02000 7.81100 34.96800
H  39.04700 12.12800 33.86200
H  40.61100 12.66100 33.34000
H  41.46300 12.06600 35.68800
H  39.79000 11.82100 36.13500
H  35.80800 7.19800 31.30900
H  35.41900 5.95000 30.22000
H  34.67000 7.56500 29.96900
H  33.70900 7.20100 27.87000
H  34.56300 5.76600 28.18100
H  33.95200 6.03200 26.59500
H  39.91300 9.28500 24.12000
H  42.76100 8.70000 24.83000
H  40.08200 7.36600 23.36500
H  40.02700 6.65500 25.03400
H  41.57000 6.84200 24.39800
H  41.61400 10.36500 22.95800
H  43.27500 10.47800 23.76400
H  41.24100 12.52700 23.55200
H  42.69800 12.50900 24.60400
H  41.13800 11.89800 25.12200
H  45.87100 13.10400 28.32700
H  45.74700 12.13800 27.05900
H  46.45300 11.45500 28.64000
H  42.93100 13.00900 32.60700
H  45.05500 11.39500 36.02100
H  43.37100 11.00500 36.08000
H  43.99700 12.65800 36.63100
Mg 49.04600 45.92900 43.04100
C  45.61600 46.23000 42.00100
C  49.00300 42.76600 41.72600
C  52.35300 46.05400 43.08500
C  48.90800 49.40200 43.62500
N  47.49000 44.68900 41.93400
C  46.17600 44.99100 41.66600
C  45.51900 43.73300 41.13500
C  46.51700 42.62000 41.35500
C  47.74800 43.37400 41.78300
C  46.14500 41.45400 42.32600
C  44.88300 43.80400 39.66000
C  45.94100 44.00700 38.48100
H  45.93300 42.98600 37.41800
N  50.52400 44.53500 42.67600
C  50.26500 43.30100 42.09600
C  51.56200 42.61300 42.10100
C  52.51800 43.44600 42.64900
C  51.81900 44.74000 42.85600
C  51.73400 41.21300 41.85600
C  54.04600 43.19700 42.73200
O  54.41800 42.14200 42.24400
C  54.97800 44.24100 43.28500
N  50.42600 47.60600 43.07700
C  51.73600 47.31500 43.18000
C  52.56500 48.66000 43.28000
C  51.42200 49.73100 43.67400
C  50.16200 48.89800 43.51600
C  53.86700 48.66800 44.14100
C  51.46200 51.06600 42.92700
C  52.40400 51.99600 43.54700
N  47.53500 47.49600 43.11700
C  47.63400 48.83500 43.39100
C  46.29500 49.50300 43.27400
C  45.48000 48.44500 42.69100
C  46.30200 47.27600 42.68200
C  45.91500 50.99000 43.34100
C  44.21100 48.19500 42.16900
O  43.32400 48.96100 41.88100
C  44.19800 46.74300 41.66300
C  43.09500 45.90900 42.18200
O  42.11200 45.49800 41.50800
O  43.22300 45.59400 43.50400
C  42.00300 44.92800 44.04400
H  49.04600 41.70600 41.46800
H  53.43500 46.12900 43.21900
H  48.90500 50.46500 43.87700
H  44.60500 43.58200 41.71000
H  46.85500 42.06300 40.48200
H  45.26900 41.64300 42.94600
H  46.83400 41.29100 43.15600
H  45.90800 40.54700 41.77100
H  44.05200 44.50800 39.71500
H  44.32200 42.88500 39.49100
H  46.90200 43.81800 38.95900
H  46.02900 45.02500 38.10100
H  52.44200 41.12400 41.03300
H  50.82500 40.67400 41.58800
H  52.17700 40.72600 42.72500
H  55.16300 45.01900 42.54400
H  55.90800 43.70200 43.46600
H  54.54500 44.67300 44.18600
H  52.84500 48.83900 42.24200
H  51.44300 49.96800 44.73800
H  53.82300 47.84900 44.85900
H  54.07200 49.56400 44.72700
H  54.70400 48.44500 43.48000
H  50.49600 51.57000 42.89800
H  51.75900 50.93200 41.88700
H  52.90800 51.50700 44.38000
H  51.90200 52.88600 43.92500
H  53.11300 52.35900 42.80200
H  44.94400 51.19200 42.88900
H  46.65100 51.61000 42.82900
H  45.85900 51.27200 44.39300
H  44.00100 46.78400 40.59200
H  42.18100 44.84900 45.11700
H  41.83100 43.93700 43.62300
H  41.05900 45.47200 44.07600

