158

Mg 44.12700 4.97900 47.45600
C  42.03800 7.70900 46.76000
C  41.29000 2.86100 46.99800
C  46.17700 2.43700 47.26100
C  46.86600 7.26600 47.61800
N  41.93800 5.27100 46.85800
C  41.34500 6.51300 46.64300
C  39.84600 6.36400 46.33100
C  39.63300 4.86400 46.85800
C  41.03000 4.28600 46.89100
C  38.97900 4.87100 48.25700
C  39.64000 6.51900 44.80600
C  38.53400 7.52900 44.42200
H  38.47200 8.08900 42.97800
N  43.82000 2.91700 47.07300
C  42.60700 2.22600 47.02300
C  42.90400 0.82200 46.97400
C  44.27400 0.66500 46.90900
C  44.86300 1.98500 47.09000
C  41.84600 -0.20200 46.91400
C  45.02700 -0.66300 46.78600
O  44.39500 -1.69700 46.68400
C  46.50600 -0.77200 46.76800
N  46.26000 4.90100 47.39200
C  46.87600 3.67500 47.43300
C  48.35000 3.75700 47.65400
C  48.59600 5.29100 47.82100
C  47.15900 5.89100 47.59400
C  48.89200 2.78700 48.75900
C  49.60500 5.97200 46.86200
C  50.69300 6.97800 47.32400
N  44.43900 7.03000 47.34600
C  45.59100 7.76600 47.31600
C  45.30300 9.15300 47.15400
C  43.92300 9.21200 46.95100
C  43.43600 7.86700 47.01400
C  46.28800 10.27200 47.05400
C  42.76900 10.05800 46.62800
O  42.65800 11.22300 46.44300
C  41.46500 9.06100 46.54800
C  40.67300 9.50100 47.82600
O  40.60400 8.91000 48.89200
O  39.85200 10.53100 47.53100
C  38.84900 10.94100 48.46800
H  40.33400 2.34500 46.89000
H  46.91500 1.63800 47.36000
H  47.70800 7.92800 47.82700
H  39.28800 7.17800 46.79300
H  39.00500 4.25700 46.20600
H  38.53600 5.84900 48.44200
H  39.69600 4.42700 48.94800
H  38.17900 4.14600 48.10700
H  39.32400 5.59300 44.32700
H  40.52100 6.87500 44.27100
H  38.20500 8.35100 45.05900
H  37.61300 6.94700 44.39700
H  41.87400 -0.76400 45.98000
H  40.92500 0.37700 46.97000
H  41.92100 -0.92500 47.72700
H  46.92000 -0.33000 45.86200
H  46.75100 -1.83200 46.83400
H  46.82200 -0.20400 47.64300
H  48.73900 3.39800 46.70100
H  48.81300 5.44400 48.87800
H  49.36400 1.94800 48.24800
H  48.05100 2.42400 49.34900
H  49.71300 3.20000 49.34600
H  48.98000 6.41800 46.08800
H  50.18900 5.29700 46.23600
H  50.59400 7.92300 46.79100
H  51.69500 6.60100 47.11800
H  50.57000 7.17400 48.38900
H  45.90000 11.00700 46.35000
H  47.25100 9.88100 46.72700
H  46.56600 10.77800 47.97900
H  40.75300 9.14500 45.72700
H  37.94100 10.89500 47.86600
H  39.02000 11.93400 48.88300
H  38.60400 10.20100 49.23000
Mg -1.86800 34.07900 26.89800
C  -3.89900 32.43300 29.48000
C  -0.35300 35.86000 29.46600
C  -0.42800 35.84400 24.57300
C  -3.93800 32.48100 24.53800
N  -2.20600 34.14300 29.18600
C  -3.00200 33.38700 30.03600
C  -2.70700 33.65300 31.50800
C  -1.77700 34.96300 31.40700
C  -1.40500 34.99000 29.92500
C  -2.38100 36.40600 31.92900
C  -2.13600 32.37100 32.13600
C  -2.96200 31.93000 33.30500
H  -2.14900 31.71400 34.60600
N  -0.45300 35.57400 26.98700
C  0.07900 36.10700 28.06900
C  1.14800 37.04500 27.71500
C  1.10400 37.07100 26.28900
C  -0.03800 36.20200 25.89000
C  1.99400 37.79300 28.68900
C  1.99500 37.80300 25.34100
O  1.67800 38.04400 24.17700
C  3.31600 38.31900 25.82300
N  -2.24100 34.21900 24.85100
C  -1.45400 35.02000 24.11900
C  -1.86500 34.87600 22.59300
C  -2.69100 33.61700 22.60400
C  -2.99700 33.39800 24.07900
C  -2.55100 36.11300 22.01100
C  -1.97200 32.47300 21.94000
C  -0.81200 31.72900 22.62100
N  -3.51200 32.68500 26.96100
C  -4.19800 32.12500 25.87100
C  -5.19900 31.22900 26.42400
C  -5.12500 31.33600 27.77800
C  -4.06600 32.26600 28.09800
C  -6.19700 30.41000 25.72800
C  -5.67500 30.82600 29.01300
O  -6.47100 29.92500 29.21800
C  -4.95800 31.59600 30.12500
C  -5.99900 32.37900 30.93100
O  -6.51900 33.46300 30.67400
O  -6.32600 31.72200 32.01800
C  -7.39500 32.24400 32.90100
H  0.25300 36.40000 30.19700
H  0.03000 36.45800 23.79400
H  -4.58200 31.97200 23.81800
H  -3.58200 34.04700 32.02600
H  -0.84300 34.71700 31.91200
H  -2.57600 37.08800 31.10100
H  -1.74000 36.89500 32.66300
H  -3.38900 36.25000 32.31200
H  -1.13700 32.39900 32.57200
H  -2.16600 31.48900 31.49600
H  -3.60100 31.05600 33.18100
H  -3.63700 32.76100 33.51000
H  1.42800 37.96800 29.60500
H  2.54500 38.69000 28.41000
H  2.68900 36.98900 28.93200
H  3.04500 39.19500 26.41300
H  3.96400 38.63800 25.00700
H  3.77100 37.66100 26.56300
H  -0.87700 34.71800 22.16000
H  -3.67500 33.63800 22.13600
H  -3.23400 35.65700 21.29500
H  -1.81600 36.74700 21.51500
H  -3.03400 36.61800 22.84700
H  -1.54700 32.85300 21.01100
H  -2.76700 31.76100 21.71700
H  -0.42800 32.49700 23.29200
H  -0.09300 31.33800 21.90100
H  -1.16200 30.86700 23.18800
H  -7.23300 30.65500 25.96100
H  -6.15800 29.35600 26.00500
H  -6.05200 30.52500 24.65400
H  -4.52500 30.84700 30.78700
H  -8.23600 32.69000 32.36800
H  -7.01900 32.96200 33.62900
H  -7.77200 31.35200 33.40000

