158

Mg 34.69200 49.56700 25.73400
C  34.54100 47.94800 28.98900
C  33.31000 52.36000 27.33700
C  34.11900 50.88000 22.74700
C  35.52300 46.56800 24.25900
N  33.99200 50.07800 27.87800
C  34.06500 49.33500 29.04300
C  33.76500 50.10400 30.33900
C  33.19100 51.45300 29.78800
C  33.38900 51.26200 28.22600
C  31.71700 51.73300 30.06300
C  35.00000 50.15300 31.28600
C  34.85800 49.46600 32.59900
H  33.55900 49.64600 33.38900
N  34.07100 51.43900 25.15900
C  33.57200 52.43900 25.96900
C  33.37600 53.57800 25.13800
C  33.57000 53.19000 23.79200
C  33.85500 51.76600 23.84900
C  32.98100 54.93100 25.63000
C  33.51900 54.05100 22.52000
O  33.59800 53.64700 21.40200
C  33.32600 55.51000 22.62700
N  34.60300 48.78500 23.79700
C  34.45400 49.54100 22.70300
C  34.96500 48.87500 21.40500
C  35.43800 47.51300 21.93200
C  35.24300 47.65600 23.42200
C  33.94200 48.91700 20.29200
C  36.80000 47.05400 21.35600
C  38.02300 47.63200 22.09100
N  34.90000 47.60400 26.45000
C  35.27600 46.49800 25.69400
C  35.53400 45.35000 26.61800
C  35.21100 45.91600 27.89200
C  34.90900 47.26100 27.75200
C  35.98200 43.93800 26.33400
C  35.12500 45.57000 29.29300
O  35.37300 44.51400 29.87400
C  34.64100 46.88200 30.03400
C  33.46800 46.68600 30.92400
O  32.36000 47.12100 30.70600
O  33.76300 45.81100 31.90200
C  32.67400 45.48400 32.88900
H  33.23100 53.30800 27.87400
H  34.14500 51.36900 21.77100
H  35.87900 45.73300 23.65100
H  32.98000 49.60400 30.90600
H  33.72700 52.27700 30.26000
H  31.34600 51.06200 30.83800
H  30.94900 51.68600 29.29100
H  31.63900 52.74800 30.45300
H  35.32500 51.18700 31.40700
H  35.76800 49.81200 30.59300
H  35.70200 49.75400 33.22600
H  34.92500 48.39000 32.43800
H  33.82100 55.61400 25.50400
H  32.84200 54.91300 26.71100
H  31.99500 55.15100 25.22100
H  32.29900 55.77000 22.88200
H  33.46700 55.93400 21.63300
H  34.14800 55.99800 23.15100
H  35.77100 49.42100 20.91500
H  34.73100 46.77500 21.55300
H  32.94900 49.27600 20.56500
H  33.82900 47.96900 19.76600
H  34.29800 49.53200 19.46600
H  36.80200 47.41100 20.32600
H  36.93500 45.97700 21.26000
H  38.63800 46.77400 22.36300
H  37.85900 48.21900 22.99500
H  38.63000 48.04600 21.28700
H  35.48000 43.41000 25.52400
H  35.93500 43.21800 27.15200
H  37.04000 43.93500 26.07200
H  35.48200 47.20400 30.64800
H  33.21700 45.24800 33.80400
H  32.15600 44.64200 32.43000
H  31.98700 46.25100 33.24700
Mg -2.37700 34.33000 26.90500
C  -3.15900 32.52100 29.68700
C  -0.67700 36.63600 28.82600
C  -1.78200 36.11500 24.06200
C  -4.06800 32.00600 24.97200
N  -2.01300 34.56900 29.00700
C  -2.32800 33.61400 29.96000
C  -1.87800 34.05000 31.35700
C  -1.30600 35.53300 31.12200
C  -1.21700 35.55000 29.59000
C  -2.19900 36.69100 31.67100
C  -0.98000 33.10100 32.17200
C  -1.42100 32.56800 33.57000
H  -0.34000 32.42400 34.68300
N  -1.45200 36.09200 26.47900
C  -0.79800 36.85000 27.37500
C  -0.21600 37.96800 26.66700
C  -0.63400 37.96400 25.33800
C  -1.33600 36.65400 25.24000
C  0.65300 38.90700 27.36300
C  -0.59000 39.03300 24.20200
O  -1.01300 38.90200 23.08100
C  -0.09100 40.33900 24.55100
N  -3.04300 34.19700 24.83700
C  -2.55400 35.02400 23.85100
C  -2.99400 34.61200 22.45700
C  -3.67800 33.24400 22.73000
C  -3.62600 33.10600 24.28300
C  -3.94000 35.67300 21.78000
C  -3.13500 32.16400 21.76900
C  -1.82200 31.58500 22.27900
N  -3.57600 32.75300 27.24900
C  -4.14100 31.79200 26.37200
C  -4.78600 30.69900 27.07500
C  -4.52900 31.05300 28.42500
C  -3.63300 32.13900 28.45200
C  -5.74000 29.65800 26.59000
C  -4.75300 30.57800 29.73300
O  -5.40500 29.63200 30.19800
C  -3.84500 31.53700 30.66700
C  -4.69900 32.25900 31.63100
O  -5.27900 33.31600 31.35400
O  -4.63900 31.67700 32.85900
C  -5.29500 32.43400 33.99300
H  -0.21300 37.39800 29.45600
H  -1.28000 36.37600 23.12900
H  -4.49700 31.26100 24.29900
H  -2.78400 34.18900 31.94700
H  -0.31800 35.53100 31.58100
H  -2.48500 37.44000 30.93200
H  -1.57100 37.08200 32.47100
H  -3.05100 36.32900 32.24500
H  0.00400 33.48900 32.43600
H  -0.88500 32.30200 31.43700
H  -1.73500 31.57400 33.25000
H  -2.36800 33.00700 33.88300
H  0.22500 39.89800 27.21000
H  1.62800 39.04200 26.89500
H  0.78900 38.79900 28.43900
H  0.98900 40.26200 24.67400
H  -0.55500 40.68700 25.47300
H  -0.27100 41.05600 23.75000
H  -2.05000 34.44100 21.93800
H  -4.72500 33.40900 22.47500
H  -4.22900 36.42900 22.51000
H  -4.82200 35.19200 21.35700
H  -3.33600 36.13300 20.99800
H  -3.03400 32.50700 20.74000
H  -3.87600 31.36500 21.74500
H  -1.73900 30.51500 22.08700
H  -1.51600 31.74600 23.31300
H  -1.00200 31.96600 21.67100
H  -5.43900 28.75300 27.11900
H  -5.66700 29.53800 25.50900
H  -6.70400 30.04500 26.92000
H  -3.18700 30.80500 31.13500
H  -4.65000 33.29300 34.17900
H  -5.51100 31.75500 34.81800
H  -6.24200 32.87700 33.68500

