158

Mg -2.90500 16.63300 26.21300
C  -2.95000 14.23400 28.88900
C  -3.37000 19.08600 28.50900
C  -2.62200 18.78100 23.66100
C  -2.69200 13.95200 23.97100
N  -3.12300 16.60900 28.45600
C  -3.15800 15.55700 29.36500
C  -3.46100 16.03500 30.75700
C  -3.85700 17.55900 30.53700
C  -3.47400 17.73700 29.03700
C  -5.24500 18.09100 30.95700
C  -2.35700 15.63100 31.78900
C  -1.97800 16.67600 32.85000
H  -1.46000 16.05500 34.19000
N  -2.95100 18.65400 26.13900
C  -3.19800 19.53500 27.19900
C  -2.99900 20.93600 26.75400
C  -2.80200 20.81500 25.30500
C  -2.75700 19.38600 24.97700
C  -3.17800 22.15900 27.67500
C  -2.69400 21.97900 24.34100
O  -2.63900 21.73200 23.15900
C  -2.46500 23.35200 24.73000
N  -2.68900 16.43700 24.15800
C  -2.56900 17.46300 23.28000
C  -2.54000 16.93100 21.82600
C  -2.30600 15.42500 21.98500
C  -2.57300 15.24300 23.44800
C  -3.87200 17.09100 21.05400
C  -0.89400 14.86300 21.56700
C  -0.93000 13.53200 20.80100
N  -3.06500 14.57500 26.29800
C  -2.94000 13.67500 25.28000
C  -2.99800 12.34300 25.82700
C  -2.90900 12.51300 27.22400
C  -2.96300 13.90600 27.46200
C  -2.96600 11.04500 25.03900
C  -2.90900 11.75800 28.53200
O  -2.99400 10.53600 28.66300
C  -2.73900 12.83900 29.62600
C  -1.47700 12.66500 30.45900
O  -0.41100 13.24900 30.33800
O  -1.68700 11.60700 31.30200
C  -0.66500 11.42400 32.33600
H  -3.45800 19.79300 29.33700
H  -2.48100 19.40500 22.77700
H  -2.73100 13.13600 23.24700
H  -4.41500 15.60100 31.05700
H  -3.12400 18.10700 31.12800
H  -5.68700 18.55100 30.07300
H  -5.15200 18.83700 31.74600
H  -5.85400 17.28400 31.36400
H  -1.54300 15.32600 31.13100
H  -2.56800 14.67300 32.26300
H  -2.81400 17.36700 32.96400
H  -1.08600 17.25900 32.62400
H  -3.00900 21.84700 28.70600
H  -4.10100 22.72900 27.57400
H  -2.40600 22.91000 27.50100
H  -3.23700 23.63800 25.44500
H  -2.52600 23.99900 23.85500
H  -1.41600 23.44300 25.01400
H  -1.70400 17.47400 21.38600
H  -3.00900 14.87000 21.36400
H  -4.29900 18.03900 21.38100
H  -4.61700 16.33300 21.29500
H  -3.68000 16.95600 19.99000
H  -0.24200 14.80600 22.43900
H  -0.47200 15.62700 20.91500
H  -0.47500 13.74100 19.83300
H  -1.94600 13.15200 20.69200
H  -0.34200 12.79700 21.35100
H  -2.09500 11.24200 24.41400
H  -3.88900 10.97100 24.46400
H  -2.69900 10.16700 25.62700
H  -3.52700 12.56700 30.32800
H  -0.23600 10.45400 32.08100
H  -1.15500 11.21000 33.28500
H  0.16000 12.13600 32.34300
Mg 36.85000 50.29500 25.31900
C  37.12500 48.33700 28.28300
C  35.85600 52.94200 27.12700
C  36.09600 51.83600 22.41800
C  38.06200 47.59700 23.52200
N  36.41100 50.49800 27.50500
C  36.73600 49.65600 28.53600
C  36.54100 50.36400 29.92700
C  36.20200 51.80600 29.47200
C  36.12500 51.77100 27.94800
C  34.89800 52.43600 30.04800
C  37.89000 50.31600 30.85300
C  37.81400 49.60300 32.18900
H  36.52900 49.63800 33.01500
N  36.12100 52.15400 24.84000
C  35.78300 53.11600 25.75100
C  35.35100 54.30900 24.99500
C  35.32600 53.96600 23.61100
C  35.91100 52.66700 23.55300
C  34.79000 55.48000 25.71800
C  34.86500 54.74500 22.36700
O  34.99000 54.26800 21.28300
C  34.30900 56.09800 22.51800
N  36.93800 49.68400 23.24800
C  36.57800 50.52700 22.24800
C  37.09000 49.99100 20.85400
C  37.91500 48.66200 21.25900
C  37.63000 48.64500 22.74300
C  35.93200 49.74100 19.90400
C  39.45300 48.52400 21.04200
C  40.09500 47.16600 20.67500
N  37.48400 48.38300 25.75900
C  37.87400 47.40000 24.89800
C  38.31500 46.25900 25.70300
C  37.94900 46.59100 27.02400
C  37.43200 47.85100 27.02100
C  39.02800 44.98300 25.25000
C  38.09100 46.11900 28.36900
O  38.51100 45.12000 28.87900
C  37.48600 47.23000 29.24900
C  36.31600 46.76200 29.99300
O  35.13400 47.07000 29.76900
O  36.66900 46.08000 31.09500
C  35.73400 45.57600 32.01000
H  35.49700 53.69500 27.83200
H  36.00800 52.28700 21.42700
H  38.38100 46.72200 22.95100
H  35.68400 49.97300 30.47500
H  36.98000 52.51100 29.76500
H  34.98600 53.44000 30.46300
H  34.55500 51.81400 30.87500
H  34.12200 52.42000 29.28200
H  38.18100 51.34300 31.07300
H  38.67800 49.84500 30.26500
H  38.53000 50.09000 32.85000
H  38.13700 48.57200 32.04900
H  35.04200 56.32400 25.07700
H  35.40000 55.74200 26.58200
H  33.74200 55.34400 25.98600
H  34.04000 56.42100 21.51200
H  35.06200 56.83300 22.80400
H  33.44000 56.24300 23.15900
H  37.87900 50.68100 20.55800
H  37.34900 47.79300 20.92200
H  35.38700 50.66900 19.73500
H  35.23800 49.00900 20.31700
H  36.29000 49.38600 18.93800
H  39.78800 48.80800 22.04000
H  39.76200 49.29300 20.33500
H  40.70700 47.38600 19.80000
H  39.29600 46.45700 20.45900
H  40.77200 46.87800 21.47900
H  39.89300 44.82000 25.89300
H  39.47300 45.13200 24.26600
H  38.41500 44.08400 25.29800
H  38.23500 47.51700 29.98600
H  35.18400 44.81600 31.45500
H  35.05400 46.34100 32.38600
H  36.24600 45.06300 32.82400

