158

Mg 17.18200 -2.16400 27.16200
C  16.32400 0.19900 29.67500
C  19.01200 -3.88000 29.47200
C  18.32800 -3.97400 24.66100
C  16.00500 0.31600 24.80200
N  17.51700 -1.94200 29.29400
C  17.12500 -0.86600 30.11700
C  17.58800 -1.15000 31.54300
C  18.54000 -2.37700 31.39500
C  18.32900 -2.75800 29.91300
C  20.04100 -2.22400 31.78200
C  16.40500 -1.50100 32.55700
C  16.50800 -0.94000 34.03400
H  17.93800 -0.59700 34.50900
N  18.32900 -3.79700 27.04000
C  19.00900 -4.36400 28.13300
C  19.58900 -5.67500 27.79600
C  19.53800 -5.60200 26.31600
C  18.71500 -4.46100 25.94800
C  20.27600 -6.52800 28.76500
C  20.31600 -6.45400 25.38200
O  20.30100 -6.33800 24.17500
C  21.12600 -7.65700 25.93000
N  17.21200 -1.85700 25.05100
C  17.71400 -2.79200 24.22200
C  17.65800 -2.26600 22.73800
C  16.82400 -0.99900 22.86700
C  16.67900 -0.82000 24.35500
C  19.09100 -1.99200 22.19000
C  15.47400 -1.19600 22.09900
C  15.21600 -0.15500 20.96700
N  16.21900 -0.25400 27.22300
C  15.75000 0.56200 26.16800
C  15.12600 1.71700 26.73000
C  15.23900 1.59100 28.16200
C  15.92100 0.37300 28.39600
C  14.35700 2.75800 26.02700
C  15.06300 2.24800 29.46900
O  14.56100 3.32500 29.73500
C  15.72500 1.32900 30.54500
C  16.69500 2.08500 31.41100
O  17.78100 2.55100 31.09500
O  16.12400 2.25800 32.63900
C  16.84000 3.18300 33.53000
H  19.53400 -4.44600 30.24600
H  18.66100 -4.66900 23.88800
H  15.67800 1.06600 24.07800
H  18.23700 -0.30500 31.77200
H  18.14500 -3.15500 32.04800
H  20.34100 -3.15500 32.26300
H  20.15400 -1.38300 32.46700
H  20.70900 -2.05000 30.93900
H  16.24700 -2.56500 32.73200
H  15.49600 -1.09600 32.11100
H  16.13400 -1.57100 34.84100
H  15.93500 -0.01300 34.04400
H  20.58400 -7.52600 28.45200
H  19.62200 -6.69800 29.62000
H  21.19100 -6.06300 29.13200
H  21.53800 -8.13300 25.04000
H  20.48000 -8.36400 26.45100
H  21.90900 -7.27900 26.58700
H  17.18500 -2.99900 22.08500
H  17.14800 -0.01900 22.51800
H  19.93800 -1.99200 22.87600
H  19.12400 -0.96800 21.81700
H  19.41300 -2.69500 21.42100
H  14.60600 -1.12500 22.75500
H  15.43600 -2.11700 21.51600
H  16.19000 0.06300 20.53000
H  14.70500 0.76300 21.25700
H  14.55400 -0.54700 20.19500
H  13.98900 2.39700 25.06700
H  14.89500 3.69900 25.90900
H  13.43100 2.96700 26.56400
H  14.88300 0.94700 31.12100
H  16.25100 3.49800 34.39100
H  17.33300 4.03400 33.05900
H  17.66200 2.77700 34.12000
Mg 26.09900 49.37800 25.93400
C  24.13400 51.01200 28.36200
C  28.57900 48.95000 28.20500
C  28.12700 48.48100 23.43300
C  23.69800 50.51700 23.45600
N  26.27700 49.79000 28.05700
C  25.28100 50.36800 28.80300
C  25.61400 50.16800 30.25800
C  27.19200 49.79200 30.15500
C  27.44400 49.56100 28.72100
C  28.22000 50.77500 30.78100
C  24.67200 49.19000 31.10100
C  24.11000 49.76800 32.40100
H  25.13800 50.11800 33.46800
N  28.02800 48.62000 25.84200
C  28.92900 48.56500 26.85000
C  30.14200 47.99400 26.41800
C  30.05400 47.95500 24.99100
C  28.68700 48.38300 24.65800
C  31.31100 47.74100 27.38000
C  31.22400 47.69000 23.95300
O  30.98200 47.78900 22.75400
C  32.57900 47.45300 24.38500
N  25.89900 49.54100 23.78700
C  26.84900 48.90900 22.98800
C  26.40000 48.92700 21.46800
C  24.90500 49.42900 21.58700
C  24.78000 49.82000 23.02200
C  27.33800 49.81600 20.58400
C  23.87500 48.23100 21.33300
C  23.93200 46.95100 22.24600
N  24.31100 50.55700 25.89100
C  23.41800 50.85100 24.85400
C  22.33600 51.61900 25.44400
C  22.52600 51.66400 26.79500
C  23.76800 51.10400 27.03200
C  21.19300 52.12800 24.68600
C  21.96900 52.08800 28.03800
O  20.93500 52.68500 28.19600
C  22.90400 51.51800 29.12700
C  23.28300 52.61700 30.07900
O  24.35000 53.19100 30.13800
O  22.42500 52.60800 31.13600
C  22.80500 53.52900 32.22300
H  29.37200 48.74800 28.92800
H  28.74900 48.11900 22.61100
H  23.08900 50.92400 22.64600
H  25.57800 51.14000 30.75000
H  27.27300 48.85600 30.70800
H  27.68200 51.36700 31.52100
H  28.85400 51.28800 30.05700
H  28.88300 50.14900 31.37800
H  25.34000 48.36500 31.34700
H  23.75800 48.85300 30.61100
H  23.40500 49.06300 32.84000
H  23.62200 50.71200 32.15800
H  31.90800 46.94700 26.93200
H  31.07200 47.36800 28.37600
H  31.89100 48.65000 27.54000
H  33.13800 47.70200 23.48300
H  32.62100 46.38400 24.59300
H  32.85400 48.09800 25.22000
H  26.48100 47.92100 21.05600
H  24.74100 50.30800 20.96400
H  28.34200 49.73800 20.99900
H  26.91400 50.81700 20.50500
H  27.26600 49.30400 19.62400
H  24.04900 47.84000 20.33000
H  22.86000 48.63000 21.33000
H  23.96900 46.12600 21.53500
H  23.01500 46.82700 22.82100
H  24.78600 46.93300 22.92400
H  21.57500 52.99600 24.14700
H  20.35800 52.38900 25.33600
H  20.96500 51.37000 23.93700
H  22.44900 50.85100 29.86000
H  23.40000 52.95500 32.93300
H  21.88600 53.77500 32.75400
H  23.36000 54.44600 32.02600

