158

Mg 48.47600 34.95200 27.22800
C  46.78500 33.47400 29.91500
C  49.36700 37.61100 29.24100
C  49.72900 36.46400 24.46700
C  47.34200 32.28700 25.20500
N  48.11800 35.44300 29.33800
C  47.60600 34.57300 30.28300
C  47.79800 35.13200 31.67900
C  48.19800 36.60600 31.37700
C  48.63900 36.56700 29.90100
C  47.18300 37.71600 31.67800
C  48.95800 34.37500 32.44600
C  48.85000 34.25400 33.93600
H  47.90800 35.16000 34.78400
N  49.53300 36.76400 26.93800
C  49.79900 37.69900 27.88400
C  50.54900 38.68700 27.28400
C  50.81800 38.33100 25.98700
C  49.92900 37.23900 25.70700
C  51.12900 39.76200 28.06200
C  51.77700 38.96600 24.90100
O  51.93800 38.45100 23.81000
C  52.55100 40.15900 25.37400
N  48.34600 34.52300 25.06300
C  48.95000 35.32600 24.17500
C  48.89600 34.74200 22.74600
C  48.30100 33.32700 22.94000
C  48.03200 33.34200 24.55200
C  48.24000 35.66900 21.70200
C  49.10100 32.10300 22.42300
C  50.01300 31.43100 23.41100
N  47.14000 33.29100 27.47500
C  46.91100 32.23900 26.57600
C  46.08900 31.29000 27.25800
C  45.95300 31.77600 28.53400
C  46.64700 32.97600 28.61200
C  45.62600 29.97900 26.62000
C  45.34900 31.52100 29.75900
O  44.68200 30.54800 30.13600
C  45.80300 32.61900 30.72200
C  46.40000 31.90000 31.94600
O  47.46800 31.37200 32.02200
O  45.45300 31.81300 32.93200
C  45.87100 30.97600 34.18100
H  49.62800 38.42600 29.91900
H  50.03600 36.96000 23.54300
H  47.04400 31.40200 24.63800
H  46.87300 35.02400 32.24600
H  49.18700 36.79700 31.79300
H  46.42200 37.38300 32.38500
H  46.61500 37.90500 30.76700
H  47.71200 38.52200 32.18800
H  49.90500 34.78900 32.09900
H  48.94000 33.33100 32.13200
H  49.80300 34.19100 34.46300
H  48.41600 33.26000 34.03600
H  50.65800 40.67600 27.70300
H  52.21000 39.83200 27.94100
H  50.99400 39.78600 29.14400
H  53.18600 40.51300 24.56300
H  53.22500 40.05500 26.22500
H  51.77500 40.89800 25.57400
H  49.95400 34.59100 22.53100
H  47.29100 33.36100 22.53000
H  47.41300 35.17400 21.19200
H  49.00000 36.09600 21.04700
H  47.65600 36.49100 22.11600
H  49.68400 32.57500 21.63200
H  48.34700 31.37200 22.13100
H  50.99000 31.48000 22.93000
H  49.63200 30.42800 23.59900
H  50.12900 32.05700 24.29600
H  46.14800 29.08500 26.95900
H  45.83800 29.92100 25.55200
H  44.55500 29.81200 26.73900
H  44.95200 33.19200 31.09000
H  46.85200 31.27000 34.55400
H  45.88500 29.93300 33.86400
H  45.21700 30.85600 35.04400
Mg 1.50900 42.58000 25.38200
C  2.48000 42.96200 28.78400
C  -1.71100 41.73000 26.46700
C  0.59300 41.94000 22.15300
C  4.68400 43.36800 24.43600
N  0.61700 42.24600 27.48500
C  1.13300 42.54000 28.70600
C  0.07200 42.30800 29.88000
C  -1.19800 41.76800 29.09800
C  -0.78400 41.98500 27.54100
C  -1.60900 40.28400 29.35100
C  -0.27700 43.57200 30.76300
C  0.15500 43.48900 32.22800
H  -0.88500 43.52500 33.40600
N  -0.33000 41.99700 24.46900
C  -1.50700 41.71500 25.10000
C  -2.51700 41.46900 24.00400
C  -1.82100 41.56300 22.74000
C  -0.49000 41.91600 23.06600
C  -3.96700 41.20100 24.37400
C  -2.35500 41.41300 21.35800
O  -1.73300 41.61200 20.35100
C  -3.70500 40.76900 21.20000
N  2.48300 42.63900 23.60100
C  1.92500 42.25100 22.42200
C  2.95000 42.25400 21.28600
C  4.25600 42.68800 21.98900
C  3.75500 43.01700 23.46700
C  3.08100 40.83000 20.60500
C  5.03200 43.79900 21.23700
C  4.39300 45.20600 21.05700
N  3.29200 43.01100 26.35700
C  4.53000 43.30100 25.87200
C  5.42600 43.50800 26.93800
C  4.67100 43.36800 28.05300
C  3.33700 43.09700 27.70100
C  6.85100 43.80700 26.86400
C  4.74500 43.47700 29.44500
O  5.74400 43.64900 30.18500
C  3.31000 43.15300 29.99700
C  3.31400 41.93500 30.75100
O  3.28300 40.79500 30.30800
O  3.25800 42.20700 32.09700
C  3.40900 41.13000 33.09600
H  -2.67100 41.39700 26.86700
H  0.35900 41.65000 21.12600
H  5.72000 43.47900 24.11100
H  0.43400 41.48100 30.49000
H  -2.11000 42.35400 29.21200
H  -1.15800 39.96100 30.28900
H  -1.22100 39.69000 28.52300
H  -2.69000 40.13900 29.33500
H  -1.35600 43.70300 30.84200
H  0.07500 44.45300 30.22700
H  0.68600 44.43000 32.37000
H  0.78500 42.60000 32.27300
H  -4.17200 40.22500 24.81400
H  -4.70600 41.35600 23.58900
H  -4.21300 41.97800 25.09800
H  -3.90000 39.82000 21.70100
H  -3.72200 40.56300 20.12900
H  -4.47100 41.49400 21.47300
H  2.81800 42.89000 20.41100
H  4.87800 41.79400 22.02900
H  3.61200 40.22300 21.33900
H  3.67100 40.99900 19.70400
H  2.08000 40.49100 20.33900
H  5.25600 43.45000 20.22900
H  5.93400 43.96300 21.82700
H  3.37700 45.35700 21.41900
H  4.44500 45.46300 19.99800
H  4.98100 45.96600 21.57200
H  7.15200 44.60300 27.54600
H  7.05200 44.06100 25.82300
H  7.31000 42.88600 27.22200
H  2.99300 43.86400 30.75900
H  2.67900 41.27700 33.89200
H  4.40500 41.18900 33.53300
H  3.35400 40.08000 32.80600

