158

Mg 1.20000 8.05300 25.41700
C  2.02200 9.75900 28.36500
C  1.74300 5.01200 27.27400
C  0.40500 6.37100 22.80400
C  1.47800 11.04800 23.71700
N  1.94900 7.42100 27.53400
C  1.95900 8.32700 28.59400
C  2.10800 7.67700 29.99300
C  2.13700 6.14500 29.59500
C  1.91700 6.16500 28.02800
C  3.42200 5.25900 30.03100
C  0.96200 8.08200 30.96200
C  1.40600 8.26500 32.47100
H  2.55300 7.56200 33.01800
N  1.19100 6.01700 25.04800
C  1.49600 4.92300 25.91000
C  1.23800 3.69200 25.19000
C  0.70100 4.02800 23.91800
C  0.73000 5.56400 23.89000
C  1.52600 2.33700 25.80600
C  0.25000 3.17200 22.75800
O  -0.11800 3.62300 21.66700
C  0.04500 1.67100 22.93600
N  1.14100 8.61800 23.45100
C  0.60100 7.74400 22.57300
C  0.35300 8.46100 21.19900
C  0.63600 10.00800 21.54800
C  1.18600 9.90100 22.97100
C  1.19700 7.83400 20.06300
C  -0.68500 10.87500 21.42700
C  -1.82400 10.29900 22.23600
N  1.68200 10.02600 25.89200
C  1.73300 11.13200 25.13100
C  1.99100 12.29500 25.87900
C  2.14300 11.82200 27.15900
C  1.90000 10.42700 27.12100
C  2.16000 13.71900 25.37300
C  2.43400 12.21800 28.53500
O  2.78900 13.29500 28.91700
C  2.11300 10.91800 29.40300
C  3.29900 10.81400 30.29400
O  4.39700 10.24000 30.14500
O  3.03100 11.46200 31.45800
C  4.12700 11.41400 32.43300
H  1.74100 4.03000 27.75400
H  -0.01200 5.88300 21.92000
H  1.45400 12.01800 23.21800
H  3.12700 7.87200 30.32900
H  1.20000 5.74000 29.97800
H  2.92100 4.37600 30.42800
H  3.95400 5.77300 30.83100
H  4.15000 4.89600 29.30500
H  0.06500 7.47100 30.85900
H  0.69500 9.08900 30.64100
H  0.52400 7.97600 33.04300
H  1.47900 9.32900 32.69700
H  1.21200 1.53200 25.14100
H  0.68600 2.32900 26.50100
H  2.50300 2.19900 26.27000
H  -0.47800 1.43400 23.86300
H  1.05400 1.26600 22.86700
H  -0.62900 1.27000 22.18000
H  -0.63800 8.34100 20.76200
H  1.41500 10.46600 20.93800
H  1.73500 8.60000 19.50600
H  0.55500 7.41000 19.29100
H  1.89000 7.07300 20.42100
H  -0.99000 11.04100 20.39400
H  -0.49100 11.92000 21.66900
H  -2.23300 11.16500 22.75700
H  -1.60900 9.48300 22.92500
H  -2.56600 9.91900 21.53400
H  2.76900 13.84400 24.47800
H  2.69000 14.46100 25.96900
H  1.17700 14.14600 25.17100
H  1.23600 11.13400 30.01300
H  5.09900 11.55800 31.96200
H  4.02600 10.44100 32.91600
H  3.95800 12.08400 33.27500
Mg 42.31200 40.93100 27.63000
C  41.09100 43.06600 30.07500
C  42.71400 38.61400 29.96000
C  43.21300 39.06400 25.13300
C  41.70900 43.52100 25.22700
N  42.03300 40.86200 29.77600
C  41.46900 41.83400 30.59900
C  41.53800 41.50300 32.02500
C  42.34800 40.15500 31.98100
C  42.37400 39.83000 30.52700
C  43.65700 40.10200 32.74500
C  40.13300 41.38100 32.67700
C  39.87700 42.38600 33.89800
H  39.24300 41.83300 35.13500
N  42.93600 39.05600 27.62400
C  43.01500 38.17400 28.67300
C  43.44200 36.88500 28.11000
C  43.78000 37.10200 26.74400
C  43.30700 38.44100 26.42500
C  43.60800 35.70400 28.99000
C  44.40900 36.07400 25.70800
O  44.68400 36.47600 24.56600
C  44.77600 34.65100 26.09600
N  42.61300 41.32000 25.50100
C  42.89300 40.30300 24.67900
C  42.88400 40.63800 23.19900
C  42.10200 42.00300 23.26100
C  42.19400 42.32200 24.74900
C  44.29900 40.61700 22.46300
C  40.67300 41.84300 22.67800
C  39.79600 40.65500 23.20700
N  41.65500 42.86200 27.60600
C  41.49300 43.79000 26.52400
C  41.01600 45.05300 27.09200
C  40.78100 44.79200 28.47300
C  41.24200 43.49900 28.74500
C  40.96800 46.31500 26.36100
C  40.30100 45.33600 29.76100
O  39.74000 46.42400 30.02900
C  40.57300 44.31600 30.83700
C  41.61700 44.97100 31.66500
O  42.71400 45.30900 31.37400
O  41.05300 45.13100 32.91200
C  41.83100 45.75000 34.05600
H  42.75700 37.79300 30.67800
H  43.35400 38.39000 24.28500
H  41.33000 44.31900 24.58500
H  42.19700 42.18200 32.56500
H  41.73200 39.38600 32.44700
H  43.99500 39.06600 32.78100
H  43.55000 40.46800 33.76600
H  44.41600 40.69800 32.23700
H  40.08800 40.37700 33.09800
H  39.36800 41.54400 31.91700
H  39.17700 43.21000 33.76500
H  40.85600 42.76100 34.19300
H  43.76300 36.01800 30.02200
H  44.51800 35.15800 28.74300
H  42.76000 35.01800 28.96300
H  45.76300 34.71500 26.55500
H  45.00800 34.11600 25.17500
H  44.11100 34.09800 26.76000
H  42.39000 39.85100 22.62900
H  42.64100 42.77300 22.70800
H  44.23000 40.27900 21.42900
H  44.95100 40.03800 23.11800
H  44.77800 41.59500 22.51100
H  40.77100 41.72300 21.59900
H  40.07900 42.74200 22.84100
H  40.35900 39.89900 23.75500
H  39.34400 40.10800 22.38000
H  39.03700 41.10300 23.84800
H  41.50300 46.33900 25.41100
H  41.13600 47.06300 27.13500
H  39.94500 46.34000 25.98700
H  39.69500 44.25200 31.48000
H  41.90300 45.02700 34.86900
H  41.19400 46.56600 34.39700
H  42.78300 46.18700 33.75300

