158

Mg 43.28400 42.24800 27.24900
C  42.02800 44.23500 29.64800
C  44.07800 39.84400 29.72300
C  45.26500 40.61400 24.93300
C  42.84700 44.82900 24.87900
N  43.00400 41.99200 29.49800
C  42.36400 42.97500 30.20000
C  42.27300 42.52200 31.74900
C  42.89000 41.04900 31.73900
C  43.42200 40.94400 30.27200
C  44.03500 40.85800 32.77300
C  40.90800 42.61200 32.44500
C  40.58300 43.66700 33.46300
H  39.91400 43.21900 34.76300
N  44.41000 40.42800 27.27500
C  44.60700 39.55100 28.40100
C  45.58200 38.48700 28.03900
C  46.00500 38.78700 26.68500
C  45.28400 39.98300 26.22100
C  46.11200 37.44400 28.98000
C  47.00100 38.07600 25.82900
O  47.37200 38.41700 24.71600
C  47.66600 36.88400 26.34300
N  43.94400 42.72200 25.13800
C  44.67900 41.79200 24.43800
C  45.02500 42.39200 23.06400
C  44.18300 43.73400 23.00300
C  43.56700 43.74800 24.42900
C  46.57600 42.59100 22.91000
C  43.11000 43.70400 21.94100
C  41.64800 43.22200 22.29300
N  42.38700 44.04100 27.20200
C  42.25300 44.95600 26.17900
C  41.53900 46.09400 26.69600
C  41.38000 45.93000 28.12600
C  41.98900 44.65500 28.31700
C  41.03700 47.32200 25.93600
C  40.91400 46.44200 29.39500
O  40.35200 47.48800 29.63200
C  41.42400 45.36600 30.38600
C  42.38300 46.06300 31.28400
O  43.54000 46.24900 31.07400
O  41.77100 46.61300 32.42700
C  42.70800 47.25700 33.31100
H  44.41000 39.09600 30.44600
H  45.65400 39.96800 24.14300
H  42.76800 45.67800 24.19800
H  42.98500 43.12900 32.30700
H  42.17900 40.25100 31.95500
H  43.72800 40.03800 33.42200
H  44.35700 41.71500 33.36600
H  44.82200 40.30300 32.26400
H  40.76900 41.67700 32.98800
H  40.26600 42.54400 31.56700
H  40.05300 44.59200 33.23400
H  41.55500 44.02900 33.80000
H  45.72500 36.49300 28.61400
H  45.84000 37.55000 30.03000
H  47.20200 37.42000 28.97000
H  46.85400 36.23300 26.66900
H  48.37000 37.00500 27.16600
H  48.17600 36.50500 25.45800
H  44.72300 41.73700 22.24700
H  44.79000 44.63300 22.89800
H  47.12900 42.47400 23.84200
H  46.68500 43.63300 22.61000
H  47.00400 41.85400 22.23100
H  43.44600 43.09800 21.09900
H  43.01800 44.68800 21.48000
H  41.13800 44.03900 22.80200
H  41.56600 42.34200 22.93100
H  41.12000 42.89800 21.39600
H  40.63100 47.07400 24.95600
H  41.76900 48.11500 25.78900
H  40.06700 47.56200 26.37300
H  40.51500 44.89700 30.76200
H  43.01200 48.19000 32.83700
H  43.63400 46.73100 33.54400
H  42.17000 47.55900 34.21000
Mg -12.90200 16.41700 42.63100
C  -10.17900 14.06300 42.33000
C  -10.92500 18.73900 41.08500
C  -15.54500 18.16000 42.11800
C  -14.64300 13.76900 44.00900
N  -10.85800 16.33400 41.69100
C  -9.89100 15.29700 41.80300
C  -8.58800 15.85900 41.19300
C  -8.79900 17.40900 41.08900
C  -10.30700 17.47300 41.33800
C  -7.87100 18.31200 42.07700
C  -8.12000 15.22300 39.83100
C  -6.56600 15.11900 39.61400
H  -6.04500 15.74900 38.29300
N  -13.14100 18.32200 41.87600
C  -12.22800 19.15200 41.29100
C  -12.83200 20.40100 41.07900
C  -14.27300 20.16000 41.15100
C  -14.38000 18.85700 41.77300
C  -12.00400 21.52400 40.63600
C  -15.30500 21.12700 40.58300
O  -14.95200 22.22500 40.07500
C  -16.79900 20.79400 40.63800
N  -14.88500 16.01300 42.99100
C  -15.82400 16.86100 42.65100
C  -17.19800 16.30100 42.95700
C  -16.90200 15.02300 43.77000
C  -15.37800 14.91100 43.58200
C  -18.09300 17.38500 43.69700
C  -17.56800 13.76600 43.28800
C  -17.92100 12.71700 44.26700
N  -12.50200 14.37300 43.09300
C  -13.30600 13.43200 43.72900
C  -12.61000 12.24300 44.01800
C  -11.36300 12.46300 43.42400
C  -11.37600 13.77100 42.89800
C  -13.14500 10.99600 44.63800
C  -10.11100 11.76300 43.11700
O  -9.74700 10.64400 43.39200
C  -9.30400 12.83700 42.28900
C  -7.96400 12.99900 43.00600
O  -7.76900 13.29000 44.19400
O  -6.96100 12.78500 42.15400
C  -5.67400 13.17800 42.70800
H  -10.17500 19.45100 40.73300
H  -16.45500 18.76300 42.11600
H  -15.24700 13.03400 44.54500
H  -7.92200 15.65300 42.03100
H  -8.66000 17.74600 40.06200
H  -8.46700 19.08200 42.56700
H  -7.13400 18.77100 41.41800
H  -7.33300 17.83100 42.89500
H  -8.56000 15.88000 39.08100
H  -8.50600 14.21700 39.66400
H  -6.47700 14.05200 39.81800
H  -5.97700 15.69600 40.32800
H  -12.39700 22.53800 40.55700
H  -11.66400 21.27800 39.63000
H  -11.04700 21.58800 41.15400
H  -17.12200 20.79700 41.67900
H  -17.03900 19.79200 40.28000
H  -17.30400 21.54900 40.03600
H  -17.67800 16.05800 42.00900
H  -17.14000 15.12400 44.82900
H  -17.52600 18.24100 44.06200
H  -18.49500 16.98500 44.62800
H  -18.89600 17.70600 43.03300
H  -16.90400 13.43100 42.49100
H  -18.49600 14.07200 42.80500
H  -17.54100 12.83300 45.28200
H  -17.63700 11.74000 43.87700
H  -19.00300 12.60300 44.32400
H  -12.43100 10.49200 45.28900
H  -13.47000 10.25000 43.91200
H  -14.08400 11.17600 45.16200
H  -9.13400 12.52300 41.25900
H  -5.05200 12.29800 42.87100
H  -5.51000 13.84400 43.55600
H  -5.24900 13.71300 41.85900

