158

Mg -0.01500 7.30300 24.96700
C  0.66300 9.44400 27.82300
C  0.57400 4.63100 27.01400
C  -0.46100 5.48400 22.30600
C  -0.08600 10.28400 23.06000
N  0.44300 7.08500 27.16300
C  0.70700 8.05000 28.11900
C  0.91500 7.47200 29.53300
C  0.87000 5.94500 29.13600
C  0.60600 5.82500 27.69800
C  2.08200 5.06700 29.57600
C  -0.10400 7.93300 30.63700
C  0.36400 7.93600 32.16200
H  1.63100 7.12800 32.58000
N  -0.05500 5.29600 24.73600
C  0.31900 4.36700 25.67000
C  0.34000 3.05700 25.00400
C  -0.03300 3.30700 23.64600
C  -0.21900 4.72100 23.50300
C  0.77200 1.75600 25.74400
C  0.06000 2.32400 22.50600
O  -0.07300 2.68000 21.31900
C  0.24800 0.85500 22.73700
N  0.28000 7.77800 22.83800
C  -0.17700 6.84600 22.01600
C  -0.59200 7.45900 20.69500
C  -0.75700 8.99300 21.02300
C  -0.21300 8.99200 22.42900
C  0.45700 7.14400 19.56000
C  -2.27300 9.45600 21.00900
C  -2.57100 10.69200 20.07900
N  0.35500 9.45800 25.30900
C  0.23000 10.54000 24.42200
C  0.36900 11.80000 25.12000
C  0.65800 11.41700 26.47600
C  0.53600 9.98700 26.48900
C  0.34100 13.16200 24.49400
C  0.99300 11.93400 27.79700
O  1.16600 13.09900 28.21800
C  0.86500 10.73700 28.73400
C  2.18900 10.68100 29.41900
O  3.23800 10.38800 28.91200
O  1.94000 11.15800 30.65900
C  3.14300 11.51400 31.47300
H  0.61000 3.74700 27.65400
H  -0.82300 4.83000 21.51000
H  -0.45000 11.11300 22.44900
H  1.89700 7.79200 29.88000
H  -0.05600 5.55500 29.55800
H  1.67500 4.24300 30.16100
H  2.84400 5.59000 30.15500
H  2.57000 4.75100 28.65400
H  -0.92000 7.21400 30.56700
H  -0.44500 8.90200 30.27200
H  -0.55300 7.65200 32.67800
H  0.50200 9.00300 32.34100
H  1.83400 1.55400 25.60300
H  0.24900 0.83600 25.48100
H  0.55500 1.79400 26.81100
H  -0.55000 0.47000 23.37300
H  1.26600 0.61100 23.03900
H  0.23800 0.33900 21.77700
H  -1.49900 6.90900 20.44400
H  -0.08300 9.61500 20.43500
H  1.17100 6.36100 19.81500
H  1.00800 8.05700 19.33500
H  0.00400 6.71900 18.66400
H  -2.47200 9.73800 22.04300
H  -3.06800 8.75000 20.76600
H  -2.10500 10.47300 19.11900
H  -2.05700 11.54400 20.52400
H  -3.62800 10.93400 19.97200
H  -0.55000 13.60700 24.93500
H  0.24900 13.15900 23.40800
H  1.19700 13.73300 24.85600
H  0.08900 11.01900 29.44600
H  4.00900 11.68700 30.83400
H  3.28700 10.73400 32.22000
H  2.84600 12.45600 31.93500
Mg 48.29700 35.14400 28.18400
C  46.50100 33.54500 30.83000
C  48.31100 37.95000 29.99700
C  49.51700 36.52500 25.50500
C  47.95600 32.07900 26.29100
N  47.65900 35.57600 30.23300
C  47.06800 34.76900 31.15800
C  47.16700 35.35600 32.56200
C  47.41400 36.84800 32.30300
C  47.84400 36.83100 30.74200
C  46.31400 37.84400 32.62800
C  48.24900 34.62300 33.41000
C  48.14300 34.50100 34.98700
H  47.10100 35.40600 35.58600
N  48.90500 36.92900 27.78700
C  48.82100 38.08800 28.65200
C  49.37900 39.24700 28.06100
C  49.91600 38.74200 26.82200
C  49.44000 37.39400 26.62900
C  49.57200 40.57800 28.82500
C  50.80700 39.52900 25.81600
O  51.04400 39.05200 24.73700
C  51.40100 40.89800 26.16200
N  48.78000 34.34900 26.15400
C  49.14600 35.17500 25.21500
C  49.48200 34.62400 23.81700
C  49.38400 33.10100 24.25200
C  48.57700 33.19400 25.61100
C  48.38000 35.04100 22.71100
C  50.68900 32.33800 24.52300
C  51.29900 31.64900 23.32200
N  47.46900 33.18900 28.46300
C  47.34800 32.07500 27.58100
C  46.62100 31.00500 28.23800
C  46.25200 31.56800 29.49300
C  46.76500 32.86100 29.57700
C  46.44600 29.57800 27.84700
C  45.57100 31.18400 30.68300
O  45.06700 30.12100 31.08200
C  45.52900 32.58800 31.52200
C  45.59200 32.39100 33.00600
O  46.53600 31.94400 33.64400
O  44.37800 32.66400 33.53500
C  44.13200 32.21400 34.88700
H  48.41300 38.93700 30.45200
H  50.02500 37.02000 24.67600
H  48.03400 31.11900 25.77600
H  46.23000 35.24600 33.10800
H  48.26000 37.14400 32.92300
H  45.79300 38.21400 31.74500
H  46.63400 38.79900 33.04300
H  45.61700 37.38200 33.32700
H  49.25600 34.97800 33.19000
H  48.35400 33.63300 32.96700
H  49.12400 34.78600 35.36900
H  47.81500 33.47500 35.15100
H  50.59800 40.46500 29.17500
H  48.96000 40.73300 29.71300
H  49.67200 41.50400 28.25800
H  50.59600 41.63400 26.18200
H  52.04500 41.16200 25.32300
H  51.93600 40.86900 27.11200
H  50.50100 34.78200 23.46300
H  48.78900 32.56400 23.51300
H  47.95300 36.01100 22.96300
H  47.52500 34.36800 22.64600
H  48.87900 35.15700 21.74800
H  50.51800 31.67600 25.37300
H  51.39300 33.07200 24.91500
H  50.97700 32.18300 22.42900
H  50.96900 30.61200 23.25500
H  52.37600 31.80000 23.25900
H  46.92800 29.20400 26.94400
H  45.42200 29.23600 27.69700
H  46.94900 29.06100 28.66400
H  44.52500 32.80100 31.15700
H  44.37000 31.17300 35.10400
H  43.10800 32.40700 35.20800
H  44.74600 32.83500 35.53900

