158

Mg 17.48500 -0.33900 27.07400
C  16.14400 1.43400 29.79200
C  19.34500 -2.21300 29.55000
C  19.08300 -1.84400 24.69900
C  15.93700 1.91400 24.91500
N  17.59800 -0.47200 29.49400
C  16.94600 0.43800 30.32200
C  17.31800 0.16900 31.76900
C  18.37000 -0.97200 31.73500
C  18.49800 -1.27400 30.20100
C  19.71500 -0.61000 32.49900
C  16.03800 -0.17000 32.66600
C  16.03100 0.29500 34.15800
H  17.31700 0.85300 34.79400
N  18.85300 -1.91100 27.07800
C  19.52000 -2.48500 28.15900
C  20.42100 -3.54000 27.65400
C  20.22800 -3.55700 26.24700
C  19.39700 -2.40600 25.94300
C  21.23200 -4.54800 28.48200
C  20.83600 -4.50600 25.18200
O  20.49700 -4.40300 24.01300
C  21.77200 -5.62400 25.65800
N  17.48100 0.03200 25.10200
C  18.32300 -0.68600 24.30700
C  18.31100 -0.19300 22.83200
C  17.25200 0.98900 22.86100
C  16.85100 1.05000 24.38300
C  19.66800 0.31200 22.37300
C  16.02500 0.78800 21.92700
C  15.52400 1.97200 21.15200
N  16.33700 1.41000 27.27900
C  15.78100 2.14600 26.27000
C  14.96100 3.16400 26.88200
C  15.13000 2.93100 28.25800
C  15.87200 1.85400 28.44300
C  14.13400 4.19000 26.23000
C  14.81300 3.52500 29.56300
O  14.13900 4.52000 29.88100
C  15.48800 2.58300 30.62700
C  16.45600 3.38300 31.45500
O  17.66700 3.55200 31.25800
O  15.70600 4.13200 32.41500
C  16.51700 5.04300 33.31100
H  19.98800 -2.78900 30.22000
H  19.60700 -2.09400 23.77400
H  15.48100 2.57200 24.17200
H  17.77400 1.08500 32.14500
H  18.06500 -1.93100 32.15300
H  19.95700 -1.30400 33.30400
H  19.66800 0.38300 32.94400
H  20.56100 -0.57500 31.81300
H  15.83300 -1.23900 32.73000
H  15.12400 0.19800 32.20200
H  15.79400 -0.50500 34.85900
H  15.23800 1.03500 34.26400
H  20.74800 -5.52500 28.48700
H  21.22300 -4.25000 29.53000
H  22.30100 -4.61200 28.27800
H  21.45500 -6.32800 26.42700
H  22.72700 -5.16300 25.91000
H  22.05100 -6.17600 24.76000
H  18.10000 -1.09300 22.25500
H  17.60400 1.96800 22.53500
H  20.48200 -0.24700 22.83400
H  19.79900 1.38100 22.54000
H  19.81200 0.15200 21.30500
H  15.18400 0.50400 22.55900
H  16.19800 0.05900 21.13500
H  15.28600 2.66400 21.96000
H  14.69100 1.75800 20.48300
H  16.36800 2.44100 20.64700
H  13.10400 3.87600 26.39900
H  14.29900 4.30400 25.15900
H  14.31800 5.07400 26.84100
H  14.80400 2.22000 31.39400
H  15.79900 5.71000 33.78800
H  17.44400 5.44500 32.90300
H  16.95600 4.41900 34.08800
Mg 45.10500 4.55200 47.97700
C  43.10900 7.23000 47.44500
C  42.36100 2.45800 47.75100
C  47.25900 1.69800 47.69900
C  47.93200 6.59900 47.67000
N  43.01400 4.80200 47.39800
C  42.40700 6.01800 47.31100
C  40.91500 5.87500 47.05400
C  40.57500 4.36600 47.37700
C  42.03800 3.81400 47.56300
C  39.67200 4.10400 48.59700
C  40.63700 6.29100 45.59100
C  39.27100 6.90400 45.30600
H  38.62500 6.24400 44.05200
N  44.86300 2.31200 47.81600
C  43.64000 1.68000 47.82100
C  43.85800 0.29000 47.80200
C  45.25300 0.03500 47.86300
C  45.85300 1.37400 47.81800
C  42.69800 -0.71700 47.75100
C  45.88600 -1.31200 47.99700
O  45.17200 -2.31100 48.03800
C  47.37100 -1.48200 48.00500
N  47.31600 4.23400 47.80300
C  47.88700 2.97900 47.74700
C  49.43400 3.11600 47.62500
C  49.63900 4.61100 47.90500
C  48.22000 5.23900 47.77900
C  50.40400 2.23000 48.43300
C  50.65000 5.32600 46.92000
C  51.84600 6.11800 47.59800
N  45.53600 6.55700 47.89400
C  46.70000 7.25500 47.67200
C  46.46200 8.68300 47.58300
C  45.06200 8.72600 47.55200
C  44.51300 7.36900 47.61800
C  47.39200 9.86000 47.44500
C  43.88100 9.60800 47.38900
O  43.84900 10.82000 47.07400
C  42.59200 8.67000 47.41800
C  41.79000 8.93700 48.64300
O  42.11700 8.65200 49.79900
O  40.64800 9.60900 48.31800
C  39.70700 9.87900 49.45000
H  41.48400 1.81400 47.65900
H  47.90300 0.84000 47.49300
H  48.73800 7.33100 47.75000
H  40.34400 6.58200 47.65600
H  40.26300 3.73400 46.54600
H  38.82400 3.47000 48.33600
H  39.41900 5.11800 48.90500
H  40.24000 3.56500 49.35600
H  40.57400 5.36500 45.01900
H  41.40200 7.00500 45.28800
H  39.40500 7.98200 45.22500
H  38.55500 6.68300 46.09800
H  42.41500 -1.15200 48.70900
H  43.07200 -1.46800 47.05500
H  41.79200 -0.40400 47.23000
H  47.93000 -1.15800 47.12700
H  47.41900 -2.54900 48.22400
H  47.83600 -1.02200 48.87700
H  49.59600 2.91600 46.56600
H  49.87400 4.76100 48.95900
H  49.81400 1.47300 48.95000
H  51.03500 2.82700 49.09200
H  50.98300 1.72600 47.65900
H  50.07400 5.91300 46.20400
H  51.11100 4.59900 46.25100
H  52.69400 5.50300 47.29800
H  51.71800 6.26700 48.67000
H  51.95100 7.09700 47.13000
H  46.79500 10.71700 47.75700
H  47.69600 9.84100 46.39900
H  48.26600 9.81600 48.09500
H  41.99900 8.90000 46.53300
H  39.81500 10.89100 49.84000
H  39.75200 9.12100 50.23200
H  38.68300 9.86000 49.07700

