158

Mg 42.69000 41.60400 27.05100
C  41.48000 43.81400 29.44000
C  43.63300 39.41700 29.51600
C  44.44500 39.80900 24.83600
C  42.20700 44.09100 24.57600
N  42.71000 41.78100 29.21800
C  42.04100 42.62800 29.98300
C  41.95400 42.14500 31.47400
C  42.71200 40.71700 31.46900
C  43.06200 40.59300 29.93900
C  44.05300 40.64900 32.25600
C  40.45500 42.01200 31.92400
C  39.97100 42.81800 33.14000
H  39.24200 41.90200 34.18600
N  43.74400 39.78500 27.15800
C  43.96900 38.98800 28.24900
C  44.67800 37.84500 27.86900
C  44.90200 37.90900 26.45600
C  44.37200 39.20600 26.12400
C  45.23300 36.81700 28.89200
C  45.57000 36.91400 25.50100
O  45.84800 37.14500 24.34600
C  45.84500 35.46800 25.94600
N  43.29800 42.01800 25.02700
C  43.89000 41.03900 24.37500
C  44.07300 41.29200 22.86800
C  43.07200 42.53700 22.71100
C  42.84700 42.94400 24.17300
C  45.53600 41.49800 22.38400
C  41.80800 42.21200 21.91800
C  41.19400 43.40800 21.07500
N  41.97900 43.56500 26.94500
C  41.88700 44.49300 25.88000
C  41.18600 45.61700 26.33600
C  40.98600 45.39900 27.76700
C  41.51800 44.18900 28.03500
C  40.80100 46.68200 25.47300
C  40.46400 45.96500 28.99400
O  39.83900 46.95600 29.18700
C  40.76000 45.00700 30.19600
C  41.69700 45.68700 31.14200
O  42.79100 46.08700 30.85700
O  41.14000 45.77400 32.39100
C  41.93200 46.19200 33.56700
H  43.78900 38.61400 30.24100
H  44.83900 39.16300 24.04900
H  41.78500 44.80700 23.86700
H  42.50700 42.78200 32.16400
H  42.09100 39.86900 31.75600
H  44.95900 40.64500 31.65000
H  44.10900 39.68900 32.76900
H  44.04700 41.42500 33.02200
H  40.18000 40.96800 32.07000
H  39.78500 42.23100 31.09200
H  39.32100 43.65000 32.86800
H  40.79600 43.26400 33.69600
H  45.51600 37.20000 29.87200
H  46.10300 36.24600 28.56600
H  44.51100 36.01800 29.06200
H  45.78200 34.74200 25.13500
H  45.01400 35.31000 26.63400
H  46.78100 35.39500 26.49900
H  43.69400 40.35300 22.46400
H  43.60800 43.44000 22.41800
H  45.62700 42.37700 21.74500
H  45.78400 40.66500 21.72600
H  46.17800 41.39800 23.25800
H  41.00300 41.92300 22.59400
H  41.91800 41.38800 21.21300
H  40.86700 43.00500 20.11700
H  41.94400 44.17300 20.87300
H  40.26400 43.77700 21.50600
H  40.29500 46.29000 24.59100
H  41.76300 47.09900 25.17200
H  40.17800 47.33000 26.09000
H  39.84000 44.72100 30.70400
H  41.52900 45.47200 34.27800
H  41.73400 47.18300 33.97600
H  43.00900 46.07900 33.44000
Mg -12.80600 16.78500 42.64300
C  -9.64400 15.39700 41.76400
C  -11.65600 19.67300 41.07000
C  -15.89900 17.89600 42.56100
C  -13.84300 13.38600 43.12200
N  -10.91400 17.38600 41.40000
C  -9.73800 16.77400 41.50100
C  -8.63200 17.66800 40.90000
C  -9.14600 19.03800 41.05700
C  -10.63700 18.75500 41.24800
C  -8.52000 19.86300 42.23800
C  -8.12900 17.37900 39.49500
C  -6.59100 16.99200 39.29800
H  -6.43000 15.91900 38.24400
N  -13.63600 18.56900 42.08700
C  -13.01300 19.59300 41.38900
C  -13.94700 20.66400 41.15600
C  -15.23600 20.24200 41.64300
C  -14.98600 18.87900 42.15500
C  -13.47100 21.98500 40.67100
C  -16.57500 21.05400 41.49800
O  -16.63300 22.19000 40.99600
C  -17.87400 20.48400 41.85400
N  -14.62000 15.72500 42.64500
C  -15.80200 16.47600 42.72600
C  -17.00400 15.62000 42.95200
C  -16.36400 14.20500 43.18400
C  -14.86400 14.39500 42.96600
C  -17.92700 16.12600 44.12500
C  -16.95100 13.11100 42.22000
C  -16.25800 12.69900 40.86900
N  -11.86800 14.78400 42.80400
C  -12.47400 13.53300 43.03700
C  -11.49100 12.53500 43.00700
C  -10.34400 13.22000 42.57800
C  -10.63600 14.55600 42.33800
C  -11.60700 11.11200 43.29100
C  -8.92000 13.08400 42.23400
O  -8.15600 12.14800 42.32800
C  -8.47200 14.42000 41.56200
C  -7.27300 14.82800 42.25300
O  -7.24100 15.30800 43.39900
O  -6.13100 14.46400 41.61000
C  -4.98600 14.21200 42.51300
H  -11.36100 20.64000 40.65700
H  -16.92700 18.20600 42.76100
H  -14.18600 12.41400 43.48300
H  -7.84700 17.48300 41.63400
H  -9.07700 19.73100 40.21800
H  -8.11500 20.77800 41.80700
H  -7.72400 19.34400 42.77300
H  -9.21700 20.09400 43.04300
H  -8.13800 18.33000 38.96300
H  -8.77500 16.68600 38.95500
H  -6.20000 16.56600 40.22200
H  -6.16000 17.93400 38.95800
H  -13.28700 22.09400 39.60200
H  -12.58800 22.30200 41.22400
H  -14.13600 22.82700 40.86400
H  -18.60500 21.22900 41.54100
H  -18.10400 20.31900 42.90700
H  -18.01600 19.61100 41.21800
H  -17.56300 15.77500 42.02900
H  -16.59000 13.82400 44.18000
H  -18.16800 15.21300 44.67000
H  -18.82600 16.55400 43.68300
H  -17.50200 16.86900 44.80000
H  -18.01700 13.29900 42.09200
H  -16.88400 12.26400 42.90200
H  -15.60200 11.85700 41.09000
H  -15.49400 13.45400 40.68500
H  -16.96000 12.51500 40.05600
H  -11.72100 10.60500 42.33300
H  -12.46500 10.95600 43.94500
H  -10.71700 10.77000 43.81900
H  -8.31700 14.30300 40.49000
H  -5.06300 13.45300 43.29200
H  -4.62800 15.13800 42.96300
H  -4.13200 13.79900 41.97700

