158

Mg 28.94400 57.50200 40.56000
C  26.07600 55.70600 39.65300
C  30.83800 55.03300 39.24900
C  31.52600 59.64400 40.25200
C  26.91800 60.30900 41.16400
N  28.42000 55.60800 39.38700
C  27.22000 55.10500 39.14000
C  27.29100 53.75600 38.52600
C  28.84700 53.51900 38.44900
C  29.43200 54.76700 39.15500
C  29.43800 52.23200 39.02800
C  26.54500 53.50400 37.18100
C  26.50200 54.61000 36.09800
H  26.72000 54.32800 34.55200
N  30.98700 57.27700 40.00600
C  31.56000 56.17300 39.57300
C  32.97500 56.38600 39.47800
C  33.26300 57.72300 39.85600
C  31.87400 58.25900 40.03300
C  33.95700 55.24600 39.11300
C  34.58100 58.39600 39.96800
O  35.61300 57.89600 39.55400
C  34.70800 59.72700 40.51500
N  29.21300 59.70900 40.81600
C  30.37600 60.32100 40.58000
C  30.37900 61.81800 40.96100
C  28.86100 61.97900 41.38300
C  28.27900 60.61000 41.09300
C  31.39500 62.21800 42.00100
C  28.12000 63.19400 40.74000
C  27.68200 64.27500 41.79100
N  27.05800 57.87600 40.79700
C  26.37900 59.03300 41.06800
C  24.96100 58.70300 41.28100
C  24.82000 57.41000 40.77000
C  26.10200 56.96300 40.39000
C  23.95100 59.59800 41.82400
C  23.80200 56.40700 40.43700
O  22.60700 56.34200 40.65500
C  24.60400 55.36700 39.53600
C  24.10400 53.98700 40.07700
O  23.32000 53.17400 39.54800
O  24.65000 53.79700 41.30200
C  24.31500 52.58800 41.94800
H  31.53400 54.24000 38.96800
H  32.34200 60.35500 40.10900
H  26.29300 61.17900 41.37600
H  26.93600 52.97400 39.19700
H  29.18000 53.54100 37.41100
H  30.33000 52.53700 39.57500
H  29.66500 51.49500 38.25700
H  28.73200 51.73700 39.69400
H  25.49500 53.30700 37.39700
H  27.02300 52.59300 36.82200
H  27.33400 55.29600 36.25700
H  25.57600 55.15500 36.27700
H  33.96000 54.51900 39.92400
H  34.98700 55.59900 39.05500
H  33.73900 54.80700 38.13900
H  34.09200 60.10500 41.33100
H  34.44000 60.35900 39.66800
H  35.78200 59.83200 40.66500
H  30.52200 62.26400 39.97700
H  28.70100 61.94800 42.46100
H  31.88000 61.32600 42.39700
H  30.96300 62.88600 42.74600
H  32.03500 62.93100 41.48000
H  27.28200 62.98000 40.07700
H  28.88900 63.74900 40.20300
H  27.34500 63.81100 42.71700
H  26.77100 64.74000 41.41300
H  28.51100 64.96500 41.94800
H  23.47300 60.16700 41.02700
H  24.38100 60.34300 42.49400
H  23.13200 59.09200 42.33500
H  24.34900 55.43000 38.47800
H  25.21900 52.24300 42.45000
H  23.91800 51.77300 41.34200
H  23.61900 52.95400 42.70300
Mg -12.91700 16.26300 41.74800
C  -10.16400 14.29000 41.03100
C  -11.40000 18.92500 40.16100
C  -15.96600 17.86700 41.59500
C  -14.60000 13.39000 42.75000
N  -11.00500 16.54800 40.62500
C  -10.00800 15.60900 40.49500
C  -8.74800 16.24800 39.90700
C  -9.14300 17.73100 39.70000
C  -10.54200 17.78600 40.30400
C  -8.19500 18.72900 40.48000
C  -8.08100 15.56400 38.68100
C  -6.60100 15.18700 38.83300
H  -5.59300 15.82200 37.78900
N  -13.56500 18.18000 41.24600
C  -12.81500 19.08700 40.49900
C  -13.55900 20.26500 40.31300
C  -14.90200 20.01900 40.90200
C  -14.83300 18.64100 41.28900
C  -13.00300 21.53400 39.61800
C  -15.97400 20.93400 41.08300
O  -15.85600 22.04800 40.58700
C  -17.25400 20.67300 41.91100
N  -15.03000 15.70300 42.15300
C  -16.09000 16.46200 41.90400
C  -17.46100 15.81100 42.21300
C  -16.92400 14.37200 42.61400
C  -15.45200 14.47500 42.50700
C  -18.26400 16.59800 43.26200
C  -17.58700 13.22200 41.91200
C  -18.59900 12.39400 42.74500
N  -12.48700 14.20800 42.06800
C  -13.23900 13.15200 42.49700
C  -12.44900 11.94400 42.46400
C  -11.28200 12.37400 41.95000
C  -11.32300 13.73300 41.64700
C  -12.91000 10.59400 42.86700
C  -9.93000 11.87400 41.54000
O  -9.41900 10.75700 41.55000
C  -9.13600 13.11400 41.02900
C  -7.84200 13.50800 41.69800
O  -7.80100 14.20000 42.71200
O  -6.78500 12.87700 41.10100
C  -5.48000 13.30800 41.64200
H  -10.90800 19.75600 39.64900
H  -16.94800 18.32700 41.46600
H  -15.09600 12.42400 42.86900
H  -8.03800 16.11300 40.72300
H  -9.13500 17.99100 38.64100
H  -8.84600 19.53500 40.81900
H  -7.41500 19.17900 39.86600
H  -7.80400 18.32300 41.41300
H  -8.15500 16.05000 37.70900
H  -8.65000 14.65500 38.48700
H  -6.66900 14.13400 38.56000
H  -6.25600 15.44100 39.83600
H  -13.73500 22.22900 39.20600
H  -12.21800 21.27000 38.90900
H  -12.42700 22.18500 40.27600
H  -17.91600 20.00000 41.36500
H  -17.70400 21.64700 42.10300
H  -17.16900 20.14400 42.86100
H  -18.00300 15.69700 41.27400
H  -17.01400 14.08600 43.66200
H  -17.94600 17.57400 43.62900
H  -18.54500 15.99900 44.12800
H  -19.16700 16.85900 42.71000
H  -16.76300 12.59300 41.57400
H  -18.19400 13.66000 41.12000
H  -18.34100 11.44500 43.21400
H  -19.40100 12.01800 42.11000
H  -18.99700 13.00500 43.55600
H  -13.04000 9.95400 41.99400
H  -13.91100 10.62600 43.29800
H  -12.09200 10.23100 43.48900
H  -8.84500 13.06400 39.98000
H  -5.49800 14.37800 41.85200
H  -4.76600 13.04800 40.86100
H  -5.17500 12.73300 42.51600

