158

Mg 47.13200 44.19900 43.13800
C  43.73900 43.37900 42.74500
C  47.83100 40.84400 42.42900
C  50.36500 45.08600 42.79800
C  46.23000 47.67200 42.77000
N  45.87300 42.30900 42.70000
C  44.52400 42.19700 42.67900
C  44.09200 40.75900 42.54800
C  45.45600 39.98600 42.55100
C  46.44600 41.07500 42.49500
C  45.64700 38.85800 43.56800
C  43.13700 40.54300 41.32500
C  43.57500 41.20800 39.99400
H  43.23900 40.48200 38.67000
N  48.87700 43.14800 42.71400
C  48.90000 41.78100 42.41300
C  50.25600 41.40200 42.19100
C  51.07500 42.59400 42.32000
C  50.11100 43.69900 42.56600
C  50.71600 39.94700 41.92300
C  52.55100 42.63600 42.04600
O  53.21100 41.65100 41.62800
C  53.22800 43.90800 42.17700
N  48.14500 46.14100 42.63300
C  49.51700 46.17900 42.90900
C  50.00100 47.65500 42.97600
C  48.65300 48.43700 42.87300
C  47.58200 47.34800 42.68000
C  50.98700 47.96500 44.18400
C  48.57000 49.52300 41.74500
C  48.41400 50.96800 42.27100
N  45.44800 45.37200 42.96600
C  45.18700 46.68500 42.85600
C  43.74000 46.96100 42.81500
C  43.17900 45.65700 42.81400
C  44.23100 44.75900 42.86000
C  43.02100 48.30000 42.74700
C  41.93200 45.02300 42.71100
O  40.77800 45.46200 42.53000
C  42.23400 43.49600 42.79800
C  41.74200 43.15300 44.16700
O  40.91600 42.29600 44.30600
O  42.35300 43.79700 45.21200
C  42.02500 43.24800 46.54400
H  48.13100 39.80300 42.29800
H  51.38900 45.39000 43.02500
H  45.90300 48.71200 42.83600
H  43.51900 40.48100 43.43200
H  45.52500 39.52400 41.56700
H  44.85700 38.58300 44.26700
H  46.43400 39.09800 44.28300
H  45.92500 37.95400 43.02600
H  42.15000 40.90800 41.60800
H  43.05800 39.47300 41.13200
H  44.65400 41.34500 40.06100
H  43.02600 42.14000 39.86200
H  51.78600 39.75100 41.85900
H  50.14600 39.51800 41.09900
H  50.46600 39.36600 42.81000
H  52.76400 44.62600 41.50100
H  54.26600 43.82300 41.85600
H  53.19600 44.19200 43.22900
H  50.50400 47.82100 42.02300
H  48.55300 48.91500 43.84800
H  52.00700 47.95200 43.80000
H  50.97800 47.13800 44.89300
H  50.63700 48.85600 44.70500
H  47.85500 49.16400 41.00500
H  49.55500 49.59600 41.28300
H  49.16000 51.66500 41.88800
H  48.56700 51.04500 43.34800
H  47.36100 51.22200 42.15300
H  42.06100 48.27400 43.26300
H  42.77700 48.51200 41.70600
H  43.71000 49.03300 43.16500
H  41.68900 42.95300 42.02600
H  42.68300 42.39900 46.72500
H  41.03500 42.81500 46.68800
H  42.14800 44.02000 47.30400
Mg -1.16100 34.78100 26.35200
C  -2.89600 32.97600 28.85900
C  -0.37100 37.14400 28.73200
C  0.16100 36.68900 23.88500
C  -2.68600 32.75600 23.90600
N  -1.68800 35.06600 28.51200
C  -2.27800 34.15300 29.31700
C  -2.17200 34.63400 30.78600
C  -1.73600 36.06200 30.74500
C  -1.20000 36.13900 29.23500
C  -2.81600 37.10400 31.05500
C  -1.28900 33.67400 31.66700
C  -2.01000 33.04100 32.93900
H  -1.07000 32.90600 34.22100
N  -0.18600 36.59200 26.33600
C  0.06200 37.38600 27.42200
C  0.74200 38.59800 26.90900
C  0.96200 38.42200 25.54100
C  0.35800 37.18500 25.21500
C  1.11900 39.75200 27.76200
C  1.75200 39.28400 24.52900
O  1.93500 39.04200 23.34700
C  2.23500 40.53000 24.93500
N  -1.43500 34.85000 24.16800
C  -0.58000 35.63400 23.37700
C  -0.73500 35.30200 21.93600
C  -1.50500 33.88700 22.06200
C  -1.90800 33.84400 23.48700
C  -1.45900 36.41300 21.05300
C  -0.58700 32.68200 21.66400
C  0.54100 32.28400 22.63000
N  -2.48300 33.15300 26.28000
C  -3.01600 32.47400 25.22100
C  -3.80700 31.37400 25.81500
C  -3.83600 31.50300 27.24500
C  -2.94200 32.61300 27.49100
C  -4.45500 30.36400 24.91400
C  -4.28000 31.02100 28.45700
O  -5.02200 30.11400 28.68700
C  -3.69500 31.99300 29.59000
C  -4.81200 32.60900 30.32700
O  -5.28100 33.61400 29.96300
O  -5.22600 31.84000 31.40100
C  -6.18700 32.57000 32.20600
H  -0.15100 37.86200 29.52500
H  0.48900 37.29500 23.03800
H  -2.99500 31.95100 23.23500
H  -3.15300 34.64600 31.26100
H  -0.95100 36.24800 31.47700
H  -2.82200 37.22400 32.13900
H  -3.75800 36.85200 30.57000
H  -2.45100 38.01600 30.58400
H  -0.47000 34.20800 32.15000
H  -0.89100 32.86100 31.06000
H  -2.54200 32.09600 32.82700
H  -2.76000 33.79300 33.18600
H  0.55500 39.86600 28.68700
H  1.02200 40.65200 27.15400
H  2.15900 39.58800 28.04200
H  2.78400 40.50300 25.87600
H  1.32400 41.11300 25.07300
H  2.84800 41.03900 24.19100
H  0.21000 35.02500 21.46900
H  -2.43200 33.81600 21.49200
H  -0.70100 36.73900 20.34100
H  -1.56500 37.33900 21.61800
H  -2.43400 36.10600 20.67300
H  -0.08900 32.95900 20.73400
H  -1.10700 31.73900 21.49900
H  0.50300 31.21700 22.85100
H  0.66400 33.01100 23.43300
H  1.36400 32.49900 21.94900
H  -5.38100 30.85200 24.60800
H  -4.72800 29.39300 25.32800
H  -3.78800 30.32100 24.05300
H  -3.02300 31.37900 30.19000
H  -5.68600 33.45700 32.59300
H  -6.44900 31.90200 33.02700
H  -7.10200 32.77200 31.64900

