158

Mg 49.66900 45.12600 42.88700
C  46.47800 45.84900 41.63400
C  49.39100 41.99200 41.45000
C  53.00400 44.75900 43.02400
C  50.06200 48.56600 43.41500
N  48.17900 44.13500 41.57700
C  46.94200 44.59100 41.22600
C  46.03500 43.51700 40.62400
C  46.91800 42.27700 40.85900
C  48.22900 42.82800 41.31900
C  46.26600 41.32800 42.01600
C  45.75000 43.81300 39.14600
C  44.41900 43.16400 38.63300
H  44.40300 42.16700 37.43400
N  51.00200 43.55200 42.58700
C  50.70800 42.33100 42.01000
C  51.84200 41.48700 41.95100
C  52.95600 42.24500 42.41400
C  52.32700 43.57600 42.74400
C  51.72000 40.06600 41.60500
C  54.40000 41.79700 42.65300
O  54.66500 40.65300 42.51600
C  55.45800 42.75700 43.17500
N  51.31400 46.40600 43.36600
C  52.55300 46.01900 43.30200
C  53.53400 47.17100 43.65200
C  52.60600 48.44200 43.81300
C  51.19100 47.82900 43.51900
C  54.53900 46.86900 44.78400
C  52.84600 49.64100 42.87700
C  52.94700 50.98000 43.50800
N  48.45400 46.89600 42.92000
C  48.75000 48.18400 43.07500
C  47.56600 49.03800 42.83400
C  46.60600 48.09600 42.36300
C  47.23200 46.83400 42.33700
C  47.51800 50.44100 42.98800
C  45.20500 47.93200 41.91500
O  44.16600 48.61600 41.98500
C  45.02700 46.40600 41.57000
C  44.26700 45.79800 42.60900
O  44.62700 45.76800 43.78800
O  43.16200 45.20200 42.11200
C  42.38100 44.34900 43.00500
H  49.16100 40.99000 41.08100
H  54.09400 44.81800 43.00900
H  50.19000 49.63100 43.62200
H  45.04500 43.39700 41.06500
H  47.02000 41.79300 39.88700
H  45.23100 41.61900 42.19400
H  46.80300 41.39800 42.96200
H  46.36400 40.27700 41.74200
H  46.50900 43.31900 38.54000
H  45.73200 44.89800 39.03600
H  43.73800 43.99400 38.44500
H  43.96500 42.61000 39.45500
H  52.41000 39.39400 42.11500
H  51.97500 39.99900 40.54700
H  50.69000 39.71300 41.63700
H  55.63000 43.41400 42.32200
H  56.37800 42.26200 43.48700
H  55.05400 43.30300 44.02800
H  54.22800 47.46400 42.86400
H  52.49400 48.67200 44.87200
H  54.54200 47.69100 45.50000
H  55.55200 46.97300 44.39500
H  54.45800 45.88400 45.24400
H  52.07600 49.61200 42.10600
H  53.71200 49.44500 42.24500
H  52.03700 51.49800 43.20600
H  53.79100 51.40600 42.96600
H  52.91300 50.94100 44.59700
H  47.53400 50.78400 44.02200
H  46.69300 50.87500 42.42300
H  48.41200 50.86100 42.52700
H  44.43800 46.33700 40.65500
H  41.33500 44.62300 42.87100
H  42.59100 44.45000 44.07000
H  42.46900 43.30200 42.71800
Mg -12.88400 38.42000 42.84900
C  -10.98600 35.90200 41.27300
C  -11.09900 40.76000 41.15200
C  -15.18800 40.78100 43.66200
C  -15.15200 35.83900 44.02500
N  -11.22900 38.26400 41.37800
C  -10.53300 37.14300 40.89900
C  -9.22700 37.54900 40.09300
C  -9.37500 39.11600 40.06200
C  -10.65700 39.42100 40.89000
C  -8.05600 39.92100 40.47800
C  -9.06600 36.80000 38.71100
C  -7.98100 35.76300 38.64300
H  -6.77900 36.01000 37.68300
N  -13.02300 40.48100 42.61700
C  -12.23600 41.26900 41.78600
C  -12.70100 42.66600 41.89400
C  -13.86400 42.76500 42.68400
C  -14.04300 41.26900 43.02800
C  -11.88200 43.83900 41.38800
C  -14.66600 43.99900 43.05500
O  -14.29900 45.03600 42.56400
C  -15.81600 43.94500 43.99300
N  -14.91500 38.33400 43.69600
C  -15.59500 39.44900 43.96300
C  -16.90600 39.14600 44.75400
C  -16.85500 37.61000 45.00200
C  -15.59000 37.21700 44.17100
C  -17.15300 40.05800 46.01800
C  -18.25300 36.99700 44.42100
C  -18.81600 35.87100 45.19900
N  -13.02800 36.37700 42.77400
C  -13.96500 35.51500 43.34400
C  -13.50700 34.13300 43.18200
C  -12.40800 34.25400 42.31100
C  -12.13600 35.62100 42.06700
C  -14.10800 32.93300 43.65100
C  -11.35900 33.48000 41.57100
O  -11.27000 32.30500 41.41500
C  -10.37900 34.50900 40.83900
C  -9.03100 34.27000 41.29700
O  -8.39100 33.35100 40.84200
O  -8.65300 35.16700 42.28100
C  -7.40700 34.80300 43.09200
H  -10.50800 41.58300 40.74500
H  -15.99400 41.46600 43.93300
H  -15.86300 35.04100 44.24900
H  -8.39700 37.24100 40.72900
H  -9.63800 39.42900 39.05200
H  -7.41700 39.12200 40.85600
H  -8.23700 40.69500 41.22400
H  -7.69200 40.24400 39.50300
H  -8.75600 37.57500 38.01000
H  -10.02600 36.34500 38.46700
H  -8.32900 34.75700 38.40800
H  -7.54600 35.56900 39.62400
H  -10.88000 43.42800 41.25900
H  -11.91400 44.76500 41.96300
H  -12.20100 44.17100 40.40100
H  -16.59900 43.69300 43.27900
H  -15.90700 44.96000 44.38000
H  -15.69600 43.30400 44.86700
H  -17.66500 39.40600 44.01700
H  -16.71800 37.41500 46.06600
H  -16.26100 40.48000 46.48100
H  -17.61000 39.36600 46.72400
H  -17.80300 40.90200 45.78600
H  -18.21000 36.79000 43.35200
H  -19.06300 37.71600 44.54800
H  -18.32800 35.67800 46.15400
H  -18.73300 34.95000 44.62300
H  -19.87600 35.97600 45.42800
H  -13.70600 32.01500 43.22100
H  -15.14000 32.99300 43.30800
H  -14.16600 32.80600 44.73200
H  -10.41200 34.28500 39.77300
H  -7.31300 35.33900 44.03700
H  -6.49600 35.06900 42.55700
H  -7.17200 33.78700 43.40800

