158

Mg 40.15000 9.41600 30.36100
C  42.11100 10.66300 33.03200
C  37.71200 8.42000 32.67800
C  38.64000 7.67500 27.95400
C  43.06700 9.76400 28.25900
N  40.00500 9.41000 32.68800
C  40.87600 10.11300 33.52500
C  40.25700 10.17500 34.87300
C  38.92200 9.31600 34.77800
C  38.80900 9.15800 33.25900
C  38.96000 7.93000 35.48600
C  40.04300 11.62400 35.38200
C  40.79700 11.94700 36.65900
H  39.96900 12.54000 37.79100
N  38.36200 8.24200 30.29400
C  37.51400 7.94200 31.39500
C  36.47100 7.05000 30.85000
C  36.74300 6.86900 29.46200
C  37.94600 7.63900 29.19100
C  35.30500 6.52100 31.67500
C  35.99700 5.89500 28.46600
O  36.46200 5.63500 27.35000
C  34.70200 5.31100 28.90200
N  40.84000 8.76800 28.41600
C  39.87700 8.24000 27.53500
C  40.33100 8.31100 26.09500
C  41.75200 8.87000 26.27700
C  41.89800 9.20400 27.76000
C  40.18800 7.04100 25.29700
C  42.14300 9.98300 25.27600
C  41.27200 11.26500 25.36600
N  42.14600 10.16600 30.54400
C  43.14100 10.28800 29.55600
C  44.19800 11.10800 30.13400
C  43.84800 11.26500 31.53300
C  42.58600 10.69300 31.67700
C  45.36800 11.75700 29.41500
C  44.27000 11.88800 32.79900
O  45.25900 12.52800 32.95300
C  43.16700 11.44200 33.85400
C  43.85900 10.75900 34.92800
O  44.61300 9.82100 34.88500
O  43.66900 11.50700 36.00600
C  44.29900 11.07000 37.24200
H  36.85000 8.18200 33.30500
H  38.09800 7.24300 27.11100
H  43.77900 10.08200 27.49400
H  40.90100 9.63800 35.56900
H  37.96300 9.76700 35.03300
H  38.17300 7.83300 36.23300
H  39.84600 7.77700 36.10200
H  38.77900 7.27600 34.63300
H  38.97700 11.81300 35.51400
H  40.39300 12.28500 34.59000
H  41.42200 12.82400 36.48800
H  41.37100 11.09700 37.02600
H  35.19600 6.89500 32.69300
H  35.42700 5.43800 31.64500
H  34.35900 6.63500 31.14500
H  33.96100 6.10500 28.99000
H  34.76000 4.78300 29.85400
H  34.43000 4.44800 28.29400
H  39.74900 9.06800 25.56900
H  42.48400 8.09700 26.04400
H  39.56700 6.22700 25.67000
H  41.09500 6.49000 25.04900
H  39.93100 7.37300 24.29100
H  41.91600 9.40500 24.38000
H  43.17100 10.32500 25.39100
H  40.39400 11.23600 26.01000
H  40.94200 11.41000 24.33700
H  41.82200 12.10100 25.79700
H  45.11600 12.66300 28.86200
H  45.85600 11.07100 28.72300
H  46.23500 12.04000 30.01200
H  42.77300 12.38300 34.23600
H  43.57800 11.36400 38.00500
H  45.21600 11.65600 37.31100
H  44.66600 10.05600 37.40000
Mg -0.87300 34.78200 27.44600
C  -2.55800 32.58800 29.80000
C  0.16700 36.55300 29.99400
C  0.01500 37.15600 25.23200
C  -2.42400 32.88900 25.07900
N  -1.10400 34.53800 29.67600
C  -1.79800 33.57200 30.37800
C  -1.64300 33.75800 31.87100
C  -0.86100 35.14400 31.98900
C  -0.54000 35.46400 30.45800
C  -1.58600 36.29200 32.78200
C  -1.01800 32.54000 32.62600
C  -1.66600 32.26600 33.98700
H  -0.75000 32.21500 35.17900
N  0.04100 36.59700 27.59400
C  0.46600 37.13700 28.73600
C  1.26200 38.31000 28.50400
C  1.25200 38.49100 27.10900
C  0.41300 37.45100 26.54600
C  1.90000 39.10800 29.59200
C  2.09200 39.50700 26.24300
O  1.98800 39.58400 25.02700
C  3.16200 40.34000 26.80500
N  -1.27000 35.12900 25.49700
C  -0.76100 36.12000 24.76900
C  -1.19100 36.02600 23.33000
C  -1.72100 34.54600 23.24900
C  -1.77500 34.11900 24.70000
C  -2.16000 37.13700 22.90600
C  -0.84500 33.53000 22.42400
C  -1.37900 33.37700 20.94900
N  -2.31900 33.16400 27.39200
C  -2.78300 32.48600 26.35400
C  -3.73900 31.48600 26.76800
C  -3.64900 31.42100 28.10900
C  -2.75900 32.45800 28.46200
C  -4.63500 30.69100 25.78700
C  -4.02500 30.72900 29.29600
O  -4.67300 29.66700 29.43400
C  -3.46900 31.53500 30.50000
C  -4.58100 32.01500 31.35300
O  -5.42400 32.79300 31.02200
O  -4.58300 31.35000 32.58700
C  -5.52400 31.65600 33.59100
H  0.56600 37.09700 30.85200
H  0.28500 37.83300 24.41800
H  -2.95300 32.30000 24.32700
H  -2.67700 33.89100 32.18800
H  0.02400 35.05900 32.62000
H  -1.61200 37.23800 32.24100
H  -1.11500 36.40700 33.75900
H  -2.62500 36.08600 33.03800
H  -0.00300 32.74500 32.96700
H  -1.00900 31.66100 31.98100
H  -1.93500 31.21100 34.03400
H  -2.56100 32.86000 34.17000
H  1.40200 39.03000 30.55900
H  1.98400 40.15900 29.31400
H  2.90800 38.70300 29.68200
H  3.70900 39.85500 27.61300
H  2.64800 41.24400 27.13300
H  3.88300 40.56600 26.01900
H  -0.32100 36.08200 22.67600
H  -2.69600 34.51000 22.76400
H  -2.19900 37.78700 23.77900
H  -3.11900 36.71300 22.60700
H  -1.79100 37.62500 22.00400
H  -0.72700 32.56900 22.92500
H  0.19300 33.86300 22.43100
H  -0.39900 33.42300 20.47400
H  -2.10500 34.15200 20.70100
H  -1.86900 32.41600 20.79400
H  -4.04300 29.81500 25.52300
H  -4.88400 31.24300 24.88200
H  -5.50400 30.33300 26.33900
H  -2.77400 30.83700 30.96800
H  -6.40200 32.14800 33.17200
H  -4.92600 32.26800 34.26600
H  -5.92100 30.76600 34.07700

