158

Mg 44.43800 5.58700 47.03400
C  42.24100 8.29000 46.81600
C  41.79700 3.54000 46.27600
C  46.60800 3.06100 46.30200
C  47.18800 7.77800 47.53200
N  42.25000 5.96800 46.49100
C  41.56700 7.09200 46.66100
C  40.05100 6.84300 46.52300
C  39.92600 5.31100 46.20900
C  41.39200 4.90100 46.30100
C  38.99700 4.52200 47.15900
C  39.24900 7.68600 45.50700
C  39.96500 7.90200 44.10700
H  39.12300 7.21100 42.96400
N  44.22200 3.51100 46.56600
C  43.05500 2.86300 46.26900
C  43.32500 1.46200 45.95400
C  44.75900 1.35400 45.86800
C  45.29900 2.66500 46.22100
C  42.34700 0.38700 45.72600
C  45.55000 0.16000 45.20800
O  44.90300 -0.73900 44.77500
C  47.06200 0.09200 45.12800
N  46.64600 5.44300 46.95900
C  47.22900 4.28500 46.69400
C  48.79700 4.42500 46.72300
C  48.94900 5.81400 47.46500
C  47.52900 6.38400 47.37800
C  49.72100 3.35600 47.38400
C  49.97000 6.83500 46.85600
C  50.74800 7.56300 48.02700
N  44.72800 7.60800 47.14200
C  45.91500 8.36700 47.32000
C  45.52100 9.75400 47.29900
C  44.09600 9.72900 47.17000
C  43.63800 8.43900 46.99700
C  46.50500 10.89600 47.36600
C  42.92400 10.58600 47.14000
O  42.80700 11.81600 47.21500
C  41.66200 9.70100 46.87800
C  40.73200 9.84600 48.00500
O  40.79700 9.28300 49.03800
O  39.58100 10.58100 47.56600
C  38.48400 10.54600 48.48200
H  41.01100 2.83700 45.99200
H  47.42600 2.34800 46.18400
H  48.04900 8.42500 47.71200
H  39.74900 6.96200 47.56400
H  39.61500 5.09600 45.18700
H  39.59800 4.34700 48.05100
H  38.75900 3.63800 46.56700
H  38.15100 5.11200 47.51200
H  38.99800 8.67900 45.88100
H  38.33500 7.15200 45.24700
H  40.96600 7.47100 44.09300
H  40.14800 8.95700 43.89900
H  42.47700 0.03300 44.70300
H  41.36100 0.83100 45.85800
H  42.44000 -0.46400 46.40100
H  47.40600 0.40000 46.11500
H  47.21400 0.76000 44.28000
H  47.47500 -0.88400 44.87200
H  49.17200 4.49100 45.70100
H  49.08800 5.64800 48.53400
H  50.14900 3.70400 48.32400
H  50.50000 3.21100 46.63600
H  49.30200 2.37000 47.58200
H  49.47500 7.61400 46.27700
H  50.74300 6.39100 46.22900
H  50.38400 7.44800 49.04800
H  50.90200 8.61100 47.76600
H  51.64300 6.94200 48.00300
H  47.47500 10.67700 46.91800
H  46.75400 11.20000 48.38300
H  46.11300 11.79500 46.89100
H  41.14100 10.04600 45.98500
H  37.71100 11.07700 47.92700
H  38.77100 11.02300 49.41900
H  38.02900 9.57900 48.69800
Mg 27.19700 50.81600 25.86200
C  25.31300 51.94500 28.63000
C  29.42000 49.33800 28.19700
C  29.20400 49.98500 23.33900
C  25.20700 52.77000 23.86600
N  27.39100 50.70400 28.18400
C  26.42400 51.20400 29.09100
C  26.77300 50.72300 30.53300
C  28.11500 49.96300 30.32400
C  28.29400 49.95000 28.81700
C  29.30800 50.70600 30.97300
C  25.65200 50.00800 31.33500
C  25.23300 50.51800 32.79400
H  26.29000 50.77100 33.87100
N  29.04600 49.74500 25.78000
C  29.85300 49.30900 26.86400
C  30.99700 48.63900 26.27100
C  30.95600 48.88900 24.85900
C  29.70000 49.54700 24.62100
C  32.06100 47.80200 27.05900
C  32.00500 48.63300 23.77300
O  31.91400 48.84700 22.56800
C  33.29700 47.99700 24.25400
N  27.17800 51.31900 23.89300
C  28.07800 50.78400 22.99900
C  27.69000 51.09100 21.49400
C  26.32100 51.82900 21.61500
C  26.21800 52.01100 23.22600
C  28.73200 51.63400 20.52200
C  25.18800 51.05500 20.93500
C  24.20400 52.08100 20.33900
N  25.51900 52.10000 26.15400
C  24.84200 52.83600 25.21100
C  23.70100 53.54600 25.73900
C  23.85200 53.19300 27.11600
C  25.02700 52.37000 27.28300
C  22.69800 54.38100 25.05300
C  23.20200 53.28000 28.43300
O  22.02000 53.62100 28.70300
C  24.16000 52.52600 29.50900
C  24.62100 53.49600 30.55300
O  25.63600 54.17300 30.58500
O  23.67100 53.48100 31.58300
C  23.97000 54.25800 32.83600
H  30.00200 48.84700 28.98100
H  29.75500 49.63600 22.46300
H  24.50700 53.28100 23.20300
H  26.93100 51.71200 30.96400
H  28.06600 48.93800 30.69000
H  29.83900 51.33400 30.25900
H  30.00200 49.99200 31.41700
H  28.93800 51.33200 31.78500
H  26.00500 49.01200 31.60000
H  24.69600 49.80900 30.85100
H  24.57700 49.74400 33.19200
H  24.72400 51.47900 32.71900
H  32.63100 47.02800 26.54500
H  31.78100 47.32800 28.00000
H  32.89800 48.45700 27.30100
H  33.89300 48.07400 23.34400
H  33.18200 46.95900 24.56400
H  33.69900 48.71200 24.97200
H  27.45300 50.06800 21.20200
H  26.55400 52.82800 21.24700
H  29.68000 51.37100 20.99200
H  28.69100 52.72000 20.43300
H  28.79800 51.02600 19.62000
H  24.73000 50.56400 21.79300
H  25.62500 50.42700 20.15800
H  23.37400 51.46900 19.98600
H  24.55400 52.58700 19.44000
H  23.81400 52.85200 21.00300
H  21.74200 53.87800 24.90600
H  22.97900 54.66000 24.03800
H  22.55900 55.32300 25.58300
H  23.74500 51.67300 30.04600
H  25.04200 54.31700 33.02600
H  23.42000 53.95000 33.72500
H  23.61600 55.27500 32.67100

