158

Mg 17.10500 52.21900 26.55500
C  18.89400 50.86300 29.36000
C  14.60800 53.08500 28.81300
C  15.56700 53.34100 24.07500
C  19.64600 50.88300 24.51600
N  16.81800 52.12300 28.83900
C  17.64600 51.51900 29.72800
C  17.17900 51.79100 31.14300
C  15.69800 52.24400 30.95100
C  15.69700 52.51100 29.48500
C  14.53800 51.25600 31.31700
C  18.17400 52.88700 31.81700
C  18.22500 52.71100 33.38000
H  17.10900 51.99700 34.11900
N  15.34400 53.15100 26.44900
C  14.44000 53.40500 27.46700
C  13.25100 54.02900 26.87700
C  13.47400 54.15100 25.43800
C  14.83800 53.51400 25.23100
C  12.17900 54.59900 27.72400
C  12.60200 54.71400 24.31200
O  13.05700 54.78600 23.14800
C  11.24100 55.28700 24.59900
N  17.52800 51.99600 24.53600
C  16.74800 52.80400 23.72100
C  17.40000 53.00900 22.33900
C  18.79700 52.21300 22.50900
C  18.69600 51.67700 23.94900
C  16.51100 52.64700 21.09000
C  20.03700 53.02000 22.40800
C  21.29300 52.17800 21.92300
N  18.94100 51.00200 26.84200
C  19.81500 50.59500 25.90200
C  20.95200 49.95800 26.55000
C  20.60100 50.00300 27.94200
C  19.39200 50.68100 28.06200
C  22.16300 49.40600 25.78500
C  21.02700 49.63100 29.27500
O  22.08200 49.09600 29.72200
C  19.99300 50.29300 30.25200
C  19.45300 49.27600 31.16700
O  18.70800 48.36900 30.83400
O  19.90200 49.53400 32.44500
C  19.42700 48.63200 33.56600
H  13.70100 53.29600 29.38300
H  15.08500 53.84300 23.23300
H  20.53500 50.50600 24.00500
H  17.32800 50.84400 31.66200
H  15.55200 53.15400 31.53200
H  15.04200 50.38100 31.72900
H  14.05600 51.03200 30.36600
H  13.82400 51.65300 32.03900
H  17.64900 53.80700 31.56300
H  19.16900 52.84200 31.37300
H  18.31900 53.76300 33.65200
H  19.18700 52.23200 33.56300
H  11.41100 55.29500 27.38700
H  12.66500 55.02400 28.60200
H  11.68900 53.72500 28.15400
H  10.56700 54.53500 25.01000
H  10.82300 55.60200 23.64300
H  11.12000 56.14100 25.26600
H  17.53200 54.08700 22.25200
H  18.81800 51.32800 21.87400
H  16.91700 51.98400 20.32600
H  16.03600 53.53600 20.67500
H  15.65000 52.14600 21.53300
H  20.31100 53.33000 23.41700
H  19.97500 53.78600 21.63400
H  22.13900 52.45200 22.55200
H  21.35700 52.48400 20.87900
H  21.25300 51.09900 21.76800
H  22.29000 49.76000 24.76200
H  22.06700 48.32500 25.88800
H  23.05200 49.70700 26.33900
H  20.51600 51.02800 30.86500
H  20.13900 47.83500 33.78100
H  18.44500 48.21500 33.34200
H  19.24200 49.25000 34.44500
Mg -2.36900 34.76400 26.99200
C  -4.26600 32.67400 29.16700
C  -1.72500 36.83900 29.53700
C  -0.83000 36.60100 24.72200
C  -3.77600 32.78800 24.32000
N  -3.03700 34.81700 29.12700
C  -3.55400 33.74600 29.82600
C  -3.49200 34.02600 31.38600
C  -2.76900 35.43900 31.38700
C  -2.55600 35.82300 29.89600
C  -3.54100 36.58600 32.14200
C  -2.60900 32.90500 32.11100
C  -3.28900 32.08300 33.20200
H  -2.56600 32.05800 34.52600
N  -1.40800 36.48500 27.10500
C  -1.24100 37.22600 28.25200
C  -0.47300 38.40200 27.93900
C  -0.18700 38.34900 26.53100
C  -0.75200 37.09000 26.02400
C  0.11800 39.39800 28.87200
C  0.66400 39.24200 25.64500
O  0.83700 39.14200 24.45600
C  1.22400 40.62200 26.14900
N  -2.41500 34.73300 24.84300
C  -1.61400 35.58800 24.14400
C  -1.71100 35.41900 22.61500
C  -2.84200 34.28300 22.52000
C  -3.01200 33.90400 23.97500
C  -2.11200 36.72500 21.72300
C  -2.50000 33.11300 21.56600
C  -1.84800 31.83500 22.08500
N  -3.65200 32.98900 26.78100
C  -4.16400 32.43100 25.62000
C  -5.15200 31.41300 25.98200
C  -5.16000 31.46300 27.41100
C  -4.24700 32.42000 27.77800
C  -6.11800 30.65600 24.98400
C  -5.76200 30.79600 28.51500
O  -6.61300 29.96200 28.55500
C  -5.14000 31.62300 29.80800
C  -6.23600 32.29200 30.55000
O  -6.96600 33.14200 30.10200
O  -6.29900 31.79900 31.85100
C  -7.52900 32.19100 32.53200
H  -1.29400 37.36600 30.39000
H  -0.39700 37.19400 23.91300
H  -4.41200 32.33500 23.55700
H  -4.49200 34.16000 31.79800
H  -1.79400 35.30900 31.85600
H  -3.15900 36.58000 33.16300
H  -4.61700 36.42800 32.07000
H  -3.35600 37.52400 31.61800
H  -1.78200 33.35400 32.66000
H  -2.11600 32.21700 31.42500
H  -3.46900 31.09400 32.78200
H  -4.24000 32.51600 33.51400
H  -0.34400 40.35400 28.62500
H  1.19200 39.57000 28.80200
H  -0.19900 39.19100 29.89400
H  0.36300 41.22600 26.43500
H  1.76600 41.02900 25.29600
H  1.82700 40.36100 27.01900
H  -0.86100 34.85200 22.23400
H  -3.77200 34.76200 22.21300
H  -2.57100 37.45900 22.38600
H  -2.90900 36.45100 21.03200
H  -1.29800 37.20800 21.18100
H  -1.92300 33.48400 20.71900
H  -3.40000 32.86000 21.00700
H  -2.51300 30.97600 22.17300
H  -1.33900 32.14400 22.99800
H  -1.01200 31.52800 21.45700
H  -6.63800 31.28300 24.26000
H  -6.83100 29.97600 25.45000
H  -5.44300 30.10800 24.32800
H  -4.65600 30.96100 30.52600
H  -7.76200 31.37100 33.21100
H  -8.41700 32.22400 31.89900
H  -7.37500 33.13500 33.05500

