158

Mg 34.37700 3.40600 29.30600
C  32.45300 4.24300 31.97600
C  37.05900 2.82400 31.51900
C  36.55000 2.81100 26.64800
C  31.81000 3.92500 27.15800
N  34.70000 3.53400 31.45700
C  33.72900 3.86600 32.34000
C  34.26200 3.87500 33.79000
C  35.79300 3.64300 33.70200
C  35.86600 3.24200 32.13800
C  36.65100 4.96500 33.98500
C  33.49700 2.86900 34.70200
C  33.20700 3.35400 36.06800
H  33.90900 4.41500 36.79800
N  36.46800 2.84000 29.13000
C  37.32900 2.57500 30.11400
C  38.62500 2.35500 29.64600
C  38.55800 2.33600 28.22600
C  37.17000 2.69500 27.92400
C  39.82200 2.14700 30.59800
C  39.65600 2.03800 27.16900
O  39.45600 2.12800 25.91500
C  41.07500 1.59000 27.76100
N  34.18900 3.36400 27.21800
C  35.20300 3.04200 26.26800
C  34.78700 3.35700 24.84800
C  33.27000 3.65300 25.00200
C  33.08700 3.66000 26.56300
C  35.60300 4.46900 24.12200
C  32.39100 2.66400 24.12400
C  31.89500 1.37800 24.86200
N  32.45900 3.92400 29.47100
C  31.52500 4.07600 28.51000
C  30.28000 4.55400 29.09300
C  30.62600 4.62400 30.48000
C  31.96200 4.22100 30.62900
C  29.09300 4.81600 28.21700
C  30.06600 4.92000 31.79700
O  28.92500 5.10500 32.24500
C  31.25600 4.68200 32.82900
C  31.43000 5.94300 33.59500
O  32.11800 6.91300 33.31400
O  30.60300 5.90300 34.69300
C  30.59000 7.15700 35.45500
H  37.81500 2.74500 32.30300
H  37.08700 2.81900 25.69700
H  31.08800 4.14000 26.36800
H  34.08400 4.89700 34.12300
H  36.15000 2.78700 34.27600
H  36.03300 5.56200 34.65600
H  36.95600 5.57100 33.13200
H  37.53400 4.74000 34.58200
H  34.02700 1.92900 34.54300
H  32.56900 2.68600 34.16000
H  33.47100 2.55700 36.76300
H  32.13600 3.51100 36.19600
H  40.71300 2.59700 30.16100
H  40.12900 1.13000 30.84100
H  39.66500 2.68300 31.53400
H  41.69000 1.20000 26.95000
H  41.00500 0.79700 28.50500
H  41.65700 2.45100 28.09100
H  34.86400 2.37400 24.38400
H  33.11700 4.66300 24.62000
H  36.09100 3.88300 23.34200
H  36.32600 4.98800 24.75000
H  34.89900 5.20300 23.73000
H  32.88500 2.31700 23.21600
H  31.52900 3.27100 23.84600
H  32.44700 1.27800 25.79600
H  32.06900 0.50300 24.23500
H  30.81600 1.48300 24.97800
H  28.69800 3.98600 27.62900
H  29.48800 5.57300 27.54000
H  28.24500 5.21000 28.77700
H  30.84200 3.94200 33.51300
H  29.78200 7.14600 36.18700
H  30.48000 8.11100 34.93900
H  31.57600 7.24700 35.91100
Mg 40.28200 9.71300 29.44400
C  42.17600 10.48400 32.08900
C  37.90100 8.27000 31.67400
C  38.24500 8.62000 26.80300
C  42.78400 10.38900 27.19200
N  40.05800 9.40500 31.67500
C  40.91200 10.08800 32.50200
C  40.39600 9.86000 33.89500
C  39.03100 9.13100 33.81400
C  39.01700 8.79100 32.31000
C  38.79900 8.00500 34.83400
C  40.36700 11.19900 34.74100
C  41.36100 11.37000 35.86400
H  40.87600 11.87100 37.22400
N  38.31000 8.65400 29.24400
C  37.58000 8.15800 30.30000
C  36.33400 7.71500 29.75000
C  36.41100 7.74600 28.35300
C  37.73100 8.39000 28.04700
C  35.29700 7.18400 30.65100
C  35.43700 7.19200 27.36500
O  35.66900 7.16600 26.12700
C  34.06400 6.73000 27.83500
N  40.51000 9.53000 27.21900
C  39.50100 9.06600 26.41000
C  39.94100 9.14200 24.90100
C  41.40500 9.68900 25.00900
C  41.62000 9.85100 26.55400
C  39.75000 7.68300 24.29600
C  41.63100 11.08000 24.32400
C  41.23500 12.30200 25.20400
N  42.08400 10.40600 29.57000
C  43.04400 10.59900 28.58400
C  44.28900 11.07100 29.22400
C  43.94900 11.09300 30.58300
C  42.63100 10.59200 30.72500
C  45.57500 11.29400 28.53200
C  44.48300 11.41400 31.89200
O  45.56400 11.93300 32.13700
C  43.29600 11.05100 32.94000
C  43.94600 10.07200 33.90500
O  43.86200 8.87300 33.77200
O  44.55000 10.72000 34.96300
C  44.98100 9.78800 35.96100
H  37.02800 8.11300 32.31100
H  37.66600 8.24300 25.95700
H  43.72900 10.32100 26.64900
H  41.14200 9.16400 34.27900
H  38.25100 9.81200 34.15400
H  37.91200 8.34100 35.37100
H  39.64100 8.03900 35.52500
H  38.76400 7.00700 34.39600
H  39.40900 11.35700 35.23700
H  40.55600 12.03800 34.07100
H  42.07600 12.12800 35.54500
H  41.85500 10.42100 36.07600
H  35.18800 6.10200 30.58500
H  34.29900 7.60900 30.55000
H  35.57100 7.18800 31.70700
H  33.98900 5.69600 28.16900
H  33.32000 6.81000 27.04300
H  33.68800 7.45900 28.55300
H  39.29800 9.80300 24.31900
H  42.14700 9.00800 24.59500
H  39.57100 6.91900 25.05300
H  40.66600 7.27500 23.86800
H  39.04700 7.65700 23.46400
H  41.06100 11.19000 23.40100
H  42.69100 11.09000 24.07100
H  40.33300 12.11800 25.78800
H  40.98300 13.09400 24.49900
H  42.10500 12.57400 25.80300
H  45.78900 10.49700 27.81900
H  46.44400 11.53700 29.14300
H  45.43300 12.23200 27.99500
H  42.93900 11.92100 33.49100
H  45.67400 10.31200 36.62000
H  45.35400 8.79900 35.69700
H  44.09600 9.58600 36.56500

