158

Mg 8.85100 47.68900 27.20700
C  7.29000 46.99300 30.13100
C  11.87100 47.99200 28.97000
C  10.45000 48.56400 24.29700
C  5.93400 47.74500 25.43700
N  9.61600 47.17400 29.34400
C  8.69200 47.07900 30.34800
C  9.42700 47.37000 31.74600
C  10.91500 47.62000 31.38900
C  10.84800 47.59300 29.85600
C  11.35900 48.99300 31.99500
C  9.36100 46.18100 32.73300
C  9.28000 46.59400 34.23800
H  9.96800 45.64700 35.26900
N  10.89900 48.11600 26.67400
C  11.97000 48.17700 27.57800
C  13.20500 48.60800 26.81200
C  12.82400 48.74500 25.48700
C  11.33600 48.40300 25.41500
C  14.47100 48.86700 27.46800
C  13.65800 49.16500 24.29300
O  13.15500 49.16400 23.16800
C  15.04900 49.79000 24.49900
N  8.24900 48.03300 25.17200
C  9.15300 48.36600 24.19900
C  8.46800 48.59000 22.80400
C  6.99700 48.21600 23.16700
C  7.02500 48.09800 24.70100
C  8.71900 50.01200 22.24800
C  6.55600 46.78800 22.51200
C  5.13100 46.66600 21.99800
N  6.92000 47.48700 27.66000
C  5.81400 47.44100 26.84300
C  4.69000 47.13200 27.71700
C  5.23400 47.02000 29.01700
C  6.58200 47.20600 28.90500
C  3.24200 47.06700 27.29700
C  4.78000 46.78900 30.38200
O  3.65300 46.65300 30.88300
C  6.16300 46.78000 31.18800
C  6.21400 45.43500 31.82700
O  6.36300 44.37400 31.23700
O  6.03300 45.55100 33.25100
C  6.50700 44.35100 33.96700
H  12.74800 48.24800 29.56800
H  10.85900 48.98000 23.37300
H  5.08100 47.67600 24.75800
H  8.90500 48.27400 32.05900
H  11.68500 46.93800 31.74800
H  12.39400 48.71400 32.19600
H  10.87300 49.17900 32.95300
H  11.19200 49.77300 31.25200
H  10.27700 45.59100 32.72300
H  8.49600 45.57100 32.47100
H  8.22200 46.58200 34.50300
H  9.56300 47.64500 34.28400
H  14.60000 49.94900 27.42100
H  15.23700 48.32300 26.91500
H  14.58300 48.69000 28.53700
H  14.90000 50.50100 25.31200
H  15.30600 50.29300 23.56700
H  15.81500 49.04000 24.69300
H  8.96900 47.92400 22.10100
H  6.32600 49.01300 22.84600
H  9.17100 50.50100 23.11100
H  7.82900 50.48000 21.82800
H  9.38900 50.01800 21.38900
H  6.56300 45.99300 23.25800
H  7.29300 46.62300 21.72600
H  5.05000 46.39300 20.94600
H  4.76200 47.69000 22.04500
H  4.41200 46.05600 22.54500
H  2.76800 46.20600 27.76800
H  3.12000 47.05800 26.21300
H  2.69000 47.86800 27.79000
H  6.22400 47.45700 32.04000
H  6.42700 44.55200 35.03500
H  7.55700 44.08300 33.85100
H  5.90800 43.50300 33.63300
Mg -11.25800 18.45500 43.08500
C  -7.75600 18.69300 43.93700
C  -11.50800 21.81100 42.86700
C  -14.28000 18.02500 41.83000
C  -10.72100 14.91700 43.09200
N  -9.75600 19.95900 43.36600
C  -8.43700 19.87100 43.65600
C  -7.76300 21.21800 43.37000
C  -9.01800 22.22900 43.48900
C  -10.20000 21.32000 43.16100
C  -9.17900 23.08000 44.78700
C  -7.20600 21.14100 41.89600
C  -5.72100 21.32800 41.83600
H  -5.14600 21.99200 40.62900
N  -12.73600 19.74900 42.42100
C  -12.70100 21.11200 42.40500
C  -13.82000 21.68500 41.80100
C  -14.71500 20.54000 41.44800
C  -13.97600 19.38100 41.97500
C  -13.95600 23.14900 41.58600
C  -16.10700 20.70200 40.90300
O  -16.50700 21.78700 40.55200
C  -16.96500 19.55800 40.58900
N  -12.32300 16.75800 42.50200
C  -13.59600 16.83400 41.98300
C  -14.20400 15.47500 41.75300
C  -13.13700 14.43600 42.26800
C  -11.96800 15.38500 42.61000
C  -15.68000 15.32500 42.24400
C  -12.74700 13.32600 41.17400
C  -12.58000 11.84500 41.69900
N  -9.63800 16.95100 43.57700
C  -9.60500 15.61600 43.52300
C  -8.27000 15.14800 43.83700
C  -7.49400 16.27000 44.08600
C  -8.41100 17.38100 43.93800
C  -7.83200 13.69600 43.83200
C  -6.17900 16.83100 44.41400
O  -5.13500 16.26000 44.79000
C  -6.32800 18.35700 44.35500
C  -5.91400 18.87000 45.71900
O  -6.55700 18.76800 46.71500
O  -4.57200 19.27300 45.73000
C  -4.07600 20.03200 46.86100
H  -11.48200 22.90200 42.91100
H  -15.26300 17.74400 41.44600
H  -10.51000 13.87800 42.83000
H  -7.10700 21.36000 44.22900
H  -8.83100 22.94300 42.68700
H  -9.49400 24.06900 44.45300
H  -8.19800 23.15900 45.25700
H  -9.90400 22.62000 45.45800
H  -7.66100 21.85800 41.21200
H  -7.42900 20.19300 41.40700
H  -5.25400 20.37300 42.07700
H  -5.44700 21.91500 42.71300
H  -14.36900 23.40600 40.61000
H  -12.95400 23.56900 41.50100
H  -14.55600 23.59300 42.38000
H  -16.60000 18.96300 39.75100
H  -17.92600 19.89800 40.20300
H  -17.16900 18.91400 41.44400
H  -14.16600 15.36900 40.66900
H  -13.46600 13.92600 43.17400
H  -15.96100 16.16900 42.87400
H  -15.75800 14.36300 42.74900
H  -16.33400 15.23900 41.37700
H  -11.83200 13.66800 40.69000
H  -13.48900 13.33900 40.37500
H  -12.46700 11.09000 40.92100
H  -13.53900 11.48500 42.07200
H  -11.84900 11.87400 42.50600
H  -8.05600 13.27600 42.85100
H  -8.27600 13.12700 44.64900
H  -6.74600 13.61700 43.88600
H  -5.55000 18.56500 43.62000
H  -4.28700 21.09400 46.73200
H  -3.01000 20.06500 47.08800
H  -4.67300 19.79100 47.74000

