158

Mg 41.70600 40.48600 26.14500
C  40.99400 43.03600 28.49400
C  43.17600 38.59600 28.63800
C  42.59100 38.20800 23.76900
C  41.12000 42.77400 23.61200
N  42.17800 40.85900 28.33900
C  41.63600 41.86100 29.10300
C  41.84400 41.56200 30.55500
C  42.64200 40.23200 30.55200
C  42.63000 39.84800 29.05200
C  44.14100 40.23000 31.08900
C  40.55500 41.49000 31.32200
C  40.68300 42.22600 32.60600
H  39.83500 41.88700 33.77300
N  42.71700 38.66500 26.23700
C  43.19300 38.07600 27.35700
C  43.63600 36.76900 27.02900
C  43.44800 36.52400 25.63900
C  42.91600 37.82100 25.13500
C  44.10800 35.77500 28.02500
C  43.85400 35.38100 24.74800
O  43.70900 35.28600 23.54600
C  44.28300 34.15300 25.40400
N  42.12100 40.62300 24.08800
C  42.26600 39.49200 23.35500
C  42.19800 39.84300 21.85200
C  41.70600 41.25900 21.83800
C  41.58900 41.56600 23.29000
C  43.54100 39.64600 21.15200
C  40.46300 41.53200 21.03000
C  39.02100 41.06900 21.58700
N  41.01000 42.47800 26.01800
C  40.85300 43.29200 24.93500
C  40.48500 44.58300 25.39400
C  40.45000 44.54400 26.73300
C  40.83000 43.23100 27.08300
C  40.11700 45.71900 24.51100
C  40.07500 45.22700 27.95400
O  39.43700 46.28700 28.06600
C  40.42000 44.29900 29.09500
C  41.34100 44.98000 30.06600
O  42.53800 45.02900 29.93600
O  40.61300 45.41400 31.20500
C  41.43700 45.87500 32.32200
H  43.70000 38.08800 29.45000
H  42.77000 37.42600 23.02800
H  40.84800 43.45800 22.80400
H  42.42600 42.43700 30.84500
H  42.17000 39.39400 31.06500
H  44.83500 40.16900 30.25100
H  44.34400 39.39300 31.75700
H  44.30400 41.13300 31.67700
H  40.37900 40.48500 31.70600
H  39.65100 41.66100 30.73800
H  40.55100 43.27000 32.32200
H  41.67800 42.26200 33.05000
H  43.70400 35.88900 29.03100
H  45.18900 35.65300 27.95600
H  43.50200 34.90000 27.79100
H  43.38300 33.71000 25.83100
H  45.02700 34.18100 26.20000
H  44.57100 33.44300 24.62800
H  41.40400 39.23900 21.41300
H  42.53100 41.84000 21.42700
H  43.88000 40.57100 20.68600
H  43.30300 38.90200 20.39200
H  44.31300 39.09500 21.69000
H  40.51400 40.98000 20.09100
H  40.50100 42.60200 20.82500
H  39.09600 40.01800 21.86800
H  38.25700 41.15600 20.81400
H  38.66200 41.63600 22.44500
H  39.30000 46.32500 24.90400
H  39.80000 45.40600 23.51700
H  40.90700 46.42200 24.24800
H  39.47900 43.98600 29.54700
H  40.87500 46.55000 32.96700
H  42.39100 46.29000 31.99600
H  41.69600 45.03600 32.96800
Mg 26.03200 49.50500 26.69100
C  24.14600 50.95300 29.30600
C  28.51300 48.95000 28.92500
C  27.83200 48.36700 24.08200
C  23.84100 50.99900 24.39800
N  26.23500 49.93400 28.89800
C  25.29500 50.38000 29.76600
C  25.62700 50.06700 31.18800
C  27.15200 49.71000 31.00600
C  27.35000 49.55800 29.54900
C  28.23200 50.69000 31.67400
C  24.61700 49.03200 31.78700
C  24.04700 49.16800 33.28600
H  24.85600 50.04800 34.20600
N  27.93900 48.76600 26.50600
C  28.78400 48.56000 27.62300
C  30.03600 48.07600 27.09500
C  29.91900 47.94700 25.65400
C  28.53800 48.37200 25.34800
C  31.20100 47.84700 27.99600
C  30.99500 47.50000 24.61400
O  30.61800 47.33700 23.44500
C  32.40800 47.13700 25.01100
N  25.88100 49.61600 24.55800
C  26.59500 48.88200 23.69300
C  25.94300 48.77000 22.27800
C  24.70300 49.64200 22.46700
C  24.82800 50.13400 23.92400
C  26.89500 49.20800 21.10800
C  23.28100 48.97400 22.13600
C  22.60900 49.70200 20.98900
N  24.43300 50.79100 26.76200
C  23.63700 51.38200 25.75300
C  22.44800 52.03400 26.32700
C  22.67800 51.88600 27.70500
C  23.86100 51.13900 27.92000
C  21.32300 52.74900 25.63200
C  22.06700 52.21500 29.01600
O  21.01300 52.81800 29.29000
C  22.95400 51.54100 30.05600
C  23.40600 52.63400 31.00000
O  24.20200 53.51800 30.77200
O  22.73400 52.46100 32.24800
C  23.08000 53.45100 33.30000
H  29.24300 48.66100 29.68400
H  28.34300 47.97500 23.20100
H  23.07700 51.42000 23.74000
H  25.60600 51.01800 31.72100
H  27.30200 48.70500 31.39900
H  27.81900 51.66400 31.93200
H  29.09000 50.84000 31.01800
H  28.49600 50.13800 32.57600
H  25.16500 48.09000 31.75100
H  23.84200 48.83000 31.04700
H  23.89100 48.19800 33.75800
H  23.04700 49.60200 33.30500
H  32.10400 48.12500 27.45200
H  31.36300 46.78700 28.19200
H  31.34200 48.37400 28.93900
H  32.91800 47.98600 25.46400
H  32.98900 46.84800 24.13500
H  32.37700 46.37900 25.79400
H  25.75000 47.74800 21.95400
H  24.70400 50.57100 21.89600
H  27.89300 49.42400 21.48900
H  26.48700 50.09600 20.62500
H  26.98500 48.44900 20.33100
H  22.68600 49.09100 23.04200
H  23.37700 47.90800 21.92700
H  22.81700 49.06600 20.12900
H  23.00500 50.68600 20.73800
H  21.52600 49.75000 21.10600
H  20.35200 52.25400 25.62400
H  21.59500 53.12600 24.64600
H  21.02000 53.60200 26.23800
H  22.31000 50.81700 30.55400
H  24.13100 53.56900 33.56400
H  22.57400 53.26300 34.24700
H  22.68300 54.35300 32.83400

