158

Mg 2.08400 -2.00200 44.93300
C  5.30900 -1.22300 44.10200
C  0.96200 0.47900 42.72900
C  -1.00800 -3.22700 45.08700
C  3.38300 -5.17100 46.06000
N  3.02800 -0.62200 43.51100
C  4.36900 -0.43500 43.41200
C  4.77500 0.74700 42.56600
C  3.42400 1.40200 42.16800
C  2.38500 0.45100 42.85700
C  3.25700 2.84700 42.57800
C  5.70400 0.35800 41.27700
C  6.97700 1.15200 41.13200
H  7.54400 1.22500 39.65100
N  0.24700 -1.38300 44.16700
C  0.02300 -0.36800 43.30900
C  -1.34400 -0.20300 43.11600
C  -2.06400 -1.22100 43.82900
C  -0.94000 -1.97800 44.39600
C  -1.84300 0.82600 42.18200
C  -3.54600 -1.56100 43.87500
O  -4.27600 -0.89400 43.21800
C  -4.19300 -2.68400 44.69600
N  1.32100 -3.96600 45.26900
C  0.00600 -4.11400 45.45400
C  -0.34100 -5.50000 46.13700
C  1.03900 -6.13000 46.28700
C  2.04300 -5.00800 45.86700
C  -1.25400 -5.33900 47.36500
C  1.20200 -7.48100 45.54000
C  1.58000 -8.73900 46.25100
N  3.98200 -2.98000 45.38000
C  4.36700 -4.22400 45.84400
C  5.79700 -4.32400 45.90000
C  6.14400 -3.06700 45.35200
C  5.05800 -2.34700 45.00000
C  6.63400 -5.46600 46.49100
C  7.34700 -2.26000 44.98300
O  8.51900 -2.55600 45.23100
C  6.82700 -1.01600 44.22500
C  7.32500 0.22600 44.95200
O  6.97600 0.64000 46.04200
O  8.23900 0.87400 44.14800
C  8.59800 2.15600 44.63100
H  0.70200 1.39000 42.18400
H  -1.97500 -3.71300 45.23100
H  3.63300 -6.13600 46.50400
H  5.37700 1.33600 43.25900
H  3.32000 1.41800 41.08300
H  2.72500 2.92400 43.52600
H  2.78000 3.36700 41.74700
H  4.20700 3.37500 42.65700
H  5.25900 0.32100 40.28200
H  6.13800 -0.62600 41.45300
H  7.70600 0.66200 41.77800
H  6.77500 2.09400 41.64100
H  -1.80800 0.41600 41.17200
H  -1.28700 1.76000 42.25600
H  -2.87200 1.11400 42.39600
H  -3.80800 -3.64300 44.34800
H  -5.27600 -2.73800 44.58900
H  -3.93300 -2.55000 45.74500
H  -0.87500 -6.18800 45.48300
H  1.32600 -6.23400 47.33400
H  -0.64400 -5.70800 48.18900
H  -2.21200 -5.85700 47.31300
H  -1.39400 -4.28000 47.58200
H  2.12300 -7.39300 44.96400
H  0.43600 -7.52200 44.76600
H  1.84800 -8.65200 47.30400
H  2.48200 -9.16000 45.80800
H  0.88400 -9.54100 46.00300
H  7.52100 -5.29400 45.88200
H  6.20800 -6.42600 46.20000
H  6.69100 -5.36800 47.57500
H  7.22300 -1.04400 43.21000
H  9.17300 2.68600 43.87100
H  9.19000 2.07300 45.54200
H  7.67400 2.67700 44.87900
Mg 35.09100 2.34100 29.12900
C  32.84000 3.52500 31.48000
C  37.41400 2.13700 31.56600
C  37.29900 1.51700 26.75300
C  32.71800 2.98200 26.56600
N  35.16800 2.99200 31.32400
C  34.05500 3.26000 32.03400
C  34.36300 3.21400 33.52300
C  35.95500 2.99600 33.59000
C  36.23000 2.70600 32.05800
C  36.86000 4.26900 34.03000
C  33.45200 2.18400 34.32800
C  33.82700 1.84400 35.80800
H  34.44200 2.97800 36.69000
N  37.11500 1.81800 29.23000
C  37.89100 1.77200 30.30300
C  39.26300 1.47200 29.97400
C  39.21800 1.10900 28.56600
C  37.84700 1.49100 28.08100
C  40.39300 1.43800 31.00000
C  40.26800 0.45300 27.63600
O  39.98900 0.04800 26.53000
C  41.62000 0.26100 28.11700
N  34.94500 2.11400 27.06200
C  36.02500 1.72100 26.28600
C  35.69700 1.77900 24.78800
C  34.12500 1.94300 24.85700
C  33.87100 2.32700 26.24200
C  36.37400 3.00000 24.01800
C  33.26300 0.76400 24.30800
C  32.52500 1.04000 23.01700
N  33.10600 3.03700 29.00700
C  32.28500 3.27300 27.93000
C  30.97200 3.70800 28.35700
C  31.14500 3.73700 29.82100
C  32.48900 3.40400 30.13200
C  29.65200 3.91100 27.64100
C  30.51500 4.03700 31.06100
O  29.40300 4.42700 31.37500
C  31.51400 3.82600 32.17500
C  31.47600 5.03600 33.13600
O  31.57100 6.20100 32.77800
O  31.22000 4.57000 34.37500
C  31.55000 5.67800 35.36700
H  38.19800 2.08100 32.32400
H  37.97400 1.32800 25.91500
H  31.96200 3.01300 25.77800
H  34.14300 4.18800 33.96100
H  36.09800 2.18900 34.30800
H  37.57500 4.11700 34.83900
H  36.24500 5.11900 34.32600
H  37.47300 4.46300 33.15000
H  33.67800 1.31600 33.70800
H  32.38500 2.40600 34.32000
H  34.41500 0.92700 35.84800
H  32.94800 1.55000 36.38200
H  40.27400 2.34200 31.59700
H  41.36100 1.52800 30.50800
H  40.42300 0.52900 31.60000
H  41.89900 1.29200 28.33400
H  42.23300 -0.07600 27.28100
H  41.74900 -0.38900 28.98300
H  36.02100 0.86100 24.29800
H  33.85000 2.80800 24.25300
H  37.25200 3.18500 24.63800
H  35.80500 3.92900 24.02400
H  36.78700 2.74500 23.04200
H  32.55300 0.49600 25.09100
H  33.86400 -0.13200 24.15200
H  32.20400 2.07900 22.93700
H  31.58600 0.49800 22.90700
H  33.32900 0.79800 22.32200
H  29.70200 3.61600 26.59300
H  29.32800 4.94700 27.74900
H  28.97900 3.28800 28.23000
H  31.23300 2.92300 32.71700
H  30.74900 6.40300 35.51700
H  32.45400 6.22800 35.10300
H  31.78300 5.16100 36.29800

