158

Mg 36.53700 49.31900 24.96000
C  37.08200 47.60500 27.99100
C  35.42400 52.10900 26.75800
C  36.36500 50.93700 22.04900
C  37.84400 46.49100 23.31200
N  36.25900 49.73000 27.11800
C  36.52400 48.88800 28.19800
C  36.11700 49.60300 29.50200
C  35.49300 50.91400 29.00200
C  35.74400 50.94800 27.51500
C  33.97900 51.04200 29.33000
C  37.35700 49.87400 30.46200
C  37.17900 49.92600 31.94900
H  35.85200 49.76600 32.54800
N  35.97300 51.18800 24.52200
C  35.51400 52.18700 25.36700
C  35.15400 53.38000 24.54200
C  35.42500 53.07900 23.20400
C  35.97100 51.67600 23.19400
C  34.84500 54.78300 25.14800
C  35.20300 53.85900 21.91900
O  35.33900 53.40600 20.81900
C  34.76400 55.30000 21.98300
N  37.03300 48.73600 22.93800
C  36.86300 49.63400 21.93300
C  37.40900 49.02600 20.51400
C  38.00900 47.59800 21.01500
C  37.63600 47.58400 22.48800
C  36.37000 48.81900 19.42600
C  39.52900 47.47000 20.77200
C  40.41900 48.63500 21.41800
N  37.37700 47.36700 25.50400
C  37.81800 46.38000 24.69400
C  38.19500 45.23600 25.52400
C  37.96300 45.72700 26.81600
C  37.42000 47.01900 26.75600
C  38.80300 43.87200 25.07800
C  38.02200 45.30300 28.18000
O  38.34000 44.32200 28.77900
C  37.50400 46.52000 29.07000
C  36.33500 46.15000 29.86000
O  35.28000 45.83700 29.41700
O  36.68600 46.14800 31.18400
C  35.82600 45.41300 32.14500
H  35.20100 52.96300 27.40100
H  36.50700 51.31700 21.03500
H  38.28600 45.65600 22.76500
H  35.48000 48.91100 30.05300
H  35.98600 51.75300 29.49200
H  33.75800 50.13100 29.88600
H  33.35000 51.06300 28.44100
H  33.80900 52.01500 29.79100
H  38.02100 50.64800 30.07700
H  37.84400 48.90000 30.40100
H  37.70000 50.81300 32.31000
H  37.65900 49.06300 32.41000
H  34.95200 55.60900 24.44500
H  35.62300 55.01400 25.87600
H  33.84500 54.69700 25.57300
H  33.82600 55.38300 22.53100
H  34.61200 55.64500 20.96000
H  35.42900 55.98700 22.50600
H  38.20000 49.62300 20.06100
H  37.46500 46.73300 20.63400
H  35.51500 49.27400 19.92500
H  36.19800 47.80000 19.07900
H  36.77100 49.46800 18.64800
H  39.85800 47.32400 19.74300
H  39.75500 46.49400 21.20200
H  41.31300 48.73900 20.80400
H  40.70700 48.29700 22.41400
H  39.88400 49.58400 21.37800
H  39.56100 43.64000 25.82600
H  39.29900 44.00300 24.11600
H  37.95600 43.18800 25.12000
H  38.34100 46.79900 29.71000
H  35.14700 44.71200 31.65900
H  35.17000 46.02000 32.77000
H  36.46000 44.79300 32.77800
Mg 9.64100 47.44800 27.01100
C  7.28400 46.84600 29.59800
C  11.83600 48.41900 29.44500
C  11.95300 48.07300 24.63600
C  7.21000 47.12700 24.66700
N  9.52100 47.45300 29.21200
C  8.48000 47.20500 30.12300
C  8.83000 47.40600 31.52700
C  10.16700 48.23200 31.36900
C  10.57800 48.04400 29.85000
C  10.24400 49.75900 31.84800
C  8.90300 46.06500 32.40900
C  9.93900 46.07800 33.53800
H  9.58800 45.17800 34.70100
N  11.66800 48.09000 27.02600
C  12.40200 48.45500 28.10900
C  13.78700 48.82300 27.72900
C  13.85800 48.65800 26.30700
C  12.46600 48.20000 25.91500
C  14.82000 49.12700 28.78700
C  15.05700 48.82700 25.25300
O  14.98800 48.50100 24.08500
C  16.26200 49.28100 25.93400
N  9.58700 47.81000 24.93600
C  10.63800 47.90000 24.15000
C  10.34500 47.82300 22.59000
C  8.76700 47.68500 22.62300
C  8.47700 47.46700 24.13800
C  10.82900 48.96800 21.67100
C  8.07200 46.54700 21.70800
C  7.28600 47.03000 20.43800
N  7.65400 47.00000 27.05200
C  6.80600 46.87200 25.98000
C  5.48300 46.58500 26.43200
C  5.58100 46.50600 27.89400
C  6.96200 46.78000 28.19200
C  4.28000 46.34300 25.59500
C  4.86800 46.30100 29.15300
O  3.70800 46.00400 29.45000
C  6.02600 46.41700 30.33300
C  6.06300 45.10100 31.05500
O  6.90700 44.24100 30.92400
O  5.20200 45.10000 32.12300
C  5.17400 43.91500 33.03800
H  12.54500 48.81000 30.17700
H  12.76200 48.16900 23.90800
H  6.49900 46.83000 23.89300
H  8.06900 48.08300 31.91500
H  10.96000 47.66400 31.85400
H  11.18800 49.92300 32.36800
H  9.45100 50.08300 32.52200
H  10.18100 50.38800 30.95900
H  9.03600 45.21900 31.73500
H  7.92100 45.95100 32.86900
H  10.17100 47.10800 33.80900
H  10.69200 45.38000 33.17000
H  14.99700 50.19800 28.68500
H  15.65500 48.45200 28.59900
H  14.48700 48.97100 29.81300
H  15.95300 50.13600 26.53700
H  16.99200 49.54100 25.16800
H  16.59400 48.45500 26.56300
H  10.86800 46.94100 22.21900
H  8.22200 48.62100 22.50600
H  11.27800 49.78800 22.23200
H  10.08000 49.44200 21.03700
H  11.71000 48.71900 21.07900
H  7.53900 45.86500 22.37100
H  8.91200 45.96500 21.33000
H  7.99100 47.27100 19.64200
H  6.87500 48.02600 20.60300
H  6.65800 46.19800 20.12000
H  3.97900 47.31500 25.20400
H  3.42400 45.90400 26.10700
H  4.57100 45.72300 24.74600
H  5.65200 47.14200 31.05700
H  5.33900 44.26700 34.05600
H  5.99100 43.22900 32.81500
H  4.14500 43.55600 33.06700

