158

Mg 24.55200 -6.41300 45.62300
C  26.89000 -4.11700 44.27400
C  22.32900 -5.03200 43.51500
C  22.67900 -9.08800 46.13200
C  27.29900 -7.76200 47.50700
N  24.63800 -4.78200 43.99900
C  25.67400 -3.98100 43.64500
C  25.40300 -3.16400 42.40500
C  23.86900 -3.12600 42.63800
C  23.55100 -4.37300 43.41700
C  23.42200 -1.72300 43.31500
C  25.86500 -3.80900 41.09400
C  26.64100 -2.83000 40.21000
H  26.46000 -2.83500 38.69800
N  22.72700 -6.91300 44.93700
C  21.94600 -6.25000 44.08800
C  20.65100 -6.93700 43.93100
C  20.71400 -8.10300 44.75200
C  22.11700 -8.09600 45.29400
C  19.46300 -6.51000 43.07900
C  19.61800 -9.11600 44.87400
O  18.59300 -9.06400 44.16400
C  19.76500 -10.35800 45.81600
N  24.95200 -8.22000 46.54800
C  23.96000 -9.12600 46.74400
C  24.56800 -10.34800 47.51100
C  25.85300 -9.72900 48.10700
C  26.09600 -8.52100 47.33800
C  23.55600 -10.93600 48.57800
C  27.05200 -10.80900 48.12100
C  27.68800 -11.21700 49.44100
N  26.61600 -6.03300 45.88900
C  27.56800 -6.62700 46.72200
C  28.81500 -5.94100 46.59000
C  28.60900 -4.94400 45.61500
C  27.26100 -5.10900 45.21100
C  30.05300 -6.30200 47.32600
C  29.25400 -3.88400 44.96900
O  30.42300 -3.51500 44.98700
C  28.12800 -3.28300 43.97600
C  27.89400 -1.81800 44.18900
O  27.37900 -1.32700 45.13800
O  28.56100 -1.07200 43.17600
C  28.64500 0.42000 43.31900
H  21.53700 -4.51100 42.97400
H  22.03000 -9.92700 46.38800
H  28.12800 -8.14100 48.10900
H  25.90700 -2.21000 42.56200
H  23.32900 -3.29500 41.70600
H  22.77400 -1.18000 42.62600
H  24.27700 -1.05200 43.39300
H  22.91800 -1.85400 44.27200
H  24.98300 -4.06700 40.50800
H  26.51100 -4.68200 41.19300
H  27.67900 -2.89700 40.53400
H  26.35600 -1.83300 40.54700
H  18.58400 -6.59500 43.71800
H  19.26400 -7.16700 42.23300
H  19.62400 -5.48300 42.75100
H  18.90600 -11.02500 45.88900
H  19.98400 -10.09400 46.85000
H  20.51400 -10.99800 45.35200
H  24.85700 -11.11900 46.79800
H  25.71900 -9.45000 49.15200
H  22.81800 -10.15800 48.77400
H  24.14000 -11.10000 49.48300
H  23.06600 -11.81700 48.16200
H  27.93000 -10.52900 47.54000
H  26.76600 -11.78300 47.72300
H  28.03600 -12.24200 49.31000
H  27.10300 -11.00100 50.33500
H  28.54900 -10.54900 49.45400
H  30.89800 -5.66500 47.06400
H  30.22800 -7.32000 46.98000
H  29.87200 -6.20200 48.39700
H  28.52400 -3.52300 42.98900
H  27.84900 1.00400 42.85600
H  29.44600 0.70300 42.63600
H  28.84100 0.65500 44.36500
Mg 26.37000 51.06500 25.73200
C  24.63100 52.20200 28.50100
C  28.78700 49.78200 27.79400
C  27.93400 49.97400 23.04600
C  24.01600 52.71700 23.76600
N  26.66100 51.06500 27.89700
C  25.76900 51.53600 28.85200
C  26.26000 51.21900 30.31300
C  27.70700 50.71500 29.93400
C  27.74000 50.48000 28.44600
C  28.95400 51.52800 30.34600
C  25.29400 50.15200 31.01800
C  24.79500 50.43700 32.50000
H  25.89000 50.95000 33.49200
N  28.16100 50.04900 25.44900
C  28.96700 49.62200 26.39900
C  29.96400 48.68400 25.85900
C  29.78300 48.75700 24.41300
C  28.62100 49.67400 24.22700
C  31.10300 48.03300 26.59300
C  30.52200 48.06300 23.34500
O  30.13700 48.14000 22.16600
C  31.69700 47.20800 23.68400
N  26.08600 51.49800 23.66400
C  26.78600 50.70400 22.75300
C  26.04000 50.63600 21.39000
C  24.83000 51.60300 21.57100
C  24.93200 51.94700 23.08700
C  26.91300 50.91200 20.15900
C  23.52100 50.87800 21.40400
C  22.67400 51.26100 20.16300
N  24.61600 52.29200 26.05700
C  23.74200 52.84700 25.09100
C  22.74000 53.64900 25.76100
C  23.04900 53.39600 27.14000
C  24.18400 52.59800 27.24900
C  21.67900 54.50300 25.16200
C  22.59300 53.50700 28.50700
O  21.53400 53.98400 28.89300
C  23.64600 52.91900 29.43400
C  24.26300 53.96000 30.38500
O  25.21300 54.65000 30.12100
O  23.69900 53.98900 31.60700
C  24.45700 54.83900 32.56400
H  29.44200 49.24800 28.48600
H  28.24100 49.39700 22.17100
H  23.27700 53.13000 23.07600
H  26.23500 52.07800 30.98300
H  27.91900 49.74500 30.38500
H  28.61200 52.17300 31.15700
H  29.36400 52.01500 29.46200
H  29.72300 50.84300 30.70300
H  25.71100 49.14900 30.93000
H  24.40100 50.08000 30.39700
H  24.28300 49.55500 32.88400
H  24.00800 51.19100 32.47700
H  31.10500 46.94600 26.51200
H  31.17600 48.29500 27.64800
H  32.01600 48.43800 26.15600
H  32.45600 47.93100 23.98600
H  32.19100 46.60300 22.92400
H  31.42000 46.49200 24.45700
H  25.76700 49.58600 21.28900
H  24.90800 52.49800 20.95400
H  27.89900 51.20900 20.51800
H  26.61300 51.70600 19.47600
H  27.04500 49.96500 19.63600
H  22.93500 50.84100 22.32300
H  23.58300 49.83500 21.09400
H  21.74000 51.58200 20.62500
H  22.50100 50.45300 19.45200
H  23.08000 52.14900 19.67900
H  22.01100 54.71100 24.14500
H  21.45500 55.38700 25.75900
H  20.78900 53.90200 24.97800
H  22.99100 52.24500 29.98500
H  25.52700 54.65000 32.47100
H  24.21100 54.61400 33.60200
H  24.23200 55.89000 32.37800

