158

Mg 40.51100 9.08700 29.27000
C  42.61400 10.51000 31.81800
C  38.69000 7.58300 31.57100
C  39.13600 7.33300 26.72400
C  43.08200 10.11300 26.96300
N  40.77400 8.95400 31.37000
C  41.52200 9.78300 32.23800
C  41.14000 9.45000 33.73700
C  39.86800 8.54300 33.58700
C  39.74500 8.35900 32.04500
C  39.85300 7.14400 34.32300
C  40.84300 10.70500 34.64100
C  40.10000 10.50400 35.98400
H  40.87300 10.86800 37.28500
N  38.95300 7.81400 29.18200
C  38.34000 7.28200 30.25600
C  37.16600 6.50600 29.80200
C  37.35100 6.40700 28.36400
C  38.56400 7.19400 28.02600
C  36.35900 5.74800 30.82400
C  36.60900 5.65100 27.36300
O  36.84400 5.58900 26.14900
C  35.34500 4.86900 27.70000
N  41.01000 8.78500 27.18600
C  40.21700 8.13600 26.35600
C  40.61600 8.22700 24.86900
C  41.99700 8.94600 24.97400
C  42.01300 9.34300 26.46000
C  40.72200 6.84300 24.10100
C  42.21900 10.14300 24.00800
C  41.38600 11.44100 24.23800
N  42.39800 10.22400 29.30500
C  43.31100 10.52100 28.30100
C  44.48800 11.20600 28.86000
C  44.22600 11.28700 30.23200
C  42.95000 10.64100 30.48200
C  45.66300 11.63500 28.06500
C  44.72100 11.79200 31.47900
O  45.76800 12.38600 31.72800
C  43.67900 11.24800 32.53100
C  44.36900 10.48300 33.55000
O  44.99700 9.48300 33.47500
O  44.32000 11.15800 34.73800
C  44.75800 10.48700 36.02200
H  38.09300 7.12000 32.36000
H  38.72700 6.81600 25.85300
H  43.80600 10.36700 26.18600
H  42.03000 8.90800 34.05800
H  39.01000 9.16900 33.83200
H  40.64500 7.01500 35.06100
H  39.79100 6.28100 33.65900
H  38.81300 7.13900 34.64700
H  40.48000 11.57400 34.09200
H  41.69700 11.26100 35.02700
H  39.77400 9.46600 36.04200
H  39.17100 11.04600 35.80700
H  36.75000 5.81900 31.83900
H  36.29700 4.68000 30.61300
H  35.29000 5.96000 30.84400
H  34.58100 5.45100 28.21500
H  35.68400 4.06200 28.35000
H  34.86400 4.55900 26.77200
H  39.86500 8.81700 24.34300
H  42.75300 8.16200 24.91800
H  40.05600 6.80400 23.23800
H  40.56000 6.02500 24.80300
H  41.71000 6.64800 23.68500
H  41.91000 9.75500 23.03700
H  43.26600 10.44700 23.99100
H  41.95000 12.16700 24.82500
H  40.44600 11.31600 24.77500
H  41.11700 11.92500 23.29900
H  45.75100 11.07800 27.13300
H  46.47100 11.43300 28.76900
H  45.66400 12.68700 27.77900
H  43.21200 12.09500 33.03300
H  44.95800 9.43900 35.80100
H  44.04900 10.66200 36.83100
H  45.72200 10.92000 36.28800
Mg 1.00700 43.62600 25.69800
C  2.88500 43.41500 28.58800
C  -1.68400 42.50600 27.43400
C  -0.55600 42.95900 22.72100
C  3.99300 44.39900 24.01600
N  0.67300 43.13500 27.74200
C  1.51300 43.34400 28.71500
C  0.84400 43.20600 30.06900
C  -0.64900 42.73200 29.78000
C  -0.58500 42.79100 28.24900
C  -1.13000 41.36400 30.34900
C  0.97500 44.51500 30.92500
C  1.54200 44.37500 32.42300
H  1.29800 43.05800 33.16500
N  -0.89100 42.85500 25.12200
C  -1.80400 42.46800 26.02300
C  -2.99100 41.95900 25.27000
C  -2.73700 42.07300 23.93000
C  -1.32700 42.58200 23.85700
C  -4.13000 41.42000 25.96200
C  -3.53800 41.72600 22.65900
O  -3.12300 41.88000 21.49300
C  -4.94500 41.26700 22.72200
N  1.57100 43.85400 23.70800
C  0.69000 43.64100 22.70400
C  1.36700 43.99200 21.34100
C  2.74700 44.56300 21.77100
C  2.80400 44.37400 23.27900
C  1.44700 42.69400 20.50300
C  3.05100 46.09800 21.45300
C  3.76300 46.30600 20.10000
N  3.03500 43.91500 26.18900
C  4.14500 44.16700 25.39100
C  5.37200 44.04100 26.19500
C  4.88100 43.77500 27.46200
C  3.48800 43.71300 27.42500
C  6.75400 44.22500 25.65500
C  5.33700 43.56700 28.79300
O  6.44900 43.52900 29.29000
C  3.99100 43.46300 29.69100
C  4.13300 42.28900 30.54000
O  3.81200 41.16500 30.21700
O  4.90100 42.60500 31.64100
C  5.16300 41.50000 32.61300
H  -2.62300 42.31600 27.95900
H  -1.02600 42.80600 21.74700
H  4.81100 44.83000 23.43500
H  1.36600 42.36700 30.53100
H  -1.41200 43.49400 29.93700
H  -0.25200 40.82500 30.70600
H  -1.56400 40.70000 29.60100
H  -1.64000 41.56200 31.29200
H  -0.01800 44.95800 30.99900
H  1.62300 45.25700 30.45900
H  1.01700 45.18600 32.92800
H  2.56700 44.68100 32.63500
H  -4.39700 40.49900 25.44400
H  -4.98100 42.08300 26.12000
H  -3.91500 41.04800 26.96400
H  -5.65700 41.98100 23.13400
H  -5.07100 40.28000 23.16800
H  -5.30400 41.28200 21.69300
H  0.62300 44.69400 20.96400
H  3.62200 44.04500 21.37700
H  1.34900 41.81300 21.13800
H  2.45200 42.64800 20.08100
H  0.71100 42.78200 19.70500
H  3.63400 46.49300 22.28500
H  2.09400 46.62000 21.46300
H  3.86600 45.36300 19.56200
H  4.82300 46.54400 20.18300
H  3.18600 46.96400 19.44900
H  6.79100 44.65300 24.65300
H  7.35400 43.31500 25.63400
H  7.40900 44.87300 26.23600
H  3.90300 44.36700 30.29400
H  5.03400 42.06800 33.53400
H  6.15200 41.04200 32.60700
H  4.43300 40.69300 32.66500

