158

Mg 0.73400 7.51300 25.34100
C  1.43000 9.58500 28.16800
C  1.44600 4.79200 27.28700
C  0.08600 5.76000 22.81000
C  0.88400 10.45200 23.42700
N  1.43500 7.22000 27.52100
C  1.40100 8.13800 28.55600
C  1.49400 7.48600 29.94500
C  1.69200 5.96500 29.58100
C  1.60700 6.00300 28.04800
C  3.02700 5.34200 30.10600
C  0.32100 7.78800 30.91500
C  0.58400 8.09400 32.44900
H  1.63200 7.19200 33.06000
N  0.72800 5.52500 25.06400
C  1.04600 4.53300 25.98300
C  0.71400 3.22000 25.39300
C  0.34200 3.58200 24.03500
C  0.37800 4.98000 23.92400
C  0.97600 1.94800 26.17300
C  -0.04700 2.66400 22.87400
O  -0.44600 2.94700 21.73600
C  0.09900 1.20300 23.09100
N  0.63200 8.06100 23.29400
C  0.24700 7.07100 22.46400
C  -0.38000 7.70900 21.15300
C  0.00800 9.21600 21.25900
C  0.54400 9.31900 22.69700
C  -0.10800 6.99400 19.75200
C  -1.24700 10.23800 21.06700
C  -0.98400 11.38000 20.12700
N  1.15000 9.52400 25.68200
C  1.18500 10.61100 24.76200
C  1.59300 11.81400 25.48400
C  1.63800 11.44700 26.82200
C  1.35000 10.09000 26.86900
C  1.72000 13.20500 24.90400
C  1.73600 11.99100 28.16200
O  2.10300 13.09100 28.55400
C  1.67400 10.74700 29.13800
C  2.91100 10.67900 29.85000
O  3.99000 10.38400 29.40000
O  2.71100 10.95100 31.20500
C  3.84900 10.72400 32.08200
H  1.49300 3.84400 27.82700
H  -0.27200 5.20900 21.93800
H  0.87500 11.39600 22.87900
H  2.42900 7.91300 30.30700
H  0.82200 5.37300 29.86500
H  2.86400 4.42100 30.66700
H  3.60900 6.05700 30.68800
H  3.73500 5.02200 29.34200
H  -0.26400 6.86900 30.93300
H  -0.30900 8.61300 30.58300
H  -0.27400 7.91500 33.09700
H  0.88600 9.13500 32.56700
H  0.11300 1.29500 26.04800
H  1.05100 2.07400 27.25300
H  1.85600 1.41400 25.81400
H  -0.50200 0.85100 23.92900
H  1.13600 0.96000 23.32400
H  -0.32100 0.66500 22.24100
H  -1.44000 7.56400 21.36500
H  0.80300 9.44800 20.55000
H  0.80400 6.42600 19.93000
H  0.07900 7.78900 19.03000
H  -0.93500 6.31700 19.53400
H  -1.62100 10.63100 22.01200
H  -2.11900 9.84100 20.54700
H  -1.44000 11.25100 19.14600
H  0.09800 11.51400 20.14500
H  -1.53200 12.22900 20.53500
H  0.86800 13.57800 24.33600
H  2.66600 13.16900 24.36300
H  1.92600 13.80200 25.79200
H  0.84300 10.88600 29.83000
H  3.50300 10.23700 32.99400
H  4.25700 11.67800 32.41400
H  4.66200 10.19200 31.58700
Mg 6.67800 53.74900 41.14600
C  6.58200 50.12300 41.37000
C  10.18000 53.36100 40.59000
C  6.83200 57.03100 40.38800
C  3.38600 53.82700 41.59000
N  8.19900 51.98900 40.90200
C  7.92100 50.64700 41.15700
C  9.22400 49.82100 40.82100
C  10.33800 50.86200 41.09900
C  9.54500 52.21700 40.85100
C  11.09400 50.88700 42.52300
C  9.34900 49.21200 39.41100
C  8.85500 50.09500 38.25900
H  7.54000 49.78600 37.58200
N  8.28900 55.03900 40.50000
C  9.65100 54.68600 40.48800
C  10.36300 55.84900 40.25000
C  9.45400 56.94000 39.91100
C  8.14200 56.38000 40.22600
C  11.94600 55.84200 40.03500
C  9.83000 58.40000 39.36700
O  10.98800 58.68300 39.28900
C  8.68000 59.40400 39.01900
N  5.36700 55.17300 40.81700
C  5.59900 56.49000 40.69700
C  4.35400 57.31800 40.85900
C  3.19500 56.32000 40.99000
C  4.02400 55.00800 41.18500
C  4.41500 58.23900 42.13900
C  2.29600 56.35500 39.71400
C  0.77600 56.39600 39.92500
N  5.16600 52.34900 41.38500
C  3.84400 52.51400 41.63700
C  3.21900 51.23100 42.01500
C  4.29400 50.28100 41.85900
C  5.41100 50.97900 41.46900
C  1.80200 51.04400 42.49400
C  4.54700 48.91900 41.99900
O  3.87100 47.99900 42.45100
C  6.05500 48.76300 41.67300
C  6.04500 47.87600 40.54900
O  5.66900 48.20500 39.44200
O  6.31200 46.61700 40.94000
C  6.22600 45.65400 39.85200
H  11.25400 53.16700 40.55800
H  6.94600 58.10000 40.19800
H  2.30900 54.00100 41.61800
H  9.16900 49.03000 41.56800
H  11.14300 50.78300 40.36900
H  10.70800 51.73900 43.08200
H  12.18200 50.82400 42.56700
H  10.75300 50.01500 43.08100
H  8.72100 48.32100 39.37300
H  10.41300 48.97900 39.37400
H  9.60800 49.98700 37.47800
H  8.77600 51.14600 38.53500
H  12.42200 55.07900 40.65100
H  12.36900 56.77500 40.40800
H  12.27100 55.77100 38.99700
H  8.21600 59.70100 39.96000
H  7.94800 58.98600 38.32800
H  9.16500 60.27100 38.57200
H  4.34200 57.94600 39.96900
H  2.66400 56.39500 41.93900
H  4.88700 59.19100 41.89500
H  5.04400 57.63600 42.79300
H  3.43100 58.30200 42.60400
H  2.53800 55.51200 39.06700
H  2.56700 57.27100 39.18800
H  0.23000 55.52200 39.57000
H  0.44200 57.29800 39.41200
H  0.51800 56.52000 40.97700
H  1.75500 50.10700 43.04900
H  1.04500 51.01300 41.71000
H  1.54500 51.84600 43.18700
H  6.57100 48.23800 42.47700
H  6.52300 44.62700 40.06800
H  6.73400 45.97700 38.94300
H  5.17800 45.67700 39.55400

