158

Mg 25.77300 -7.33300 47.38800
C  28.08300 -4.94900 46.34300
C  23.47500 -6.03400 45.04300
C  23.82000 -10.16100 47.79800
C  28.27900 -8.78100 49.38900
N  25.85700 -5.74200 45.90700
C  26.91200 -4.88000 45.66100
C  26.51600 -3.75300 44.60700
C  24.99900 -4.10200 44.38700
C  24.69400 -5.33600 45.25500
C  24.02800 -2.89500 44.57000
C  27.35700 -3.90400 43.30400
C  27.86900 -2.51600 42.70700
H  27.66400 -2.23600 41.19700
N  23.90400 -8.00800 46.60600
C  23.13900 -7.30100 45.66200
C  21.98400 -8.06400 45.33600
C  22.02100 -9.31500 46.06600
C  23.28400 -9.19900 46.92400
C  20.99200 -7.68000 44.24000
C  21.01900 -10.41300 45.94700
O  20.15600 -10.41100 45.08300
C  21.10300 -11.48400 46.87400
N  26.03800 -9.16000 48.46400
C  25.01900 -10.09400 48.55100
C  25.49100 -11.28900 49.56800
C  26.65400 -10.50900 50.31200
C  27.11100 -9.47900 49.29900
C  24.35400 -11.79600 50.51100
C  27.74600 -11.55900 50.61300
C  28.55600 -12.20000 49.56600
N  27.84600 -6.97200 47.78700
C  28.74300 -7.62000 48.63200
C  30.01100 -6.84800 48.59800
C  29.78900 -5.72400 47.74400
C  28.42900 -5.92500 47.26200
C  31.24300 -7.10700 49.39500
C  30.31600 -4.52900 47.16300
O  31.36600 -3.94800 47.23500
C  29.27000 -4.03200 46.18300
C  28.84700 -2.70400 46.58900
O  28.18000 -2.38200 47.54100
O  29.51200 -1.84300 45.84700
C  29.06000 -0.46100 45.69500
H  22.83300 -5.52100 44.32500
H  23.28500 -11.10500 47.92100
H  28.97000 -9.18600 50.13100
H  26.68000 -2.74700 44.99400
H  24.75900 -4.44300 43.38000
H  24.57900 -1.95600 44.51200
H  23.61100 -3.00800 45.57100
H  23.25300 -2.89100 43.80400
H  26.74800 -4.44500 42.58000
H  28.23400 -4.54800 43.37700
H  28.92900 -2.57300 42.95500
H  27.53400 -1.69200 43.33700
H  21.30300 -7.95800 43.23400
H  20.94800 -6.59200 44.29000
H  19.97500 -8.03800 44.40000
H  21.25900 -11.18900 47.91100
H  21.85400 -12.16700 46.47700
H  20.17100 -12.04300 46.78700
H  25.88900 -12.04200 48.88700
H  26.25700 -9.93600 51.15100
H  24.38900 -11.34300 51.50200
H  24.34500 -12.88300 50.58500
H  23.37000 -11.57100 50.09900
H  27.39000 -12.37100 51.24800
H  28.33400 -11.00000 51.34100
H  28.49200 -11.60500 48.65500
H  28.36600 -13.24200 49.30900
H  29.58100 -12.25800 49.93400
H  31.72800 -6.14300 49.55100
H  31.84900 -7.71600 48.72400
H  31.06900 -7.46300 50.41000
H  29.63600 -3.98300 45.15800
H  27.98200 -0.42600 45.85700
H  29.37000 -0.06600 44.72700
H  29.57300 0.12500 46.45800
Mg 41.17000 8.65800 29.56800
C  43.14000 10.15600 32.05300
C  39.04100 7.50300 31.71800
C  39.75600 6.96800 26.93100
C  43.66600 9.62800 27.26200
N  41.16700 8.81000 31.59100
C  41.95100 9.50200 32.49200
C  41.39700 9.56300 33.97100
C  40.10500 8.69500 33.80900
C  40.09400 8.27100 32.29000
C  40.06900 7.35200 34.67400
C  41.23800 10.91300 34.59700
C  40.47100 11.09000 35.95100
H  41.32300 11.33100 37.17800
N  39.54400 7.42400 29.38300
C  38.71900 7.11200 30.44100
C  37.55000 6.40000 29.94700
C  37.72900 6.28600 28.50700
C  39.04900 6.93800 28.20500
C  36.38800 5.91100 30.88900
C  36.77200 5.73100 27.48700
O  36.97500 5.75000 26.31400
C  35.53300 5.06500 27.98800
N  41.76500 8.26200 27.41600
C  40.91900 7.67000 26.56000
C  41.46600 7.60800 25.10800
C  42.46300 8.77800 25.19200
C  42.65400 8.89100 26.69000
C  41.87600 6.22500 24.57600
C  42.02200 10.09700 24.36700
C  40.97400 10.99700 25.01100
N  42.98500 9.71200 29.61000
C  43.92200 10.05500 28.59800
C  45.02900 10.73400 29.20800
C  44.74300 10.89400 30.55600
C  43.51300 10.18700 30.76000
C  46.06700 11.40700 28.40500
C  45.23000 11.39800 31.79800
O  46.19100 12.11400 32.09600
C  44.16100 10.95800 32.85800
C  44.79200 10.09200 33.91300
O  45.20100 8.93200 33.72400
O  44.59300 10.64100 35.18200
C  45.13900 9.87900 36.30600
H  38.24200 7.19900 32.39800
H  39.25900 6.47600 26.09200
H  44.40300 9.93900 26.51800
H  42.00700 9.03600 34.70400
H  39.29000 9.36700 34.07900
H  39.15300 7.34100 35.26600
H  40.87100 7.23000 35.40200
H  40.12500 6.55300 33.93500
H  40.70600 11.52800 33.87100
H  42.20700 11.37800 34.78000
H  39.81800 10.24600 36.17300
H  39.92800 12.03300 35.87300
H  35.42700 6.28200 30.53100
H  36.50500 6.20500 31.93300
H  36.25300 4.83100 30.93300
H  35.77400 4.30500 28.73100
H  35.10400 4.52300 27.14400
H  34.80900 5.80400 28.33100
H  40.59100 7.90400 24.53000
H  43.44000 8.51600 24.78400
H  42.89400 6.18700 24.18700
H  41.16500 5.98700 23.78500
H  41.68600 5.50300 25.37000
H  41.64400 9.63500 23.45400
H  42.86500 10.72600 24.08000
H  40.72800 10.66600 26.02000
H  40.08400 11.10000 24.38900
H  41.48300 11.95700 25.09800
H  45.62300 11.64400 27.43800
H  47.00300 10.86100 28.28900
H  46.33500 12.26700 29.01800
H  43.67300 11.80900 33.33300
H  44.39100 9.86400 37.09900
H  45.96500 10.42200 36.76600
H  45.53300 8.89800 36.04100

