158

Mg 47.24000 25.24100 28.18500
C  48.11900 27.53800 30.64800
C  46.19300 23.05200 30.55900
C  46.41700 23.08200 25.74200
C  48.50000 27.39700 25.73300
N  47.24200 25.27400 30.37000
C  47.53300 26.34700 31.17400
C  47.39400 26.03400 32.69800
C  46.84600 24.55600 32.57600
C  46.81900 24.26100 31.06300
C  47.65000 23.58400 33.40300
C  46.54500 27.16700 33.41600
C  45.83700 26.62600 34.69500
H  45.42300 27.63300 35.84000
N  46.43800 23.34900 28.13000
C  46.08100 22.57900 29.21400
C  45.63700 21.26100 28.82300
C  45.55600 21.27900 27.42300
C  46.16000 22.57200 27.00900
C  45.34000 20.09300 29.74700
C  45.04400 20.19400 26.50000
O  45.05100 20.36700 25.28600
C  44.54400 18.90100 27.03000
N  47.36900 25.21600 25.97900
C  47.02700 24.27600 25.27000
C  47.22400 24.43700 23.75500
C  47.69700 25.94300 23.67100
C  47.89900 26.24300 25.22600
C  48.15600 23.39800 23.06100
C  46.80100 26.94400 22.95000
C  47.32100 27.37800 21.51800
N  48.17000 27.04700 28.16600
C  48.56400 27.85300 27.13200
C  49.08900 29.09900 27.62200
C  48.97300 29.07400 28.97900
C  48.36900 27.76600 29.28200
C  49.73100 30.20300 26.91300
C  49.19300 29.74000 30.23900
O  49.65300 30.85000 30.49200
C  48.53100 28.88200 31.30000
C  49.49600 28.71800 32.37400
O  50.31700 27.83300 32.62900
O  49.11800 29.60200 33.37900
C  49.74700 29.48500 34.66700
H  45.69400 22.50600 31.36200
H  46.20100 22.36400 24.94800
H  48.84000 28.09900 24.96900
H  48.44500 26.14100 32.96400
H  45.82500 24.47600 32.95000
H  47.84400 22.71300 32.77700
H  47.08500 23.20500 34.25500
H  48.63700 23.97900 33.64600
H  45.91700 27.73300 32.72800
H  47.21900 27.91200 33.83700
H  46.49800 25.85900 35.09800
H  44.90900 26.15300 34.37300
H  46.04900 19.31800 29.45300
H  44.30400 19.76200 29.81700
H  45.63900 20.37300 30.75700
H  45.44700 18.61600 27.57000
H  44.29600 18.27600 26.17300
H  43.74200 19.05200 27.75300
H  46.27500 24.47200 23.22000
H  48.72400 25.90100 23.30600
H  49.03400 23.89700 22.65100
H  47.63300 23.06100 22.16500
H  48.45500 22.54700 23.67300
H  46.79200 27.77800 23.65100
H  45.77700 26.56900 22.92900
H  46.36900 27.37300 20.98800
H  48.01100 26.61300 21.16100
H  47.75000 28.37800 21.57800
H  49.36300 31.09200 27.42500
H  49.54600 30.29600 25.84300
H  50.80700 30.06800 27.02200
H  47.60300 29.36400 31.60700
H  49.25800 28.78500 35.34400
H  49.90500 30.43600 35.17600
H  50.81100 29.28700 34.53600
Mg 26.63800 49.91400 26.62300
C  24.66100 50.90900 29.33400
C  28.97900 48.83900 28.66400
C  28.41100 48.80000 23.90500
C  24.16800 51.32400 24.43300
N  26.75900 49.92900 28.75600
C  25.83700 50.33200 29.73700
C  26.45000 50.16400 31.12300
C  27.82600 49.52500 30.90200
C  27.87300 49.45300 29.32800
C  29.09400 50.26000 31.49600
C  25.50300 49.24900 31.98600
C  24.90700 49.83500 33.29900
H  25.88400 50.02000 34.51100
N  28.52500 48.92500 26.36100
C  29.34300 48.59300 27.37200
C  30.57600 48.05300 26.81100
C  30.40400 48.17700 25.40100
C  29.04700 48.62500 25.13000
C  31.73500 47.62900 27.68900
C  31.47900 47.96100 24.35400
O  31.32600 48.23900 23.15100
C  32.81600 47.68000 24.80800
N  26.40300 50.14200 24.42800
C  27.21400 49.51000 23.57000
C  26.80600 49.75600 22.10500
C  25.50900 50.60300 22.26000
C  25.34700 50.72100 23.82000
C  27.81400 50.63600 21.30200
C  24.20900 50.01300 21.58000
C  23.24200 51.15200 21.18800
N  24.86300 50.89400 26.77600
C  23.96800 51.40900 25.80600
C  22.87500 52.07600 26.44600
C  23.04500 51.80300 27.80500
C  24.23800 51.09700 27.99900
C  21.81200 52.97900 25.80900
C  22.44300 52.13600 29.05400
O  21.44000 52.76300 29.29800
C  23.53500 51.52300 30.13800
C  23.91600 52.64000 31.04900
O  24.86000 53.35300 30.93500
O  22.97100 52.81000 32.00700
C  23.32700 53.64700 33.14700
H  29.68500 48.42400 29.38700
H  28.85600 48.42400 22.98100
H  23.41400 51.88200 23.87500
H  26.43400 51.16100 31.56300
H  27.71600 48.48500 31.21100
H  28.82800 51.30200 31.67300
H  29.93000 50.24200 30.79700
H  29.47300 49.84200 32.42800
H  26.07000 48.35600 32.24700
H  24.71200 48.93100 31.30600
H  24.09200 49.20400 33.65300
H  24.55000 50.82200 33.00300
H  32.63200 48.22100 27.50400
H  31.98200 46.63000 27.33000
H  31.52200 47.55800 28.75500
H  33.07000 48.45700 25.52900
H  33.51900 47.72200 23.97600
H  32.85000 46.63600 25.12100
H  26.73400 48.80300 21.58100
H  25.68200 51.65300 22.02400
H  28.51400 51.22000 21.89900
H  27.34500 51.39700 20.67800
H  28.25700 49.95600 20.57500
H  23.70000 49.42800 22.34600
H  24.41000 49.44400 20.67300
H  22.34800 51.22400 21.80900
H  23.04900 51.06200 20.11900
H  23.85000 52.05500 21.23700
H  21.19900 52.34900 25.16400
H  22.21700 53.82800 25.25900
H  21.25000 53.48100 26.59600
H  23.09600 50.75500 30.77600
H  24.16100 53.12900 33.62000
H  22.47300 53.67500 33.82300
H  23.56700 54.65600 32.81100

