158

Mg 16.98000 -2.44000 28.39500
C  16.10100 -0.25900 31.13300
C  18.98600 -4.24100 30.73300
C  18.30600 -4.23400 25.90400
C  15.35900 -0.41000 26.25000
N  17.48700 -2.22300 30.60600
C  16.90100 -1.33700 31.50800
C  17.27400 -1.63600 32.96300
C  18.26100 -2.94100 32.77500
C  18.31100 -3.13300 31.25700
C  19.63400 -2.82800 33.39300
C  16.03900 -1.73400 34.04400
C  16.20300 -0.89800 35.26400
H  17.55500 -0.70100 35.85000
N  18.40500 -4.01600 28.35300
C  19.05600 -4.61800 29.39500
C  19.75500 -5.84900 28.89800
C  19.64200 -5.81300 27.46600
C  18.67400 -4.74900 27.19100
C  20.56900 -6.76700 29.87700
C  20.23900 -6.74100 26.47600
O  19.96700 -6.68800 25.30400
C  21.19100 -7.81400 26.98000
N  16.82000 -2.38100 26.40400
C  17.51000 -3.16700 25.55200
C  17.35300 -2.64300 24.08700
C  16.29700 -1.54300 24.21300
C  16.04000 -1.41800 25.68700
C  18.75000 -2.11100 23.51200
C  15.07000 -1.72700 23.37500
C  14.50000 -0.38800 22.84300
N  15.95200 -0.61200 28.53000
C  15.27100 0.04000 27.58900
C  14.66600 1.16300 28.18100
C  15.02400 1.10900 29.58400
C  15.77800 -0.01600 29.76600
C  13.97000 2.30100 27.53400
C  14.83000 1.80100 30.84800
O  14.35900 2.88300 31.01600
C  15.50100 0.91000 31.90500
C  16.51800 1.71000 32.64900
O  17.72700 1.76800 32.33500
O  16.02800 2.35200 33.81700
C  17.02700 3.10000 34.60800
H  19.54000 -4.83200 31.46500
H  18.70800 -4.72300 25.01400
H  14.68500 0.24800 25.69800
H  17.95100 -0.83100 33.24800
H  17.79600 -3.76400 33.31900
H  19.63900 -3.50000 34.25100
H  19.82500 -1.80500 33.71900
H  20.37700 -3.18200 32.67900
H  16.10500 -2.76100 34.40200
H  15.14500 -1.53400 33.45300
H  15.63000 -1.39400 36.04800
H  15.70600 0.06500 35.14700
H  21.62600 -6.64100 29.63900
H  20.26300 -7.71900 29.44400
H  20.22200 -6.79000 30.91000
H  21.78300 -7.35200 27.76900
H  21.77900 -8.07200 26.09900
H  20.57700 -8.68100 27.22500
H  16.93400 -3.47000 23.51200
H  16.70800 -0.56200 23.97500
H  18.83200 -1.02500 23.57100
H  18.83500 -2.44600 22.47900
H  19.59100 -2.53900 24.05700
H  14.19900 -2.25600 23.76200
H  15.32300 -2.13700 22.39700
H  14.96500 -0.09300 21.90200
H  14.58200 0.45000 23.53600
H  13.41900 -0.51900 22.88700
H  12.93200 2.11000 27.26300
H  14.59200 2.64000 26.70600
H  14.11000 3.12000 28.24000
H  14.75100 0.65100 32.65200
H  16.92700 4.17900 34.48900
H  18.06600 2.89000 34.35500
H  16.98600 2.96800 35.68900
Mg 47.46200 14.53800 27.61700
C  45.52800 14.87100 30.45100
C  49.81500 16.55000 28.93800
C  48.95600 14.68800 24.47500
C  44.57900 13.29600 25.85200
N  47.64800 15.59400 29.50800
C  46.75800 15.56800 30.58000
C  47.41200 16.29400 31.76700
C  48.62300 17.04500 31.17800
C  48.75900 16.38000 29.80900
C  48.38100 18.54500 30.86700
C  47.72700 15.29400 32.97900
C  46.95500 15.56000 34.31100
H  47.69400 15.39400 35.63600
N  49.18800 15.33500 26.88400
C  50.00100 16.13800 27.61000
C  51.18400 16.44000 26.82700
C  51.02100 15.82700 25.53800
C  49.66800 15.24700 25.56900
C  52.36700 17.19000 27.41300
C  51.91100 15.87100 24.35500
O  51.64700 15.31300 23.33400
C  53.19300 16.75000 24.29500
N  46.86200 14.04000 25.45500
C  47.69900 14.17500 24.34000
C  47.07200 13.58500 23.00600
C  45.75700 12.98600 23.63200
C  45.69800 13.49400 25.04900
C  46.90000 14.54000 21.79600
C  45.66500 11.44200 23.39700
C  46.32900 10.65500 24.52300
N  45.48500 14.01700 28.07100
C  44.45600 13.61500 27.21800
C  43.26800 13.43600 28.11900
C  43.65900 13.84300 29.40200
C  45.04200 14.23700 29.30100
C  41.85800 13.03300 27.74400
C  43.33500 14.00900 30.80500
O  42.30700 13.56600 31.34100
C  44.49900 14.67000 31.55200
C  43.96500 15.87200 32.22500
O  44.26700 17.04400 31.85600
O  43.31300 15.55600 33.37000
C  42.80100 16.72800 34.11700
H  50.68200 17.06800 29.35400
H  49.53000 14.61100 23.55000
H  43.70900 12.82500 25.39000
H  46.76800 17.11100 32.09400
H  49.53700 16.99100 31.76900
H  48.64100 18.73000 29.82500
H  49.08700 19.14200 31.44400
H  47.35300 18.81900 31.10600
H  48.79800 15.11800 33.07400
H  47.31200 14.33700 32.66300
H  46.13600 14.84400 34.36900
H  46.58500 16.58100 34.21800
H  52.64500 16.90600 28.42800
H  52.32100 18.25500 27.18600
H  53.30800 16.83800 26.99100
H  54.07700 16.25000 24.68900
H  52.89700 17.69100 24.76000
H  53.33200 17.07600 23.26400
H  47.63400 12.68000 22.77700
H  44.85400 13.45400 23.24100
H  47.42700 14.24100 20.89000
H  47.37500 15.45700 22.14800
H  45.86300 14.58700 21.46400
H  46.03500 11.06100 22.44500
H  44.59600 11.23200 23.42700
H  46.81800 9.80700 24.04400
H  45.62500 10.30700 25.27900
H  47.15300 11.23100 24.94500
H  41.61100 13.73100 26.94400
H  41.19500 13.03300 28.61000
H  41.91600 11.98900 27.43600
H  44.94900 14.02100 32.30400
H  42.16300 17.39700 33.53800
H  43.61200 17.30200 34.56400
H  42.11100 16.31900 34.85500

