158

Mg 35.02000 49.51700 25.76600
C  35.02000 47.93600 28.87100
C  33.95700 52.36200 27.29400
C  34.90800 51.13000 22.71000
C  35.69600 46.51700 24.15900
N  34.33800 50.01800 27.85000
C  34.62500 49.23300 28.98000
C  34.47600 49.98900 30.27000
C  34.16800 51.48400 29.71600
C  34.14000 51.27700 28.16500
C  32.93400 52.14200 30.24500
C  35.69200 50.06100 31.16500
C  35.42300 49.68900 32.69400
H  33.95000 49.52200 33.20500
N  34.50000 51.45300 25.05900
C  34.05200 52.50500 25.86100
C  33.58600 53.58300 25.02400
C  33.91300 53.24400 23.65200
C  34.49500 51.93000 23.76600
C  32.86600 54.82600 25.64500
C  33.77500 54.06700 22.37300
O  34.04800 53.61400 21.26500
C  33.12900 55.44400 22.55600
N  35.15000 48.90700 23.77700
C  35.19700 49.77200 22.68800
C  35.92600 49.13300 21.47400
C  36.20600 47.70500 21.95500
C  35.64000 47.68900 23.39100
C  35.01800 49.06000 20.21700
C  37.79600 47.32100 21.89800
C  38.08500 46.46200 20.63200
N  35.41300 47.54400 26.31700
C  35.62500 46.35100 25.59300
C  35.90100 45.29500 26.48100
C  35.68200 45.87600 27.72800
C  35.35300 47.22600 27.58800
C  36.32300 43.88600 26.06600
C  35.56800 45.53900 29.16600
O  35.74400 44.52100 29.72100
C  35.17600 46.89600 30.00200
C  33.95000 46.52900 30.75500
O  32.80500 46.88100 30.52100
O  34.28500 45.77000 31.86600
C  33.24900 45.23000 32.78900
H  33.58400 53.27700 27.75900
H  35.12000 51.56300 21.73000
H  35.96800 45.58100 23.66700
H  33.59700 49.64500 30.81500
H  35.03700 52.11100 29.91500
H  32.14500 51.44500 30.52800
H  32.53100 52.91900 29.59500
H  33.31500 52.63100 31.14100
H  36.14900 51.05000 31.14900
H  36.46900 49.40500 30.77400
H  35.89100 50.48900 33.26900
H  35.94300 48.75700 32.91200
H  33.48900 55.11700 26.49000
H  31.92000 54.42700 26.01000
H  32.84100 55.70100 24.99500
H  33.03800 55.90900 21.57400
H  33.76000 56.14200 23.10600
H  32.08600 55.36900 22.86200
H  36.83400 49.72400 21.34500
H  35.65300 46.97900 21.35900
H  34.24100 49.82300 20.26500
H  34.62000 48.07500 19.97500
H  35.60200 49.53600 19.42900
H  38.19600 46.78700 22.76100
H  38.43800 48.18700 21.73600
H  37.31600 46.44100 19.86000
H  38.20400 45.43000 20.96200
H  38.91500 46.81800 20.02100
H  36.87500 43.47900 26.91400
H  37.01800 43.84200 25.22800
H  35.45900 43.26700 25.82500
H  36.02000 47.19500 30.62400
H  33.05600 44.25700 32.33700
H  32.27400 45.70700 32.70200
H  33.63700 45.14200 33.80400
Mg 6.19900 56.65300 42.52800
C  4.90800 53.52300 41.73800
C  9.23400 55.69700 41.15300
C  7.09700 59.94300 42.19500
C  2.99600 57.57500 43.56400
N  6.92100 54.91300 41.36700
C  6.25100 53.70000 41.25100
C  7.15200 52.63200 40.68800
C  8.56200 53.28600 40.87900
C  8.24900 54.76500 41.15300
C  9.43200 52.67000 42.04900
C  6.88400 52.11200 39.15000
C  7.11400 50.61700 38.94700
H  6.46500 50.12600 37.77500
N  7.97600 57.67700 41.87600
C  9.08700 57.11900 41.47400
C  10.10700 58.12600 41.30200
C  9.55700 59.33000 41.69500
C  8.17400 59.00400 41.97900
C  11.52500 57.76200 40.96900
C  10.35500 60.62500 41.91300
O  11.48600 60.77000 41.56000
C  9.76300 61.72600 42.74000
N  5.22800 58.47500 42.80000
C  5.78500 59.74100 42.45400
C  4.71400 60.84800 42.57400
C  3.39400 60.05500 42.95000
C  3.85500 58.58400 43.12400
C  4.94200 62.11400 43.41900
C  2.10500 60.19000 41.98900
C  0.74800 60.62100 42.63000
N  4.34700 55.76900 42.81500
C  3.15200 56.23100 43.30500
C  2.20300 55.15600 43.46200
C  2.87500 54.02200 42.91500
C  4.12300 54.49800 42.40500
C  0.80800 55.23900 43.93900
C  2.74700 52.63100 42.61700
O  1.82600 51.81700 42.81300
C  4.11700 52.25100 41.89700
C  3.75100 51.64200 40.65100
O  3.65800 52.19600 39.60800
O  3.50100 50.28100 40.85600
C  3.11100 49.38800 39.73500
H  10.27600 55.42000 40.98200
H  7.37100 60.99500 42.08900
H  2.02700 57.91200 43.93600
H  7.06000 51.73600 41.30200
H  9.08500 53.24800 39.92300
H  8.89600 51.87600 42.57000
H  9.61200 53.50500 42.72600
H  10.34300 52.28800 41.58700
H  7.53200 52.64500 38.45400
H  5.90400 52.52600 38.91400
H  6.78000 50.08700 39.83900
H  8.20300 50.62800 38.90400
H  11.87400 58.57100 40.32800
H  11.64200 56.78600 40.49800
H  12.13600 57.72100 41.87100
H  9.08800 61.29400 43.47800
H  9.20900 62.43000 42.12000
H  10.53100 62.34200 43.20800
H  4.73300 61.24600 41.56000
H  3.14500 60.31500 43.97900
H  5.99800 62.28400 43.62800
H  4.44900 62.02900 44.38800
H  4.64900 63.02700 42.90100
H  2.05300 59.17100 41.60400
H  2.34400 60.96600 41.26200
H  -0.03000 59.85900 42.58600
H  0.33900 61.52300 42.17500
H  1.05600 60.86200 43.64800
H  0.16000 55.57000 43.12700
H  0.80100 56.02000 44.69900
H  0.46800 54.26700 44.29500
H  4.60800 51.49400 42.50900
H  3.02500 49.92000 38.78800
H  2.10800 49.02200 39.95200
H  3.89600 48.63400 39.66800

