158

Mg -2.34900 17.14800 26.00600
C  -2.34800 15.04300 29.03700
C  -2.75800 19.87400 28.18500
C  -2.33800 19.01600 23.43700
C  -2.54600 14.16400 24.20700
N  -2.66600 17.35500 28.42700
C  -2.57800 16.40400 29.43400
C  -2.61400 17.09700 30.83500
C  -2.93200 18.56800 30.48500
C  -2.66100 18.65500 28.91200
C  -4.32800 19.09400 30.91200
C  -1.55300 16.80300 31.88700
C  -1.56500 17.49400 33.23500
H  -2.12700 16.69000 34.43400
N  -2.53300 19.20400 25.77500
C  -2.63700 20.16800 26.78200
C  -2.44500 21.44400 26.15100
C  -2.18900 21.15400 24.69300
C  -2.34200 19.75700 24.59600
C  -2.61600 22.76600 26.82300
C  -1.90900 22.13000 23.49000
O  -1.82700 21.75900 22.36400
C  -1.79200 23.61100 23.76800
N  -2.55600 16.64000 24.03000
C  -2.49200 17.62700 23.13400
C  -2.59200 17.03100 21.72800
C  -2.27400 15.51000 21.99800
C  -2.50200 15.40900 23.48100
C  -3.87500 17.32800 20.94600
C  -0.81700 14.97100 21.71800
C  0.34800 15.90400 22.10100
N  -2.43400 15.07800 26.45400
C  -2.44900 13.92300 25.59700
C  -2.33200 12.75900 26.35700
C  -2.27300 13.14000 27.63300
C  -2.34300 14.54100 27.69800
C  -2.44600 11.33900 25.83600
C  -2.10700 12.61900 28.93800
O  -2.09700 11.44400 29.28400
C  -2.13900 13.85500 29.92600
C  -0.83100 13.97800 30.68400
O  0.17500 14.65700 30.28900
O  -0.93500 13.29700 31.87000
C  0.17600 13.50100 32.78800
H  -2.98200 20.72200 28.83500
H  -2.36000 19.57500 22.49900
H  -2.32900 13.25400 23.64400
H  -3.53200 16.64700 31.21400
H  -2.16400 19.17000 30.97000
H  -4.86800 19.30900 29.98900
H  -4.29300 20.09300 31.34600
H  -4.87300 18.39800 31.54900
H  -0.60400 16.87700 31.35700
H  -1.72200 15.74000 32.05800
H  -1.99900 18.49300 33.20000
H  -0.49600 17.61600 33.41200
H  -2.48900 22.77600 27.90600
H  -3.55800 23.18400 26.46800
H  -1.77800 23.43000 26.61300
H  -1.76700 24.17100 22.83300
H  -0.95100 23.75000 24.44700
H  -2.70100 23.86500 24.31300
H  -1.75600 17.47900 21.19200
H  -2.92500 14.84400 21.43200
H  -4.52600 16.45800 21.03400
H  -3.80600 17.67000 19.91300
H  -4.34800 18.18100 21.43300
H  -0.59000 14.84400 20.65900
H  -0.65400 14.02600 22.23600
H  1.04800 15.90700 21.26600
H  0.93900 15.52700 22.93500
H  0.12200 16.96700 22.18700
H  -1.96700 10.66800 26.54900
H  -1.94800 11.26700 24.86900
H  -3.48000 11.02300 25.69700
H  -2.97200 13.67000 30.60500
H  -0.11100 14.34000 33.42100
H  1.09600 13.69800 32.23800
H  0.35200 12.54900 33.29100
Mg 8.98900 2.84500 27.62700
C  10.58800 1.26100 30.25700
C  7.30600 4.74100 29.80200
C  6.86300 3.68900 25.03900
C  9.94300 0.05200 25.58200
N  8.79800 2.81900 29.81400
C  9.69600 2.28600 30.67600
C  9.71400 2.89700 32.12000
C  8.58900 3.89300 31.88700
C  8.24700 3.86500 30.38400
C  7.30900 3.64300 32.74700
C  11.06200 3.57100 32.47100
C  11.70300 3.19300 33.78100
H  10.75700 2.91200 34.94100
N  7.44300 4.11900 27.41300
C  6.93100 4.85800 28.47300
C  5.98400 5.86000 27.95900
C  5.81300 5.52500 26.53200
C  6.74100 4.41500 26.26100
C  5.38400 6.94600 28.84500
C  4.97700 6.36000 25.51100
O  4.88400 6.09900 24.32000
C  4.08300 7.48300 25.99200
N  8.54100 2.00100 25.56200
C  7.69400 2.59300 24.70800
C  7.64000 1.87100 23.32500
C  8.68600 0.72100 23.55000
C  9.13600 0.95300 25.01100
C  6.31600 1.29100 22.89000
C  9.79400 0.65500 22.54700
C  10.12600 -0.68600 21.84000
N  10.21300 1.16400 27.78900
C  10.55900 0.14400 26.87500
C  11.57500 -0.73500 27.49000
C  11.64100 -0.27700 28.84000
C  10.76200 0.77800 28.94900
C  12.26900 -1.79500 26.79200
C  12.29000 -0.52900 30.09200
O  13.21500 -1.27900 30.36000
C  11.52200 0.43600 31.12400
C  10.80700 -0.39900 32.11600
O  9.74700 -0.91500 31.99600
O  11.70700 -0.52700 33.18400
C  11.12300 -1.22900 34.35800
H  6.78300 5.37200 30.52300
H  6.21000 4.12900 24.28200
H  10.19000 -0.79500 24.93900
H  9.53300 2.11900 32.86000
H  8.87900 4.91500 32.13200
H  7.41900 2.61900 33.10400
H  6.41600 3.56200 32.12700
H  7.14300 4.37200 33.54000
H  10.96700 4.65300 32.56700
H  11.73500 3.32100 31.65100
H  12.43000 3.92700 34.12900
H  12.34100 2.31800 33.65700
H  5.45000 6.82100 29.92600
H  4.31300 6.89700 28.65200
H  5.79100 7.92100 28.57400
H  3.22200 7.12300 26.55600
H  3.81400 8.10200 25.13700
H  4.65800 8.14800 26.63600
H  7.92100 2.62900 22.59500
H  8.21700 -0.25800 23.64600
H  6.16600 0.21200 22.93800
H  6.16400 1.50300 21.83200
H  5.43200 1.69700 23.38200
H  10.67400 1.02400 23.07400
H  9.73400 1.36300 21.72100
H  9.67200 -0.70200 20.84900
H  9.75700 -1.57500 22.35300
H  11.21000 -0.76500 21.76100
H  12.17600 -1.64800 25.71500
H  11.86900 -2.72900 27.18600
H  13.30500 -1.72100 27.12100
H  12.22000 1.08500 31.65300
H  11.82700 -1.08300 35.17800
H  10.99900 -2.28600 34.12200
H  10.12100 -0.89400 34.62600

