158

Mg 24.48000 -4.85900 46.10100
C  26.77400 -2.82400 44.31100
C  22.03100 -3.75000 43.84500
C  22.51300 -7.55400 46.93100
C  27.21500 -6.32800 47.68800
N  24.36000 -3.33000 44.50700
C  25.44300 -2.64600 43.94000
C  24.93600 -1.74400 42.80800
C  23.38400 -1.69900 43.16700
C  23.23900 -3.01900 43.85400
C  23.02700 -0.50600 44.04600
C  25.37300 -2.24900 41.43800
C  26.31900 -1.30100 40.69500
H  26.03500 -0.82000 39.19900
N  22.53700 -5.51300 45.51400
C  21.66800 -4.87300 44.59100
C  20.43900 -5.65400 44.47400
C  20.55700 -6.73800 45.48000
C  21.93300 -6.65000 46.07800
C  19.27600 -5.18400 43.63600
C  19.47200 -7.83100 45.72900
O  18.33900 -7.81500 45.12900
C  19.71400 -9.17000 46.58900
N  24.87500 -6.81500 46.93300
C  23.86300 -7.68800 47.30700
C  24.38600 -8.87800 48.18200
C  25.87400 -8.36500 48.43800
C  26.04600 -7.10300 47.56800
C  23.53800 -9.24400 49.41200
C  26.98800 -9.39200 47.82000
C  27.38100 -10.61300 48.70600
N  26.61500 -4.51000 46.21700
C  27.57900 -5.16200 46.94100
C  28.88400 -4.57300 46.64700
C  28.64500 -3.64100 45.62800
C  27.24000 -3.67200 45.35800
C  30.14800 -5.19500 47.24800
C  29.21500 -2.67000 44.72800
O  30.31900 -2.22100 44.56000
C  27.99900 -2.06500 43.87500
C  27.87300 -0.65800 44.17300
O  27.71600 -0.18200 45.30400
O  27.99900 0.08100 43.07800
C  27.67500 1.55400 43.23800
H  21.26200 -3.34400 43.18400
H  21.80100 -8.25800 47.36600
H  27.98900 -6.77600 48.31600
H  25.31100 -0.76600 43.10700
H  22.65700 -1.64700 42.35700
H  22.30600 -0.69800 44.84100
H  22.72600 0.34200 43.43000
H  23.96300 -0.27500 44.55400
H  24.40200 -2.25000 40.94200
H  25.78600 -3.24300 41.60800
H  27.34500 -1.67000 40.67700
H  26.43900 -0.35600 41.22500
H  18.37700 -5.65800 44.02800
H  19.39300 -5.36700 42.56800
H  19.11500 -4.10600 43.67400
H  20.66500 -9.64000 46.33900
H  18.83500 -9.74400 46.29300
H  19.59600 -8.93400 47.64600
H  24.28200 -9.66200 47.43200
H  26.15000 -8.13200 49.46700
H  23.18900 -10.27200 49.31300
H  22.65400 -8.60600 49.43000
H  24.00000 -9.16600 50.39600
H  27.87200 -8.88900 47.42900
H  26.54500 -9.79000 46.90700
H  26.62600 -11.35000 48.43300
H  27.53600 -10.37700 49.75900
H  28.31900 -11.04700 48.36000
H  31.00100 -4.65500 46.83700
H  30.12300 -6.26000 47.01400
H  30.21400 -5.10800 48.33200
H  28.29600 -2.19600 42.83500
H  27.57300 2.04300 42.26900
H  28.44000 2.08500 43.80300
H  26.76500 1.68300 43.82400
Mg 49.60800 46.08400 42.70400
C  46.76000 47.70900 41.65600
C  48.47600 43.21900 41.12200
C  52.87000 45.00700 42.50300
C  50.78900 49.24400 43.80600
N  47.83200 45.58700 41.58500
C  46.84700 46.41800 41.16500
C  45.74900 45.69600 40.33900
C  46.16600 44.27000 40.46300
C  47.60900 44.37700 41.06600
C  45.14800 43.36900 41.16300
C  45.61000 46.14600 38.78500
C  44.15500 46.40500 38.28800
H  43.78100 46.18200 36.80700
N  50.54600 44.29000 41.92500
C  49.87100 43.23500 41.40300
C  50.83900 42.13300 41.23300
C  52.07900 42.61000 41.68900
C  51.89100 44.02100 42.02500
C  50.31500 40.75400 40.73500
C  53.33700 41.74100 41.63200
O  53.29400 40.59800 41.17000
C  54.67600 42.43500 41.80500
N  51.57000 47.05000 42.88100
C  52.69300 46.30600 42.96400
C  53.84800 47.05100 43.67900
C  53.22900 48.43900 44.04400
C  51.78700 48.27800 43.54500
C  54.60000 46.32300 44.84600
C  53.93700 49.72300 43.40000
C  54.17400 50.83700 44.41500
N  48.96400 48.05200 42.88100
C  49.48500 49.20700 43.32100
C  48.51700 50.21200 43.40200
C  47.33500 49.66200 42.74500
C  47.72700 48.33700 42.45400
C  48.72700 51.55800 44.02100
C  46.05300 49.96800 42.20000
O  45.35300 50.99600 42.22100
C  45.60600 48.69300 41.46300
C  44.39600 48.26300 42.07500
O  44.29100 47.61100 43.10100
O  43.35500 48.60300 41.27600
C  42.04500 48.16400 41.58700
H  47.92700 42.41800 40.62300
H  53.81800 44.59300 42.85300
H  51.01600 50.17200 44.33300
H  44.82900 45.87400 40.89600
H  46.36700 43.81400 39.49400
H  45.33200 43.36800 42.23700
H  45.04800 42.37100 40.73500
H  44.16200 43.82200 41.06500
H  46.19200 45.62900 38.02200
H  46.05000 47.14100 38.72700
H  43.78400 47.35300 38.67700
H  43.42700 45.78300 38.81000
H  49.30800 40.77700 40.31900
H  50.47700 39.96900 41.47400
H  50.83400 40.60100 39.78800
H  54.79300 43.41000 41.33200
H  55.43200 41.83100 41.30400
H  54.92900 42.53600 42.86000
H  54.68800 47.17600 42.99500
H  53.28700 48.60000 45.12000
H  54.29100 45.34600 45.21900
H  54.75200 47.04100 45.65100
H  55.59000 46.08500 44.45700
H  53.37100 50.04100 42.52500
H  54.86700 49.44100 42.90700
H  55.17300 51.27300 44.39400
H  53.88800 50.59300 45.43800
H  53.49800 51.66600 44.20800
H  49.33800 52.20300 43.38900
H  49.27400 51.46400 44.95900
H  47.82300 52.12400 44.24500
H  45.43500 48.97600 40.42400
H  41.48100 48.28200 40.66200
H  41.58000 48.73600 42.39000
H  42.12300 47.09200 41.76800

