158

Mg 26.13000 0.93900 28.80700
C  28.14200 0.42100 31.71600
C  23.55000 1.64300 30.79500
C  24.21200 0.73000 26.03800
C  28.77600 -0.37800 26.93000
N  25.89700 1.20600 31.07800
C  26.80700 0.95300 32.05200
C  26.30500 1.21300 33.46300
C  24.78600 1.53400 33.11600
C  24.73800 1.53800 31.53100
C  23.75700 0.47900 33.69000
C  27.06800 2.34400 34.24100
C  27.46500 2.06800 35.72900
H  26.68300 2.92500 36.84000
N  24.14900 1.22500 28.50200
C  23.25200 1.55400 29.42100
C  21.95300 1.46100 28.88500
C  22.05500 1.14500 27.48000
C  23.56100 1.07900 27.27300
C  20.69500 1.76500 29.62500
C  20.96700 0.92900 26.47300
O  21.20400 0.74300 25.27400
C  19.54200 1.09900 26.93600
N  26.37000 0.23000 26.82500
C  25.53000 0.44900 25.78700
C  26.07100 0.31000 24.39100
C  27.59900 0.18800 24.75100
C  27.59000 0.02500 26.28700
C  25.46500 -0.66500 23.36600
C  28.52900 1.33900 24.40800
C  29.84600 0.91100 23.85300
N  28.04200 0.15100 29.18400
C  28.93300 -0.36700 28.29800
C  30.21600 -0.60600 29.02600
C  29.98000 -0.31200 30.34600
C  28.65300 0.16000 30.38300
C  31.54100 -1.02700 28.37900
C  30.47700 -0.35000 31.79200
O  31.55000 -0.64400 32.27300
C  29.33300 0.10800 32.68400
C  28.84700 -1.05400 33.48600
O  27.88100 -1.75000 33.18200
O  29.62100 -1.13800 34.64100
C  29.02300 -2.09300 35.60100
H  22.68800 1.82700 31.44000
H  23.78100 0.83000 25.03900
H  29.68700 -0.51800 26.34500
H  26.50600 0.31000 34.03900
H  24.57500 2.51300 33.54600
H  23.77300 -0.52200 33.25900
H  22.74700 0.88400 33.62100
H  24.01000 0.23200 34.72100
H  26.50900 3.27800 34.28700
H  27.97800 2.56500 33.68300
H  28.51200 2.36700 35.74600
H  27.30300 1.00000 35.87800
H  20.06600 2.51300 29.14200
H  20.86200 2.18500 30.61600
H  20.14900 0.86400 29.90600
H  18.95000 0.79400 26.07300
H  19.30800 2.13600 27.17900
H  19.13500 0.28800 27.53900
H  25.98700 1.27600 23.89300
H  28.06400 -0.71800 24.36100
H  26.20600 -1.27900 22.85500
H  24.93000 -0.13800 22.57600
H  24.68100 -1.23100 23.87000
H  28.51800 2.08200 25.20500
H  28.05500 1.83100 23.55900
H  29.95200 1.11400 22.78700
H  30.07700 -0.14600 23.98000
H  30.60300 1.51100 24.35900
H  32.34700 -1.04900 29.11300
H  31.77800 -0.26100 27.64000
H  31.48100 -2.00400 27.90100
H  29.67400 0.88400 33.36900
H  29.14700 -3.15900 35.40700
H  27.94800 -2.02600 35.76500
H  29.31500 -1.89200 36.63100
Mg 40.79300 9.01800 29.70100
C  42.39700 10.77800 32.19800
C  38.65000 7.81000 31.95700
C  39.16900 7.39500 27.10700
C  43.24300 10.18100 27.37200
N  40.63400 9.19800 31.81700
C  41.32900 10.02600 32.63700
C  40.82600 9.87600 34.06100
C  39.70000 8.79700 33.97200
C  39.62800 8.59900 32.48300
C  39.73400 7.44100 34.81500
C  40.36900 11.24200 34.72500
C  39.39500 11.17100 35.98300
H  39.63000 12.10900 37.17800
N  39.12000 7.74900 29.56800
C  38.33900 7.39000 30.63900
C  37.21000 6.61600 30.15600
C  37.33700 6.48700 28.77200
C  38.64200 7.18100 28.40400
C  36.22900 5.98700 31.06500
C  36.45200 5.82900 27.71900
O  36.58800 6.03800 26.51400
C  35.20700 5.09700 28.24000
N  41.23800 8.64000 27.60700
C  40.42200 8.02600 26.79100
C  40.85800 8.23700 25.35600
C  41.99600 9.25200 25.40000
C  42.21000 9.36800 26.88500
C  41.24200 6.83500 24.86700
C  41.60900 10.60500 24.62200
C  40.57300 11.47100 25.31500
N  42.50700 10.19100 29.72900
C  43.35600 10.57600 28.72700
C  44.37000 11.33300 29.32100
C  44.02500 11.50200 30.70500
C  42.89500 10.77400 30.90700
C  45.60300 11.70100 28.67000
C  44.39100 12.14300 31.95700
O  45.32900 12.87000 32.20900
C  43.29300 11.66900 32.90600
C  43.94200 11.03100 34.08000
O  44.49300 9.93800 34.08700
O  43.69100 11.78500 35.17300
C  43.96100 11.23000 36.46000
H  37.94200 7.49000 32.72500
H  38.70800 6.88100 26.26100
H  43.85400 10.64700 26.59600
H  41.62200 9.55100 34.73100
H  38.79100 9.28000 34.32800
H  38.97800 7.39600 35.59900
H  40.71200 7.44400 35.29700
H  39.60500 6.55700 34.19000
H  39.78900 11.73000 33.94200
H  41.19500 11.88800 35.02300
H  39.44700 10.18300 36.43900
H  38.36300 11.40600 35.72200
H  35.23300 6.37000 30.84100
H  36.40900 6.23200 32.11100
H  36.17000 4.90700 30.93200
H  35.30500 4.29700 28.97500
H  34.81900 4.61500 27.34300
H  34.50100 5.87600 28.52800
H  40.01000 8.51700 24.73200
H  42.99700 8.98600 25.06100
H  40.83600 6.08400 25.54500
H  42.32500 6.76400 24.77000
H  40.63200 6.60000 23.99500
H  41.20300 10.50300 23.61500
H  42.52100 11.18700 24.48900
H  40.56000 11.36000 26.39900
H  39.59500 11.18600 24.92500
H  40.76700 12.52400 25.11200
H  45.66600 12.78600 28.59600
H  45.73300 11.24800 27.68600
H  46.32500 11.23600 29.34100
H  42.74600 12.55600 33.22700
H  44.70000 11.82400 36.99700
H  44.36400 10.21800 36.49500
H  43.08500 11.28300 37.10600

