158

Mg -2.02900 17.66900 25.81900
C  -2.21000 15.57100 28.53200
C  -2.50500 20.36300 27.90500
C  -2.05300 19.72900 23.08000
C  -1.54800 14.95300 23.59700
N  -2.31100 17.86700 27.92100
C  -2.37700 16.89600 28.90400
C  -2.94400 17.42000 30.25200
C  -3.23000 18.89300 29.89500
C  -2.61400 19.04100 28.44100
C  -4.78400 19.25500 29.86700
C  -1.94800 17.03000 31.42100
C  -1.99900 17.97500 32.63600
H  -2.13200 17.32400 34.01300
N  -2.18700 19.73000 25.56700
C  -2.26400 20.64700 26.52500
C  -2.24100 22.02700 25.99700
C  -2.05600 21.88600 24.60300
C  -2.12000 20.35200 24.34600
C  -2.38000 23.28900 26.81700
C  -1.84800 22.92600 23.61500
O  -1.77000 22.69700 22.40900
C  -1.60300 24.33100 23.97500
N  -1.74100 17.43600 23.64100
C  -1.85600 18.41100 22.74800
C  -1.69600 17.92100 21.25700
C  -1.29100 16.41000 21.46100
C  -1.52000 16.22800 22.99500
C  -3.01500 18.08800 20.44200
C  0.10300 16.05900 21.06600
C  1.28700 16.58400 21.95600
N  -2.00800 15.65500 25.89800
C  -1.77000 14.69600 24.97700
C  -1.79800 13.42400 25.67500
C  -1.90000 13.74400 27.03300
C  -2.09300 15.10000 27.14200
C  -1.70900 12.07400 25.17800
C  -1.98300 13.19800 28.34800
O  -1.94800 11.99800 28.73600
C  -2.30500 14.36000 29.37600
C  -1.30500 14.22300 30.46100
O  -0.18100 14.71700 30.47200
O  -1.76700 13.33400 31.38200
C  -0.81700 12.97100 32.52800
H  -2.67800 21.28100 28.47200
H  -1.94600 20.40300 22.22800
H  -1.47200 14.21600 22.79500
H  -3.79800 16.77700 30.46500
H  -2.65900 19.53700 30.56500
H  -5.00000 19.99900 29.10000
H  -5.10300 19.75200 30.78300
H  -5.34800 18.32900 29.75600
H  -0.92400 16.98300 31.04900
H  -2.15700 16.02700 31.79300
H  -2.74000 18.77300 32.60300
H  -1.02100 18.45200 32.56400
H  -3.38100 23.71300 26.73200
H  -1.74800 24.10200 26.46000
H  -2.19500 23.16700 27.88400
H  -1.30300 25.02300 23.18800
H  -0.67900 24.39500 24.55100
H  -2.55000 24.52200 24.47900
H  -0.80700 18.40800 20.85500
H  -1.99700 15.72600 20.98900
H  -3.86600 18.24400 21.10600
H  -3.01600 17.15500 19.87900
H  -2.97300 18.89900 19.71500
H  0.41900 16.32600 20.05800
H  0.11800 14.97800 21.20700
H  0.97700 17.27100 22.74300
H  1.96100 17.21200 21.37200
H  1.73300 15.75900 22.51000
H  -0.97000 11.49000 25.72700
H  -1.55200 12.07400 24.10000
H  -2.69700 11.61700 25.23600
H  -3.28400 14.26500 29.84600
H  -1.28100 13.24400 33.47600
H  0.11000 13.53000 32.40300
H  -0.49400 11.93100 32.53300
Mg 17.64600 -1.67900 28.19100
C  16.69800 0.39400 31.00000
C  19.07300 -3.82800 30.42600
C  18.92000 -3.30700 25.51100
C  16.33500 0.77800 26.02900
N  17.97500 -1.60500 30.56300
C  17.51300 -0.70300 31.45000
C  17.78300 -1.13100 32.85300
C  18.68700 -2.44600 32.62600
C  18.56800 -2.69500 31.11200
C  20.11900 -2.36400 33.15700
C  16.44500 -1.44800 33.69300
C  16.41300 -1.09100 35.21600
H  17.70600 -0.54100 35.87600
N  18.76900 -3.37600 28.08200
C  19.25000 -4.16700 29.12900
C  19.88800 -5.37800 28.47100
C  19.80900 -5.21900 27.02800
C  19.16400 -3.93500 26.83400
C  20.36100 -6.53200 29.32400
C  20.21200 -6.15400 25.94500
O  19.89200 -5.93400 24.80400
C  20.97700 -7.49700 26.29600
N  17.64500 -1.31300 26.10000
C  18.28200 -2.11400 25.23400
C  18.15200 -1.57700 23.84000
C  17.19000 -0.34200 23.93200
C  17.01900 -0.28800 25.42900
C  19.49300 -1.24400 23.12600
C  15.91000 -0.51600 23.06500
C  15.35000 0.73700 22.41300
N  16.63100 0.08700 28.38200
C  16.15500 0.98500 27.44600
C  15.47100 2.09900 28.12400
C  15.65800 1.91900 29.49100
C  16.31300 0.61900 29.57800
C  14.80400 3.16900 27.38500
C  15.36300 2.50200 30.82400
O  14.73100 3.49200 31.05600
C  15.95100 1.51700 31.82200
C  16.89600 2.36900 32.60000
O  18.01400 2.78500 32.25200
O  16.32800 2.70900 33.82800
C  17.20200 3.44500 34.67500
H  19.57800 -4.57900 31.03700
H  19.38600 -3.80000 24.65500
H  15.92100 1.54800 25.37500
H  18.38900 -0.35500 33.32000
H  18.31900 -3.27200 33.23500
H  20.12700 -1.48800 33.80500
H  20.74300 -2.13000 32.29400
H  20.52300 -3.25300 33.64100
H  16.24900 -2.50900 33.53700
H  15.60200 -0.89000 33.28700
H  16.29400 -1.99800 35.80900
H  15.65400 -0.38200 35.54800
H  19.53400 -7.24000 29.37300
H  20.49700 -6.28100 30.37600
H  21.36300 -6.83800 29.02300
H  20.47500 -8.16600 26.99500
H  21.86400 -7.10700 26.79600
H  21.22900 -8.02200 25.37500
H  17.82900 -2.48400 23.32800
H  17.63400 0.60100 23.61600
H  19.61700 -1.90400 22.26700
H  20.28100 -1.45400 23.84900
H  19.55100 -0.27100 22.63800
H  15.15600 -0.95300 23.72100
H  16.07100 -1.20700 22.23800
H  14.26100 0.77500 22.44100
H  15.70500 0.67900 21.38400
H  15.69200 1.59000 22.99800
H  14.13600 3.72300 28.04400
H  14.23100 2.86400 26.50900
H  15.55300 3.92100 27.13800
H  15.15200 1.06800 32.41100
H  18.14800 2.90400 34.69500
H  16.80800 3.33600 35.68500
H  17.28000 4.49400 34.38800

