158

Mg 8.60200 2.98800 27.35400
C  9.66200 1.12200 30.18500
C  6.60400 4.92700 29.40200
C  7.43900 4.37600 24.55000
C  10.29300 0.47900 25.31500
N  8.17100 2.85900 29.49400
C  8.80800 2.16600 30.53100
C  8.45700 2.71500 31.92300
C  7.45400 3.92200 31.52700
C  7.36900 3.89100 30.03100
C  5.98300 3.66800 32.02900
C  9.82300 3.11000 32.70200
C  9.63400 4.04100 33.87600
H  10.45200 3.72700 35.21100
N  7.16900 4.40100 27.06700
C  6.50500 5.13800 28.01400
C  5.69200 6.12900 27.31000
C  5.93900 5.94700 25.86000
C  6.90800 4.85700 25.79300
C  4.76000 7.08500 28.05900
C  5.34800 6.67000 24.72000
O  5.50500 6.44000 23.51300
C  4.38100 7.85900 25.07200
N  8.84900 2.53000 25.23800
C  8.27600 3.29400 24.26700
C  8.64500 2.78000 22.79300
C  9.41200 1.44800 23.09300
C  9.50500 1.43000 24.64400
C  7.41800 2.63300 21.85200
C  10.81900 1.26500 22.32300
C  10.96600 -0.01000 21.46600
N  9.87200 1.22400 27.61000
C  10.46700 0.31000 26.73600
C  11.18600 -0.74300 27.47500
C  10.92900 -0.40900 28.83400
C  10.13200 0.76700 28.88300
C  11.97400 -1.90000 26.84200
C  11.18200 -0.88900 30.20500
O  11.77300 -1.82700 30.71600
C  10.41000 0.17100 31.09900
C  9.44600 -0.56000 31.99600
O  8.59500 -1.33200 31.60800
O  9.67700 -0.24500 33.35000
C  8.67400 -0.69300 34.31200
H  6.04900 5.57200 30.08600
H  7.32400 4.98100 23.64800
H  10.81900 -0.31100 24.77600
H  8.00700 1.95400 32.56000
H  7.85000 4.90100 31.80000
H  6.01100 2.95700 32.85500
H  5.34800 3.46600 31.16700
H  5.91500 4.68600 32.41400
H  10.38800 3.59300 31.90500
H  10.34600 2.29300 33.20000
H  8.56200 4.19100 34.00600
H  9.98400 5.03500 33.59700
H  4.83500 6.92900 29.13500
H  3.85500 6.70500 27.58400
H  4.91600 8.11200 27.72800
H  3.41700 7.58100 25.49800
H  4.19000 8.30900 24.09800
H  4.89500 8.56400 25.72500
H  9.31500 3.46600 22.27400
H  8.71400 0.63200 22.90700
H  6.48500 2.79200 22.39200
H  7.45400 1.61800 21.45800
H  7.41600 3.32700 21.01100
H  11.70600 1.13300 22.94400
H  11.05800 2.13600 21.71300
H  10.74500 0.35700 20.46400
H  10.19500 -0.74700 21.69100
H  11.98000 -0.39600 21.35700
H  12.53600 -1.59200 25.96000
H  11.39900 -2.77500 26.54000
H  12.76200 -2.14400 27.55500
H  11.16300 0.71100 31.67200
H  8.18700 -1.66700 34.25300
H  7.96500 0.09300 34.57300
H  9.24500 -0.89500 35.21800
Mg 36.35600 49.71400 24.65600
C  36.24400 47.88300 27.76900
C  35.12300 52.44400 26.26300
C  35.87900 51.11700 21.56200
C  37.28600 46.68100 23.14800
N  35.85100 50.11700 26.74400
C  35.86400 49.22000 27.84900
C  35.52600 50.03000 29.17000
C  34.90300 51.36400 28.64600
C  35.32100 51.33500 27.09300
C  33.37100 51.49400 28.82500
C  36.70200 50.11600 30.16600
C  36.31000 50.15500 31.66100
H  34.86900 49.81600 32.01000
N  35.68500 51.59000 24.05000
C  35.29900 52.58100 24.83500
C  34.97100 53.74900 23.97100
C  35.14700 53.41700 22.64500
C  35.69000 52.01100 22.68900
C  34.33900 55.10400 24.60800
C  34.85800 54.30100 21.41100
O  34.93700 53.85300 20.28400
C  34.54000 55.77400 21.50400
N  36.54500 49.03100 22.62600
C  36.25300 49.75500 21.53300
C  36.39900 48.88900 20.26900
C  37.21600 47.62500 20.83700
C  36.97500 47.73400 22.29100
C  35.06800 48.66200 19.50200
C  38.67300 47.62200 20.37700
C  39.04900 46.29200 19.63000
N  36.74500 47.65800 25.25100
C  37.13200 46.58500 24.49400
C  37.47800 45.45200 25.32500
C  37.13400 45.94400 26.65500
C  36.63000 47.27700 26.52900
C  38.17100 44.09200 25.06800
C  37.16900 45.60100 28.07100
O  37.54800 44.56400 28.52600
C  36.61300 46.79100 28.79700
C  35.50300 46.43800 29.61800
O  34.32600 46.51600 29.35600
O  36.01200 45.70200 30.68100
C  34.97200 45.18000 31.58000
H  34.73000 53.35700 26.71600
H  35.69600 51.57300 20.58700
H  37.51500 45.69900 22.72900
H  34.77500 49.36100 29.59000
H  35.33500 52.21500 29.17300
H  33.01300 50.63400 29.39000
H  32.93500 51.38900 27.83100
H  33.03500 52.44500 29.23800
H  37.28300 51.00700 29.92500
H  37.40600 49.28600 30.10300
H  36.66100 51.10800 32.05700
H  36.92300 49.41100 32.17000
H  33.95100 54.87700 25.60100
H  33.50500 55.46400 24.00600
H  35.19600 55.77600 24.64600
H  35.28500 56.15800 22.20000
H  33.46200 55.86800 21.63500
H  34.79900 56.07700 20.49000
H  37.04100 49.47800 19.61400
H  36.69600 46.72300 20.51300
H  34.25600 49.17700 20.01500
H  34.87900 47.59800 19.36300
H  35.18300 49.12100 18.52000
H  39.43500 47.69400 21.15400
H  38.82600 48.46800 19.70700
H  38.21600 45.61700 19.43700
H  39.88300 45.74300 20.06800
H  39.39000 46.61200 18.64500
H  38.65300 43.80000 26.00100
H  38.87400 44.28100 24.25700
H  37.37400 43.40000 24.79700
H  37.36700 47.32400 29.37600
H  34.43200 44.35100 31.12300
H  34.14200 45.81700 31.88500
H  35.58400 44.75000 32.37400

