158

Mg 25.73300 0.61800 29.05600
C  27.73000 0.29300 31.80200
C  23.07900 1.56300 31.03500
C  23.80500 0.92600 26.26900
C  28.38100 -0.73700 27.11600
N  25.48900 0.96300 31.15300
C  26.45200 0.82500 32.10500
C  25.88700 1.23100 33.44300
C  24.43200 1.60700 33.19900
C  24.25800 1.24700 31.69500
C  23.37300 0.85600 34.06800
C  26.67900 2.36200 34.18100
C  27.26500 2.07800 35.58300
H  27.12400 3.25000 36.59900
N  23.77600 1.18400 28.72600
C  22.80100 1.45100 29.68200
C  21.54800 1.71200 29.00900
C  21.72700 1.53100 27.63900
C  23.13500 1.18500 27.50400
C  20.33200 2.24100 29.70300
C  20.64600 1.67700 26.44400
O  20.86900 1.49100 25.20800
C  19.23700 1.91000 26.80800
N  25.96300 0.08600 26.94900
C  25.09400 0.46200 25.94600
C  25.63900 0.23600 24.50900
C  27.07200 -0.32700 24.83900
C  27.21000 -0.26300 26.43000
C  24.72600 -0.76300 23.61900
C  28.22600 0.35600 24.12600
C  28.72300 1.67300 24.69400
N  27.58800 -0.18800 29.30600
C  28.59900 -0.68600 28.49400
C  29.74100 -0.97500 29.20200
C  29.51200 -0.61400 30.53300
C  28.13000 -0.18300 30.53700
C  30.98600 -1.59400 28.58000
C  30.02400 -0.55100 31.92200
O  31.11300 -0.84900 32.33300
C  28.92200 0.06100 32.70500
C  28.62600 -0.96100 33.73100
O  27.93000 -1.96700 33.58000
O  29.08400 -0.56100 34.96100
C  28.80600 -1.50300 36.05200
H  22.24100 1.86100 31.66800
H  23.15200 0.94600 25.39400
H  29.23500 -1.09200 26.53500
H  25.98100 0.48900 34.23600
H  24.26800 2.67200 33.36300
H  22.31300 1.05300 33.90800
H  23.70300 1.28600 35.01300
H  23.54500 -0.20700 34.24000
H  26.13500 3.30400 34.24800
H  27.54700 2.57200 33.55500
H  28.32000 1.82200 35.48900
H  26.95000 1.15300 36.06700
H  20.45600 2.45500 30.76400
H  19.53900 1.49500 29.74300
H  20.00200 3.15600 29.21100
H  19.17100 2.92700 27.19600
H  19.00200 1.11700 27.51800
H  18.55900 1.70600 25.98000
H  25.75700 1.11400 23.87500
H  27.04300 -1.40100 24.65700
H  23.75300 -0.83000 24.10600
H  25.19600 -1.74100 23.51800
H  24.49100 -0.36900 22.63000
H  27.96400 0.54300 23.08500
H  29.06600 -0.33800 24.15400
H  28.23800 1.94400 25.63200
H  28.59700 2.50200 23.99700
H  29.78100 1.56100 24.92800
H  30.69700 -2.23000 27.74300
H  31.39300 -2.30100 29.30200
H  31.77700 -0.98100 28.14700
H  29.33700 0.92200 33.22700
H  29.23600 -2.49200 35.89400
H  27.75500 -1.50100 36.34200
H  29.32200 -1.06100 36.90400
Mg 54.62800 24.25500 44.63600
C  51.93200 26.25600 43.53600
C  52.91600 21.68200 43.04000
C  57.41600 22.42400 44.69500
C  56.32300 27.02700 45.64500
N  52.69900 23.95800 43.33500
C  51.75000 24.98200 43.11300
C  50.62400 24.48000 42.19700
C  50.66600 22.93900 42.72500
C  52.16100 22.81800 42.94000
C  49.89800 22.74400 44.01800
C  51.13700 24.70400 40.66700
C  50.14300 25.03200 39.61100
H  50.54800 25.53700 38.30300
N  55.10100 22.31500 43.99500
C  54.29000 21.36800 43.44000
C  54.94200 20.15800 43.38200
C  56.29700 20.33600 43.84100
C  56.28500 21.76300 44.20900
C  54.21700 18.78200 42.99600
C  57.35500 19.25700 44.00300
O  57.13900 18.20000 43.47200
C  58.73100 19.40100 44.71600
N  56.63700 24.67900 44.93400
C  57.61600 23.76900 44.88300
C  58.91500 24.36900 45.46300
C  58.59200 25.91100 45.66200
C  57.08000 25.85300 45.41700
C  59.38400 23.65000 46.78900
C  59.47200 26.89600 44.85800
C  59.01400 27.51400 43.52000
N  54.16900 26.11600 44.88600
C  54.90300 27.17800 45.40200
C  54.03300 28.43200 45.48400
C  52.89600 28.02600 44.69000
C  53.04900 26.70300 44.33900
C  54.36700 29.76300 46.07800
C  51.65400 28.55100 44.13900
O  51.18800 29.66700 44.27300
C  50.88900 27.40700 43.31600
C  50.57500 27.79000 41.98000
O  51.33200 28.09000 41.13900
O  49.19300 27.82300 41.92700
C  48.58100 28.26200 40.60700
H  52.35700 20.82400 42.66100
H  58.37000 21.90400 44.81000
H  56.92300 27.87200 45.98700
H  49.68700 24.95500 42.49000
H  50.09100 22.37600 41.99000
H  50.58800 22.17300 44.63900
H  48.95700 22.22900 43.82700
H  49.78200 23.72700 44.47500
H  51.55700 23.75300 40.33900
H  51.86900 25.51100 40.63200
H  49.36000 25.64800 40.05400
H  49.58700 24.11500 39.41600
H  54.47400 17.92400 43.61800
H  54.43500 18.52100 41.96100
H  53.14300 18.96000 43.05400
H  58.64200 19.77900 45.73400
H  59.38700 20.03300 44.11700
H  59.15400 18.40500 44.84900
H  59.66500 24.26800 44.67900
H  58.59400 26.14600 46.72600
H  58.99200 22.63400 46.75500
H  58.99100 24.12700 47.68700
H  60.47200 23.59300 46.81900
H  60.39200 26.35500 44.63700
H  59.72600 27.76600 45.46400
H  59.11100 28.59800 43.46100
H  57.94900 27.34300 43.36800
H  59.54000 27.19200 42.62200
H  53.85800 30.50400 45.46100
H  55.44200 29.94200 46.09000
H  53.86500 29.99600 47.01700
H  50.06200 27.03400 43.92000
H  48.29800 29.31100 40.68500
H  47.67600 27.66900 40.47300
H  49.21500 28.07600 39.74000

