158

Mg -2.83900 17.17100 27.33200
C  -2.94900 15.17100 30.32000
C  -3.20700 19.97200 29.27100
C  -2.83600 18.86900 24.45800
C  -3.19600 14.11900 25.56400
N  -3.10500 17.49600 29.46800
C  -3.08000 16.54000 30.51700
C  -3.03500 17.27500 31.82900
C  -3.36200 18.78200 31.49900
C  -3.21500 18.76100 29.95700
C  -4.72700 19.25400 31.90600
C  -1.78100 17.06000 32.67000
C  -1.37100 18.07800 33.75100
H  -0.77600 17.41600 35.01700
N  -3.02800 19.11900 26.91900
C  -3.14400 20.15400 27.81400
C  -3.23500 21.40500 27.13200
C  -3.03400 21.11100 25.74300
C  -2.94400 19.64800 25.66200
C  -3.58200 22.64600 27.85200
C  -2.87400 22.06400 24.53100
O  -2.75200 21.68000 23.39900
C  -2.86000 23.57500 24.77200
N  -3.15900 16.59600 25.40700
C  -2.87700 17.47800 24.35600
C  -2.91600 16.83100 22.98700
C  -2.78300 15.34400 23.38200
C  -3.12500 15.32900 24.86100
C  -4.21000 17.21500 22.18800
C  -1.36000 14.78100 23.09600
C  -1.14900 14.45200 21.60600
N  -2.85200 15.11900 27.77700
C  -2.98200 14.03300 26.94700
C  -2.87100 12.79400 27.64800
C  -2.93500 13.20100 28.98100
C  -2.93500 14.64400 29.01400
C  -2.89300 11.45000 27.11500
C  -3.07000 12.69200 30.34200
O  -3.18400 11.60200 30.84500
C  -2.86100 13.97600 31.29600
C  -1.44500 13.88600 31.79300
O  -0.42100 14.35000 31.28600
O  -1.43100 13.11100 32.93300
C  -0.23500 12.97300 33.63800
H  -3.18600 20.86800 29.89400
H  -2.61500 19.39900 23.52900
H  -3.17700 13.19000 24.99100
H  -3.91500 16.89500 32.34900
H  -2.66200 19.44000 32.01400
H  -4.63400 20.32100 32.10900
H  -5.00100 18.73600 32.82500
H  -5.45600 18.91100 31.17300
H  -0.96700 16.88000 31.96800
H  -1.69200 16.11700 33.20900
H  -2.18400 18.68000 34.15800
H  -0.55200 18.62500 33.28400
H  -3.78200 23.48500 27.18500
H  -2.64200 22.91800 28.33300
H  -4.35400 22.52500 28.61100
H  -3.93400 23.76300 24.77900
H  -2.36400 24.27300 24.09700
H  -2.38400 23.73000 25.74000
H  -2.03900 17.21300 22.46600
H  -3.44800 14.72900 22.77500
H  -4.78400 17.70500 22.97500
H  -4.66300 16.30700 21.79100
H  -3.90700 17.94100 21.43300
H  -1.16100 13.91400 23.72600
H  -0.61500 15.55000 23.30100
H  -0.44000 15.12500 21.12500
H  -2.05800 14.40300 21.00600
H  -0.68000 13.46800 21.58500
H  -3.96700 11.30100 26.99600
H  -2.41800 10.74100 27.79200
H  -2.52100 11.49300 26.09100
H  -3.55200 14.08600 32.13200
H  -0.32900 13.39200 34.64000
H  0.61100 13.38100 33.08600
H  -0.00400 11.91300 33.74300
Mg 49.53300 46.16800 42.88400
C  45.97200 46.46900 41.89700
C  49.23300 42.87400 42.01000
C  52.80500 45.96100 43.08000
C  49.63400 49.64100 43.03000
N  47.81500 44.87800 42.00700
C  46.47200 45.21500 41.54800
C  45.70300 43.95500 41.08000
C  46.64000 42.77600 41.48300
C  47.96400 43.59800 41.87000
C  46.15600 42.00000 42.75600
C  45.23700 43.84000 39.57500
C  46.31400 44.38800 38.52800
H  46.69800 43.54100 37.30000
N  50.87900 44.63300 42.55100
C  50.53600 43.30400 42.28000
C  51.77800 42.50500 42.34500
C  52.87900 43.38600 42.53700
C  52.23000 44.76800 42.76700
C  51.76600 41.02700 42.10300
C  54.28400 42.97000 42.36900
O  54.54100 41.84100 41.93100
C  55.40900 43.93200 42.52500
N  50.97100 47.59900 42.87500
C  52.28200 47.28300 43.15100
C  53.09900 48.51100 43.56800
C  52.03800 49.65200 43.35900
C  50.79300 48.92500 42.95300
C  53.53700 48.32200 45.09300
C  52.31900 50.76700 42.28200
C  52.11400 52.21100 42.82400
N  48.06700 47.80500 42.73900
C  48.34100 49.13500 42.76900
C  46.99400 49.82400 42.67600
C  46.12900 48.86300 42.23500
C  46.79000 47.55100 42.34200
C  46.73900 51.28500 42.79500
C  44.75600 48.60900 41.81100
O  43.84600 49.34600 41.69000
C  44.64800 47.06700 41.44000
C  43.41300 46.44200 42.01900
O  42.42200 46.05100 41.40400
O  43.50600 46.52500 43.40000
C  42.25100 46.08800 44.11500
H  49.10000 41.83000 41.72000
H  53.86700 45.88900 43.32600
H  49.72800 50.71800 43.18700
H  44.82100 43.98200 41.72000
H  46.75100 42.20300 40.56200
H  46.88200 42.04900 43.56700
H  46.22800 40.92700 42.57500
H  45.22400 42.40700 43.14900
H  44.39900 44.49600 39.33700
H  44.88200 42.82600 39.39300
H  47.29300 44.59900 38.95900
H  45.91900 45.32000 38.12300
H  52.48300 40.48100 42.71700
H  52.15400 40.86500 41.09700
H  50.81900 40.49000 42.15400
H  55.34500 44.71100 41.76500
H  56.35000 43.39200 42.42000
H  55.40900 44.40000 43.50900
H  53.95200 48.59000 42.89400
H  51.97300 50.24900 44.26800
H  54.05500 47.40000 45.35800
H  52.62100 48.26500 45.68100
H  54.13700 49.17500 45.41000
H  51.64100 50.72500 41.42900
H  53.34300 50.73200 41.91100
H  52.07100 52.23800 43.91300
H  51.19900 52.69600 42.48400
H  53.01100 52.76600 42.54700
H  46.81200 51.57800 41.74800
H  47.46700 51.68300 43.50200
H  45.75000 51.52700 43.18200
H  44.60100 46.96900 40.35500
H  41.83500 45.25600 43.54900
H  41.66000 47.00300 44.08400
H  42.35200 45.84700 45.17300

