158

Mg 0.31400 7.26500 25.78800
C  1.16800 9.41200 28.73000
C  0.90000 4.62100 27.93900
C  0.08200 5.48900 23.20500
C  0.48000 10.25400 23.89000
N  1.03600 7.10300 28.05500
C  1.11500 8.02500 29.04400
C  1.23100 7.47000 30.44000
C  1.38600 5.95000 30.08400
C  1.12900 5.85900 28.56200
C  2.78800 5.30900 30.44400
C  -0.07900 7.84800 31.27000
C  -0.09600 7.53800 32.73600
H  1.29700 7.39900 33.43100
N  0.46600 5.30900 25.63400
C  0.60200 4.34700 26.60200
C  0.46600 3.07600 25.98800
C  0.05900 3.31900 24.65600
C  0.19500 4.74500 24.41900
C  0.92500 1.80400 26.71500
C  -0.18800 2.20700 23.63100
O  -0.19900 2.49900 22.47500
C  -0.36100 0.74400 23.87000
N  0.47600 7.83700 23.84800
C  0.15500 6.84300 22.93800
C  -0.26000 7.46300 21.57600
C  -0.23200 8.99500 21.83000
C  0.23300 9.07700 23.26000
C  0.53900 6.93500 20.33200
C  -1.56800 9.80000 21.59400
C  -1.34000 11.09700 20.74800
N  0.69100 9.45900 26.19700
C  0.77300 10.48400 25.24000
C  1.08400 11.73200 25.93800
C  1.16500 11.30200 27.24400
C  1.03100 9.93900 27.40700
C  1.20300 13.09400 25.25100
C  1.47700 11.81800 28.56300
O  1.81400 12.92400 28.86400
C  1.40500 10.59900 29.63800
C  2.71200 10.57900 30.32400
O  3.79700 10.49700 29.75700
O  2.48100 10.77400 31.66900
C  3.64000 10.87700 32.50900
H  0.95600 3.76700 28.61700
H  -0.19400 4.78800 22.41400
H  0.35700 11.13200 23.25200
H  2.08600 7.88400 30.97500
H  0.67800 5.37900 30.68600
H  2.70200 4.45700 31.11800
H  3.25700 5.98300 31.16000
H  3.45100 5.07100 29.61200
H  -0.86000 7.31000 30.73400
H  -0.26100 8.92200 31.23900
H  -0.68200 6.61900 32.73300
H  -0.71700 8.28100 33.23600
H  1.39600 1.05200 26.08300
H  0.06400 1.46900 27.29500
H  1.80100 2.08300 27.30100
H  -0.69500 0.68400 24.90600
H  0.59100 0.25900 23.65300
H  -1.18300 0.47300 23.20800
H  -1.26200 7.06700 21.41100
H  0.51900 9.46100 21.19300
H  1.17300 7.71400 19.90900
H  -0.09300 6.57900 19.51900
H  1.20200 6.09100 20.52100
H  -2.04200 10.04700 22.54300
H  -2.19300 9.23700 20.90000
H  -1.44700 10.86700 19.68800
H  -0.34900 11.53800 20.85700
H  -2.15600 11.71400 21.12300
H  0.58400 13.02100 24.35600
H  2.23100 13.34200 24.98900
H  0.77600 13.86900 25.88700
H  0.54300 10.68400 30.29900
H  4.30000 10.05200 32.24400
H  3.44300 10.82700 33.58000
H  4.28600 11.73400 32.31700
Mg -8.80400 40.45800 42.57900
C  -8.08200 36.97100 41.70700
C  -6.10200 41.35300 40.90000
C  -10.01500 43.52200 42.75300
C  -12.08600 39.16900 43.52000
N  -7.49700 39.28500 41.19400
C  -7.17700 37.91400 41.22400
C  -5.90100 37.61800 40.37900
C  -5.16900 39.02300 40.45900
C  -6.31900 39.96200 40.86000
C  -4.01700 39.20900 41.52500
C  -6.18300 37.03800 38.93900
C  -5.42700 35.76200 38.50900
H  -4.53400 35.81700 37.24700
N  -8.10700 42.27400 42.01600
C  -6.89800 42.41200 41.37500
C  -6.66400 43.82300 41.19100
C  -7.74800 44.53700 41.76000
C  -8.68000 43.47200 42.28900
C  -5.40800 44.26100 40.45400
C  -8.03000 46.04200 41.72400
O  -7.23400 46.77400 41.11500
C  -9.24200 46.62300 42.29700
N  -10.78200 41.16900 43.06100
C  -10.92100 42.51000 43.08100
C  -12.36500 42.90300 43.52400
C  -13.08200 41.50500 43.74500
C  -11.98100 40.54800 43.36800
C  -12.58900 43.85100 44.67700
C  -14.36100 41.25500 42.94100
C  -15.60900 40.58300 43.56500
N  -9.78900 38.48800 42.90900
C  -11.07100 38.19600 43.31200
C  -11.24800 36.75800 43.26300
C  -10.08400 36.26800 42.77500
C  -9.28200 37.33000 42.37800
C  -12.48700 36.08500 43.81100
C  -9.39300 35.03900 42.41200
O  -9.59000 33.84100 42.61900
C  -8.09000 35.53600 41.63500
C  -6.84000 35.00100 42.21800
O  -6.31100 35.37200 43.25500
O  -6.36400 33.98700 41.43700
C  -5.05700 33.50700 41.98900
H  -5.07000 41.60500 40.64800
H  -10.45600 44.49500 42.97900
H  -12.99100 38.70400 43.91600
H  -5.22100 36.93800 40.89200
H  -4.78000 39.18000 39.45300
H  -3.89800 38.31500 42.13800
H  -4.37000 39.89400 42.29600
H  -3.05900 39.49100 41.08700
H  -6.00400 37.86500 38.25100
H  -7.27200 37.01200 38.90100
H  -6.20100 35.03900 38.25200
H  -4.89900 35.35600 39.37100
H  -5.03500 45.13800 40.98300
H  -5.53700 44.65700 39.44700
H  -4.54400 43.60800 40.56900
H  -9.31700 47.71000 42.27000
H  -9.21500 46.26800 43.32700
H  -10.15000 46.34100 41.76300
H  -12.76400 43.37100 42.62400
H  -13.32600 41.39200 44.80100
H  -11.62000 44.24700 44.98000
H  -13.09000 43.39700 45.53200
H  -13.20000 44.71000 44.39600
H  -14.12700 40.76000 41.99900
H  -14.65800 42.20100 42.48700
H  -15.44200 40.47400 44.63700
H  -15.81300 39.60900 43.12100
H  -16.49400 41.21900 43.53200
H  -12.08300 35.11600 44.10300
H  -13.19800 36.05000 42.98500
H  -12.89400 36.59000 44.68700
H  -7.95500 35.13600 40.63000
H  -4.33200 34.30700 42.14400
H  -4.65300 32.94400 41.14700
H  -5.05700 32.83600 42.84700

