158

Mg 36.00300 1.97200 31.12700
C  33.61600 3.14900 33.44500
C  38.25300 1.89200 33.61600
C  38.17700 1.24900 28.78500
C  33.57000 2.68000 28.66300
N  35.94400 2.62300 33.28300
C  34.86800 2.87500 34.05600
C  35.13800 2.89900 35.56400
C  36.70400 2.67900 35.50900
C  37.01900 2.34600 34.04000
C  37.50300 3.72500 36.35400
C  34.21700 1.88200 36.40800
C  33.84000 2.28600 37.88100
H  34.68500 3.38300 38.52900
N  37.97800 1.56800 31.13300
C  38.77700 1.54300 32.28300
C  40.14000 1.07200 31.83800
C  40.07100 0.83600 30.42700
C  38.67600 1.23500 30.06800
C  41.31300 1.00500 32.82900
C  41.15300 0.25300 29.55800
O  40.88100 0.01700 28.40200
C  42.63200 -0.03700 30.12200
N  35.88500 1.88000 29.00400
C  36.94500 1.51300 28.22100
C  36.55300 1.26200 26.73600
C  35.00300 1.68300 26.75600
C  34.73100 2.08300 28.24000
C  37.48300 2.04100 25.79000
C  33.93300 0.74100 26.08600
C  33.39000 -0.31200 27.03700
N  33.98100 2.79000 31.06300
C  33.17500 2.97400 29.96300
C  31.89500 3.57200 30.37900
C  31.96800 3.61100 31.80100
C  33.27800 3.16500 32.08700
C  30.70700 3.73600 29.58700
C  31.31900 3.86600 33.06000
O  30.20700 4.28400 33.19000
C  32.38900 3.65000 34.19600
C  32.51500 4.95200 34.94300
O  33.21700 5.90500 34.60600
O  31.78400 5.01200 36.07000
C  31.59300 6.31400 36.74600
H  38.92800 1.73300 34.45900
H  38.83000 0.88800 27.98800
H  32.81200 2.89200 27.90600
H  34.92600 3.91100 35.90800
H  36.84600 1.70400 35.97700
H  38.09600 3.07200 36.99500
H  36.80800 4.27500 36.98900
H  38.10400 4.37600 35.72000
H  34.74300 0.93000 36.33700
H  33.24200 1.70700 35.95500
H  34.05900 1.41200 38.49500
H  32.79000 2.57100 37.81900
H  42.25100 1.44700 32.49400
H  41.47300 -0.03200 33.12200
H  41.03700 1.51700 33.75100
H  43.21400 -0.43200 29.29000
H  42.62600 -0.73800 30.95700
H  43.04700 0.94100 30.36800
H  36.74600 0.21900 26.48500
H  34.92400 2.60200 26.17600
H  36.85000 2.37900 24.97000
H  38.22000 1.28100 25.53000
H  37.89300 2.90400 26.31400
H  34.45500 0.24900 25.26500
H  33.14000 1.40700 25.74800
H  33.89700 -0.30500 28.00300
H  33.43100 -1.28200 26.54000
H  32.35800 0.02900 27.12000
H  30.40200 2.78400 29.15300
H  30.76400 4.57800 28.89700
H  29.88000 4.01500 30.24000
H  31.96200 2.97200 34.93600
H  31.62000 7.22700 36.15100
H  32.33400 6.51900 37.51900
H  30.62600 6.34700 37.24700
Mg 9.36900 48.29900 25.50000
C  6.99400 48.54700 28.15200
C  11.69000 49.63800 27.66800
C  11.58300 47.86000 23.08100
C  6.70000 47.51600 23.46100
N  9.29300 49.01600 27.61200
C  8.29100 48.86300 28.53000
C  8.76700 49.30500 29.95400
C  10.07000 50.08600 29.62100
C  10.40400 49.51100 28.21000
C  9.95800 51.63700 29.52200
C  8.93300 48.11700 30.92800
C  8.48400 48.32200 32.33400
H  8.29700 47.04100 33.16900
N  11.40900 48.55200 25.38400
C  12.15300 49.11100 26.40000
C  13.55900 49.11200 26.00100
C  13.55300 48.70700 24.56700
C  12.14800 48.33500 24.30100
C  14.61900 49.73500 26.83600
C  14.65000 48.68900 23.57400
O  14.33900 48.28500 22.48200
C  15.94100 49.33200 23.78700
N  9.12600 47.84500 23.50300
C  10.22900 47.67300 22.71300
C  9.70600 47.12600 21.35300
C  8.23800 46.97000 21.48700
C  7.98000 47.39800 22.93100
C  10.21400 47.95500 20.11100
C  7.73600 45.52500 21.25200
C  8.46200 44.34400 21.95200
N  7.19500 48.08500 25.70000
C  6.29000 47.84200 24.73200
C  4.95600 47.79900 25.34300
C  5.19000 48.12400 26.70700
C  6.55200 48.18500 26.87500
C  3.68900 47.50300 24.55300
C  4.51200 48.27700 27.96500
O  3.34600 48.21200 28.29000
C  5.68000 48.62200 29.06300
C  5.63800 47.53500 30.06800
O  6.28200 46.48600 30.03400
O  4.81000 47.86200 31.12200
C  4.57100 46.80600 32.18000
H  12.46000 50.00700 28.34800
H  12.18500 47.73500 22.17900
H  5.88800 47.14300 22.83400
H  8.17700 50.10400 30.40300
H  10.85700 49.81100 30.32400
H  10.53800 52.10500 30.31800
H  8.98900 52.13200 29.57600
H  10.35700 51.81100 28.52300
H  9.97800 47.87700 31.12700
H  8.55000 47.19900 30.48300
H  7.57700 48.91600 32.44500
H  9.33000 48.74600 32.87500
H  14.88100 50.71900 26.44600
H  15.48800 49.08100 26.75700
H  14.35600 49.78800 27.89200
H  16.38400 49.20800 24.77500
H  15.67400 50.38100 23.66000
H  16.58100 49.13200 22.92700
H  10.18500 46.14700 21.33800
H  7.67300 47.61200 20.81100
H  11.03900 48.58800 20.43900
H  9.39800 48.60200 19.79000
H  10.50000 47.26400 19.31800
H  7.85800 45.37100 20.18000
H  6.70100 45.39000 21.56700
H  9.20500 44.66800 22.68100
H  8.87500 43.77400 21.12000
H  7.73200 43.73700 22.48700
H  3.85700 47.24300 23.50800
H  2.97800 48.32900 24.51800
H  3.16600 46.74200 25.13200
H  5.62600 49.62600 29.48300
H  4.81900 45.82800 31.76800
H  3.58400 46.86700 32.64000
H  5.28200 47.11100 32.94700

