158

Mg 26.27100 0.49400 29.81500
C  28.17500 0.08800 32.69100
C  23.66100 1.22000 31.63200
C  24.53200 0.10600 26.99800
C  29.19900 -0.58700 28.05600
N  25.95900 0.34900 32.07000
C  26.91000 0.58300 32.97900
C  26.31000 0.99900 34.30800
C  24.83300 1.47900 33.91100
C  24.77300 1.00500 32.41400
C  23.62200 0.88200 34.64000
C  27.05600 2.12500 35.16600
C  27.54700 1.67800 36.52400
H  27.42200 2.67300 37.65700
N  24.28400 0.54600 29.35400
C  23.32600 0.93000 30.28000
C  22.06500 0.98200 29.62800
C  22.27700 0.59600 28.28400
C  23.74300 0.36300 28.12900
C  20.82900 1.50600 30.20100
C  21.31600 0.44800 27.08000
O  21.69800 0.08800 25.98900
C  19.85400 0.76100 27.26700
N  26.83400 -0.20800 27.76500
C  25.91600 -0.09900 26.82300
C  26.61500 -0.37500 25.43900
C  28.08600 -0.25500 25.74500
C  28.08100 -0.29400 27.29800
C  26.17500 -1.74400 24.83800
C  28.96900 0.88000 25.22700
C  29.30200 0.77100 23.75700
N  28.25000 -0.21100 30.22400
C  29.28500 -0.61700 29.42900
C  30.46600 -0.92300 30.22900
C  30.07300 -0.59500 31.49100
C  28.69900 -0.21900 31.43300
C  31.84000 -1.43000 29.78100
C  30.50500 -0.65700 32.84200
O  31.51900 -1.06500 33.42000
C  29.27200 -0.13200 33.67100
C  29.03000 -1.21100 34.69300
O  28.45200 -2.22800 34.52000
O  29.69300 -0.88100 35.84000
C  29.77200 -1.99500 36.81700
H  22.78700 1.55400 32.19500
H  24.00900 -0.03800 26.05100
H  30.12500 -0.85000 27.54100
H  26.35800 0.11500 34.94400
H  24.71700 2.56200 33.95500
H  24.00000 0.61200 35.62600
H  23.14600 0.02000 34.17300
H  22.83100 1.62700 34.72700
H  26.39200 2.96900 35.35200
H  27.93800 2.50000 34.64500
H  28.62300 1.64100 36.35200
H  27.17800 0.70600 36.85000
H  20.44600 2.33000 29.59900
H  21.03200 2.03000 31.13500
H  20.04800 0.76300 30.36400
H  19.38200 0.02800 27.92200
H  19.39300 0.71200 26.28000
H  19.85300 1.77400 27.66900
H  26.30000 0.31600 24.65800
H  28.57000 -1.15400 25.36300
H  25.98900 -2.48800 25.61200
H  26.97900 -2.27000 24.32300
H  25.30400 -1.66200 24.18700
H  29.82800 1.02400 25.88200
H  28.36000 1.77700 25.33600
H  30.35400 1.05800 23.74500
H  28.78500 1.40100 23.03300
H  29.30300 -0.24600 23.36600
H  32.50800 -1.36600 30.64000
H  32.17200 -0.84800 28.92200
H  31.63100 -2.40300 29.33600
H  29.62800 0.74900 34.20500
H  30.61100 -1.75300 37.46900
H  30.13700 -2.91200 36.35600
H  28.83100 -2.10500 37.35600
Mg -1.51300 34.17500 27.18700
C  -3.09000 32.43700 29.80700
C  -0.22800 36.33900 29.41900
C  -0.35600 35.95300 24.50900
C  -3.21500 31.88800 24.87500
N  -1.72000 34.39700 29.35700
C  -2.36200 33.62500 30.21400
C  -2.18800 34.03900 31.68900
C  -1.47800 35.41500 31.52400
C  -1.14200 35.42500 30.04000
C  -2.37700 36.59000 31.90600
C  -1.32700 33.03000 32.52400
C  -1.97100 32.44000 33.76800
H  -1.17500 32.52600 35.05100
N  -0.32000 35.85500 26.99000
C  0.15200 36.56200 28.05100
C  0.95900 37.64400 27.57300
C  0.90100 37.58700 26.11500
C  0.06800 36.46900 25.76700
C  1.85200 38.56700 28.35100
C  1.67500 38.55700 25.05800
O  1.52100 38.29100 23.87100
C  2.52000 39.71400 25.48600
N  -1.72900 33.90900 25.11600
C  -1.15700 34.85700 24.21400
C  -1.74600 34.62900 22.82900
C  -2.27900 33.14500 22.92500
C  -2.39200 32.88700 24.37400
C  -2.87000 35.64300 22.28200
C  -1.44300 32.07100 22.33000
C  -0.28500 31.42900 23.17600
N  -2.86600 32.45300 27.28600
C  -3.43500 31.67000 26.28300
C  -4.24900 30.62900 26.89500
C  -4.08000 30.83800 28.25800
C  -3.23200 31.94200 28.48000
C  -5.10600 29.67100 26.12700
C  -4.55200 30.48300 29.58600
O  -5.36200 29.65600 29.89900
C  -3.99500 31.52400 30.59300
C  -5.10000 32.31600 31.13000
O  -6.03400 32.90700 30.57000
O  -5.04700 32.15200 32.43400
C  -6.13100 32.76700 33.19700
H  0.12900 37.11600 30.09800
H  -0.05100 36.49600 23.61200
H  -3.80900 31.33100 24.14700
H  -3.15200 34.34100 32.09800
H  -0.52500 35.50700 32.04600
H  -3.24100 36.23300 32.46800
H  -2.63800 37.12600 30.99400
H  -1.86100 37.35500 32.48600
H  -0.40400 33.44600 32.92800
H  -1.00800 32.22000 31.86800
H  -2.24300 31.39200 33.64600
H  -2.91400 32.92400 34.01800
H  1.56600 38.25700 29.35700
H  1.64900 39.62100 28.16100
H  2.87800 38.43100 28.01100
H  3.41600 39.27600 25.92700
H  1.98100 40.37400 26.16600
H  2.83400 40.15500 24.54000
H  -0.93800 34.56700 22.10000
H  -3.26600 32.98000 22.49400
H  -2.38200 36.07800 21.41000
H  -3.03200 36.46700 22.97600
H  -3.78900 35.08800 22.09700
H  -0.84400 32.51800 21.53700
H  -2.10100 31.36200 21.82700
H  0.58400 31.32500 22.52600
H  -0.49500 30.41400 23.51300
H  -0.04400 31.96800 24.09200
H  -5.87400 30.21400 25.57600
H  -5.41400 28.80400 26.71000
H  -4.44000 29.38400 25.31300
H  -3.51400 30.98200 31.40700
H  -7.13800 32.43900 32.93900
H  -5.93600 33.82800 33.03800
H  -6.00700 32.43400 34.22700

