158

Mg 36.10100 2.79500 30.22200
C  33.65500 3.89400 32.45300
C  38.44900 3.16300 32.86800
C  38.52600 2.02800 28.06800
C  33.78300 2.99600 27.63100
N  36.06200 3.47700 32.40100
C  34.92200 3.75100 33.06800
C  35.15100 3.62200 34.59700
C  36.68000 3.87000 34.66100
C  37.13000 3.47800 33.23500
C  37.12800 5.36300 35.00800
C  34.59600 2.32900 35.24100
C  33.97000 2.41200 36.60600
H  34.62500 3.37200 37.60400
N  38.15600 2.57600 30.42300
C  38.91900 2.76700 31.58900
C  40.31900 2.37200 31.29000
C  40.33100 1.91300 29.91100
C  38.98100 2.19100 29.38400
C  41.43900 2.35100 32.28100
C  41.45400 1.33200 29.09800
O  41.40600 1.15800 27.85500
C  42.78000 1.12500 29.73400
N  36.25900 2.91200 28.14000
C  37.33100 2.37200 27.47700
C  37.07400 2.12200 25.95200
C  35.51300 2.43400 25.85800
C  35.16900 2.84100 27.28100
C  37.91700 3.02200 24.98400
C  34.65000 1.24700 25.39100
C  33.85100 1.37000 24.01000
N  34.17200 3.26000 30.00700
C  33.33700 3.32500 28.89500
C  32.04400 3.70300 29.28300
C  32.10200 3.90600 30.64900
C  33.41600 3.60500 31.03900
C  30.80900 3.85900 28.46600
C  31.28200 4.38300 31.76700
O  30.15000 4.88500 31.82300
C  32.26500 4.13500 33.05700
C  32.20900 5.35400 34.01000
O  32.54400 6.48900 33.74900
O  31.72800 4.93800 35.22500
C  31.47800 5.94900 36.21900
H  39.06900 2.91900 33.73300
H  39.36700 1.62600 27.49800
H  32.99900 3.06200 26.87500
H  34.58000 4.46900 34.97600
H  37.09300 3.18400 35.40000
H  37.85800 5.77400 34.31000
H  37.69100 5.36000 35.94100
H  36.22100 5.96000 34.91500
H  35.42300 1.62800 35.36000
H  33.87300 2.00100 34.49400
H  34.02000 1.43600 37.08800
H  32.91200 2.67400 36.56100
H  42.41700 2.59900 31.86800
H  41.47100 1.39700 32.80600
H  41.21700 3.20100 32.92700
H  43.26100 2.07600 29.96300
H  43.38900 0.58800 29.00700
H  42.63100 0.58100 30.66600
H  37.33600 1.07400 25.81200
H  35.32800 3.27600 25.19200
H  38.12900 3.92100 25.56300
H  37.22100 3.22400 24.17000
H  38.76900 2.43700 24.64000
H  33.93500 0.94700 26.15600
H  35.33000 0.41200 25.22100
H  32.83700 1.70800 24.22400
H  33.91600 0.45300 23.42500
H  34.31100 2.13300 23.38200
H  29.95800 3.76600 29.14000
H  30.70900 3.11700 27.67400
H  30.73800 4.81600 27.94800
H  31.99200 3.20000 33.54500
H  32.26900 5.91000 36.96800
H  30.52500 5.75300 36.71100
H  31.44000 6.95800 35.80900
Mg 0.55300 43.55800 26.28300
C  2.78500 43.85900 28.81200
C  -1.83300 42.59600 28.59300
C  -1.53600 42.79700 23.73400
C  3.03300 44.33100 23.95800
N  0.47800 43.19300 28.43300
C  1.52100 43.46400 29.31800
C  1.03300 43.45600 30.78700
C  -0.43700 42.84100 30.64400
C  -0.63800 42.90800 29.11600
C  -0.59800 41.43400 31.25100
C  1.10500 44.85400 31.39500
C  1.07100 44.95300 32.91900
H  0.69700 43.75900 33.75400
N  -1.49900 42.99900 26.15300
C  -2.25100 42.65300 27.22500
C  -3.58800 42.36300 26.72700
C  -3.54400 42.55400 25.29900
C  -2.15800 42.67400 25.00400
C  -4.70800 41.81200 27.63900
C  -4.64400 42.47400 24.28100
O  -4.42500 42.56100 23.10100
C  -6.00200 42.52500 24.83100
N  0.88300 43.26700 24.18500
C  -0.20400 42.97600 23.39200
C  0.18200 43.19700 21.95300
C  1.59800 43.83900 21.95500
C  1.90800 43.80500 23.45200
C  0.05400 41.81000 21.18500
C  1.65400 45.31300 21.35400
C  1.17900 46.53600 22.13100
N  2.55900 44.00400 26.28400
C  3.45600 44.26900 25.31500
C  4.75600 44.44200 25.84500
C  4.56800 44.26100 27.23800
C  3.17900 44.06800 27.45600
C  6.10600 44.67600 25.09100
C  5.19600 44.24000 28.58400
O  6.36500 44.33200 28.96100
C  4.02900 44.00800 29.65900
C  4.33800 42.71500 30.24300
O  4.15600 41.58700 29.81400
O  4.82000 43.00800 31.45100
C  4.98400 41.94800 32.41200
H  -2.65700 42.40500 29.28300
H  -2.20700 42.79600 22.87200
H  3.79800 44.64400 23.24500
H  1.69500 42.88500 31.43800
H  -1.24300 43.41200 31.10600
H  0.05000 41.38600 32.12700
H  -0.35400 40.61600 30.57400
H  -1.58200 41.31000 31.70300
H  0.49000 45.59200 30.88100
H  2.12500 45.19300 31.21500
H  0.30900 45.70600 33.11800
H  2.07300 45.16600 33.29100
H  -5.41500 41.23200 27.04500
H  -5.30500 42.65200 27.99400
H  -4.33100 41.39700 28.57300
H  -6.04000 42.90200 25.85300
H  -6.35800 41.49400 24.82500
H  -6.60100 43.16400 24.18200
H  -0.50100 43.98000 21.62500
H  2.27800 43.21300 21.37900
H  0.99700 41.56900 20.69400
H  -0.71800 41.95700 20.43100
H  -0.16100 40.94400 21.81200
H  1.32200 45.23800 20.31800
H  2.70900 45.46000 21.12500
H  0.46900 47.02600 21.46500
H  1.98500 47.17700 22.48900
H  0.73400 46.16400 23.05400
H  5.91400 45.03500 24.08000
H  6.89700 43.92700 25.09300
H  6.54400 45.51600 25.62900
H  4.04000 44.72500 30.48000
H  4.01700 41.85600 32.90600
H  5.77300 42.26900 33.09200
H  5.07000 40.97400 31.93100

