158

Mg 53.24300 24.37200 45.41800
C  50.50300 26.19600 44.37100
C  51.61800 21.50300 44.28600
C  56.15700 22.84400 45.72200
C  54.82600 27.46500 46.34000
N  51.40700 23.98500 44.10000
C  50.41600 24.87800 43.96200
C  49.19700 24.17500 43.37800
C  49.37300 22.70600 43.82200
C  50.90700 22.66600 44.12200
C  48.59000 22.09600 45.06600
C  48.74600 24.45300 41.84100
C  47.19600 24.48700 41.43600
H  46.80500 23.36200 40.52200
N  53.79700 22.46900 45.05500
C  52.97400 21.46500 44.60600
C  53.79000 20.24800 44.47600
C  54.99200 20.52800 45.13100
C  55.05900 21.96600 45.33800
C  53.26600 18.89500 43.90000
C  56.05200 19.48800 45.61800
O  55.84800 18.28100 45.62400
C  57.45100 19.95800 45.91900
N  55.32600 25.15200 45.65500
C  56.28500 24.26400 45.78900
C  57.58300 24.89300 46.42900
C  57.17500 26.38200 46.60200
C  55.68500 26.33100 46.17500
C  58.10300 24.28400 47.78800
C  58.04600 27.37700 45.79800
C  58.16000 28.86600 46.28200
N  52.84400 26.47800 45.28900
C  53.48600 27.56800 45.89900
C  52.52900 28.70800 45.92100
C  51.33700 28.18700 45.32300
C  51.58400 26.84200 44.99400
C  52.81900 30.11200 46.33400
C  49.97600 28.53100 44.94900
O  49.26200 29.57400 45.07800
C  49.36800 27.18400 44.39600
C  48.80900 27.64500 43.09400
O  49.45100 28.13100 42.20200
O  47.44500 27.66500 43.04800
C  46.78500 28.33800 41.92500
H  51.15300 20.52500 44.14500
H  57.19800 22.55400 45.88000
H  55.19800 28.32900 46.89400
H  48.40000 24.70600 43.89900
H  49.20700 22.11700 42.92000
H  48.23700 21.08600 44.85700
H  47.68900 22.70900 45.05900
H  49.13900 22.23200 45.99800
H  49.25800 23.65500 41.30400
H  49.25700 25.39800 41.65900
H  46.88300 25.45000 41.03100
H  46.57600 24.25000 42.30100
H  52.77200 19.03800 42.93900
H  52.53600 18.47900 44.59300
H  54.05600 18.16100 43.74000
H  57.92500 20.39600 45.04100
H  58.05300 19.11800 46.26700
H  57.22900 20.63700 46.74200
H  58.35300 24.76900 45.66800
H  57.27600 26.73400 47.62800
H  57.23600 23.78100 48.21700
H  58.35200 25.06500 48.50700
H  59.00700 23.68900 47.66200
H  57.66400 27.47200 44.78100
H  59.06500 27.06200 45.57500
H  59.03300 29.28300 45.78000
H  58.38900 28.84200 47.34800
H  57.32600 29.52800 46.04900
H  53.07300 30.82500 45.55000
H  53.66400 29.94100 47.00000
H  51.98800 30.55400 46.88300
H  48.45300 26.94000 44.93600
H  46.90900 27.71600 41.03800
H  47.17100 29.34700 41.78300
H  45.71800 28.39000 42.14300
Mg 9.51100 47.16400 27.49300
C  7.28400 47.24000 30.24400
C  12.13200 47.95000 29.45300
C  11.39900 47.74700 24.66700
C  6.55700 47.16000 25.36800
N  9.72600 47.38900 29.57700
C  8.70100 47.46000 30.52200
C  9.30500 47.60900 31.89800
C  10.87600 47.87900 31.58900
C  10.93200 47.74400 30.08100
C  11.40100 49.20700 31.98300
C  8.90000 46.50300 32.90700
C  9.90400 46.20900 34.01200
H  9.38700 45.89700 35.46000
N  11.48400 47.61900 27.15900
C  12.38200 47.94300 28.10300
C  13.71100 48.14800 27.45400
C  13.54800 47.98000 26.06600
C  12.12800 47.79200 25.93100
C  14.97300 48.37800 28.22100
C  14.60900 47.96100 24.97100
O  14.35500 47.77300 23.81500
C  16.05100 48.10100 25.30300
N  9.02400 47.59600 25.35000
C  10.00400 47.72100 24.43100
C  9.47500 47.70700 23.01700
C  7.91300 47.32200 23.18100
C  7.80700 47.33900 24.73100
C  9.79900 49.09500 22.39500
C  7.35900 46.10200 22.51800
C  7.09200 46.20900 21.02300
N  7.36500 47.09100 27.67800
C  6.29700 47.05900 26.78000
C  4.98800 47.01100 27.43200
C  5.35300 47.00400 28.75900
C  6.78900 47.06900 28.88500
C  3.67700 47.03000 26.73600
C  4.82000 46.95100 30.15200
O  3.67900 46.84100 30.53300
C  6.02800 47.02800 31.09700
C  5.95800 45.68800 31.79900
O  6.41600 44.65100 31.34000
O  5.43900 45.83500 33.04700
C  5.60400 44.73300 33.98500
H  12.95100 48.09900 30.15900
H  12.04600 47.80100 23.78800
H  5.65300 47.02500 24.77000
H  8.94800 48.57200 32.26500
H  11.51100 47.18100 32.13400
H  10.74000 49.53300 32.78700
H  11.47000 49.89900 31.14400
H  12.34100 49.10700 32.52500
H  8.67100 45.63200 32.29300
H  7.94300 46.81000 33.32800
H  10.58600 47.05900 34.04800
H  10.57000 45.39400 33.73100
H  15.52700 47.47100 27.97900
H  14.82200 48.44200 29.29900
H  15.52800 49.23800 27.84800
H  16.43000 47.27200 25.90100
H  16.16000 49.08600 25.75700
H  16.50200 47.97300 24.31800
H  9.96300 46.89600 22.47700
H  7.26400 48.11400 22.80800
H  10.38400 49.71600 23.07400
H  8.82600 49.52500 22.15900
H  10.45900 49.00700 21.53200
H  6.35200 45.95200 22.90900
H  8.01100 45.29400 22.85000
H  7.67100 45.55800 20.36900
H  7.25000 47.19700 20.59000
H  6.04900 46.06000 20.74300
H  3.48600 46.03100 26.34300
H  3.63300 47.66900 25.85400
H  2.84400 47.25800 27.40100
H  5.83100 47.95000 31.64400
H  6.61300 44.33000 33.90600
H  4.90600 43.91400 33.81000
H  5.54700 45.10200 35.00900

