158

Mg -2.21800 34.90000 26.64100
C  -3.96500 33.13600 29.31700
C  -0.97800 37.02400 29.03600
C  -0.70200 36.43500 24.26700
C  -3.84200 32.74800 24.54300
N  -2.55100 35.08600 28.93700
C  -3.24200 34.33900 29.81900
C  -3.05400 34.79800 31.24300
C  -2.14500 36.06800 31.06600
C  -1.97500 36.18600 29.52900
C  -2.58500 37.38400 31.83600
C  -2.47800 33.71000 32.27800
C  -1.99900 34.22600 33.68500
H  -3.07700 34.25300 34.72200
N  -0.91100 36.51600 26.64400
C  -0.52600 37.34500 27.71000
C  0.36600 38.39300 27.27200
C  0.54700 38.19300 25.84700
C  -0.33400 37.00500 25.51100
C  1.02000 39.39500 28.18000
C  1.30000 38.95600 24.86400
O  1.31900 38.70500 23.64500
C  2.03100 40.11200 25.43600
N  -2.29000 34.69300 24.63600
C  -1.52700 35.39700 23.82400
C  -1.64800 34.98400 22.33100
C  -2.75000 33.85400 22.50100
C  -3.05100 33.77500 23.99700
C  -1.78700 36.10700 21.24300
C  -2.32900 32.49700 21.87700
C  -1.37600 31.64300 22.74600
N  -3.85600 33.33700 26.77000
C  -4.23500 32.50400 25.79900
C  -5.07100 31.46400 26.35100
C  -5.00500 31.65900 27.77400
C  -4.19600 32.76800 27.98500
C  -5.94200 30.52600 25.60400
C  -5.43800 31.17200 29.04100
O  -6.12100 30.22400 29.29400
C  -4.69100 32.09000 30.13500
C  -5.72100 32.57800 31.10900
O  -6.47700 33.51300 30.94000
O  -5.76900 31.78600 32.19600
C  -6.82700 31.95700 33.19100
H  -0.47500 37.52500 29.86500
H  -0.04000 36.86500 23.51300
H  -4.34600 32.08600 23.83600
H  -4.04500 35.13700 31.54400
H  -1.14500 35.87200 31.45300
H  -1.96900 37.58900 32.71300
H  -3.63700 37.28400 32.10000
H  -2.61300 38.18500 31.09700
H  -1.66800 33.13500 31.82800
H  -3.27600 32.99500 32.47900
H  -1.74400 35.28400 33.61600
H  -1.13500 33.68600 34.07100
H  2.08600 39.48400 27.97100
H  0.94100 38.93200 29.16400
H  0.54900 40.37500 28.10600
H  1.39500 40.77900 26.01700
H  2.39900 40.72200 24.61100
H  2.93800 39.83600 25.97500
H  -0.72700 34.45400 22.08700
H  -3.65700 34.29400 22.08500
H  -2.58400 35.86600 20.53900
H  -0.84200 36.16400 20.70300
H  -1.93300 37.05900 21.75300
H  -1.80300 32.73300 20.95200
H  -3.20200 31.93000 21.55300
H  -0.90700 32.23600 23.53200
H  -0.57400 31.34900 22.06800
H  -1.75600 30.70000 23.14000
H  -6.85000 30.41000 26.19600
H  -5.37300 29.62300 25.38200
H  -6.21000 31.01700 24.66900
H  -3.97400 31.40700 30.59100
H  -7.70100 32.58800 33.02300
H  -6.30800 32.40000 34.04100
H  -7.20900 30.97700 33.47800
Mg -11.12000 17.14700 41.04600
C  -7.65800 16.69000 40.71800
C  -10.57300 20.46800 39.94900
C  -14.37600 17.63200 40.49700
C  -11.46800 13.68500 41.09400
N  -9.26800 18.38500 40.40000
C  -7.99900 17.99200 40.45800
C  -6.97400 19.14600 40.28700
C  -7.99700 20.40000 40.45500
C  -9.35900 19.76500 40.20100
C  -7.89800 21.23800 41.73200
C  -6.37000 19.22400 38.90400
C  -4.88600 18.89000 38.83200
H  -4.37300 18.06800 37.71300
N  -12.32200 18.86900 40.53600
C  -11.90200 20.03800 39.95200
C  -13.00800 20.84700 39.56400
C  -14.16700 20.14200 40.03600
C  -13.66600 18.80300 40.42300
C  -13.00700 22.28600 39.05000
C  -15.63300 20.60700 39.81200
O  -15.93600 21.66900 39.23400
C  -16.77200 19.81200 40.26400
N  -12.64600 15.78500 40.77000
C  -13.93100 16.29700 40.73300
C  -14.97700 15.18400 40.65700
C  -14.01200 13.85600 40.82600
C  -12.64200 14.43300 40.93400
C  -16.05400 15.31400 41.73800
C  -14.05500 12.74300 39.64200
C  -14.72200 11.41700 39.98800
N  -9.89500 15.39800 41.03200
C  -10.17800 14.08300 41.24300
C  -8.90200 13.38900 41.39800
C  -7.83900 14.31200 41.19500
C  -8.54800 15.60200 40.94300
C  -8.67400 11.97700 41.72100
C  -6.41500 14.54600 41.15400
O  -5.50300 13.74300 41.29100
C  -6.26900 16.09000 40.94800
C  -5.52600 16.54400 42.03500
O  -4.42900 17.13600 41.91000
O  -6.14000 16.39900 43.21000
C  -5.46200 16.88600 44.40900
H  -10.40900 21.52900 39.75200
H  -15.41400 17.67500 40.16000
H  -11.56400 12.60100 41.18500
H  -6.32200 19.09800 41.15800
H  -7.75800 21.08600 39.64300
H  -7.08700 20.87200 42.36200
H  -8.83800 21.11500 42.27100
H  -7.82000 22.29200 41.46800
H  -6.51500 20.17200 38.38700
H  -6.89800 18.48600 38.30000
H  -4.63200 18.49700 39.81600
H  -4.31700 19.81400 38.72800
H  -13.83800 22.26800 38.34600
H  -12.03700 22.37300 38.56000
H  -13.23100 22.97600 39.86300
H  -17.09500 19.11900 39.48700
H  -17.57500 20.52400 40.45300
H  -16.65000 19.29600 41.21600
H  -15.44700 15.12700 39.67500
H  -14.34400 13.28200 41.69100
H  -16.91000 15.31100 41.06200
H  -16.12100 16.23500 42.31700
H  -16.29100 14.55100 42.48000
H  -13.09300 12.47600 39.20500
H  -14.66600 13.19500 38.86000
H  -15.56600 11.37500 39.29900
H  -15.10400 11.34100 41.00600
H  -14.13400 10.54900 39.69300
H  -8.62000 11.79100 42.79400
H  -7.80600 11.53800 41.22900
H  -9.59400 11.46100 41.44500
H  -5.61500 16.34300 40.11300
H  -5.90600 17.84400 44.68000
H  -4.38200 17.03200 44.38300
H  -5.68300 16.16000 45.19100

