158

Mg 35.61200 48.57300 26.15400
C  36.02700 46.54500 28.95200
C  34.89500 51.19600 28.17400
C  34.77200 50.24400 23.36500
C  36.60200 45.84100 24.16400
N  35.55300 48.82600 28.37200
C  35.70500 47.88200 29.32500
C  35.46500 48.41300 30.69700
C  34.94400 49.82300 30.42000
C  35.12400 49.99700 28.90500
C  33.42800 50.12600 30.77200
C  36.86100 48.41300 31.43700
C  36.83200 47.82400 32.80400
H  36.80600 48.84300 33.88100
N  35.01500 50.41700 25.81800
C  34.89900 51.40300 26.77000
C  34.66900 52.67400 26.11300
C  34.57100 52.40100 24.66000
C  34.70500 50.97500 24.60700
C  34.41700 53.90200 26.92200
C  34.33900 53.44400 23.48400
O  34.27200 53.17300 22.32500
C  34.12500 54.87200 23.92000
N  35.37400 48.02600 24.02300
C  35.21600 49.00600 23.08400
C  35.24500 48.37400 21.67500
C  35.99000 47.05900 21.96700
C  35.99900 46.95300 23.47000
C  33.92700 48.20800 20.99400
C  37.46200 46.97100 21.47700
C  38.66000 47.60500 22.31200
N  36.02200 46.62200 26.45500
C  36.53100 45.65800 25.57600
C  36.92300 44.46900 26.35400
C  36.62000 44.75500 27.65900
C  36.22300 46.13600 27.62500
C  37.49400 43.14400 25.96100
C  36.66300 44.22100 28.94800
O  36.91000 43.12000 29.35200
C  36.22500 45.41200 29.86700
C  34.99400 44.93600 30.51800
O  33.93000 44.85800 29.93800
O  35.36700 44.46500 31.74300
C  34.27000 43.91100 32.57100
H  34.66000 52.01200 28.86000
H  34.55000 50.79900 22.45000
H  37.06500 45.08100 23.53100
H  34.68200 47.75600 31.07400
H  35.58400 50.58500 30.86500
H  32.98700 49.34300 31.38900
H  32.77600 50.17100 29.89900
H  33.26600 50.95500 31.46100
H  37.36700 49.37800 31.45800
H  37.47500 47.77300 30.80400
H  37.65300 47.11600 32.91200
H  35.94000 47.21900 32.96800
H  34.94300 53.86100 27.87700
H  33.34400 54.06100 27.02800
H  34.87000 54.77500 26.45200
H  33.46100 55.14000 23.09900
H  35.01200 55.50500 23.93200
H  33.63000 54.92300 24.89000
H  35.94800 48.96600 21.09000
H  35.54300 46.14700 21.57100
H  33.72800 49.03600 20.31400
H  33.10500 48.20000 21.71000
H  33.81700 47.39800 20.27400
H  37.47100 47.62700 20.60600
H  37.81600 45.98500 21.18000
H  39.01700 48.41700 21.68000
H  39.39800 46.80500 22.35800
H  38.51500 47.96300 23.33200
H  38.30600 42.89300 26.64300
H  37.79200 43.10300 24.91300
H  36.77200 42.34300 26.11600
H  37.07700 45.52700 30.53700
H  34.07800 42.87800 32.27900
H  33.37700 44.53600 32.58900
H  34.70800 43.88800 33.56800
Mg 7.20600 53.99700 40.81800
C  6.32800 50.59000 40.71700
C  10.19600 53.18400 39.33800
C  7.79800 57.31700 40.46600
C  3.88600 54.59500 41.61300
N  8.10700 52.10300 40.04000
C  7.63700 50.89400 40.15300
C  8.63100 49.84100 39.52400
C  9.95100 50.68000 39.49900
C  9.38600 52.06000 39.55600
C  11.09900 50.26100 40.56300
C  8.19700 49.21600 38.15500
C  8.42000 50.08700 36.83800
H  7.14000 50.45500 36.09800
N  8.81900 55.09100 40.08200
C  9.97500 54.53400 39.54200
C  11.02800 55.54900 39.36800
C  10.34000 56.78300 39.75200
C  8.95300 56.45700 40.13700
C  12.43800 55.32100 39.09300
C  10.97000 58.19800 39.83800
O  12.11000 58.35200 39.40100
C  10.32500 59.39300 40.46300
N  5.97600 55.76300 40.72100
C  6.44200 56.99000 40.74100
C  5.34400 58.06000 40.94000
C  4.07100 57.14400 41.14600
C  4.65400 55.73700 41.16800
C  5.75700 59.21000 42.04000
C  2.77000 57.27400 40.25200
C  1.40700 57.25500 40.93600
N  5.49300 52.87600 41.26400
C  4.23200 53.27300 41.55500
C  3.41400 52.07800 42.00300
C  4.23200 50.99700 41.70000
C  5.44200 51.56200 41.14100
C  2.07700 52.09500 42.67100
C  4.33200 49.54800 41.75900
O  3.50900 48.77800 42.13200
C  5.64500 49.24500 41.09200
C  5.36600 48.39100 39.88000
O  4.66000 48.74500 38.94000
O  5.90900 47.09400 39.92800
C  5.79200 46.23900 38.80400
H  11.20600 52.85200 39.08700
H  8.05700 58.37600 40.51300
H  2.85100 54.80600 41.89300
H  8.64500 48.89800 40.07000
H  10.41300 50.52200 38.52400
H  10.72600 49.53000 41.28000
H  11.22600 51.10300 41.24300
H  11.98800 49.92200 40.03100
H  7.12500 49.01700 38.16500
H  8.80000 48.31000 38.09200
H  9.00800 49.48900 36.14300
H  9.11700 50.91500 36.96000
H  13.04300 56.13000 39.50300
H  12.79000 55.11200 38.08300
H  12.64200 54.41400 39.66200
H  11.07800 60.14200 40.71200
H  9.93300 59.11500 41.44100
H  9.57100 59.80300 39.79100
H  5.24900 58.64700 40.02600
H  3.66600 57.27900 42.14900
H  6.73500 59.04000 42.49100
H  5.03600 59.30900 42.85200
H  5.77500 60.19100 41.56700
H  2.75200 56.44400 39.54700
H  2.88200 58.23600 39.75200
H  0.71600 57.96000 40.47400
H  1.59300 57.24000 42.01000
H  0.96700 56.30400 40.63600
H  1.53800 51.22600 42.29400
H  1.46500 52.99200 42.57700
H  2.23300 51.98200 43.74400
H  6.18400 48.59300 41.78000
H  6.52500 45.43800 38.90500
H  5.82300 46.90300 37.94000
H  4.79900 45.82200 38.96700

