158

Mg 43.98100 3.46100 47.84900
C  41.38300 5.92400 46.85400
C  41.61200 1.14300 47.24100
C  46.34300 1.36100 47.83800
C  46.19000 6.25800 47.54700
N  41.79700 3.60000 47.01700
C  40.96500 4.64100 46.90100
C  39.52900 4.21700 46.62900
C  39.53700 2.70900 47.16300
C  41.04300 2.44000 47.13700
C  38.88500 2.50700 48.55400
C  39.13000 4.32400 45.15500
C  37.64900 4.42300 44.87900
H  37.20800 5.39700 43.80100
N  43.95300 1.52900 47.74000
C  42.90600 0.70500 47.48500
C  43.31500 -0.68800 47.58500
C  44.71600 -0.68400 47.84800
C  45.11300 0.78500 47.83500
C  42.39200 -1.84400 47.30400
C  45.65100 -1.90300 48.03900
O  45.16000 -3.03600 47.84400
C  47.04900 -1.85700 48.52500
N  45.97100 3.80100 47.60500
C  46.74900 2.67400 47.66300
C  48.22200 3.02600 47.90900
C  48.19500 4.59800 47.87900
C  46.76900 4.97200 47.61000
C  48.84900 2.36600 49.14300
C  49.27800 5.26900 46.93100
C  50.06800 6.56000 47.42600
N  43.86700 5.69700 47.44000
C  44.84600 6.64700 47.34500
C  44.28800 8.02100 47.11200
C  42.94500 7.77900 47.03800
C  42.72400 6.34100 47.06500
C  44.87500 9.29700 47.00800
C  41.63000 8.38200 46.82200
O  41.24900 9.57000 46.75500
C  40.58600 7.20200 46.68300
C  39.47600 7.39700 47.62000
O  39.52700 7.36600 48.81700
O  38.31100 7.61900 46.97900
C  37.07100 7.66000 47.79200
H  40.85600 0.39200 47.00000
H  47.13800 0.61400 47.88400
H  46.92600 7.06400 47.58900
H  38.82600 4.83400 47.18900
H  39.16900 1.98200 46.43900
H  38.12200 1.73200 48.49100
H  38.20400 3.26300 48.94500
H  39.69600 2.30700 49.25500
H  39.51100 3.41000 44.70200
H  39.61400 5.16500 44.65900
H  36.98900 4.61800 45.72400
H  37.43200 3.40600 44.55300
H  42.18200 -2.03400 46.25100
H  41.42100 -1.65600 47.76300
H  42.71800 -2.75900 47.79900
H  47.64600 -1.92800 47.61600
H  47.16700 -2.73500 49.15900
H  47.17600 -0.94500 49.10900
H  48.63600 2.71000 46.95100
H  48.45700 4.90500 48.89100
H  49.34800 3.09000 49.78700
H  49.45200 1.52700 48.79700
H  48.06000 1.88800 49.72300
H  48.73100 5.66800 46.07600
H  50.02900 4.52700 46.66200
H  51.12200 6.32100 47.56700
H  49.65200 7.02300 48.32000
H  50.06500 7.35200 46.67700
H  45.83900 9.40700 46.51200
H  45.14000 9.76900 47.95400
H  44.20700 9.98500 46.49100
H  40.24600 7.20000 45.64800
H  37.01100 6.84300 48.51100
H  36.26700 7.38200 47.11100
H  36.92400 8.59300 48.33700
Mg 16.12500 50.95100 25.34900
C  17.81000 50.03400 28.23700
C  13.44400 51.79600 27.32600
C  14.23900 51.37100 22.54400
C  18.77200 49.74300 23.44700
N  15.75700 51.13600 27.53900
C  16.66500 50.75700 28.53200
C  16.19400 51.15100 29.96700
C  14.68600 51.54000 29.70400
C  14.57900 51.56200 28.12200
C  13.68400 50.63800 30.41700
C  17.04900 52.16300 30.61600
C  17.27000 51.87900 32.14800
H  16.29100 51.16400 33.09300
N  14.06000 51.54600 25.02200
C  13.13000 51.74400 25.96400
C  11.87700 52.06400 25.37700
C  12.03700 51.94800 23.95700
C  13.45700 51.55800 23.82100
C  10.76700 52.62600 26.25400
C  11.01800 52.16200 22.84600
O  11.39800 52.13900 21.67900
C  9.52100 52.31800 23.15600
N  16.44000 50.72400 23.33000
C  15.55000 51.00900 22.37200
C  16.09600 50.80700 21.00900
C  17.61200 50.33100 21.26400
C  17.66600 50.29800 22.79600
C  15.34500 49.71300 20.18300
C  18.63900 51.35600 20.71500
C  18.84600 51.38900 19.15600
N  17.88900 49.91500 25.72300
C  18.85000 49.49700 24.83900
C  19.92500 48.88500 25.60400
C  19.55200 49.02500 26.94100
C  18.31000 49.68300 26.94700
C  21.12000 48.17900 25.07700
C  19.95500 48.72200 28.32000
O  20.94600 48.15000 28.75800
C  18.85500 49.44700 29.18200
C  18.34800 48.47300 30.18100
O  17.25000 47.93000 30.19200
O  19.23100 48.49500 31.23100
C  18.72700 47.82900 32.44200
H  12.63400 51.92800 28.04700
H  13.69900 51.43500 21.59700
H  19.64000 49.51200 22.82500
H  16.24500 50.26200 30.59500
H  14.52600 52.56800 30.02800
H  13.07300 51.37800 30.93300
H  14.21300 49.95500 31.08100
H  13.02000 50.12800 29.71800
H  16.71600 53.19300 30.48500
H  18.04800 52.18600 30.17900
H  17.42400 52.88600 32.53400
H  18.16800 51.26100 32.18400
H  10.10500 53.27400 25.67900
H  11.10500 53.21400 27.10700
H  10.15400 51.88300 26.76400
H  9.16700 51.53800 23.83000
H  8.95400 52.43600 22.23300
H  9.43300 53.27100 23.67900
H  16.01000 51.79000 20.54500
H  17.84600 49.34800 20.85400
H  14.60100 49.21100 20.80100
H  16.04700 49.01200 19.73100
H  14.84100 50.12700 19.31000
H  19.62000 51.05900 21.08600
H  18.38700 52.36500 21.03800
H  18.46300 52.37700 18.90200
H  18.30400 50.53500 18.74900
H  19.91500 51.29700 18.96400
H  21.22200 48.59700 24.07600
H  21.00700 47.09600 25.13400
H  22.00800 48.46100 25.64200
H  19.24300 50.23100 29.83300
H  18.79300 46.74200 32.39500
H  17.67800 48.09800 32.56600
H  19.27100 48.17600 33.32000

