158

Mg 54.88000 23.09100 44.62000
C  52.73300 25.66900 43.75700
C  52.70800 20.86900 43.55000
C  57.19700 20.65400 45.23200
C  57.24200 25.49300 45.57000
N  53.03400 23.33300 43.52100
C  52.30100 24.47200 43.32900
C  51.03900 24.12100 42.52400
C  50.89800 22.60700 42.94700
C  52.30800 22.21400 43.33700
C  49.88300 22.15700 44.01200
C  51.32000 24.31400 41.04300
C  50.38400 25.32400 40.23000
H  50.97300 26.02500 38.94900
N  54.95100 21.11100 44.25000
C  53.88300 20.31800 43.96700
C  54.24500 18.90200 43.96100
C  55.58100 18.84900 44.52000
C  55.96800 20.26300 44.69900
C  53.37600 17.80300 43.41700
C  56.33700 17.59500 44.77500
O  55.73100 16.54200 44.55100
C  57.71100 17.50100 45.18000
N  57.04900 23.09700 44.98400
C  57.75100 21.96200 45.36400
C  59.20900 22.30300 45.86100
C  59.20400 23.87700 45.82700
C  57.78600 24.20800 45.44100
C  59.66800 21.63600 47.25900
C  60.25200 24.47000 44.88200
C  61.24400 25.48900 45.53100
N  55.07100 25.12600 44.64500
C  55.99800 25.95200 45.21300
C  55.44100 27.26700 45.52800
C  54.14000 27.20400 44.96500
C  53.96500 25.87400 44.45000
C  56.18500 28.50300 46.11000
C  52.94800 27.94700 44.69200
O  52.64700 29.09700 44.89100
C  51.99800 27.01300 43.83200
C  51.63700 27.69300 42.57000
O  52.27200 27.51000 41.52600
O  50.54800 28.43100 42.79600
C  50.09200 29.26800 41.73100
H  51.87900 20.16800 43.42700
H  57.98200 20.05100 45.69400
H  57.96500 26.20300 45.97700
H  50.26800 24.78100 42.92200
H  50.66900 22.01100 42.06300
H  49.27400 21.33200 43.64200
H  49.30400 23.01100 44.36400
H  50.43000 22.03000 44.94600
H  51.22700 23.34900 40.54500
H  52.38100 24.50900 40.89100
H  50.01400 26.10000 40.90000
H  49.50000 24.76700 39.91800
H  53.87900 17.17200 42.68400
H  52.50500 18.24700 42.93500
H  52.95200 17.28500 44.27700
H  57.73800 17.91100 46.18900
H  58.23200 18.12200 44.45100
H  57.99300 16.45700 45.04100
H  59.92600 21.96800 45.11100
H  59.50400 24.07200 46.85600
H  60.30900 20.75400 47.26800
H  58.71900 21.30600 47.68400
H  60.11900 22.45000 47.82600
H  59.78200 24.94800 44.02300
H  60.86400 23.68200 44.44300
H  60.79300 26.38300 45.96100
H  62.01200 25.73100 44.79600
H  61.79200 24.95900 46.31000
H  55.44200 29.23500 46.42600
H  56.92500 28.78700 45.36100
H  56.78400 28.32100 47.00200
H  51.06600 26.83500 44.36800
H  50.12200 28.70600 40.79800
H  50.67300 30.18700 41.80400
H  49.04800 29.55500 41.86000
Mg 41.90000 41.33000 26.56200
C  41.24400 43.63600 28.93000
C  43.25500 39.20400 29.17500
C  43.04800 39.02400 24.28600
C  41.27400 43.56700 24.09800
N  42.27700 41.45500 28.81200
C  41.64000 42.43100 29.54600
C  41.71800 42.09300 31.06000
C  42.54100 40.75200 31.04200
C  42.66500 40.41800 29.56500
C  43.95900 40.80400 31.68300
C  40.40300 42.12100 31.88600
C  40.23100 43.23900 32.91000
H  39.33000 42.97900 34.10200
N  42.94600 39.30800 26.67200
C  43.37700 38.65900 27.85500
C  43.91700 37.35200 27.42800
C  43.72800 37.18800 26.00300
C  43.13700 38.51600 25.58700
C  44.39800 36.32100 28.42400
C  44.11200 35.99400 25.04300
O  43.98000 35.97600 23.83600
C  44.71500 34.82100 25.60800
N  42.01200 41.30000 24.58900
C  42.59100 40.23600 23.82500
C  42.70700 40.69500 22.39300
C  41.76200 41.88700 22.25200
C  41.70800 42.32200 23.70800
C  44.17300 41.11200 22.02300
C  40.37500 41.72500 21.60000
C  39.42300 40.80600 22.41900
N  41.31400 43.32500 26.40700
C  41.14200 44.11600 25.35200
C  40.83200 45.42200 25.80500
C  40.85200 45.32200 27.25600
C  41.16000 44.00400 27.54300
C  40.63900 46.60900 24.95000
C  40.70200 46.04000 28.53600
O  40.43100 47.20600 28.76300
C  40.87200 44.91400 29.70400
C  41.92900 45.40300 30.65700
O  43.14100 45.35500 30.52300
O  41.28600 45.90500 31.75500
C  42.23500 46.32000 32.85400
H  43.44200 38.50500 29.99300
H  43.38800 38.27300 23.57000
H  41.26400 44.31800 23.30500
H  42.50500 42.78400 31.36200
H  42.00000 39.94900 31.54300
H  43.83700 40.08400 32.49300
H  44.24900 41.77100 32.09400
H  44.76600 40.50500 31.01400
H  40.23900 41.23300 32.49600
H  39.55500 42.23500 31.21100
H  39.70800 44.06900 32.43400
H  41.18800 43.67000 33.20500
H  45.36400 35.96100 28.06900
H  43.77400 35.42700 28.39400
H  44.43000 36.79500 29.40500
H  45.65900 35.18700 26.01100
H  44.95200 34.13100 24.79800
H  44.05900 34.28900 26.29700
H  42.31900 39.98100 21.66700
H  42.22400 42.77700 21.82500
H  44.54900 42.00200 22.52700
H  44.03300 41.32600 20.96300
H  44.90900 40.32000 22.15800
H  40.51400 41.33300 20.59200
H  39.97100 42.72400 21.43700
H  38.40700 41.19900 22.38300
H  39.59800 40.79700 23.49500
H  39.32500 39.81200 21.98200
H  39.61000 46.87000 25.19700
H  40.84300 46.52100 23.88200
H  41.21200 47.43600 25.36900
H  39.94100 44.84800 30.26700
H  43.09500 46.90000 32.52000
H  42.48900 45.48200 33.50300
H  41.55800 46.97500 33.40200

