158

Mg 40.60600 8.66900 29.68900
C  42.31000 10.03600 32.53300
C  38.35900 7.25100 31.85500
C  39.10400 7.33600 27.01200
C  42.96400 10.19500 27.69100
N  40.49500 8.53500 31.98200
C  41.22200 9.21700 32.88700
C  40.61600 9.07200 34.30200
C  39.55300 7.97800 34.05300
C  39.46900 7.85100 32.50800
C  39.80300 6.65100 34.74500
C  40.11300 10.55800 34.70700
C  40.77700 11.19500 35.94000
H  39.93000 11.87800 36.97000
N  38.97900 7.50600 29.48300
C  38.18500 7.03200 30.43400
C  37.11400 6.28700 29.89000
C  37.22000 6.40100 28.48200
C  38.46800 7.06700 28.26200
C  36.04500 5.61800 30.74500
C  36.16600 5.98400 27.38700
O  36.32400 6.11800 26.15200
C  34.86100 5.22800 27.84500
N  40.89700 8.87800 27.66900
C  40.19600 8.17200 26.72600
C  40.75600 8.34600 25.24100
C  41.93900 9.28200 25.47900
C  41.92200 9.45600 27.06100
C  41.15500 7.03400 24.48600
C  41.83800 10.71900 24.79100
C  42.95700 11.08700 23.77200
N  42.37100 9.85800 29.98600
C  43.24000 10.33800 29.07100
C  44.30400 11.02500 29.72700
C  44.00100 10.96900 31.02800
C  42.79500 10.23300 31.14800
C  45.40700 11.70600 29.09100
C  44.36100 11.41800 32.34700
O  45.27000 12.14100 32.73600
C  43.26800 10.91400 33.26200
C  43.93600 10.17900 34.42800
O  44.40700 9.11000 34.34900
O  44.03300 11.02100 35.54300
C  44.72700 10.34400 36.66400
H  37.49300 7.03700 32.48600
H  38.66200 6.81900 26.15800
H  43.65900 10.63000 26.97000
H  41.43000 8.65800 34.89800
H  38.57700 8.42100 34.25000
H  39.88700 5.77700 34.10000
H  38.97800 6.38300 35.40500
H  40.71000 6.74700 35.34300
H  39.08400 10.31700 34.97100
H  40.10900 11.34900 33.95700
H  41.53700 11.91200 35.62900
H  41.40900 10.43300 36.39600
H  36.59900 5.13500 31.55000
H  35.52900 4.78400 30.26800
H  35.27500 6.29800 31.11000
H  34.31100 5.81200 28.58300
H  35.36900 4.30300 28.11800
H  34.23300 5.23300 26.95400
H  39.86100 8.75200 24.77000
H  42.88900 8.87500 25.13200
H  40.47100 6.95000 23.64200
H  41.02600 6.25000 25.23300
H  42.20800 7.10900 24.21800
H  41.77200 11.55300 25.49000
H  40.86500 10.81000 24.30800
H  43.76900 10.36100 23.80200
H  43.32400 11.97300 24.29000
H  42.46600 11.08000 22.79900
H  45.13600 12.67500 28.67300
H  45.72200 11.04800 28.28100
H  46.28200 11.68100 29.74100
H  42.93600 11.87500 33.65600
H  45.79300 10.14100 36.55900
H  44.15000 9.51100 37.06600
H  44.67500 10.96700 37.55700
Mg 5.58900 55.32300 40.50000
C  5.04100 51.79400 40.47100
C  8.92100 54.62000 39.52100
C  6.03900 58.57600 39.93300
C  2.20800 55.80100 41.15900
N  6.72700 53.38500 39.96700
C  6.33300 52.11500 39.90700
C  7.36200 51.20200 39.42500
C  8.66900 52.05200 39.52000
C  8.09800 53.49800 39.64900
C  9.63400 51.69800 40.70000
C  7.09500 50.61300 37.96300
C  5.98000 51.15500 37.05400
H  6.39700 52.04400 35.84700
N  7.33000 56.48800 39.89000
C  8.55900 56.02000 39.65100
C  9.45400 57.19900 39.36500
C  8.68300 58.36500 39.54800
C  7.27700 57.86800 39.79100
C  10.90200 56.97400 38.96300
C  9.14500 59.81700 39.48000
O  10.35100 60.06300 39.41400
C  8.18400 61.01200 39.54800
N  4.23200 56.85200 40.31100
C  4.75100 58.14800 40.24500
C  3.62700 59.22300 40.41800
C  2.36000 58.30200 40.70800
C  2.94200 56.89300 40.77900
C  3.87100 60.21900 41.51600
C  1.22200 58.30200 39.55200
C  -0.25800 58.44200 39.99600
N  3.93400 54.06000 40.83100
C  2.64300 54.38000 41.19900
C  1.92300 53.23100 41.67600
C  2.84900 52.18500 41.33900
C  4.01600 52.67900 40.75700
C  0.52500 53.14600 42.11000
C  2.95700 50.81100 41.38200
O  2.13300 49.98000 41.68100
C  4.41500 50.45800 40.75600
C  4.28000 49.52900 39.65600
O  3.91500 49.86100 38.56500
O  4.67100 48.26000 39.98200
C  4.65400 47.31900 38.86000
H  9.97300 54.40000 39.32600
H  5.97800 59.66400 39.85700
H  1.26400 56.21100 41.52300
H  7.35000 50.32800 40.07700
H  9.28200 52.11900 38.62100
H  9.74000 50.61300 40.67600
H  9.27300 52.19600 41.59900
H  10.61500 52.15800 40.58100
H  6.90000 49.54900 38.10200
H  8.08800 50.45800 37.54100
H  5.23900 51.63300 37.69500
H  5.39900 50.31900 36.66500
H  11.52300 57.86900 38.91800
H  10.87400 56.46500 38.00000
H  11.43500 56.22600 39.55000
H  8.70900 61.96500 39.60600
H  7.62300 61.03500 40.48300
H  7.44900 60.94200 38.74600
H  3.61100 59.72500 39.45100
H  1.92300 58.61800 41.65600
H  2.90000 60.52200 41.90800
H  4.41900 61.04500 41.06500
H  4.43200 59.64000 42.25000
H  1.21000 57.44000 38.88500
H  1.53000 59.11200 38.89100
H  -0.36000 59.03800 40.90300
H  -0.69200 57.45400 40.15100
H  -0.83600 58.86400 39.17400
H  0.52900 52.94700 43.18100
H  0.06400 52.34100 41.53800
H  0.06500 54.12800 41.99500
H  5.01700 49.94300 41.50400
H  4.06600 46.46100 39.18500
H  5.60300 46.79500 38.74500
H  4.15900 47.55300 37.91700

