158

Mg 36.06600 48.27400 25.52300
C  36.46700 46.39100 28.47500
C  35.14700 51.02000 27.43300
C  35.04600 49.72700 22.72900
C  37.04900 45.46500 23.77400
N  35.63900 48.62800 27.71700
C  35.94700 47.67900 28.72500
C  35.75300 48.33000 30.07800
C  35.06600 49.70900 29.70300
C  35.32600 49.82500 28.22400
C  33.52300 49.76500 30.05300
C  36.98500 48.53100 30.87500
C  37.01600 48.35300 32.40900
H  35.70200 48.48400 33.24700
N  35.16900 50.16100 25.09900
C  34.97300 51.20500 25.99000
C  34.48900 52.37300 25.29400
C  34.21700 51.98300 23.92700
C  34.84100 50.60600 23.84900
C  34.25100 53.69000 25.98600
C  33.49500 52.75800 22.82600
O  33.48100 52.29100 21.69600
C  32.89600 54.13000 23.10100
N  36.05300 47.70400 23.57300
C  35.57900 48.45300 22.54400
C  35.78200 47.82200 21.13800
C  36.69200 46.57100 21.57300
C  36.56100 46.52000 23.09000
C  34.55000 47.40900 20.47700
C  38.13400 46.55700 21.04000
C  39.30300 47.10200 21.84100
N  36.67500 46.35400 25.95500
C  37.09300 45.32700 25.16000
C  37.62200 44.26200 25.91700
C  37.28400 44.59300 27.22700
C  36.77100 45.87800 27.23900
C  38.22500 42.93600 25.35800
C  37.36800 44.11200 28.63100
O  37.81300 43.08700 29.11000
C  36.83200 45.33300 29.49200
C  35.74100 44.94100 30.35100
O  34.60800 44.97500 30.02500
O  36.16900 44.71600 31.61900
C  35.09100 44.49600 32.64200
H  35.02100 51.83800 28.14600
H  34.68000 50.26900 21.85500
H  37.39300 44.65700 23.12500
H  35.00000 47.70900 30.56400
H  35.59200 50.49500 30.24500
H  33.29100 50.66300 30.62400
H  33.21200 49.01500 30.78100
H  32.82300 49.69500 29.22000
H  37.35400 49.52100 30.60500
H  37.69500 47.86500 30.38400
H  37.71100 49.17600 32.57900
H  37.46300 47.37400 32.57900
H  34.72200 54.51200 25.44700
H  34.75300 53.72000 26.95300
H  33.18600 53.80400 26.18300
H  32.24800 53.90000 23.94700
H  32.24200 54.45300 22.29200
H  33.71300 54.82500 23.29400
H  36.36300 48.51700 20.53100
H  36.19100 45.65100 21.27400
H  33.72100 47.60100 21.15800
H  34.52700 46.38600 20.10100
H  34.43600 48.12300 19.66200
H  38.08600 47.05900 20.07400
H  38.31100 45.52400 20.74200
H  39.72400 48.02300 21.43800
H  40.06400 46.32100 21.83500
H  39.03700 47.27200 22.88400
H  38.43600 43.00700 24.29100
H  37.62100 42.05000 25.55100
H  39.13600 42.67300 25.89500
H  37.69800 45.45400 30.14200
H  35.47100 44.61700 33.65600
H  34.78400 43.46800 32.45100
H  34.27900 45.21300 32.52800
Mg -10.40400 39.57500 39.70800
C  -9.82500 36.20000 39.05500
C  -6.99900 40.21000 38.82100
C  -11.15900 42.70500 39.12700
C  -13.76600 38.75200 40.36100
N  -8.69700 38.34600 38.72600
C  -8.71900 36.94400 38.66300
C  -7.33100 36.45700 38.24700
C  -6.45600 37.70600 38.59600
C  -7.41700 38.84300 38.67400
C  -5.76300 37.56600 39.95900
C  -7.29300 35.99300 36.76500
C  -7.70100 36.97300 35.59800
H  -8.91000 36.69400 34.83300
N  -9.30800 41.24800 39.17000
C  -7.91800 41.32900 38.87800
C  -7.54000 42.68600 38.65700
C  -8.68300 43.44100 38.78000
C  -9.78300 42.45900 39.04100
C  -6.22900 43.13100 38.28700
C  -8.67400 44.94900 38.60900
O  -7.71800 45.60200 38.14400
C  -9.76300 45.70800 39.07200
N  -12.22700 40.59700 39.72000
C  -12.26300 41.91700 39.50300
C  -13.71200 42.34800 39.50300
C  -14.47300 41.10700 40.01300
C  -13.45700 40.05500 40.07000
C  -14.05500 43.65400 40.26700
C  -15.69500 40.77800 39.08200
C  -16.98700 41.47200 39.47500
N  -11.59400 37.83800 39.76800
C  -12.94500 37.64600 40.08600
C  -13.19900 36.22300 40.09000
C  -11.97400 35.61200 39.72300
C  -11.07500 36.66700 39.58000
C  -14.57800 35.54500 40.40900
C  -11.38800 34.36400 39.44300
O  -11.87100 33.24600 39.35500
C  -9.97400 34.71800 38.94000
C  -8.97900 33.94200 39.78800
O  -8.95600 33.93900 40.99800
O  -8.12500 33.27500 38.97700
C  -7.21000 32.32000 39.73200
H  -5.93800 40.43000 38.68400
H  -11.54600 43.70100 38.90000
H  -14.79900 38.48900 40.59900
H  -7.01700 35.62700 38.88000
H  -5.70800 38.03400 37.87500
H  -6.06400 36.66000 40.48500
H  -5.96900 38.45000 40.56200
H  -4.70100 37.52300 39.71700
H  -7.95300 35.12600 36.73800
H  -6.23300 35.77300 36.63600
H  -6.85200 37.15800 34.94000
H  -7.88200 37.95100 36.04400
H  -6.01100 44.09800 38.74100
H  -6.12200 43.17700 37.20300
H  -5.44700 42.44200 38.60500
H  -10.21000 45.18500 39.91800
H  -10.51800 45.86800 38.30200
H  -9.40200 46.65100 39.48100
H  -14.01600 42.57200 38.48100
H  -14.85200 41.34200 41.00700
H  -13.10100 44.10400 40.54000
H  -14.63900 43.39800 41.15200
H  -14.62900 44.24900 39.55600
H  -15.88800 39.71400 38.94100
H  -15.37600 41.08700 38.08700
H  -17.54500 40.72200 40.03500
H  -17.62000 41.77700 38.64100
H  -16.85700 42.40400 40.02600
H  -15.10200 36.19900 41.10500
H  -14.49700 34.58500 40.92000
H  -15.16400 35.41900 39.49800
H  -9.92400 34.40200 37.89900
H  -7.48500 31.31100 39.42500
H  -7.18100 32.40500 40.81800
H  -6.15000 32.45300 39.51600

