158

Mg 1.73900 -1.58300 42.81100
C  5.30700 -0.92200 42.53100
C  1.25100 1.10100 40.85600
C  -1.38100 -2.65500 42.40700
C  2.62000 -4.77100 43.89700
N  3.12600 -0.04600 41.79500
C  4.56400 0.06600 41.85900
C  4.99400 1.36300 41.20200
C  3.66900 2.06500 40.67700
C  2.62300 1.00100 41.14000
C  3.43500 3.48900 41.15600
C  6.11800 1.15900 40.14800
C  6.18500 -0.06800 39.20400
H  5.54500 -0.00700 37.80500
N  0.12400 -0.79800 41.98200
C  0.12000 0.35400 41.22200
C  -1.22900 0.62700 40.74200
C  -2.05200 -0.37300 41.40700
C  -1.11800 -1.32300 41.95600
C  -1.57100 1.84200 39.93700
C  -3.56400 -0.37300 41.39000
O  -4.16000 0.58400 40.93800
C  -4.43600 -1.37900 41.91900
N  0.73200 -3.47600 43.14400
C  -0.56700 -3.63300 42.96300
C  -1.07600 -4.93400 43.43400
C  0.16100 -5.60300 43.99200
C  1.29000 -4.55300 43.66000
C  -2.40800 -4.89000 44.31000
C  0.45000 -6.96700 43.40900
C  0.46600 -8.11100 44.47100
N  3.53800 -2.62000 43.28400
C  3.69400 -3.91500 43.68700
C  5.09300 -4.23200 43.97300
C  5.78700 -3.01500 43.53000
C  4.74400 -2.14500 43.03100
C  5.76100 -5.58600 44.35000
C  7.12100 -2.45100 43.26900
O  8.20500 -2.90900 43.32000
C  6.82900 -1.04900 42.61500
C  7.49900 0.01600 43.36500
O  8.23600 0.88000 42.84500
O  7.13100 -0.04000 44.66700
C  7.84200 0.95000 45.53300
H  1.09100 1.96400 40.20700
H  -2.43900 -2.91900 42.35100
H  2.83400 -5.76400 44.29700
H  5.49800 1.96600 41.95700
H  3.63100 2.02100 39.58900
H  3.46300 4.07400 40.23600
H  4.23300 3.80700 41.82700
H  2.47300 3.43300 41.66400
H  7.10100 1.33800 40.58300
H  5.93900 1.90500 39.37400
H  5.82800 -0.97900 39.68500
H  7.23300 -0.22500 38.94600
H  -2.44800 1.55300 39.35700
H  -0.85700 2.10400 39.15500
H  -1.72500 2.69400 40.59900
H  -5.44600 -1.02300 42.12200
H  -3.99300 -1.35400 42.91500
H  -4.51900 -2.28600 41.32100
H  -1.21300 -5.43600 42.47700
H  0.06100 -5.83100 45.05300
H  -3.21300 -5.53100 43.95100
H  -2.73700 -3.85100 44.31500
H  -2.17600 -5.13200 45.34700
H  1.44900 -6.94700 42.97400
H  -0.23300 -7.27500 42.61600
H  -0.12400 -8.95000 44.10200
H  0.17400 -7.85100 45.48900
H  1.52000 -8.38700 44.51000
H  6.33100 -5.38700 45.25800
H  6.33200 -5.85400 43.46100
H  4.98100 -6.25300 44.71700
H  7.31800 -1.03500 41.64100
H  7.79100 0.56700 46.55200
H  7.36500 1.92000 45.39300
H  8.91900 0.86000 45.39200
Mg 7.73000 2.70800 28.76600
C  9.23400 1.33000 31.77100
C  5.63900 4.42900 30.89000
C  6.01900 3.61700 26.08300
C  9.36100 0.09800 26.97200
N  7.62700 2.95400 31.13300
C  8.27700 2.29900 32.11200
C  7.85400 2.82000 33.56100
C  6.70300 3.80000 33.22500
C  6.57400 3.69900 31.67700
C  5.35800 3.42600 33.94800
C  8.98800 3.56100 34.37200
C  8.63000 4.08600 35.77200
H  8.88800 3.27100 37.07700
N  6.17900 3.87400 28.48900
C  5.43300 4.47400 29.49000
C  4.40700 5.34800 28.87900
C  4.52900 5.17900 27.44700
C  5.57200 4.19200 27.32000
C  3.49900 6.21500 29.65600
C  3.87100 5.86800 26.29300
O  4.12100 5.65700 25.10000
C  2.65600 6.71400 26.51700
N  7.71400 1.97200 26.78700
C  7.07800 2.67800 25.82300
C  7.43100 2.13700 24.44000
C  8.63100 1.08100 24.70500
C  8.59000 1.04400 26.27200
C  6.16800 1.61700 23.80500
C  10.02500 1.50000 24.12600
C  11.10800 2.16600 25.03900
N  9.14300 1.08700 29.15400
C  9.64100 0.09600 28.36100
C  10.58900 -0.64300 29.14800
C  10.46500 -0.26200 30.44800
C  9.56000 0.84900 30.47500
C  11.37800 -1.85300 28.60900
C  10.91500 -0.51900 31.80700
O  11.67400 -1.35700 32.25700
C  10.15100 0.50100 32.69500
C  9.38000 -0.28800 33.64400
O  8.47900 -1.02400 33.39200
O  9.86000 -0.16600 34.97100
C  9.27200 -0.98400 36.02100
H  5.02400 5.12000 31.47100
H  5.52200 3.86000 25.14200
H  9.81800 -0.71700 26.40800
H  7.42600 2.03600 34.18600
H  6.93200 4.84000 33.46000
H  4.59000 2.94600 33.34100
H  4.89200 4.32400 34.35300
H  5.43400 2.60700 34.66300
H  9.46900 4.36800 33.81900
H  9.84000 2.90700 34.55400
H  7.54700 3.99300 35.85300
H  8.91400 5.12500 35.93900
H  3.74200 6.37300 30.70700
H  2.58800 5.65500 29.86400
H  3.42200 7.17600 29.14600
H  2.22600 6.93100 25.53900
H  2.95000 7.69600 26.89000
H  1.99200 6.21200 27.22100
H  7.87700 2.95700 23.87700
H  8.34700 0.08400 24.36700
H  5.34100 1.54800 24.51200
H  6.30600 0.63400 23.35600
H  5.88400 2.34800 23.04800
H  9.91300 2.30500 23.39900
H  10.58600 0.67400 23.68900
H  10.72600 2.29300 26.05200
H  11.30900 3.19200 24.73100
H  11.98500 1.51900 25.01800
H  12.18000 -1.97400 29.33600
H  11.73100 -1.76200 27.58200
H  10.71300 -2.70700 28.74400
H  10.88300 1.15400 33.17100
H  9.33700 -0.41900 36.95100
H  9.59600 -2.02200 36.09700
H  8.18800 -0.99700 35.90900

