158

Mg 23.86300 -5.04100 45.18300
C  25.78300 -2.53200 43.71500
C  21.29500 -4.15900 43.11600
C  22.31100 -7.96700 45.90100
C  26.90500 -6.32800 46.66400
N  23.63000 -3.58200 43.52300
C  24.49200 -2.62200 43.14200
C  23.87700 -1.59400 42.15000
C  22.38700 -2.02700 42.15500
C  22.42500 -3.36900 43.01100
C  21.43100 -0.99700 42.76800
C  24.55600 -1.69000 40.79100
C  24.14800 -0.66400 39.72300
H  24.52600 -0.97700 38.18900
N  22.01300 -5.92100 44.69100
C  21.12800 -5.35900 43.81200
C  19.97700 -6.32700 43.61600
C  20.25300 -7.46100 44.47400
C  21.55300 -7.14600 45.08200
C  18.82300 -5.97800 42.71600
C  19.32500 -8.60400 44.68100
O  18.32800 -8.68100 44.00600
C  19.53200 -9.70500 45.70800
N  24.50500 -6.80400 46.25700
C  23.63600 -7.84800 46.38000
C  24.28200 -8.98700 47.21900
C  25.69400 -8.44400 47.50100
C  25.77800 -7.21200 46.66700
C  23.35500 -9.26400 48.47200
C  26.91800 -9.41000 47.05400
C  28.09100 -9.55900 47.98500
N  25.89200 -4.49100 45.31900
C  26.94200 -5.07300 46.05200
C  28.07600 -4.13200 46.01400
C  27.73900 -3.13700 45.07100
C  26.33300 -3.43600 44.67600
C  29.50400 -4.28300 46.75700
C  28.18700 -1.93400 44.37400
O  29.22900 -1.34200 44.45000
C  26.95000 -1.51000 43.47100
C  26.61500 -0.16200 43.86600
O  25.79500 0.14200 44.71000
O  27.45200 0.74100 43.24300
C  27.19900 2.12400 43.58300
H  20.44400 -3.92500 42.47400
H  21.81500 -8.88000 46.23600
H  27.75900 -6.76800 47.18500
H  23.98500 -0.55800 42.47200
H  22.12700 -2.29900 41.13200
H  21.43300 0.03500 42.41600
H  21.46600 -0.90100 43.85400
H  20.43600 -1.40900 42.60200
H  24.34900 -2.71900 40.49500
H  25.55500 -1.33500 41.03900
H  24.87700 0.13000 39.88500
H  23.18500 -0.16900 39.84300
H  18.99300 -6.39600 41.72400
H  18.69100 -4.89800 42.64900
H  17.90600 -6.36500 43.16100
H  18.77500 -10.46500 45.89800
H  19.61800 -9.21600 46.67900
H  20.41100 -10.30600 45.47500
H  24.21900 -9.94700 46.70600
H  25.70000 -8.26900 48.57600
H  22.47100 -8.62600 48.50700
H  23.89200 -9.06600 49.40000
H  23.08800 -10.30800 48.63900
H  27.29600 -9.04800 46.09800
H  26.50000 -10.39000 46.82200
H  28.25100 -10.62200 48.16300
H  27.90400 -9.14500 48.97600
H  28.99100 -9.13500 47.54000
H  30.32100 -4.43200 46.05200
H  29.38000 -5.07000 47.50000
H  29.75500 -3.37200 47.30100
H  27.36100 -1.64100 42.47000
H  26.27500 2.36600 43.05700
H  28.05300 2.68000 43.19800
H  27.27300 2.30200 44.65600
Mg 2.40300 42.16800 24.82000
C  3.35400 42.16600 28.21700
C  -0.67400 41.00100 25.80000
C  1.72200 41.51800 21.63200
C  5.64000 43.18500 23.94300
N  1.36200 41.78300 26.85100
C  1.97400 41.78000 28.11300
C  0.98600 41.59400 29.19900
C  -0.23500 41.03000 28.34200
C  0.14300 41.25800 26.90700
C  -0.85700 39.68400 28.74500
C  0.71500 42.91500 30.08100
C  0.64700 42.80300 31.63700
H  -0.40300 41.86400 32.30400
N  0.75300 41.48100 23.89100
C  -0.41100 40.97900 24.43400
C  -1.28900 40.46500 23.34400
C  -0.62800 40.62100 22.12100
C  0.64300 41.25200 22.49800
C  -2.71500 39.99600 23.62900
C  -1.03900 40.37300 20.74900
O  -0.34100 40.62500 19.76700
C  -2.47900 39.91200 20.49400
N  3.47300 42.37200 23.07500
C  3.02700 42.01600 21.88700
C  3.98900 42.28400 20.72700
C  5.01600 43.15400 21.53200
C  4.69400 42.91900 22.91000
C  4.67200 40.96100 20.28100
C  5.10700 44.64900 21.20200
C  3.83700 45.46700 20.97000
N  4.15600 42.54400 25.75700
C  5.39800 42.99600 25.29600
C  6.22100 43.31800 26.40900
C  5.52000 42.88700 27.61700
C  4.26600 42.43700 27.14300
C  7.60500 43.76500 26.39600
C  5.56300 42.68400 29.10100
O  6.44100 42.80900 29.89300
C  4.19900 42.20300 29.55400
C  4.29900 40.98400 30.27800
O  4.80000 40.01400 29.75400
O  3.66100 41.02400 31.45400
C  3.50300 39.74000 32.12000
H  -1.68700 40.78800 26.14600
H  1.74300 41.19700 20.58900
H  6.55000 43.72200 23.67100
H  1.26100 40.75200 29.83300
H  -0.98100 41.82500 28.37200
H  -1.86200 39.81300 29.14600
H  -0.16500 39.18400 29.42300
H  -0.99500 39.02500 27.88700
H  -0.20600 43.40000 29.76100
H  1.44800 43.70000 29.89300
H  0.76300 43.78700 32.09300
H  1.64000 42.47500 31.94300
H  -3.02300 39.03000 23.22800
H  -3.36300 40.79800 23.27700
H  -2.88300 39.97600 24.70600
H  -2.51500 38.84200 20.69700
H  -2.65900 39.91000 19.41900
H  -3.26100 40.56800 20.87700
H  3.39700 42.77800 19.95700
H  6.04700 42.80300 21.48600
H  5.30700 40.54000 21.06100
H  5.23900 41.28200 19.40700
H  3.98100 40.17300 19.98200
H  5.66200 44.67000 20.26400
H  5.77500 45.14600 21.90600
H  3.01500 44.78000 21.17200
H  3.86800 46.01300 20.02700
H  3.84100 46.14900 21.82000
H  7.91500 44.23900 27.32700
H  7.76800 44.40600 25.53000
H  8.18900 42.84700 26.32900
H  3.84700 42.99700 30.21300
H  4.41200 39.39400 32.61400
H  3.10100 38.94900 31.48700
H  2.75300 39.91100 32.89200

