158

Mg 35.48000 0.79500 29.29200
C  33.38500 1.95000 31.88300
C  37.96800 0.77800 31.51300
C  37.45000 0.06100 26.79900
C  32.73000 1.19400 26.98600
N  35.65900 1.42800 31.48300
C  34.59800 1.66600 32.37000
C  35.05100 1.75600 33.83400
C  36.55900 1.24900 33.69400
C  36.77500 1.16800 32.11300
C  37.66700 2.08000 34.41700
C  34.25800 0.82600 34.74800
C  33.67200 1.46800 36.00000
H  34.70300 2.30500 36.84100
N  37.45200 0.42300 29.16900
C  38.37000 0.46700 30.18700
C  39.63500 -0.10000 29.70600
C  39.54100 -0.16300 28.31800
C  38.13200 0.11100 28.05300
C  40.73400 -0.43000 30.65800
C  40.54100 -0.48700 27.25600
O  40.27200 -0.60400 26.06700
C  41.85100 -0.81200 27.82100
N  35.14700 0.70400 27.18600
C  36.19800 0.43800 26.34900
C  35.67500 0.48500 24.82900
C  34.09500 0.51900 24.97400
C  33.94800 0.79200 26.46300
C  36.35500 1.60700 24.00800
C  33.46700 -0.81000 24.50100
C  32.83000 -0.71800 23.12100
N  33.50100 1.37500 29.41500
C  32.52500 1.50400 28.41100
C  31.31500 2.03500 28.96700
C  31.59300 2.23700 30.39100
C  32.90900 1.84500 30.54300
C  30.04500 2.24500 28.22700
C  31.08800 2.67200 31.67600
O  29.99100 3.12100 31.98100
C  32.27400 2.60700 32.69000
C  32.53100 3.91900 33.08700
O  32.97400 4.85800 32.43400
O  32.18900 3.99200 34.42600
C  32.31500 5.28800 35.09700
H  38.79800 0.44100 32.13800
H  37.86000 -0.34000 25.87000
H  31.90000 1.05500 26.28900
H  35.13400 2.77900 34.20000
H  36.69200 0.22300 34.03700
H  38.29400 2.60000 33.69300
H  38.19500 1.61700 35.25100
H  37.20200 2.91200 34.94700
H  34.89400 0.02000 35.11200
H  33.46600 0.29300 34.22200
H  33.14200 0.71700 36.58600
H  32.80500 2.08000 35.75300
H  41.53500 0.29500 30.80200
H  41.04900 -1.40700 30.29200
H  40.28300 -0.72900 31.60400
H  42.11800 0.08800 28.37400
H  42.57500 -1.03900 27.03900
H  41.79400 -1.71600 28.42800
H  36.03000 -0.43000 24.35300
H  33.82900 1.39300 24.38000
H  36.96900 1.25200 23.18100
H  37.02300 2.09100 24.72100
H  35.62600 2.39000 23.79700
H  32.68800 -1.00600 25.23800
H  34.06200 -1.70600 24.67700
H  33.46900 -0.06100 22.53100
H  31.76200 -0.50200 23.08400
H  32.90400 -1.70900 22.67200
H  29.25300 2.58600 28.89300
H  29.84600 1.31400 27.69700
H  30.14100 2.99900 27.44500
H  31.94000 1.93400 33.48000
H  32.90000 6.05300 34.58700
H  32.64600 5.04100 36.10600
H  31.37100 5.78600 35.31600
Mg 40.46700 8.31600 29.03800
C  42.15900 10.17700 31.53100
C  38.48800 6.94800 31.37000
C  39.04200 6.52400 26.54300
C  43.06200 9.18700 26.68100
N  40.32000 8.54900 31.12200
C  41.07600 9.35400 31.92000
C  40.45900 9.43600 33.33500
C  39.53300 8.18800 33.33700
C  39.47200 7.86500 31.86400
C  39.98100 6.93100 34.19000
C  39.99400 10.80400 33.87300
C  39.39700 10.66900 35.27100
H  39.92000 11.69400 36.27000
N  38.91100 6.94200 28.98000
C  38.25000 6.49500 30.05700
C  37.16100 5.67300 29.64700
C  37.20000 5.62100 28.22100
C  38.41800 6.39900 27.82200
C  36.18600 5.05600 30.66100
C  36.31600 5.04300 27.19700
O  36.49700 5.29500 26.01400
C  35.09100 4.17700 27.65300
N  40.98500 7.99300 26.82300
C  40.23000 7.15900 26.06700
C  40.78800 7.04100 24.63200
C  41.90400 8.10000 24.73400
C  42.06700 8.43600 26.18500
C  41.32800 5.66100 24.21600
C  41.61700 9.25400 23.71200
C  40.90300 10.53100 24.22200
N  42.19000 9.38400 29.05100
C  43.19700 9.63200 28.03600
C  44.18700 10.59900 28.64800
C  43.80100 10.77000 30.01000
C  42.65400 10.06300 30.20400
C  45.28600 11.20500 27.88300
C  44.22900 11.39200 31.28200
O  45.08800 12.21400 31.52200
C  43.12800 11.08000 32.27700
C  43.81900 10.29600 33.43500
O  44.43400 9.21500 33.36300
O  43.35200 10.79200 34.58100
C  43.49400 9.99500 35.75800
H  37.87000 6.46200 32.12800
H  38.80600 5.80400 25.75700
H  43.82400 9.49700 25.96300
H  41.27800 8.96500 33.87800
H  38.49000 8.46700 33.48700
H  40.48000 6.32200 33.43600
H  39.14600 6.43800 34.68800
H  40.69800 7.08700 34.99700
H  39.20000 11.16200 33.21700
H  40.78500 11.55300 33.90200
H  39.40300 9.63000 35.60000
H  38.34100 10.88900 35.11600
H  36.01100 5.81400 31.42400
H  36.60300 4.15800 31.11900
H  35.24600 4.72300 30.22300
H  35.52000 3.24000 28.00800
H  34.55700 3.90100 26.74300
H  34.39300 4.69600 28.30900
H  39.93900 7.27200 23.98800
H  42.85500 7.65500 24.44400
H  41.03500 5.64300 23.16600
H  40.70000 4.88900 24.66200
H  42.39000 5.43300 24.12600
H  40.97700 8.90300 22.90200
H  42.57200 9.38800 23.20500
H  40.71200 10.54700 25.29500
H  39.90200 10.66400 23.81200
H  41.53900 11.40400 24.07300
H  45.24200 10.93700 26.82700
H  46.16200 10.66800 28.24700
H  45.21800 12.28700 27.99900
H  42.70100 12.02900 32.60000
H  43.43700 10.75600 36.53700
H  44.45000 9.47400 35.80500
H  42.69300 9.30400 36.02000

