158

Mg 34.68700 3.05700 29.53700
C  32.71400 4.03200 32.27100
C  37.49600 2.77500 31.52900
C  36.41800 2.15400 26.84600
C  31.82900 3.37100 27.60000
N  35.11300 3.51000 31.66900
C  34.07200 3.57200 32.59400
C  34.70500 3.53200 34.02400
C  36.20700 3.03500 33.78900
C  36.29900 3.09300 32.25800
C  37.38400 3.81000 34.41700
C  33.89400 2.59700 34.96000
C  33.86600 2.95100 36.44800
H  34.80400 3.99600 37.11900
N  36.72200 2.70100 29.21000
C  37.66800 2.66000 30.12200
C  38.93900 2.22300 29.50500
C  38.73700 1.98900 28.12500
C  37.24100 2.25300 27.98600
C  40.24300 2.19800 30.27100
C  39.66500 1.58300 26.90900
O  39.29800 1.57800 25.74700
C  41.14800 1.12900 27.09700
N  34.18600 2.63500 27.61700
C  35.09400 2.37900 26.62200
C  34.48600 1.99000 25.30200
C  32.96000 2.22700 25.60600
C  32.95800 2.74600 27.02800
C  34.94800 2.97200 24.21400
C  32.04900 1.03000 25.52600
C  32.41100 0.07500 24.43000
N  32.67500 3.82900 29.72200
C  31.63600 3.83800 28.89100
C  30.45800 4.34900 29.61000
C  30.79800 4.39100 30.95900
C  32.18500 4.03000 30.98000
C  29.15100 4.63300 28.96000
C  30.31300 4.65800 32.29700
O  29.17900 4.93600 32.66100
C  31.48400 4.38900 33.24600
C  31.81800 5.49700 34.07600
O  32.08900 6.62100 33.67000
O  31.61500 5.18100 35.41200
C  31.55800 6.32200 36.35700
H  38.28500 2.62500 32.26900
H  36.93900 1.73600 25.98200
H  30.91900 3.37100 26.99600
H  34.86100 4.53700 34.41700
H  36.34500 2.01700 34.15400
H  38.30900 3.23500 34.39700
H  37.12900 4.01100 35.45800
H  37.63000 4.74600 33.91700
H  34.18600 1.54700 34.95000
H  32.82400 2.65400 34.76000
H  34.15700 2.02900 36.95100
H  32.86600 3.06200 36.86600
H  40.79900 3.13400 30.22300
H  40.91300 1.41600 29.91300
H  40.16900 2.05000 31.34800
H  41.69000 0.98300 26.16300
H  41.22100 0.15900 27.59000
H  41.69000 1.87700 27.67400
H  34.73900 0.94000 25.15400
H  32.63800 3.06500 24.98700
H  35.90800 2.73700 23.75300
H  34.93800 3.95700 24.68100
H  34.09900 2.91100 23.53300
H  31.00200 1.32200 25.44200
H  32.01500 0.41000 26.42200
H  33.08700 -0.66600 24.85800
H  32.84600 0.60700 23.58400
H  31.47300 -0.42500 24.18800
H  29.27500 5.22200 28.05100
H  28.71400 5.31500 29.69000
H  28.49000 3.79900 28.72700
H  31.10500 3.50100 33.75300
H  30.50900 6.55500 36.54200
H  32.15500 7.15700 35.99200
H  31.91800 5.94300 37.31300
Mg 29.11500 57.21600 41.31400
C  26.33600 55.35400 40.24100
C  31.10500 55.10300 39.61200
C  31.47500 59.70100 41.29100
C  26.67800 59.77300 42.26800
N  28.80900 55.54600 40.03100
C  27.56900 54.94200 39.74500
C  27.75300 53.66200 38.88300
C  29.31200 53.40700 38.98400
C  29.77600 54.77700 39.45600
C  29.81900 52.19200 39.88300
C  27.18300 53.76800 37.49000
C  27.55300 55.13000 36.70900
H  27.62800 55.12000 35.25600
N  30.96400 57.33400 40.77800
C  31.69800 56.34000 40.15300
C  33.09800 56.63300 40.03700
C  33.23100 57.98400 40.54400
C  31.86200 58.36500 40.95100
C  34.18800 55.70600 39.45900
C  34.50800 58.65300 40.77400
O  35.55000 58.18900 40.34200
C  34.65200 59.97700 41.52900
N  29.03900 59.47600 41.64900
C  30.21300 60.24100 41.65100
C  29.93700 61.72100 41.97000
C  28.40200 61.68400 42.32500
C  28.01200 60.15200 42.13400
C  30.81800 62.28200 43.10400
C  27.53000 62.80900 41.68700
C  26.54800 63.55500 42.57200
N  26.93600 57.48300 41.50700
C  26.15200 58.55700 41.98900
C  24.77400 58.07000 41.95200
C  24.77500 56.84500 41.27400
C  26.11900 56.53600 41.01600
C  23.58700 58.67700 42.67700
C  23.87300 55.78600 40.80100
O  22.66400 55.59300 40.83800
C  24.81300 54.86100 40.03000
C  24.57200 53.39900 40.51000
O  24.54300 53.09700 41.68600
O  24.43700 52.63500 39.41700
C  24.31800 51.21700 39.76600
H  31.85800 54.44600 39.17100
H  32.27200 60.44700 41.26900
H  25.89700 60.44400 42.63100
H  27.44600 52.69900 39.29200
H  29.80900 53.34000 38.01600
H  29.63000 51.17900 39.52900
H  29.25700 52.43500 40.78500
H  30.86600 52.29800 40.16600
H  26.09600 53.69100 37.51000
H  27.53300 52.93100 36.88500
H  28.44400 55.64100 37.07400
H  26.70400 55.76600 36.95800
H  33.93700 55.39600 38.44500
H  34.33100 54.86800 40.14100
H  35.15500 56.14200 39.21000
H  34.27800 60.81700 40.94400
H  35.71900 60.13400 41.68800
H  34.05100 59.79500 42.42000
H  30.10700 62.30700 41.06700
H  28.42600 61.87400 43.39800
H  30.42700 62.47300 44.10400
H  31.43800 63.10900 42.75800
H  31.63500 61.56500 43.17500
H  26.95700 62.39200 40.85800
H  28.13800 63.61700 41.27900
H  26.62600 63.10100 43.56000
H  25.52900 63.28200 42.29600
H  26.77800 64.62000 42.56600
H  23.95600 59.17800 43.57200
H  22.92500 57.82800 42.84200
H  23.13400 59.44000 42.04300
H  24.52100 54.88000 38.98000
H  25.00300 50.91400 40.55800
H  24.45500 50.56500 38.90400
H  23.25000 51.10600 39.95700

