158

Mg 35.32200 2.46400 29.82700
C  33.09900 3.32400 32.46700
C  37.93700 2.29000 32.21400
C  37.47100 2.10900 27.28700
C  32.67400 3.09700 27.60000
N  35.53400 2.87700 32.12200
C  34.46300 3.02500 32.92300
C  34.90800 3.13300 34.41600
C  36.45300 3.03200 34.25900
C  36.69200 2.71000 32.79600
C  37.16700 4.26900 34.87600
C  34.30300 1.95000 35.31400
C  34.17400 2.13800 36.80700
H  34.86800 3.29500 37.53200
N  37.45200 2.20000 29.78700
C  38.29200 2.05900 30.85300
C  39.52900 1.73900 30.32600
C  39.49100 1.79200 28.86800
C  38.10300 2.14400 28.58800
C  40.60600 1.39700 31.23600
C  40.58800 1.71300 27.83700
O  40.41400 2.03200 26.65800
C  41.93100 1.27500 28.23600
N  35.10300 2.65400 27.75900
C  36.14700 2.37700 26.83300
C  35.68800 2.48100 25.37500
C  34.15500 2.50300 25.53500
C  33.92300 2.81300 27.01700
C  36.24600 3.70400 24.42100
C  33.30700 1.34000 24.88400
C  33.10100 0.07500 25.64400
N  33.27100 3.06700 29.96400
C  32.36200 3.28800 28.93400
C  31.15100 3.79300 29.49700
C  31.33700 3.74200 30.90700
C  32.69300 3.33400 31.12500
C  29.87200 4.21500 28.68700
C  30.79200 3.86800 32.21000
O  29.64600 4.20800 32.48700
C  31.88900 3.68300 33.28500
C  31.79400 4.93400 34.10000
O  32.23800 6.05900 33.80300
O  31.21500 4.67000 35.27800
C  30.94400 5.87000 36.10500
H  38.71300 2.18100 32.97500
H  38.17000 1.71900 26.54400
H  31.83700 3.35800 26.94900
H  34.59300 4.08800 34.83600
H  36.81700 2.15200 34.78900
H  38.07100 4.55300 34.33800
H  37.38300 4.05600 35.92300
H  36.60400 5.19900 34.80300
H  34.96200 1.11700 35.06900
H  33.30100 1.66800 34.99100
H  34.64600 1.27800 37.28300
H  33.14500 2.17000 37.16300
H  40.60900 2.14600 32.02800
H  41.61500 1.45000 30.82900
H  40.43800 0.43400 31.71900
H  41.87800 0.26200 28.63300
H  42.30200 2.04200 28.91600
H  42.45900 1.36400 27.28600
H  35.85300 1.52400 24.88100
H  33.88900 3.42700 25.02100
H  36.83000 3.18900 23.65800
H  37.03600 4.24900 24.93900
H  35.47900 4.36800 24.02300
H  33.95400 1.14900 24.02800
H  32.32200 1.70800 24.59600
H  33.37300 -0.85500 25.14600
H  32.09500 0.01700 26.06100
H  33.64300 0.07300 26.58900
H  30.18000 5.10300 28.13500
H  28.90500 4.39700 29.15800
H  29.91000 3.33300 28.04800
H  31.53200 2.84600 33.88600
H  30.39400 5.54500 36.98800
H  30.34000 6.66800 35.67300
H  31.83400 6.41600 36.41700
Mg 40.28500 9.77600 29.86500
C  42.21500 11.02100 32.35700
C  37.96200 8.50300 32.13200
C  38.69200 8.07300 27.48100
C  43.03100 10.33600 27.62500
N  40.05300 9.82200 31.96000
C  40.96100 10.50200 32.80900
C  40.37800 10.52400 34.20900
C  39.14300 9.54900 34.11400
C  38.98800 9.29100 32.63600
C  39.33400 8.23600 34.92100
C  40.02700 11.96400 34.80800
C  40.90900 12.37800 35.99100
H  40.29600 12.71100 37.33600
N  38.53900 8.56400 29.80200
C  37.74600 8.09700 30.80400
C  36.69800 7.26600 30.30800
C  36.85400 7.27200 28.87400
C  38.11400 7.88600 28.70600
C  35.82000 6.48700 31.20000
C  35.88100 6.67100 27.94600
O  36.12800 6.56700 26.78700
C  34.51800 6.39700 28.40000
N  40.70800 9.40300 27.82700
C  39.83400 8.71500 27.01600
C  40.33300 8.63000 25.50200
C  41.79100 9.30700 25.61400
C  41.86800 9.74200 27.12300
C  40.47700 7.15700 25.01200
C  41.93900 10.46400 24.57300
C  42.14700 11.86200 25.09100
N  42.18700 10.57000 29.90000
C  43.18700 10.71300 28.95600
C  44.33100 11.41000 29.60300
C  43.90600 11.57800 30.91000
C  42.70200 11.01000 31.05800
C  45.68500 11.68000 29.15000
C  44.36900 12.07500 32.16200
O  45.44700 12.55000 32.51500
C  43.20700 11.88300 33.07700
C  43.80100 11.25600 34.37500
O  44.19900 10.09000 34.44800
O  43.99700 12.11900 35.40300
C  44.41900 11.52100 36.69200
H  37.29200 8.22100 32.94700
H  38.26300 7.49900 26.65700
H  43.92700 10.46300 27.01300
H  41.18000 10.09400 34.80900
H  38.22300 10.01300 34.47000
H  40.19800 8.45100 35.54900
H  39.53900 7.46100 34.18200
H  38.49500 8.02000 35.58200
H  38.97100 12.05500 35.06200
H  40.17500 12.74000 34.05800
H  41.45800 13.25900 35.65900
H  41.74600 11.69700 36.14500
H  35.72200 5.43600 30.92800
H  34.81800 6.91300 31.15000
H  36.17800 6.47200 32.22900
H  33.95500 6.20200 27.48800
H  34.01200 7.21400 28.91400
H  34.54700 5.44500 28.92900
H  39.60300 9.15000 24.88100
H  42.59600 8.60200 25.40700
H  40.31700 6.46800 25.84200
H  41.28100 6.87000 24.33500
H  39.59300 7.08200 24.37800
H  41.08000 10.48200 23.90300
H  42.71800 10.14900 23.87900
H  41.89400 12.64900 24.38000
H  43.21400 12.05200 25.20900
H  41.48800 12.04500 25.94000
H  46.48300 11.63500 29.89100
H  45.66000 12.54700 28.48900
H  45.83900 10.84000 28.47300
H  42.87000 12.86600 33.40600
H  43.82700 10.62400 36.87100
H  44.20300 12.21800 37.50200
H  45.47600 11.30900 36.52600

