158

Mg 1.66700 -1.49500 43.80400
C  5.06200 -0.79100 43.17000
C  0.70400 1.04600 41.83600
C  -1.36200 -2.95500 43.63500
C  2.84500 -4.59800 45.48600
N  2.80200 -0.05500 42.69700
C  4.15600 0.06300 42.57200
C  4.49500 1.28400 41.73600
C  3.09100 1.94400 41.36900
C  2.11200 0.92800 41.98700
C  3.02700 3.33000 42.05400
C  5.36700 1.11500 40.46500
C  6.38100 2.25900 40.01400
H  6.09200 3.09800 38.68400
N  -0.11500 -0.91400 43.06200
C  -0.36700 0.21400 42.30700
C  -1.73000 0.41900 42.17400
C  -2.33300 -0.71500 42.75300
C  -1.25000 -1.62000 43.18100
C  -2.23100 1.79000 41.68500
C  -3.80900 -0.86600 42.83200
O  -4.64500 -0.08700 42.28700
C  -4.48900 -1.95800 43.61200
N  0.84500 -3.54000 44.52800
C  -0.42500 -3.80500 44.24000
C  -0.81100 -5.13600 44.84300
C  0.52700 -5.75000 45.52000
C  1.51900 -4.63900 45.08500
C  -2.05600 -5.15900 45.72700
C  1.05400 -7.17200 45.18400
C  1.26400 -8.03800 46.47400
N  3.49800 -2.51000 44.28400
C  3.72800 -3.66000 44.93900
C  5.20500 -3.77300 45.05700
C  5.77000 -2.69700 44.44100
C  4.64300 -1.98600 43.96100
C  5.92600 -4.88600 45.72900
C  6.97300 -1.89500 44.16700
O  8.13100 -2.09800 44.46500
C  6.60300 -0.70400 43.24400
C  6.92700 0.53400 43.99600
O  6.47700 0.91500 45.10200
O  7.75500 1.31900 43.12000
C  8.24600 2.63500 43.66300
H  0.31400 1.86600 41.23000
H  -2.38700 -3.33200 43.63400
H  3.16000 -5.50600 46.00600
H  5.17400 1.84400 42.37900
H  2.89000 2.09800 40.30900
H  3.99300 3.58700 42.49000
H  2.22100 3.39500 42.78500
H  2.71500 4.00000 41.25300
H  4.75100 0.90000 39.59200
H  5.93200 0.19100 40.58600
H  7.34700 1.78500 39.84100
H  6.35300 2.93100 40.87200
H  -3.24800 1.71200 41.30200
H  -1.64800 2.06700 40.80700
H  -2.15200 2.51700 42.49400
H  -3.88800 -2.17100 44.49600
H  -4.44200 -2.81500 42.94000
H  -5.50700 -1.77100 43.95300
H  -0.90200 -5.73300 43.93500
H  0.54100 -5.62400 46.60300
H  -2.63600 -4.23800 45.66800
H  -1.80700 -5.43500 46.75100
H  -2.74900 -5.83800 45.22900
H  1.91300 -7.28400 44.52200
H  0.25600 -7.56200 44.55300
H  2.18400 -8.59100 46.28300
H  0.38300 -8.67400 46.56800
H  1.42000 -7.46700 47.38900
H  5.55300 -5.03800 46.74200
H  7.00600 -4.73900 45.72100
H  5.71900 -5.82400 45.21500
H  7.11700 -0.64400 42.28500
H  9.33200 2.66400 43.75900
H  7.91800 2.89300 44.67000
H  7.91900 3.51800 43.11500
Mg -5.82200 26.03100 26.19100
C  -3.91900 27.44300 28.83700
C  -7.21000 23.94800 28.49600
C  -7.32000 24.55500 23.69500
C  -4.29100 28.30700 24.04500
N  -5.49100 25.69500 28.32400
C  -4.66400 26.40500 29.23300
C  -5.07700 26.04400 30.71400
C  -5.76900 24.69000 30.47800
C  -6.21800 24.78200 28.98400
C  -4.93300 23.38900 30.69300
C  -5.96300 27.10100 31.48200
C  -5.87300 27.13200 33.00900
H  -5.03500 26.13400 33.81200
N  -7.08700 24.41200 26.09800
C  -7.61100 23.72200 27.15900
C  -8.68600 22.87100 26.64600
C  -8.65800 22.87800 25.21300
C  -7.70000 23.95100 24.94200
C  -9.58900 22.04800 27.60100
C  -9.48400 22.15300 24.19200
O  -9.31700 22.27100 22.97700
C  -10.63700 21.37400 24.61600
N  -5.73600 26.35000 24.12400
C  -6.45000 25.60800 23.23600
C  -6.37800 26.15700 21.78400
C  -5.65700 27.54500 21.98600
C  -5.18300 27.36800 23.46400
C  -5.66400 25.15800 20.86600
C  -6.63200 28.80400 21.96400
C  -6.24900 29.83500 20.97700
N  -4.31400 27.58000 26.32800
C  -3.84200 28.39000 25.39000
C  -3.02700 29.39800 25.96600
C  -2.92500 29.03100 27.35500
C  -3.79000 27.89800 27.47500
C  -2.34700 30.53200 25.27200
C  -2.34100 29.41400 28.60600
O  -1.55200 30.33500 28.90600
C  -2.99200 28.38300 29.61700
C  -1.87400 27.74800 30.35900
O  -0.75200 27.56400 29.90600
O  -2.27000 27.64900 31.65200
C  -1.17800 27.32400 32.58200
H  -7.68700 23.19800 29.13100
H  -7.80200 24.08800 22.83300
H  -4.00800 29.15400 23.41600
H  -4.17200 25.91600 31.30800
H  -6.66500 24.65800 31.09700
H  -4.90500 22.87200 29.73400
H  -5.48000 22.89500 31.49500
H  -3.96100 23.62200 31.13000
H  -7.00200 26.98600 31.17400
H  -5.60400 28.10300 31.24600
H  -6.88700 27.00600 33.38800
H  -5.50000 28.11800 33.28600
H  -9.51600 20.97400 27.42800
H  -10.61700 22.26100 27.31000
H  -9.48000 22.30800 28.65400
H  -11.01600 20.66400 23.88100
H  -11.43200 22.02400 24.98300
H  -10.33600 20.89500 25.54700
H  -7.42700 26.22300 21.49300
H  -4.81700 27.70200 21.31000
H  -6.20000 24.23900 20.62800
H  -4.74600 24.76200 21.30100
H  -5.38300 25.72000 19.97600
H  -6.52900 29.32900 22.91300
H  -7.66400 28.47000 21.85300
H  -5.76100 29.42200 20.09400
H  -5.66600 30.59800 21.49300
H  -7.11100 30.36100 20.56800
H  -3.00900 31.27500 24.82800
H  -1.58100 30.22200 24.56200
H  -1.86200 31.04200 26.10600
H  -3.52800 29.07000 30.27200
H  -0.29400 27.90900 32.32700
H  -0.94300 26.26000 32.61700
H  -1.58900 27.47500 33.58000

