158

Mg 1.96500 42.03200 24.29900
C  3.52900 42.07000 27.68900
C  -0.89300 41.16200 25.81200
C  0.81400 41.83000 21.33700
C  5.19600 42.67900 23.04000
N  1.41100 41.51400 26.49500
C  2.16500 41.69600 27.69000
C  1.27600 41.45500 28.95200
C  -0.11100 41.18500 28.34100
C  0.11300 41.24200 26.78700
C  -0.75600 39.90300 28.77900
C  1.32400 42.69000 29.87800
C  1.24000 42.41600 31.43300
H  -0.16400 42.10000 31.96000
N  0.28100 41.36000 23.67400
C  -0.86200 41.16500 24.45800
C  -2.04400 41.14300 23.57700
C  -1.55500 41.21100 22.21200
C  -0.09300 41.50300 22.38400
C  -3.46700 41.06100 24.13200
C  -2.28900 41.12400 20.91100
O  -1.76600 41.13600 19.77700
C  -3.76300 40.86100 21.01600
N  2.86700 42.04200 22.50000
C  2.15600 42.07100 21.36700
C  2.99200 42.33900 20.13200
C  4.38400 42.66800 20.77000
C  4.12100 42.47100 22.23200
C  2.97500 41.11500 19.10700
C  4.98900 44.06300 20.45100
C  4.37200 45.21900 21.16600
N  3.92300 42.39800 25.16000
C  5.12200 42.63800 24.47400
C  6.23100 42.69300 25.42800
C  5.60300 42.55900 26.70600
C  4.20600 42.35000 26.51400
C  7.71000 42.72700 25.15100
C  5.86800 42.47500 28.12400
O  6.94100 42.50700 28.64100
C  4.52000 42.15700 28.86100
C  4.68300 40.89900 29.64400
O  4.44600 39.74300 29.24700
O  5.31400 41.18100 30.82800
C  5.80800 39.98400 31.61300
H  -1.86300 41.04700 26.30000
H  0.37900 41.79600 20.33600
H  6.20600 42.97200 22.74600
H  1.61400 40.60700 29.54800
H  -0.81800 41.99000 28.54500
H  -0.18600 39.38200 29.54800
H  -0.80700 39.28300 27.88400
H  -1.73700 40.22400 29.12800
H  0.40500 43.25400 29.71500
H  2.10200 43.35700 29.50600
H  1.61200 43.27800 31.98700
H  1.88800 41.55700 31.60600
H  -3.44500 40.89800 25.21000
H  -4.02200 40.19000 23.78300
H  -4.06400 41.94100 23.89300
H  -4.28200 41.74100 21.39400
H  -3.94600 39.95300 21.59100
H  -4.16000 40.68600 20.01600
H  2.64600 43.19000 19.54600
H  5.02800 41.83100 20.49900
H  3.94700 40.68400 18.86600
H  2.71700 41.50600 18.12300
H  2.30200 40.36100 19.51300
H  4.85600 44.27400 19.39000
H  6.05200 44.07300 20.69100
H  3.49500 44.87900 21.71700
H  3.90600 45.86900 20.42500
H  5.09000 45.68100 21.84300
H  8.09500 41.86000 24.61400
H  8.23800 42.84700 26.09700
H  7.84100 43.58400 24.49100
H  4.10900 42.94200 29.49500
H  6.66000 39.48300 31.15500
H  4.98900 39.26400 31.60900
H  6.13200 40.33500 32.59200
Mg -5.99100 25.25500 25.54300
C  -4.42300 26.37800 28.28800
C  -7.88500 23.18700 27.65600
C  -7.11400 23.43300 22.85000
C  -3.69000 26.80600 23.54600
N  -6.08400 24.83900 27.71000
C  -5.45600 25.50200 28.71300
C  -5.98500 25.24400 30.12000
C  -6.85300 23.98500 29.85700
C  -6.91000 23.95300 28.26600
C  -6.29500 22.70000 30.40100
C  -6.68200 26.49200 30.78800
C  -6.07800 26.88500 32.13300
H  -5.52100 25.74500 32.97900
N  -7.50000 23.74600 25.26000
C  -8.16700 23.11200 26.26900
C  -9.08800 22.16900 25.66400
C  -8.80900 22.14000 24.28200
C  -7.79800 23.12900 24.07700
C  -9.94900 21.29700 26.37500
C  -9.53100 21.23600 23.21700
O  -9.39000 21.46400 22.00800
C  -10.49100 20.14500 23.57800
N  -5.39800 25.07200 23.41800
C  -6.03800 24.24600 22.51800
C  -5.32500 24.37100 21.12100
C  -4.34600 25.62500 21.37100
C  -4.50000 25.92300 22.89500
C  -4.64400 23.13000 20.58600
C  -4.74800 26.92300 20.47500
C  -3.56200 27.42200 19.63900
N  -4.32400 26.41000 25.86500
C  -3.49400 27.06100 24.93100
C  -2.64300 27.93000 25.64600
C  -2.96700 27.65800 27.00600
C  -3.98900 26.72400 27.04900
C  -1.76300 28.94500 24.95200
C  -2.61100 27.95400 28.35100
O  -1.69400 28.61400 28.85500
C  -3.56300 27.11400 29.18200
C  -2.51500 26.31100 30.01900
O  -1.92400 25.33800 29.59200
O  -2.43600 26.76300 31.29000
C  -1.39400 26.05700 32.14600
H  -8.45900 22.55100 28.33300
H  -7.44100 23.06800 21.87400
H  -3.12500 27.44300 22.86200
H  -5.19200 24.90500 30.78700
H  -7.90200 24.04900 30.14400
H  -5.21900 22.79700 30.54400
H  -6.38700 21.93700 29.62700
H  -6.83900 22.40700 31.29900
H  -7.76300 26.35900 30.83800
H  -6.53800 27.30200 30.07300
H  -6.87100 27.32600 32.73600
H  -5.40900 27.74600 32.11900
H  -10.93100 21.24500 25.90300
H  -10.18800 21.73700 27.34300
H  -9.42400 20.35100 26.50400
H  -10.13400 19.50300 24.38300
H  -10.73200 19.51800 22.72000
H  -11.39400 20.62400 23.95800
H  -6.14500 24.62700 20.45100
H  -3.38000 25.24100 21.04200
H  -3.57600 23.26700 20.41800
H  -5.12000 22.90900 19.63100
H  -4.78800 22.25400 21.22000
H  -4.91600 27.77600 21.13300
H  -5.74700 26.80500 20.05600
H  -2.73200 26.71900 19.56700
H  -3.23000 28.29400 20.20200
H  -4.01900 27.61300 18.66800
H  -1.38000 28.60600 23.98900
H  -0.93000 29.10400 25.63700
H  -2.28600 29.89700 24.86500
H  -4.14900 27.73700 29.85900
H  -1.86200 25.65900 33.04700
H  -0.73100 26.87000 32.44000
H  -0.80300 25.25600 31.70200

