158

Mg 48.11400 34.60500 27.53500
C  46.33700 33.38900 30.31200
C  48.44100 37.60300 29.21100
C  49.46100 35.81300 24.79900
C  46.93100 31.77100 25.62800
N  47.60500 35.31100 29.60000
C  46.90400 34.66000 30.55300
C  46.72800 35.49500 31.78100
C  47.02600 36.91000 31.16400
C  47.76500 36.60400 29.93600
C  45.74400 37.79200 31.03700
C  47.85200 35.11300 32.88000
C  47.32500 34.64700 34.25000
H  47.68200 35.29500 35.51400
N  48.98100 36.32500 27.16600
C  49.05300 37.49000 27.94600
C  49.85400 38.53900 27.30200
C  50.37400 37.91800 26.07300
C  49.65900 36.56100 25.95800
C  50.17000 39.86200 27.94500
C  51.31200 38.39700 25.09600
O  51.70100 37.68200 24.15700
C  51.91300 39.73600 25.25100
N  48.12100 33.82300 25.41900
C  48.72400 34.61500 24.45300
C  48.76100 33.91000 23.09300
C  48.01300 32.55300 23.33900
C  47.60100 32.69300 24.85700
C  48.21100 34.76800 21.93200
C  48.81500 31.23300 23.11600
C  50.28100 31.23400 23.62800
N  46.89900 32.97300 27.81700
C  46.59600 31.83600 27.01300
C  45.69500 30.95700 27.83100
C  45.51700 31.53000 29.03400
C  46.32900 32.70600 29.03000
C  45.13100 29.65800 27.37100
C  44.90500 31.37100 30.32400
O  44.12800 30.52200 30.77200
C  45.22000 32.63900 31.12600
C  45.60000 32.20600 32.45800
O  46.60900 31.67200 32.86500
O  44.53300 32.49000 33.23500
C  44.58800 31.90400 34.57800
H  48.50100 38.58000 29.69700
H  49.81900 36.21300 23.84800
H  46.59200 30.93900 25.00700
H  45.72500 35.28100 32.15200
H  47.71500 37.40200 31.84900
H  45.68600 38.10600 29.99500
H  45.81400 38.59000 31.77600
H  44.84900 37.24000 31.32600
H  48.45000 35.97100 33.18600
H  48.46400 34.34300 32.41000
H  47.75700 33.66300 34.43700
H  46.24100 34.64300 34.13100
H  51.23300 39.89600 28.18800
H  49.42500 40.16500 28.68100
H  50.00000 40.59100 27.15200
H  51.06000 40.39600 25.09200
H  52.57900 39.91200 24.40600
H  52.33000 39.95500 26.23400
H  49.77500 33.65400 22.78700
H  47.14300 32.57200 22.68400
H  48.16700 35.84200 22.11500
H  47.20300 34.41700 21.71200
H  48.79400 34.65500 21.01800
H  48.66300 31.04200 22.05300
H  48.13700 30.49400 23.54400
H  50.64200 32.20900 23.95300
H  50.92100 30.99200 22.77900
H  50.49600 30.61200 24.49700
H  45.88500 29.00800 26.92600
H  44.39600 29.80500 26.58000
H  44.62000 29.23400 28.23500
H  44.35300 33.28900 31.23700
H  45.18900 32.55000 35.21800
H  45.04300 30.91300 34.59800
H  43.63700 31.80400 35.10000
Mg 0.65600 43.30700 26.39500
C  2.96800 43.14900 29.09900
C  -1.86800 42.84900 28.54500
C  -1.25900 43.26800 23.74600
C  3.55000 43.61900 24.28500
N  0.62900 43.05300 28.57000
C  1.62400 43.07700 29.50900
C  1.11000 42.93400 30.93800
C  -0.36600 42.44700 30.66600
C  -0.58300 42.79400 29.14500
C  -0.69300 41.00100 31.08900
C  1.28100 44.26800 31.82300
C  1.88100 44.04700 33.23100
H  1.55300 42.69500 33.81500
N  -1.35000 43.23000 26.18800
C  -2.27500 43.13000 27.21300
C  -3.61600 43.20200 26.59900
C  -3.44700 43.29700 25.23000
C  -1.99500 43.23700 24.97600
C  -4.96400 43.28000 27.43000
C  -4.52100 43.48200 24.14200
O  -4.23000 43.63000 22.94300
C  -6.01700 43.54100 24.47200
N  1.11300 43.16500 24.30100
C  0.15500 43.23200 23.40300
C  0.61700 43.38700 21.91200
C  2.09700 43.72700 22.19400
C  2.22700 43.55500 23.70900
C  0.29800 42.12600 21.00900
C  2.63200 45.09000 21.59400
C  1.94100 46.33200 22.11300
N  2.84400 43.28700 26.59000
C  3.86400 43.41700 25.62800
C  5.17600 43.38200 26.20900
C  4.86400 43.29700 27.64500
C  3.46500 43.27700 27.77100
C  6.39600 43.66600 25.44800
C  5.50500 43.25800 28.96100
O  6.68700 43.24000 29.24900
C  4.19300 43.26300 29.95000
C  4.48200 42.17100 30.82700
O  4.25800 41.00900 30.61400
O  5.11800 42.69700 31.92700
C  5.42000 41.72800 32.99800
H  -2.78900 42.56600 29.05900
H  -1.83600 43.26100 22.81900
H  4.39200 43.91400 23.65400
H  1.74500 42.16800 31.38100
H  -1.06100 43.06400 31.23600
H  -0.90200 40.37300 30.22300
H  -1.49300 41.00600 31.82900
H  0.19800 40.58900 31.56500
H  0.33100 44.76500 32.02200
H  1.90600 45.01900 31.34100
H  1.58900 44.83000 33.93000
H  2.93400 44.19100 32.98800
H  -5.34800 42.26500 27.53000
H  -5.73900 43.95600 27.06800
H  -4.77200 43.65000 28.43700
H  -6.40500 42.86200 25.23100
H  -6.50200 43.32000 23.52100
H  -6.20500 44.54500 24.85200
H  -0.00600 44.22000 21.58600
H  2.74100 42.94000 21.80100
H  -0.52500 41.58700 21.47800
H  1.12100 41.41200 21.05000
H  0.06400 42.43700 19.99100
H  2.53000 45.17700 20.51300
H  3.69100 45.16800 21.84300
H  1.33900 46.72100 21.29200
H  2.72700 47.06600 22.29200
H  1.37100 46.27400 23.04100
H  6.36400 44.26600 24.53900
H  6.91400 42.71700 25.30500
H  7.06600 44.21900 26.10600
H  4.21600 44.20900 30.49100
H  6.37200 41.25400 32.76000
H  4.72700 40.92800 33.25900
H  5.46300 42.28000 33.93700

