158

Mg 39.99600 9.82400 29.88300
C  41.87600 11.04700 32.73400
C  37.55200 8.71900 32.06600
C  38.41800 8.49100 27.26200
C  42.72400 10.68600 27.89300
N  39.88800 9.63400 32.20300
C  40.65500 10.40900 33.14400
C  40.02200 10.32100 34.55900
C  38.70800 9.50500 34.26100
C  38.65100 9.31400 32.74100
C  38.58400 8.16800 35.01400
C  39.77000 11.79200 35.15400
C  40.67500 12.19500 36.35800
H  40.12100 12.60300 37.69800
N  38.14800 8.77300 29.66500
C  37.33900 8.43800 30.69300
C  36.21700 7.76900 30.14200
C  36.47100 7.64600 28.78300
C  37.67000 8.36000 28.45600
C  35.11200 7.24000 30.99000
C  35.60800 6.97100 27.69000
O  35.92500 6.78300 26.53100
C  34.32300 6.42200 28.05500
N  40.45800 9.71100 27.81400
C  39.68200 9.03000 26.93300
C  40.23000 9.02800 25.47800
C  41.64600 9.65700 25.74100
C  41.67600 9.99600 27.26800
C  40.40000 7.52500 24.99600
C  41.97500 10.90800 24.87100
C  41.18000 12.18400 25.25400
N  41.95700 10.69400 30.14400
C  42.90200 11.06100 29.20800
C  43.98600 11.74000 29.91400
C  43.60100 11.79800 31.29800
C  42.34100 11.06600 31.38400
C  45.18000 12.38400 29.30700
C  44.01800 12.31000 32.60100
O  45.12100 12.79300 32.91500
C  42.90800 11.78100 33.59500
C  43.63000 10.84100 34.59300
O  43.80700 9.63600 34.50300
O  44.14400 11.61600 35.59600
C  44.56600 10.98200 36.84500
H  36.72400 8.59100 32.76700
H  37.93900 8.06800 26.37700
H  43.71400 10.88900 27.48100
H  40.81500 9.87200 35.15800
H  37.79700 10.09100 34.38000
H  38.51500 7.37400 34.27000
H  37.62300 8.25500 35.52100
H  39.38000 7.98500 35.73500
H  38.73700 11.89000 35.48900
H  39.82500 12.55200 34.37500
H  41.36800 12.97300 36.03800
H  41.24000 11.28400 36.55400
H  34.21200 7.78100 30.69700
H  35.31400 7.23800 32.06100
H  35.07400 6.17600 30.75900
H  34.45900 5.72900 28.88600
H  33.83300 5.97000 27.19200
H  33.65200 7.20100 28.41800
H  39.57100 9.50300 24.75100
H  42.37100 8.86900 25.53700
H  39.98100 6.74800 25.63700
H  41.44900 7.25300 24.88000
H  39.88400 7.27400 24.06900
H  41.88700 10.49800 23.86400
H  43.04900 11.09200 24.85300
H  41.86000 12.97000 25.58400
H  40.50000 11.98500 26.08200
H  40.56200 12.47900 24.40700
H  44.99500 12.74900 28.29800
H  45.94400 11.60800 29.25700
H  45.43600 13.17400 30.01300
H  42.48200 12.65700 34.08400
H  44.21000 11.55600 37.70100
H  45.64300 11.15000 36.86800
H  44.32400 9.92000 36.88200
Mg 50.35500 35.53800 27.21300
C  47.94200 34.29600 29.51600
C  50.69300 38.34400 29.17700
C  52.17800 36.78200 24.78300
C  49.09900 33.24900 24.95400
N  49.46600 36.21400 29.09800
C  48.68500 35.38200 29.95800
C  48.69200 36.00700 31.36600
C  49.12400 37.48400 31.05000
C  49.84300 37.33600 29.71100
C  47.94300 38.52000 31.11600
C  49.70000 35.27500 32.30000
C  49.26900 35.23100 33.81100
H  48.24500 36.27600 34.34500
N  51.46900 37.24100 27.07600
C  51.53100 38.31700 28.00000
C  52.42000 39.38100 27.47500
C  52.86600 38.93400 26.20000
C  52.18000 37.60600 25.99400
C  52.79000 40.56400 28.32800
C  53.85400 39.54100 25.29600
O  54.11200 39.07600 24.22700
C  54.55700 40.81100 25.69400
N  50.73600 34.98100 25.22100
C  51.61600 35.62800 24.39400
C  51.73200 34.99400 23.06300
C  50.94500 33.69200 23.27500
C  50.15700 33.93600 24.58000
C  51.22400 35.96800 21.95100
C  51.87700 32.46000 23.32500
C  51.32200 31.20300 22.50700
N  48.81600 34.06500 27.15200
C  48.41700 33.23900 26.19200
C  47.34400 32.39000 26.61300
C  47.15800 32.75100 27.92700
C  48.01900 33.80200 28.17600
C  46.73000 31.28100 25.90500
C  46.38100 32.53200 29.14900
O  45.52100 31.71900 29.42100
C  46.85300 33.57800 30.21100
C  47.31400 32.72000 31.39000
O  48.39900 32.12500 31.43100
O  46.38000 32.67400 32.46600
C  46.72800 31.89600 33.59400
H  50.71300 39.22800 29.81700
H  52.66800 37.30600 23.96000
H  48.59200 32.50200 24.34000
H  47.68000 36.01900 31.76900
H  49.73600 37.77200 31.90400
H  47.96400 39.04700 30.16200
H  48.06500 39.26500 31.90100
H  46.99500 37.98300 31.14100
H  50.64100 35.82400 32.28000
H  49.94200 34.31200 31.85200
H  50.13100 35.34500 34.46800
H  48.94300 34.19900 33.94700
H  53.86800 40.55800 28.49000
H  52.27400 40.58000 29.28800
H  52.37000 41.42700 27.81300
H  53.82400 41.59700 25.87100
H  55.15200 41.25000 24.89300
H  55.27000 40.66700 26.50600
H  52.78000 34.84400 22.80600
H  50.25500 33.49900 22.45400
H  50.39100 35.35500 21.60800
H  51.97900 36.18100 21.19400
H  50.88800 36.89100 22.42500
H  51.86300 32.03400 24.32800
H  52.90700 32.66600 23.03400
H  52.21900 30.69000 22.16100
H  50.75700 31.40900 21.59800
H  50.72800 30.60200 23.19600
H  47.53900 30.70000 25.46300
H  46.01700 31.71100 25.20200
H  46.14500 30.59700 26.52000
H  46.01200 34.22900 30.45100
H  47.80100 31.80700 33.76200
H  46.21000 30.94500 33.46900
H  46.23500 32.40300 34.42400

