158

Mg 1.63900 -2.08500 44.14900
C  5.14400 -1.58800 43.60000
C  1.07100 0.74400 42.30100
C  -1.46200 -3.08500 43.71900
C  2.56000 -5.17900 45.60400
N  2.95600 -0.60800 43.07100
C  4.36600 -0.57800 43.03000
C  4.83600 0.62900 42.19700
C  3.55500 1.38500 42.05700
C  2.41100 0.49500 42.56600
C  3.53300 2.85100 42.64000
C  5.53000 0.27200 40.85900
C  6.92900 0.91000 40.60300
H  6.99400 1.66200 39.25200
N  -0.06100 -1.25300 43.18800
C  -0.07700 -0.08000 42.48800
C  -1.40900 0.11100 42.04900
C  -2.14800 -1.03300 42.38800
C  -1.23700 -1.85800 43.13300
C  -1.87400 1.27800 41.24600
C  -3.61900 -1.20900 42.13500
O  -4.25600 -0.30200 41.62800
C  -4.39900 -2.42900 42.48800
N  0.74100 -3.88900 44.48300
C  -0.64300 -3.96400 44.42400
C  -1.19900 -5.18200 45.00200
C  0.09900 -5.90800 45.57900
C  1.20700 -4.91600 45.23200
C  -2.27700 -4.92700 46.09700
C  0.39000 -7.25600 44.91500
C  0.17000 -8.36900 45.85900
N  3.45800 -3.21000 44.67400
C  3.68500 -4.38300 45.30600
C  5.11000 -4.59500 45.37800
C  5.68100 -3.51100 44.82100
C  4.67500 -2.70400 44.37600
C  5.63400 -5.91900 45.65600
C  7.01600 -3.00500 44.36900
O  8.15400 -3.44000 44.52200
C  6.66400 -1.67400 43.59900
C  7.19200 -0.57900 44.41500
O  6.83200 -0.28400 45.52300
O  8.25800 0.01000 43.79500
C  8.97900 1.00300 44.66700
H  0.97200 1.73100 41.84500
H  -2.45300 -3.54400 43.69800
H  2.71000 -6.11900 46.14100
H  5.52500 1.22100 42.80100
H  3.28800 1.60000 41.02200
H  3.78200 3.49200 41.79400
H  4.28300 2.95900 43.42400
H  2.57500 3.14300 43.06900
H  4.77100 0.45000 40.09700
H  5.83400 -0.77500 40.89000
H  7.72900 0.16900 40.57500
H  7.23600 1.64900 41.34400
H  -2.59900 1.12800 40.44600
H  -1.08400 1.89200 40.81300
H  -2.38100 1.93100 41.95600
H  -4.15800 -3.37000 41.99200
H  -5.40300 -2.21100 42.12400
H  -4.55000 -2.51800 43.56300
H  -1.70400 -5.73700 44.21100
H  0.11200 -5.85900 46.66800
H  -2.26200 -3.90200 46.46900
H  -2.08200 -5.43800 47.03900
H  -3.31300 -5.12600 45.82000
H  1.44900 -7.27800 44.66000
H  -0.19100 -7.41000 44.00600
H  -0.22100 -7.97500 46.79800
H  1.18800 -8.67700 46.09600
H  -0.40000 -9.14500 45.34800
H  5.64600 -6.10000 46.73000
H  6.68200 -6.03100 45.38000
H  5.04600 -6.68200 45.14500
H  6.96400 -1.63600 42.55200
H  9.34000 0.48000 45.55200
H  8.44600 1.93900 44.83600
H  9.82600 1.21700 44.01400
Mg 16.56700 -1.92400 28.11800
C  15.45500 0.01200 31.00000
C  18.71200 -3.49400 30.20100
C  17.76900 -3.29100 25.36000
C  14.89900 0.55100 26.14200
N  17.03800 -1.67800 30.29800
C  16.53600 -0.85600 31.27500
C  17.17200 -1.09100 32.60700
C  18.24600 -2.12900 32.30600
C  18.06200 -2.42000 30.84800
C  19.70600 -1.72100 32.70900
C  16.15800 -1.61700 33.69400
C  16.20700 -0.97600 35.10900
H  17.53200 -0.23400 35.47400
N  17.88200 -3.36100 27.84300
C  18.55800 -3.99400 28.87300
C  19.14400 -5.23200 28.31600
C  18.93400 -5.19500 26.88800
C  18.09600 -3.94300 26.63700
C  19.83100 -6.21700 29.20700
C  19.38500 -6.18000 25.83400
O  19.06300 -6.04900 24.68400
C  20.18000 -7.43800 26.24800
N  16.29400 -1.47700 26.05400
C  17.02100 -2.17000 25.12100
C  16.89200 -1.45300 23.74100
C  15.74700 -0.45300 23.92800
C  15.61300 -0.44200 25.41100
C  18.27600 -0.91800 23.25300
C  14.43100 -0.78300 23.18600
C  14.20000 -0.03900 21.84100
N  15.23200 -0.26900 28.38500
C  14.60700 0.56300 27.49600
C  13.83500 1.57400 28.17100
C  14.10100 1.36300 29.56700
C  14.99600 0.22700 29.66500
C  13.14700 2.70100 27.56600
C  13.87400 1.89300 30.91600
O  13.18300 2.88800 31.27500
C  14.78500 0.99200 31.95400
C  15.67600 2.05200 32.62500
O  16.84600 2.41900 32.38200
O  14.99800 2.65400 33.70500
C  15.69100 3.66200 34.48200
H  19.44700 -4.08000 30.75700
H  18.20100 -3.82600 24.51200
H  14.34500 1.21000 25.47000
H  17.61000 -0.15800 32.96100
H  18.16300 -3.01800 32.93100
H  20.37600 -1.71100 31.85000
H  20.03200 -2.41500 33.48400
H  19.73300 -0.77100 33.24200
H  16.20700 -2.69200 33.86700
H  15.18700 -1.44500 33.23100
H  15.77300 -1.63900 35.85600
H  15.47600 -0.16800 35.13400
H  19.22000 -6.42500 30.08600
H  20.76500 -5.80400 29.58600
H  19.92800 -7.22100 28.79500
H  19.41100 -8.02100 26.75500
H  21.08600 -7.20700 26.80800
H  20.37700 -7.96500 25.31400
H  16.64900 -2.28100 23.07500
H  16.09600 0.54600 23.66800
H  18.17100 0.15900 23.12300
H  18.63600 -1.37100 22.32900
H  19.04500 -1.08600 24.00700
H  13.62800 -0.47600 23.85500
H  14.40100 -1.87100 23.11400
H  15.12700 0.38300 21.45100
H  13.66000 0.84800 22.17200
H  13.51600 -0.65500 21.25800
H  13.22500 3.48100 28.32300
H  12.11500 2.38500 27.41800
H  13.43700 3.04600 26.57300
H  14.09500 0.47900 32.62400
H  15.67200 4.53600 33.83100
H  16.72400 3.39200 34.70300
H  15.13200 3.88600 35.39000

