158

Mg 44.24500 4.43000 46.87500
C  42.51200 7.55800 46.63200
C  41.38400 2.83100 45.89100
C  46.15800 1.77900 46.14700
C  47.30800 6.31500 47.07400
N  42.19100 5.13400 46.17300
C  41.71600 6.43700 46.24000
C  40.19400 6.45200 45.89000
C  39.79400 4.94800 45.74700
C  41.17900 4.22900 46.00000
C  38.59400 4.43600 46.64900
C  39.71700 7.51700 44.78800
C  40.68800 7.60700 43.53800
H  39.98800 7.85900 42.19700
N  43.85200 2.52400 46.26200
C  42.56900 2.09600 45.87800
C  42.70700 0.70200 45.60200
C  44.05100 0.43800 45.42500
C  44.81000 1.62500 45.94800
C  41.59100 -0.21500 45.41300
C  44.57600 -0.82400 44.86300
O  43.80000 -1.76200 44.56600
C  46.04100 -1.18700 44.77600
N  46.37700 4.10500 46.74600
C  46.88900 2.86300 46.66200
C  48.45300 2.83900 46.76100
C  48.77600 4.35300 46.87500
C  47.39500 5.01500 46.89100
C  49.03500 2.00400 47.92900
C  49.70200 4.91900 45.75800
C  50.95900 5.52600 46.29100
N  44.81300 6.48100 46.87900
C  46.11300 7.09700 47.01000
C  45.95200 8.55800 47.06300
C  44.52700 8.75400 47.02900
C  43.92400 7.50300 46.89000
C  47.06500 9.50800 47.05200
C  43.53500 9.79300 46.96400
O  43.70900 11.01100 47.09700
C  42.13300 9.09500 46.86300
C  41.35900 9.19500 48.12700
O  41.54200 8.57200 49.14300
O  40.47200 10.16000 47.94900
C  39.57900 10.36300 49.07100
H  40.47800 2.38800 45.47400
H  46.84100 0.97300 45.86800
H  48.24100 6.87100 47.19600
H  39.81800 6.75700 46.86600
H  39.57100 4.73400 44.70200
H  39.01400 3.70800 47.34300
H  37.85200 4.04500 45.95300
H  38.14200 5.24500 47.22200
H  39.36400 8.43900 45.24900
H  38.75700 7.18300 44.39700
H  41.21700 6.65400 43.54500
H  41.38300 8.42200 43.74300
H  41.50100 -0.54300 44.37800
H  40.67800 0.32600 45.66300
H  41.59800 -1.09000 46.06300
H  46.24300 -2.21200 44.46700
H  46.30600 -1.05800 45.82500
H  46.42500 -0.45500 44.06500
H  48.89800 2.46400 45.84000
H  49.21800 4.36200 47.87100
H  49.93000 1.49800 47.56800
H  48.18200 1.41500 48.26700
H  49.29600 2.62000 48.79000
H  49.14600 5.71700 45.26600
H  49.90200 4.07500 45.09900
H  50.78500 5.99800 47.25900
H  51.19100 6.27200 45.53200
H  51.77600 4.80600 46.34400
H  46.71900 10.44100 46.60900
H  48.05700 9.28500 46.66000
H  47.25200 9.78300 48.09000
H  41.47300 9.50700 46.10000
H  40.14300 10.65700 49.95600
H  38.86400 9.54200 49.13500
H  39.01000 11.24500 48.77500
Mg 0.76300 42.96800 25.57000
C  2.54800 42.72700 28.39700
C  -2.09900 41.74700 27.42400
C  -0.87900 42.58400 22.69000
C  3.68100 43.89600 23.85000
N  0.30300 42.36200 27.63500
C  1.21400 42.44600 28.64600
C  0.51500 42.03800 30.03000
C  -0.81400 41.45700 29.61000
C  -0.91500 41.90100 28.10500
C  -1.11600 39.96900 29.89000
C  0.46400 43.31700 30.89400
C  1.34500 43.21500 32.26200
H  0.51800 43.46500 33.61600
N  -1.22800 42.35900 25.05500
C  -2.25300 42.03300 25.98500
C  -3.48800 41.91100 25.22800
C  -3.16200 42.00100 23.87400
C  -1.69200 42.35400 23.79400
C  -4.79000 41.65600 25.97200
C  -4.17000 41.97800 22.66200
O  -3.82700 42.23800 21.50800
C  -5.62000 41.61700 22.88300
N  1.37900 43.05000 23.47000
C  0.44500 42.97000 22.50400
C  1.11700 43.22300 21.18300
C  2.48800 43.92800 21.56500
C  2.55900 43.67000 23.03600
C  1.25400 41.90400 20.32800
C  2.55600 45.41000 21.21300
C  3.83600 45.80600 20.50600
N  2.73200 43.26100 25.98300
C  3.84900 43.63400 25.20000
C  5.08200 43.58200 25.96400
C  4.62600 43.20000 27.22000
C  3.23600 43.06700 27.20600
C  6.46800 43.78600 25.40700
C  5.05000 42.84900 28.54100
O  6.19600 42.73500 28.93800
C  3.75000 42.68000 29.42300
C  3.82200 41.46700 30.30800
O  3.44200 40.32300 30.01400
O  4.42600 41.78600 31.48400
C  4.55100 40.79000 32.51600
H  -2.97600 41.39700 27.97200
H  -1.37600 42.54400 21.71800
H  4.63100 44.23600 23.43200
H  1.02800 41.27700 30.61900
H  -1.61700 41.98100 30.12800
H  -1.94900 39.95800 30.59300
H  -0.29000 39.47300 30.40100
H  -1.23900 39.46500 28.93200
H  -0.57300 43.45400 31.20200
H  0.76700 44.24300 30.40600
H  2.06900 44.02900 32.22000
H  1.90600 42.28400 32.34700
H  -4.64500 42.00200 26.99500
H  -5.12100 40.61900 25.90800
H  -5.62000 42.18400 25.50100
H  -6.18400 41.52500 21.95400
H  -6.16100 42.44700 23.33700
H  -5.78300 40.66700 23.39200
H  0.41600 43.89000 20.68000
H  3.35200 43.43600 21.11700
H  2.28100 41.77700 19.98300
H  0.52800 41.78100 19.52400
H  1.05800 41.05600 20.98300
H  2.54800 45.93700 22.16700
H  1.65500 45.76500 20.71200
H  4.49100 46.56500 20.93300
H  3.42500 46.33500 19.64700
H  4.39500 44.97800 20.07000
H  6.89500 42.91600 24.90700
H  7.09800 43.95700 26.28000
H  6.43200 44.71100 24.83100
H  3.77000 43.58600 30.02700
H  4.09300 39.82500 32.29600
H  4.12900 41.01600 33.49500
H  5.59800 40.68600 32.80400

