158

Mg 17.19800 -1.04500 28.23400
C  15.84700 0.83500 30.86000
C  18.96900 -2.83400 30.45800
C  18.89700 -2.27800 25.73300
C  15.56100 1.22800 25.94900
N  17.55000 -0.77300 30.37500
C  16.79600 -0.09500 31.30100
C  17.06100 -0.57600 32.70700
C  18.26500 -1.48200 32.54200
C  18.25700 -1.73600 31.04500
C  19.56200 -0.94100 33.14000
C  15.85800 -1.25400 33.39200
C  15.53400 -1.09700 34.86700
H  16.51400 -0.28800 35.73700
N  18.63600 -2.49000 28.06900
C  19.21600 -3.21100 29.08000
C  20.04400 -4.26900 28.56400
C  19.95900 -4.23600 27.11000
C  19.08000 -3.00700 26.90700
C  20.71000 -5.27900 29.47400
C  20.42400 -5.12100 26.05900
O  20.12500 -5.06200 24.85500
C  21.31600 -6.28900 26.50700
N  17.42100 -0.35300 26.15000
C  18.17200 -1.13800 25.37300
C  18.04900 -0.65700 23.92000
C  16.85400 0.33100 23.90500
C  16.51800 0.36700 25.38800
C  19.37900 -0.19100 23.22100
C  15.55800 -0.06300 23.05200
C  15.46400 0.32000 21.60100
N  15.95400 0.61500 28.34600
C  15.47500 1.44300 27.35300
C  14.54900 2.38900 27.98900
C  14.67000 2.16000 29.33000
C  15.57800 1.16300 29.50000
C  13.62800 3.33100 27.25800
C  14.20900 2.55100 30.59400
O  13.56400 3.54300 30.85100
C  14.86000 1.63300 31.65100
C  15.55100 2.48400 32.64700
O  16.59900 3.11700 32.45000
O  14.67600 2.53300 33.72800
C  15.07600 3.55700 34.71800
H  19.62400 -3.37000 31.14900
H  19.44500 -2.78500 24.93500
H  14.93000 1.87600 25.33700
H  17.38300 0.32600 33.22800
H  18.09600 -2.47800 32.95000
H  20.37800 -0.95500 32.41800
H  19.84000 -1.61000 33.95400
H  19.53100 0.08200 33.51400
H  15.58900 -2.28800 33.17900
H  14.96200 -0.81700 32.95300
H  15.25400 -2.09600 35.20300
H  14.59100 -0.55400 34.92800
H  21.77100 -5.04500 29.56300
H  20.63800 -6.29000 29.07200
H  20.19100 -5.29100 30.43200
H  21.89900 -6.67800 25.67200
H  20.74600 -7.13600 26.89000
H  22.14000 -5.92100 27.11800
H  17.73300 -1.47100 23.26900
H  17.22600 1.28000 23.52000
H  20.22800 -0.42200 23.86500
H  19.32900 0.88900 23.08500
H  19.56400 -0.69300 22.27200
H  14.63500 0.32300 23.48400
H  15.48300 -1.12700 23.27500
H  15.76400 -0.57300 21.05300
H  16.10600 1.13900 21.27500
H  14.43700 0.60100 21.36400
H  13.51800 3.25200 26.17600
H  14.04800 4.33100 27.37300
H  12.64800 3.38300 27.73200
H  14.06000 1.03000 32.08100
H  15.69100 3.00200 35.42700
H  14.16100 3.89600 35.20400
H  15.54500 4.41800 34.24100
Mg 26.61700 50.49100 26.68000
C  24.94400 52.03000 29.42400
C  29.12300 49.60100 28.98300
C  28.57400 49.20400 24.10100
C  24.57000 52.00700 24.48400
N  26.89400 50.71100 29.00500
C  26.05300 51.27800 29.91500
C  26.50300 51.12900 31.39900
C  27.90900 50.32700 31.19500
C  27.98400 50.17100 29.64600
C  29.02500 50.97900 31.88800
C  25.50400 50.27300 32.30500
C  24.82900 51.16700 33.40300
H  25.73200 51.58900 34.58800
N  28.53700 49.54400 26.48900
C  29.34200 49.22300 27.60200
C  30.59600 48.49800 27.11500
C  30.45000 48.51700 25.65100
C  29.10200 49.06900 25.34600
C  31.67500 48.14300 28.02900
C  31.44700 48.08700 24.57400
O  31.31500 48.24100 23.35200
C  32.65800 47.31500 24.97100
N  26.58100 50.66000 24.58200
C  27.47100 49.98800 23.73200
C  27.03300 50.12100 22.29500
C  25.73800 51.06700 22.33400
C  25.54200 51.18700 23.89600
C  28.29700 50.69500 21.48100
C  24.35500 50.65600 21.62000
C  23.94100 51.60800 20.45100
N  24.99200 51.67400 26.87700
C  24.30800 52.30700 25.84500
C  23.25200 53.10800 26.48800
C  23.47700 53.07000 27.90300
C  24.55700 52.18000 28.04700
C  22.22600 53.88400 25.81300
C  23.06900 53.64000 29.16800
O  22.38200 54.60600 29.40700
C  24.00600 52.94500 30.22400
C  24.67900 54.13700 30.70700
O  25.67400 54.63100 30.21000
O  24.07000 54.59400 31.86000
C  24.62500 55.55200 32.79500
H  29.82400 49.32300 29.77200
H  29.00400 48.72200 23.22000
H  23.88400 52.32400 23.69600
H  26.68600 52.11800 31.81900
H  27.76400 49.33700 31.62800
H  29.23100 50.33000 32.74000
H  28.86800 51.99000 32.26200
H  29.94900 51.05800 31.31600
H  25.99200 49.43900 32.81000
H  24.88500 49.82000 31.53100
H  24.00700 50.54100 33.75100
H  24.38000 52.10300 33.06900
H  31.33000 48.08600 29.06200
H  32.47100 48.87200 27.87800
H  31.95800 47.18600 27.59100
H  33.27600 47.91500 25.63900
H  33.22800 47.10900 24.06500
H  32.39500 46.33500 25.36800
H  26.70300 49.12300 22.00800
H  25.97400 52.04600 21.91700
H  28.84800 49.93000 20.93400
H  28.98900 51.09700 22.22100
H  28.08500 51.50100 20.77900
H  23.53800 50.57000 22.33600
H  24.36300 49.72700 21.05100
H  24.74600 52.30100 20.20700
H  23.16800 52.26800 20.84500
H  23.68900 51.02900 19.56300
H  22.63000 54.53500 25.03800
H  21.71900 54.56000 26.50100
H  21.46300 53.16000 25.52800
H  23.46800 52.47700 31.04900
H  24.92100 56.54600 32.45700
H  25.55900 55.10600 33.13800
H  23.83600 55.54700 33.54700

