158

Mg 35.14300 3.15100 30.30100
C  32.91400 3.91700 32.73100
C  37.67500 2.87200 32.80100
C  37.56800 2.65700 27.93700
C  32.77100 3.61900 27.81600
N  35.20400 3.38800 32.48800
C  34.12500 3.72900 33.26400
C  34.53000 3.84100 34.76700
C  36.13100 3.92400 34.64200
C  36.37100 3.35500 33.22100
C  36.64200 5.37500 34.90600
C  34.02600 2.62800 35.50800
C  33.65400 2.85700 36.93500
H  34.29300 4.03800 37.80200
N  37.29500 2.71300 30.39000
C  38.08700 2.56000 31.53400
C  39.35600 2.12700 31.08700
C  39.43800 2.15300 29.71700
C  38.05900 2.51100 29.25800
C  40.31900 1.60700 32.18800
C  40.62700 1.73800 28.76300
O  40.52400 1.89500 27.58200
C  41.89900 1.23500 29.50900
N  35.26800 3.28100 28.20200
C  36.26100 2.88000 27.44900
C  35.93300 2.93500 25.92700
C  34.36400 2.86700 25.92300
C  34.09100 3.25900 27.38800
C  36.63400 4.03800 25.16500
C  33.92900 1.35700 25.82500
C  33.60000 0.94500 24.38100
N  33.24900 3.55400 30.18500
C  32.35200 3.75700 29.10400
C  31.01600 4.15000 29.61100
C  31.14500 4.09000 31.00400
C  32.55100 3.82000 31.34300
C  29.89700 4.42100 28.69900
C  30.42900 4.39300 32.21800
O  29.24300 4.53400 32.42600
C  31.54200 4.30500 33.36900
C  31.50800 5.64300 33.86700
O  31.63700 6.70000 33.25700
O  31.09700 5.71100 35.18200
C  30.85600 7.00600 35.90300
H  38.40100 2.73900 33.60600
H  38.26700 2.48400 27.11500
H  31.99300 3.44000 27.07100
H  34.09600 4.73700 35.21100
H  36.67000 3.27900 35.33600
H  35.77600 6.01400 34.73800
H  37.44200 5.68600 34.23400
H  36.98100 5.54100 35.92900
H  34.67200 1.79600 35.22600
H  33.01200 2.44800 35.15100
H  34.08000 2.04000 37.51700
H  32.56900 2.90700 37.02800
H  41.12700 0.99600 31.78500
H  39.80100 0.98200 32.91600
H  40.85300 2.39900 32.71300
H  42.29100 1.92500 30.25600
H  42.65500 1.19600 28.72500
H  41.66600 0.22400 29.84300
H  36.43400 2.03300 25.57500
H  33.81800 3.46000 25.19000
H  35.92000 4.52200 24.50000
H  37.43000 3.55700 24.59600
H  37.18700 4.78600 25.73400
H  32.96200 1.24900 26.31600
H  34.60600 0.59100 26.20400
H  33.91500 1.76500 23.73500
H  32.56700 0.67500 24.16300
H  34.23200 0.07900 24.18300
H  29.02800 4.61800 29.32700
H  29.73000 3.52000 28.11000
H  30.07900 5.35900 28.17500
H  31.39100 3.59500 34.18200
H  29.86100 7.09800 36.33800
H  31.09100 7.90900 35.34000
H  31.54500 7.07000 36.74600
Mg 35.96100 48.92100 26.21800
C  36.23800 46.79200 28.96500
C  34.61200 51.38100 28.44700
C  35.49500 50.91500 23.58400
C  37.01100 46.35300 24.21400
N  35.51400 49.03600 28.40900
C  35.82100 48.08100 29.30500
C  35.70400 48.63900 30.80600
C  34.95200 50.01300 30.57300
C  35.09000 50.16600 29.07200
C  33.34700 49.91300 30.96200
C  37.09700 48.81800 31.43600
C  37.27100 48.55500 32.95000
H  35.98900 48.46000 33.81800
N  35.24200 50.89600 26.04900
C  34.72400 51.72700 27.06900
C  34.31500 52.97000 26.40800
C  34.61200 52.88400 24.95800
C  35.14100 51.51700 24.80200
C  33.78200 54.19300 27.15600
C  34.32000 53.85400 23.94400
O  34.72300 53.73400 22.81000
C  33.37700 54.96300 24.13100
N  35.97400 48.53600 24.18700
C  35.84500 49.57900 23.32800
C  35.96300 49.01800 21.84600
C  36.75600 47.64900 22.09300
C  36.59800 47.48300 23.60100
C  34.58600 48.96600 21.15900
C  38.27500 47.49300 21.63000
C  39.18700 48.58700 22.11100
N  36.44700 47.03100 26.50600
C  36.98000 46.11000 25.56300
C  37.34900 44.86300 26.21500
C  37.05000 45.13200 27.55600
C  36.53800 46.42600 27.68400
C  38.03000 43.68600 25.57100
C  36.98800 44.61300 28.89700
O  37.34200 43.50900 29.23400
C  36.47300 45.63900 29.86600
C  35.25800 45.23500 30.55800
O  34.18500 44.90400 30.05400
O  35.46200 45.12500 31.91300
C  34.39200 44.70100 32.72800
H  34.10300 52.10600 29.08500
H  35.58000 51.47000 22.64800
H  37.35800 45.44100 23.72300
H  35.01900 48.04600 31.41200
H  35.31500 50.90600 31.08400
H  33.02800 48.95800 30.54400
H  32.80200 50.70700 30.45200
H  33.21800 49.99900 32.04100
H  37.35600 49.86100 31.25600
H  37.81700 48.14700 30.96600
H  37.83100 49.40100 33.34600
H  37.92000 47.68700 33.06800
H  32.69500 54.19200 27.07900
H  34.19400 55.06000 26.64100
H  34.23600 54.14100 28.14600
H  32.45900 54.65200 24.62900
H  33.05000 55.24200 23.12900
H  33.80500 55.88300 24.52800
H  36.61000 49.66500 21.25400
H  36.21600 46.83400 21.61100
H  34.54300 49.50600 20.21300
H  33.82400 49.37600 21.82200
H  34.26500 47.94700 20.94300
H  38.15200 47.60900 20.55300
H  38.48400 46.48300 21.98100
H  38.60700 49.48700 22.31700
H  39.99200 48.93000 21.46100
H  39.67500 48.25100 23.02600
H  38.75800 44.05100 24.84700
H  37.34900 42.97500 25.10400
H  38.47700 43.08400 26.36200
H  37.28300 45.79500 30.57900
H  34.79400 44.71200 33.74100
H  34.05500 43.68800 32.51000
H  33.67400 45.51900 32.78800

