158

Mg 53.82900 24.51200 45.07500
C  51.14200 26.33200 43.94100
C  52.52000 21.64000 43.78000
C  56.71600 22.91600 45.57300
C  55.08000 27.31700 46.74100
N  52.14400 24.09400 43.82500
C  51.05400 24.95900 43.58300
C  50.06800 24.29500 42.68000
C  50.27700 22.81400 43.17200
C  51.74100 22.82600 43.65200
C  49.25300 22.42300 44.32700
C  50.43000 24.70000 41.29900
C  49.32000 24.98000 40.32300
H  49.76000 25.53100 38.96700
N  54.54200 22.55600 44.56700
C  53.86200 21.50100 44.08300
C  54.66000 20.36200 43.83900
C  55.94500 20.72400 44.39900
C  55.77000 22.15700 44.85400
C  54.15900 19.06700 43.26200
C  57.16800 19.81300 44.45700
O  57.01400 18.65100 44.04600
C  58.47600 20.18400 45.12900
N  55.75100 25.06800 45.96900
C  56.68900 24.19000 46.13100
C  57.91800 24.83700 46.63900
C  57.39400 26.26900 47.16100
C  55.98900 26.25600 46.62600
C  58.68200 24.13100 47.70400
C  58.19600 27.50600 46.62900
C  58.26900 28.75500 47.55300
N  53.33900 26.49700 45.25100
C  53.78900 27.49800 46.08200
C  52.80600 28.62600 46.11600
C  51.79500 28.22500 45.19300
C  52.18600 26.96400 44.71400
C  52.88400 29.85900 46.91200
C  50.57300 28.65600 44.67900
O  49.95100 29.77800 44.73600
C  50.03600 27.41600 43.83800
C  49.69100 27.86000 42.45200
O  50.49200 28.16600 41.58200
O  48.35000 27.78100 42.22600
C  47.73600 28.34400 41.07000
H  51.94400 20.78900 43.41100
H  57.65700 22.36800 45.48900
H  55.46000 28.14400 47.34500
H  49.07500 24.66300 42.94000
H  50.13500 22.24800 42.25200
H  48.70300 21.50200 44.13100
H  48.55100 23.21900 44.57200
H  49.75900 22.26400 45.27900
H  51.16200 23.98900 40.91500
H  50.96100 25.64900 41.37200
H  48.70300 25.71800 40.83500
H  48.78500 24.05200 40.12300
H  53.07500 19.08800 43.14300
H  54.27000 18.17300 43.87500
H  54.61100 18.81500 42.30300
H  58.48200 20.37000 46.20300
H  58.90500 21.02700 44.58800
H  59.17600 19.35900 44.99700
H  58.58500 24.93400 45.78300
H  57.44200 26.37200 48.24500
H  59.04900 23.17300 47.33700
H  57.99600 23.99000 48.53900
H  59.49500 24.82000 47.93300
H  57.73200 27.81800 45.69300
H  59.22300 27.15300 46.54200
H  57.79700 29.61500 47.07900
H  59.28400 29.14800 47.49000
H  57.93600 28.53200 48.56700
H  53.53600 29.74100 47.77700
H  51.89400 30.05200 47.32500
H  53.21300 30.73600 46.35400
H  49.15200 27.10000 44.39100
H  48.41700 28.34100 40.21900
H  47.36600 29.32100 41.38100
H  46.89600 27.70800 40.79100
Mg 9.25500 48.27200 25.57300
C  7.33100 48.32700 28.51400
C  11.83700 49.57600 27.39600
C  11.13500 48.27500 22.85000
C  6.38500 47.79100 23.65000
N  9.46100 48.94900 27.66200
C  8.65400 48.81000 28.74900
C  9.33800 49.17900 30.06200
C  10.51000 50.05000 29.57000
C  10.69000 49.47700 28.10300
C  10.13000 51.58600 29.57100
C  9.76400 47.88900 30.83600
C  10.25800 48.09600 32.22700
H  9.90700 46.96500 33.21400
N  11.28200 48.64700 25.23300
C  12.22900 49.14000 26.11200
C  13.54600 49.20500 25.46300
C  13.29400 48.81000 24.13600
C  11.91500 48.55100 24.03000
C  14.79200 49.65100 26.14600
C  14.30500 48.75400 22.93700
O  13.94400 48.33900 21.86500
C  15.73600 49.05500 23.21600
N  8.74000 47.95100 23.50700
C  9.77300 48.08000 22.57300
C  9.17300 47.79000 21.11300
C  7.68800 47.56200 21.38200
C  7.57000 47.84300 22.92100
C  9.62400 48.89700 20.08400
C  7.13900 46.11600 21.07900
C  5.85000 46.05700 20.31700
N  7.27200 48.14500 25.95000
C  6.23500 47.92100 25.07900
C  4.99100 47.82100 25.83500
C  5.38500 47.92800 27.17200
C  6.77600 48.14300 27.14300
C  3.62800 47.45500 25.38400
C  4.96300 47.80500 28.52400
O  3.86600 47.66400 28.97200
C  6.21000 48.02400 29.46400
C  6.46200 46.88600 30.26000
O  6.92500 45.78000 29.96400
O  6.15000 47.27300 31.56800
C  6.29900 46.17000 32.52300
H  12.62300 50.06900 27.97200
H  11.70100 48.27200 21.91600
H  5.45900 47.66400 23.08500
H  8.67800 49.84600 30.61700
H  11.35800 49.92500 30.24300
H  9.10000 51.75800 29.88500
H  10.38700 51.88700 28.55500
H  10.88400 52.04700 30.20800
H  10.45200 47.32400 30.20600
H  8.92800 47.19600 30.73600
H  9.87300 49.05500 32.57600
H  11.34400 48.16600 32.15800
H  14.67700 49.75000 27.22500
H  15.00000 50.63700 25.73200
H  15.62300 48.98200 25.92200
H  16.21100 48.13300 23.55100
H  15.85000 49.89600 23.90100
H  16.03400 49.32300 22.20300
H  9.68600 46.86500 20.85100
H  7.15900 48.34100 20.83300
H  10.11800 49.67900 20.66000
H  8.72900 49.35000 19.65700
H  10.24900 48.50400 19.28200
H  6.98300 45.66200 22.05800
H  7.88000 45.61100 20.46000
H  5.85800 45.74400 19.27300
H  5.36900 47.03200 20.24100
H  5.14800 45.42000 20.85400
H  3.44800 47.34700 24.31500
H  2.93400 48.23100 25.70800
H  3.19800 46.60100 25.90700
H  6.02400 48.92600 30.04700
H  6.95700 46.50100 33.32600
H  6.77200 45.22400 32.26000
H  5.31000 46.02400 32.95900

