158

Mg 46.82600 24.39700 28.53400
C  47.70300 26.81000 31.04500
C  45.95600 22.30900 31.07300
C  46.67400 22.01300 26.29900
C  48.40200 26.39900 26.21700
N  46.78700 24.61400 30.81600
C  47.09500 25.71000 31.67100
C  46.71700 25.41900 33.10000
C  46.37500 23.89200 33.06300
C  46.22400 23.59900 31.56200
C  47.39800 22.92600 33.81100
C  45.72400 26.42500 33.76400
C  46.15800 27.28400 34.93200
H  45.11300 27.56800 35.99900
N  46.17300 22.52900 28.63500
C  45.91600 21.87900 29.80400
C  45.57300 20.50300 29.44000
C  45.65300 20.40500 27.96500
C  46.23100 21.66400 27.56000
C  44.93500 19.51400 30.35900
C  45.35600 19.19900 27.00700
O  45.40700 19.22500 25.80300
C  44.92000 17.81700 27.52200
N  47.58600 24.18300 26.50100
C  47.23000 23.18600 25.81700
C  47.60000 23.28100 24.36200
C  48.02800 24.78200 24.20900
C  47.93500 25.18800 25.75300
C  48.64400 22.14700 23.89700
C  47.18600 25.61000 23.16600
C  45.76300 26.17100 23.52900
N  47.84900 26.22100 28.58400
C  48.35000 26.94200 27.52300
C  48.78300 28.24600 27.93300
C  48.57900 28.15700 29.30000
C  47.98800 26.97700 29.65100
C  49.47900 29.30400 27.18700
C  48.93000 28.90300 30.49600
O  49.67300 29.88100 30.59500
C  48.28700 28.06600 31.71000
C  49.32300 27.70900 32.81000
O  50.25900 26.99400 32.69300
O  49.03300 28.44200 33.94000
C  49.88400 28.22000 35.12800
H  45.86200 21.61300 31.90900
H  46.47800 21.31200 25.48500
H  48.74500 27.21700 25.58000
H  47.69000 25.64000 33.53800
H  45.36000 23.80200 33.45000
H  46.99300 22.47800 34.71800
H  48.24100 23.53300 34.14200
H  47.81600 22.16500 33.15200
H  44.96600 25.80300 34.23900
H  45.40200 26.96600 32.87400
H  46.48500 28.20400 34.44700
H  47.08200 26.81300 35.26800
H  45.34200 18.50400 30.30800
H  43.88400 19.51800 30.06900
H  45.09800 19.78600 31.40200
H  44.14300 18.04000 28.25300
H  45.75800 17.41000 28.08800
H  44.30800 17.25400 26.81800
H  46.63400 23.23600 23.86100
H  49.09600 24.83000 23.99700
H  49.54000 22.58600 23.45800
H  48.15800 21.67300 23.04400
H  48.99300 21.36000 24.56600
H  47.12400 24.99400 22.26900
H  47.75000 26.51200 22.93200
H  45.06200 25.90400 22.73900
H  45.94200 27.24300 23.60000
H  45.44400 25.57700 24.38600
H  49.45900 28.96900 26.15000
H  50.49900 29.50600 27.51400
H  48.99000 30.27400 27.27900
H  47.35900 28.51100 32.07000
H  49.69100 27.21400 35.50000
H  49.65500 28.99400 35.86100
H  50.92200 28.27400 34.79900
Mg -10.90600 38.62800 42.30100
C  -9.28800 35.50700 41.72400
C  -8.31500 40.20600 40.45600
C  -12.78700 41.48600 42.19000
C  -13.74700 36.87900 43.19700
N  -8.97400 37.93700 41.22900
C  -8.57100 36.62400 41.13400
C  -7.28300 36.50700 40.25500
C  -6.87000 38.02900 40.00300
C  -8.14500 38.76800 40.58000
C  -5.57900 38.47700 40.68700
C  -7.43900 35.63400 38.94600
C  -6.15100 34.88900 38.56000
H  -5.18800 35.53700 37.51000
N  -10.50400 40.60600 41.54400
C  -9.45000 41.01200 40.81700
C  -9.67400 42.33900 40.41800
C  -10.98900 42.74500 40.86100
C  -11.50000 41.62900 41.62200
C  -8.60900 43.07100 39.60800
C  -11.61100 44.09800 40.60100
O  -11.05200 44.85100 39.85000
C  -12.80700 44.57800 41.20500
N  -12.98900 39.15900 42.68700
C  -13.52900 40.36900 42.59300
C  -14.93000 40.35700 43.19700
C  -15.25700 38.81300 43.35400
C  -13.89800 38.20600 43.07300
C  -15.31700 41.16100 44.46700
C  -16.41600 38.24900 42.49200
C  -17.26800 37.25000 43.21800
N  -11.44200 36.61800 42.55200
C  -12.63300 36.08800 42.97400
C  -12.45600 34.63500 43.03900
C  -11.07200 34.35900 42.64300
C  -10.55900 35.60100 42.30400
C  -13.50800 33.70500 43.50200
C  -10.03400 33.35200 42.47400
O  -10.08600 32.15200 42.76900
C  -8.87300 34.04100 41.74200
C  -7.68800 33.64700 42.59800
O  -7.58300 33.94300 43.78300
O  -6.74800 32.93900 41.85900
C  -5.51200 32.65200 42.63200
H  -7.45900 40.66000 39.95300
H  -13.39500 42.38900 42.28300
H  -14.61800 36.25800 43.41700
H  -6.53400 36.07500 40.91900
H  -6.89100 38.21400 38.92900
H  -5.95300 39.07900 41.51500
H  -5.15400 39.20600 39.99700
H  -4.82400 37.71600 40.88500
H  -7.60900 36.46100 38.25700
H  -8.31800 34.98900 38.95300
H  -6.43600 33.96400 38.05800
H  -5.56900 34.58600 39.43000
H  -9.03400 43.60500 38.75900
H  -7.74300 42.54600 39.20600
H  -8.24800 43.78800 40.34600
H  -12.72800 44.26300 42.24600
H  -13.66500 44.17600 40.66800
H  -12.88400 45.66500 41.18100
H  -15.62600 40.69800 42.43000
H  -15.36800 38.59600 44.41700
H  -16.19400 41.76600 44.23900
H  -14.63100 41.99200 44.62600
H  -15.32000 40.57000 45.38300
H  -15.99800 37.74200 41.62300
H  -17.03400 39.03600 42.05900
H  -18.23900 37.73900 43.29700
H  -16.92500 36.93300 44.20300
H  -17.37700 36.33500 42.63600
H  -13.58200 33.88300 44.57500
H  -13.30100 32.64700 43.34400
H  -14.46900 33.94800 43.04900
H  -8.74800 33.64200 40.73500
H  -5.70000 32.51000 43.69600
H  -4.74500 33.41500 42.50300
H  -5.01900 31.80200 42.15900

