158

Mg -2.14300 17.19200 27.55400
C  -2.22900 15.15000 30.26500
C  -2.60500 19.94800 29.52400
C  -2.41200 19.21800 24.71000
C  -2.12100 14.42900 25.41400
N  -2.40500 17.47400 29.63300
C  -2.29300 16.50300 30.60200
C  -2.36300 17.21000 32.00200
C  -2.72500 18.68900 31.73100
C  -2.57700 18.71000 30.22100
C  -3.86900 19.26400 32.46800
C  -0.91400 17.09100 32.78500
C  -0.58200 18.03000 34.02000
H  0.32400 17.52000 35.11300
N  -2.29700 19.33500 27.19700
C  -2.48100 20.26400 28.13500
C  -2.40400 21.60000 27.53200
C  -2.32800 21.38300 26.12300
C  -2.35600 19.95100 25.94500
C  -2.40200 22.88600 28.28600
C  -2.21800 22.49100 25.00000
O  -2.34200 22.20800 23.81300
C  -2.14900 23.99300 25.40600
N  -2.38400 16.82200 25.49900
C  -2.51700 17.79300 24.51200
C  -2.58800 17.20500 23.03400
C  -1.95400 15.81000 23.30900
C  -2.12300 15.66800 24.84800
C  -3.92800 17.23200 22.24800
C  -0.49500 15.76700 22.81100
C  0.59500 16.67200 23.33600
N  -2.14900 15.18500 27.74000
C  -2.17600 14.15700 26.81800
C  -2.35100 12.88100 27.47700
C  -2.32100 13.19000 28.85900
C  -2.19300 14.57500 28.92500
C  -2.40500 11.51000 26.79700
C  -2.31600 12.69400 30.19800
O  -2.39000 11.53500 30.56900
C  -2.23700 13.89600 31.11000
C  -1.13200 13.79600 32.09700
O  0.06700 14.04500 31.94300
O  -1.57500 13.32600 33.28000
C  -0.67200 13.27600 34.45400
H  -2.58900 20.86300 30.12000
H  -2.41600 19.83300 23.80700
H  -2.21500 13.57100 24.74400
H  -3.19700 16.84800 32.60200
H  -1.94200 19.39600 32.00300
H  -3.55800 20.09800 33.09800
H  -4.23100 18.50500 33.16100
H  -4.59000 19.61700 31.73100
H  -0.18500 17.32700 32.01000
H  -0.69100 16.07900 33.12300
H  -1.51100 18.33300 34.50300
H  -0.06900 18.93100 33.68100
H  -2.42600 22.74200 29.36600
H  -3.33800 23.32900 27.94600
H  -1.53100 23.50600 28.07200
H  -2.25000 24.57800 24.49200
H  -1.20100 24.17800 25.91000
H  -3.03900 24.31600 25.94600
H  -1.83700 17.72900 22.44400
H  -2.49000 15.00400 22.80900
H  -4.64900 17.91600 22.69600
H  -4.34200 16.22700 22.16000
H  -3.76000 17.73100 21.29400
H  -0.67300 15.93700 21.74900
H  -0.21800 14.74300 23.06000
H  1.19800 16.10200 24.04200
H  0.18400 17.56000 23.81500
H  1.26900 17.09800 22.59300
H  -1.54400 11.44200 26.13300
H  -3.33700 11.45500 26.23400
H  -2.52800 10.84100 27.64900
H  -3.11000 13.94600 31.76100
H  -0.42700 14.26100 34.85100
H  0.24900 12.83400 34.07400
H  -1.11100 12.65900 35.23800
Mg -0.25500 43.28800 24.61100
C  2.02800 42.98700 27.33600
C  -2.73300 42.34800 26.84200
C  -2.33900 43.30800 22.05700
C  2.54400 43.58300 22.42200
N  -0.33500 42.83500 26.87500
C  0.71900 42.82500 27.75000
C  0.28000 42.60300 29.19400
C  -1.27300 42.15100 29.00100
C  -1.49400 42.48300 27.51500
C  -1.66100 40.67400 29.33300
C  0.55400 43.91200 30.05400
C  1.05200 43.63700 31.44100
H  0.80100 42.25400 32.04000
N  -2.27300 43.07600 24.45300
C  -3.05700 42.65400 25.48000
C  -4.38500 42.61700 24.84200
C  -4.40700 42.83200 23.51400
C  -2.92400 43.06500 23.27700
C  -5.56600 42.19500 25.64500
C  -5.54200 42.90400 22.44700
O  -5.35900 43.20800 21.27100
C  -6.92800 42.63800 22.89600
N  0.04600 43.36900 22.55200
C  -0.96400 43.42400 21.68000
C  -0.54900 43.76100 20.19600
C  1.01000 43.91400 20.43000
C  1.21100 43.65700 21.90800
C  -1.05800 42.72700 19.15800
C  1.42100 45.31100 19.90200
C  0.97200 46.51400 20.67700
N  1.85600 43.22100 24.78600
C  2.85400 43.35900 23.80300
C  4.08900 43.38400 24.44400
C  3.85000 43.13000 25.80600
C  2.43800 42.98400 25.97500
C  5.39400 43.46000 23.84400
C  4.48400 42.95700 27.13200
O  5.68100 43.00800 27.46800
C  3.26800 42.97400 28.13700
C  3.49800 41.76300 28.93800
O  2.98800 40.64100 28.71900
O  4.28100 42.17600 30.00000
C  4.65500 41.07200 30.85200
H  -3.50300 42.03500 27.55000
H  -3.03000 43.29500 21.21200
H  3.40800 43.89400 21.83200
H  0.73100 41.66600 29.51900
H  -1.85300 42.93700 29.48300
H  -2.26200 40.70800 30.24200
H  -0.85600 39.99400 29.61300
H  -2.30300 40.24400 28.56500
H  -0.39000 44.45200 30.13500
H  1.17800 44.61000 29.49500
H  0.53500 44.37600 32.05200
H  2.12800 43.78200 31.34400
H  -6.12400 41.44000 25.09200
H  -6.21100 43.06200 25.78700
H  -5.23800 41.82600 26.61700
H  -7.16500 41.57500 22.94300
H  -7.50500 43.10600 22.09900
H  -7.23600 43.23000 23.75800
H  -0.95300 44.75400 20.00400
H  1.55300 43.15700 19.86400
H  -0.22100 42.15400 18.76000
H  -1.52300 43.24900 18.32100
H  -1.75100 41.98900 19.56300
H  1.01200 45.41100 18.89600
H  2.50900 45.33900 19.83800
H  1.85100 46.98700 21.11300
H  0.43400 46.22100 21.57800
H  0.46600 47.23800 20.03900
H  6.05800 43.37600 24.70400
H  5.55500 44.36400 23.25600
H  5.58200 42.70700 23.07800
H  3.30500 43.86800 28.75900
H  5.69200 41.24900 31.13600
H  4.65900 40.03900 30.50400
H  4.05700 41.03100 31.76300

