158

Mg 1.44900 -2.11900 44.10600
C  4.92500 -1.58000 43.92300
C  1.01000 0.66700 42.28300
C  -1.74800 -3.04000 43.88500
C  2.13400 -5.26800 45.72900
N  2.89400 -0.58700 43.26000
C  4.21600 -0.58500 43.22300
C  4.79200 0.58600 42.28200
C  3.44500 1.35900 41.99100
C  2.33800 0.43800 42.55100
C  3.42800 2.78500 42.47900
C  5.54100 0.06100 41.06800
C  7.03700 0.59500 41.03900
H  7.42800 1.49600 39.91000
N  -0.10400 -1.24500 43.30200
C  -0.10700 -0.06700 42.63700
C  -1.45100 0.24700 42.33200
C  -2.31400 -0.86900 42.57900
C  -1.42300 -1.81400 43.23600
C  -1.94900 1.47200 41.70000
C  -3.76600 -0.99200 42.34700
O  -4.43300 0.02900 42.13400
C  -4.40800 -2.35800 42.40100
N  0.33200 -3.88000 44.78300
C  -1.01300 -4.00400 44.60300
C  -1.57200 -5.35000 45.02600
C  -0.33600 -5.91400 45.86200
C  0.80300 -5.02100 45.39700
C  -2.95000 -5.25300 45.73900
C  -0.10000 -7.44500 45.75000
C  0.49100 -8.19700 47.03400
N  3.13900 -3.25700 44.67600
C  3.21800 -4.47700 45.41700
C  4.59400 -4.80800 45.53600
C  5.30800 -3.67000 45.03500
C  4.38700 -2.73300 44.54200
C  5.03700 -6.10100 46.18500
C  6.66500 -3.08700 44.88200
O  7.71300 -3.43300 45.31200
C  6.43100 -1.73800 44.10200
C  6.80000 -0.52400 44.91200
O  6.20200 -0.02300 45.83700
O  7.91300 0.06600 44.33400
C  8.13600 1.41100 44.71500
H  0.95600 1.57500 41.68000
H  -2.80100 -3.32400 43.93600
H  2.30600 -6.25100 46.17100
H  5.36600 1.31700 42.85000
H  3.27800 1.38700 40.91400
H  2.68400 2.80500 43.27500
H  3.27400 3.49600 41.66700
H  4.37000 3.06200 42.95200
H  5.06900 0.44900 40.16500
H  5.50300 -1.02300 40.96500
H  7.66000 -0.29800 40.97500
H  7.25000 1.07600 41.99400
H  -2.59400 1.25900 40.84800
H  -1.09800 2.12400 41.50300
H  -2.53700 2.01500 42.44000
H  -5.22100 -2.38100 41.67600
H  -4.93500 -2.51200 43.34200
H  -3.75200 -3.12200 41.98500
H  -1.74000 -5.93200 44.11900
H  -0.28900 -5.66400 46.92200
H  -2.76200 -5.86700 46.62000
H  -3.78500 -5.69100 45.19300
H  -3.14100 -4.18900 45.88400
H  0.61200 -7.76200 44.98900
H  -1.05400 -7.91900 45.51900
H  1.43200 -8.72500 46.88100
H  -0.19800 -8.85000 47.57000
H  0.71800 -7.42500 47.76900
H  4.61800 -6.98500 45.70600
H  4.63600 -6.11800 47.19900
H  6.12700 -6.08800 46.18000
H  6.99200 -1.93900 43.19000
H  8.82500 1.82400 43.97900
H  8.57400 1.70800 45.66800
H  7.21700 1.96600 44.52600
Mg 30.18800 58.33700 39.93700
C  27.10600 56.87600 38.95400
C  31.73100 55.52300 38.93900
C  33.12100 59.97100 40.29900
C  28.54500 61.22900 40.71100
N  29.42100 56.30800 39.22800
C  28.17000 55.93000 38.86300
C  28.17200 54.55400 38.11900
C  29.62200 54.05200 38.44700
C  30.33300 55.35800 38.89900
C  29.83900 53.03000 39.63700
C  27.80600 54.50000 36.57100
C  28.69600 55.40900 35.63600
H  27.86400 56.32900 34.78800
N  32.15300 57.86400 39.57000
C  32.56300 56.61100 39.26400
C  33.98400 56.66400 39.16400
C  34.49100 57.92100 39.54300
C  33.24000 58.61600 39.86800
C  34.73100 55.38000 38.72800
C  35.91100 58.38600 39.44100
O  36.72500 57.52200 39.01800
C  36.34700 59.78500 39.69100
N  30.76900 60.38300 40.25900
C  32.06000 60.74200 40.57000
C  32.10900 62.20800 40.75000
C  30.66300 62.59300 41.08600
C  29.89800 61.30800 40.69100
C  33.10300 62.77400 41.81800
C  30.01400 63.84100 40.43800
C  29.42700 64.83400 41.48700
N  28.25500 58.93900 39.95900
C  27.70800 60.19400 40.28300
C  26.28700 60.17000 40.08600
C  25.98400 58.85900 39.56500
C  27.22800 58.14800 39.47600
C  25.29000 61.23400 40.39900
C  24.88600 57.98100 39.15500
O  23.69700 58.07300 39.17500
C  25.67400 56.73700 38.64000
C  24.99800 55.59800 39.30700
O  24.93000 55.37600 40.49200
O  24.63700 54.79600 38.31000
C  23.95900 53.51000 38.74900
H  32.26300 54.64300 38.57100
H  34.08900 60.47400 40.35800
H  27.92300 62.05100 41.07400
H  27.45300 53.93300 38.65300
H  30.14100 53.70400 37.55300
H  28.93000 53.15700 40.22500
H  30.72000 53.23200 40.24700
H  29.92000 51.99900 39.29100
H  26.74000 54.72600 36.55400
H  27.85000 53.45600 36.26000
H  29.20300 54.74300 34.93700
H  29.40600 56.00700 36.20800
H  34.75800 55.29500 37.64200
H  34.21300 54.46400 39.01500
H  35.75700 55.34800 39.09500
H  35.75600 60.36700 38.98300
H  37.39900 59.94300 39.45700
H  36.32400 60.09800 40.73400
H  32.25300 62.64000 39.76000
H  30.70700 62.51600 42.17300
H  33.87000 62.10800 42.21400
H  32.57800 63.11600 42.71000
H  33.64700 63.55900 41.29300
H  29.18100 63.55900 39.79300
H  30.66000 64.49800 39.85600
H  28.54000 65.34100 41.10800
H  30.18800 65.61200 41.54100
H  29.25300 64.34800 42.44700
H  25.60100 61.62000 41.37000
H  24.25600 60.88800 40.39300
H  25.39400 62.02400 39.65400
H  25.45800 56.62500 37.57800
H  24.07200 52.71600 38.01100
H  22.90100 53.76700 38.79300
H  24.34700 53.05500 39.66000

