158

Mg 15.94700 -1.27100 27.49400
C  14.80800 0.58100 30.40700
C  18.08500 -3.02000 29.46200
C  17.15700 -2.61500 24.71100
C  13.91700 1.00400 25.55400
N  16.50200 -1.15400 29.70900
C  15.80900 -0.39500 30.62200
C  16.24400 -0.87700 32.04200
C  17.36000 -1.94700 31.74600
C  17.37900 -2.00200 30.21300
C  18.74000 -1.70300 32.40900
C  15.12400 -1.39900 32.82000
C  15.24700 -1.20100 34.36500
H  16.40600 -0.52800 35.01100
N  17.42100 -2.57700 27.15100
C  18.15800 -3.18500 28.10900
C  18.99500 -4.24000 27.42900
C  18.69300 -4.20900 25.99200
C  17.76700 -3.07200 25.89500
C  19.85400 -5.09800 28.17000
C  19.14800 -5.17100 24.90300
O  18.80600 -4.95700 23.73000
C  19.99700 -6.35200 25.25700
N  15.57000 -0.92500 25.46000
C  16.17800 -1.65300 24.47000
C  15.54800 -1.35300 23.07500
C  14.68600 -0.09300 23.34500
C  14.68100 -0.00000 24.91100
C  16.51300 -1.28000 21.83900
C  13.28200 -0.10200 22.71700
C  13.26600 -0.15100 21.21400
N  14.60500 0.44100 27.85700
C  13.92700 1.26900 26.99700
C  13.17700 2.25700 27.72200
C  13.43400 2.02700 29.08700
C  14.27700 0.94900 29.11500
C  12.46700 3.31500 27.03400
C  13.24900 2.49400 30.46200
O  12.62500 3.49500 30.91600
C  14.13700 1.47400 31.36600
C  15.07800 2.28800 32.28000
O  16.24100 2.58800 32.05900
O  14.36600 2.63600 33.41800
C  14.94500 3.64500 34.36500
H  18.61800 -3.68000 30.15000
H  17.39800 -3.12000 23.77300
H  13.32300 1.64100 24.89600
H  16.61000 -0.00800 32.58800
H  17.04100 -2.84600 32.27400
H  19.08700 -2.51200 33.05200
H  18.54200 -0.85600 33.06500
H  19.45400 -1.33000 31.67400
H  14.88200 -2.38300 32.41800
H  14.19200 -0.85600 32.66200
H  15.14900 -2.17700 34.84100
H  14.37000 -0.63800 34.68300
H  20.67600 -5.63300 27.69400
H  19.32900 -5.93000 28.63900
H  20.28500 -4.54500 29.00500
H  21.04500 -6.08300 25.39400
H  19.95000 -6.99900 24.38100
H  19.58100 -6.90800 26.09700
H  14.84100 -2.16500 22.90700
H  15.19300 0.81500 23.01900
H  17.44900 -1.79400 22.05800
H  16.70700 -0.37800 21.25800
H  15.98500 -1.92000 21.13200
H  12.71600 0.78700 22.99700
H  12.79700 -1.00000 23.09800
H  12.81000 0.70000 20.70800
H  12.74200 -1.05200 20.89700
H  14.27100 -0.21800 20.79700
H  13.12700 3.75200 26.28600
H  12.40400 4.05000 27.83600
H  11.47900 3.03200 26.67100
H  13.31700 0.95500 31.86300
H  14.52100 3.49500 35.35700
H  14.70500 4.66400 34.05900
H  16.00800 3.42600 34.46300
Mg 43.40200 42.58200 26.26800
C  42.19200 44.62300 28.83500
C  44.89300 40.66100 28.60400
C  44.30500 40.56400 23.68400
C  42.21500 45.00200 23.98200
N  43.66800 42.81100 28.46200
C  42.88800 43.53100 29.24300
C  43.05000 43.09200 30.78700
C  43.82800 41.73700 30.70100
C  44.23300 41.78200 29.15300
C  45.10100 41.59700 31.61100
C  41.64800 42.92700 31.51400
C  41.53500 41.85900 32.67800
H  40.74800 42.21600 33.93300
N  44.52500 40.88200 26.12500
C  45.10400 40.27700 27.24200
C  45.90400 39.14100 26.76000
C  45.58800 38.95100 25.33700
C  44.75400 40.16700 24.98300
C  46.78900 38.27100 27.75300
C  46.08900 37.88000 24.38000
O  45.88600 38.03100 23.17300
C  46.97200 36.79100 24.84200
N  43.43900 42.85600 24.03500
C  43.70300 41.74700 23.25400
C  43.38500 42.10500 21.81900
C  42.66300 43.50600 21.93300
C  42.62400 43.79400 23.42900
C  44.58400 42.16000 20.85400
C  41.20600 43.62100 21.24100
C  40.00700 43.05000 22.00400
N  42.51900 44.46400 26.33100
C  42.05900 45.31900 25.36000
C  41.47500 46.49700 25.92900
C  41.40900 46.20200 27.28100
C  42.07900 44.99400 27.44900
C  41.00400 47.66900 25.19900
C  40.92500 46.76400 28.54400
O  40.25800 47.78800 28.74100
C  41.40400 45.74800 29.64100
C  42.10300 46.49500 30.66100
O  43.27000 46.85200 30.54100
O  41.37600 46.67200 31.86700
C  42.11000 47.33600 32.91100
H  45.34500 39.97000 29.31900
H  44.75700 39.87200 22.97100
H  41.76400 45.69800 23.27100
H  43.72500 43.85800 31.16900
H  43.24100 40.82400 30.80800
H  45.15600 42.28600 32.45300
H  45.98500 41.75100 30.99200
H  45.12300 40.62300 32.10100
H  40.80600 42.74900 30.84500
H  41.58800 43.87700 32.04400
H  42.58300 41.77300 32.96400
H  41.22300 40.88300 32.30400
H  46.26900 37.34400 27.99400
H  46.90000 38.84600 28.67200
H  47.75500 38.09600 27.27800
H  46.58200 36.15000 25.63300
H  47.91800 37.25800 25.11500
H  47.02200 36.18900 23.93500
H  42.69500 41.41300 21.33700
H  43.22900 44.34800 21.53500
H  44.82800 43.14200 20.44800
H  44.58200 41.48300 20.00000
H  45.49200 42.01400 21.44000
H  41.25600 43.19600 20.23800
H  40.89600 44.65300 21.07300
H  39.49200 42.21900 21.52000
H  39.29800 43.84100 22.24800
H  40.40100 42.59300 22.91100
H  40.10500 47.40900 24.64000
H  41.76000 47.99400 24.48400
H  40.81300 48.50900 25.86600
H  40.53600 45.29400 30.11900
H  42.80500 46.62000 33.35000
H  41.41000 47.80000 33.60500
H  42.74700 48.14200 32.54800

