158

Mg 36.29300 0.47700 30.03500
C  33.82900 1.71300 32.28800
C  38.45600 0.43100 32.57900
C  38.53400 -0.20500 27.69500
C  33.74900 0.64500 27.39600
N  36.20900 1.16900 32.18000
C  35.09100 1.57400 32.90200
C  35.36600 1.71700 34.37300
C  36.90500 1.62800 34.32000
C  37.25900 1.04700 32.95700
C  37.57600 2.94100 34.76200
C  34.74600 0.73100 35.38900
C  34.23400 1.24700 36.68900
H  34.83000 2.44700 37.26400
N  38.21400 0.11300 30.09100
C  38.95300 0.08400 31.29700
C  40.29900 -0.31400 30.96400
C  40.34200 -0.56900 29.54900
C  39.00500 -0.24400 29.05600
C  41.34700 -0.39600 31.99400
C  41.47700 -1.16700 28.75000
O  41.45000 -1.35000 27.52400
C  42.78800 -1.54000 29.37800
N  36.12900 0.32000 27.89700
C  37.24800 0.04600 27.10200
C  36.90000 -0.32500 25.64900
C  35.37300 0.07000 25.59600
C  35.07700 0.38700 27.03200
C  37.73500 0.39400 24.55400
C  34.34800 -0.90800 24.87700
C  33.44700 -1.95200 25.58600
N  34.27900 1.20500 29.75800
C  33.35200 1.12200 28.69200
C  32.10200 1.50900 29.12400
C  32.22900 1.83000 30.45400
C  33.58100 1.58400 30.83900
C  30.87100 1.62400 28.28800
C  31.47100 2.11800 31.70200
O  30.27600 2.35300 31.95100
C  32.52000 2.09900 32.85100
C  32.57900 3.41200 33.45700
O  33.09200 4.40500 32.91500
O  31.99900 3.34400 34.72700
C  31.91300 4.64100 35.36100
H  39.13100 0.39200 33.43600
H  39.32100 -0.49400 26.99400
H  33.04600 0.72700 26.56400
H  34.98400 2.71500 34.58600
H  37.17000 0.89700 35.08300
H  38.34200 3.18600 34.02600
H  38.16900 2.84500 35.67200
H  36.94600 3.83100 34.75500
H  35.34100 -0.14700 35.64200
H  33.83900 0.38400 34.89400
H  34.15200 0.41400 37.38800
H  33.21200 1.51600 36.42200
H  41.81800 -1.37700 31.92100
H  40.95800 -0.32700 33.01000
H  41.97400 0.44400 31.69600
H  43.52500 -1.86500 28.64300
H  42.63400 -2.33500 30.10700
H  43.25600 -0.73400 29.94200
H  36.80400 -1.41000 25.62300
H  35.22200 0.99000 25.03100
H  38.47100 -0.28300 24.12000
H  38.20500 1.28800 24.96400
H  37.08900 0.76000 23.75500
H  34.94700 -1.53300 24.21600
H  33.62900 -0.27900 24.35100
H  32.46000 -1.99700 25.12700
H  33.46300 -1.89600 26.67400
H  33.97000 -2.87300 25.32700
H  30.01800 1.39600 28.92700
H  30.90600 0.98300 27.40700
H  30.87100 2.61500 27.83500
H  32.31300 1.30500 33.56800
H  31.06900 5.28200 35.10800
H  32.86000 5.15600 35.19600
H  32.02900 4.52900 36.43900
Mg -12.37400 38.19000 42.01100
C  -10.09000 35.73200 40.98700
C  -10.32800 40.53900 40.53100
C  -14.78400 40.47500 42.35100
C  -14.41300 35.66200 43.07200
N  -10.56900 38.08800 40.71400
C  -9.69700 37.01100 40.62400
C  -8.34300 37.43800 39.93100
C  -8.31800 38.92800 40.08700
C  -9.81700 39.22200 40.47700
C  -7.38300 39.59400 41.08200
C  -8.26700 36.96100 38.38200
C  -6.88900 36.33600 37.97400
H  -5.99600 36.99100 36.93600
N  -12.56800 40.21100 41.52900
C  -11.62000 41.03500 40.94800
C  -12.09300 42.37400 40.80800
C  -13.39900 42.36800 41.36400
C  -13.65100 40.95800 41.72300
C  -11.25700 43.48500 40.12600
C  -14.24300 43.52800 41.58400
O  -13.77800 44.61100 41.24700
C  -15.57100 43.58700 42.34600
N  -14.33300 38.12900 42.57500
C  -15.06800 39.21600 42.80500
C  -16.47900 38.85200 43.37900
C  -16.27500 37.36400 43.68000
C  -14.97800 36.92800 43.02300
C  -16.97900 39.67700 44.61100
C  -17.46800 36.55300 43.17200
C  -17.75400 35.21600 43.97400
N  -12.32100 36.04000 42.17800
C  -13.23900 35.15300 42.60500
C  -12.79300 33.77700 42.45500
C  -11.56600 33.94700 41.81500
C  -11.33400 35.35800 41.63500
C  -13.45400 32.54700 42.90500
C  -10.37700 33.34300 41.29700
O  -10.11700 32.12100 41.21600
C  -9.34600 34.49300 40.84200
C  -8.31400 34.33900 41.89900
O  -8.45500 34.48200 43.10900
O  -7.00900 34.11200 41.38200
C  -5.90700 34.12500 42.32800
H  -9.64400 41.31000 40.17200
H  -15.59900 41.15500 42.60700
H  -15.05000 34.94500 43.59400
H  -7.54200 37.05800 40.56400
H  -8.25900 39.38700 39.10000
H  -6.56000 38.89900 41.24400
H  -7.81000 39.84700 42.05300
H  -7.02700 40.49800 40.58700
H  -8.48900 37.78800 37.70700
H  -8.95800 36.12900 38.24300
H  -7.10900 35.39400 37.47000
H  -6.24100 36.11000 38.82000
H  -11.58200 43.44100 39.08600
H  -10.16900 43.50100 40.19300
H  -11.36400 44.41800 40.68000
H  -16.42000 43.07500 41.89400
H  -15.85600 44.63700 42.41600
H  -15.42300 43.07300 43.29600
H  -17.11400 39.00200 42.50500
H  -16.15600 37.16300 44.74500
H  -17.76800 40.33900 44.25600
H  -16.21200 40.31000 45.05600
H  -17.43300 39.02200 45.35500
H  -17.27000 36.16000 42.17400
H  -18.36400 37.13200 42.94800
H  -18.80200 35.42500 44.18600
H  -17.16300 35.04000 44.87200
H  -17.64300 34.36300 43.30400
H  -13.10300 31.66500 42.36800
H  -14.54000 32.56800 42.82100
H  -13.40800 32.54000 43.99400
H  -9.04200 34.28300 39.81700
H  -5.68200 35.15200 42.61600
H  -5.23300 33.61300 41.64200
H  -5.98400 33.45900 43.18700

