158

Mg 46.98300 45.71100 43.83200
C  43.60300 44.74700 43.48000
C  47.82700 42.45300 42.57100
C  50.07600 46.62000 43.25800
C  45.86200 48.99600 44.07000
N  45.87500 43.91700 43.10000
C  44.49700 43.73900 43.20200
C  44.07500 42.26800 42.95500
C  45.46400 41.57800 42.75500
C  46.46300 42.73500 42.75500
C  45.69800 40.43200 43.81400
C  42.98600 41.92200 41.78700
C  43.20700 42.54700 40.39600
H  43.02600 41.64400 39.17100
N  48.76200 44.61300 43.20000
C  48.88900 43.34600 42.81400
C  50.26800 43.01300 42.57800
C  51.00200 44.22200 42.70000
C  49.95800 45.20500 43.06600
C  50.78900 41.63500 42.25400
C  52.49500 44.41900 42.44500
O  53.19400 43.45000 42.14900
C  53.10300 45.81300 42.62100
N  47.78500 47.50300 43.57100
C  49.12300 47.62600 43.45100
C  49.53600 49.11200 43.50100
C  48.08700 49.81200 43.46500
C  47.18800 48.73400 43.78600
C  50.28800 49.48800 44.79800
C  47.72600 50.41700 42.04000
C  48.01500 51.97500 41.90500
N  45.12200 46.74300 43.95600
C  44.81600 48.07600 44.06400
C  43.35300 48.22600 44.14700
C  42.86300 46.92900 44.00600
C  43.92200 46.10100 43.78600
C  42.48700 49.48300 44.14700
C  41.62100 46.17000 43.92000
O  40.44000 46.57200 43.85700
C  42.02600 44.70900 43.48200
C  41.49100 43.74200 44.51800
O  40.75300 42.74400 44.38400
O  41.88600 44.15400 45.72600
C  41.29800 43.47700 46.87200
H  48.00500 41.42400 42.25200
H  51.11300 46.93500 43.38900
H  45.49300 50.02300 44.10500
H  43.72400 41.83800 43.89300
H  45.41400 41.17600 41.74300
H  46.74400 40.36200 44.11000
H  45.54500 39.49100 43.28600
H  45.17500 40.46400 44.77000
H  41.98500 42.07200 42.19000
H  43.03400 40.83400 41.74600
H  44.23100 42.91800 40.43200
H  42.54200 43.40900 40.34700
H  51.45700 41.69400 41.39500
H  49.93200 40.98500 42.07700
H  51.31600 41.19800 43.10100
H  53.16600 46.08700 43.67400
H  52.57500 46.54400 42.01000
H  54.15200 45.71200 42.34000
H  50.12000 49.49700 42.66500
H  48.08900 50.61900 44.19700
H  50.71600 48.59900 45.26000
H  49.75000 50.09300 45.52700
H  51.12000 50.11200 44.47300
H  46.63700 50.36900 42.02700
H  48.21300 49.95600 41.18100
H  47.16200 52.64800 41.82000
H  48.66300 52.01800 41.03000
H  48.74300 52.25000 42.66900
H  42.18300 49.73100 43.13000
H  43.07400 50.29800 44.57100
H  41.65600 49.33200 44.83600
H  41.57500 44.56600 42.50000
H  41.57400 42.44200 46.66900
H  40.21000 43.41900 46.86100
H  41.58000 43.89800 47.83700
Mg -9.46400 18.75600 42.50800
C  -6.10500 17.71600 42.49100
C  -8.41300 21.96300 41.72400
C  -12.62800 19.46500 41.91500
C  -10.29900 15.35500 43.05000
N  -7.40700 19.69700 41.76800
C  -6.21200 19.07800 42.11900
C  -5.07100 20.07300 42.13500
C  -5.83200 21.45900 42.20000
C  -7.30700 21.07300 41.91900
C  -5.75100 22.20800 43.57500
C  -3.85000 19.94400 41.18200
C  -4.12300 19.14800 39.84200
H  -3.65200 19.78800 38.54400
N  -10.43300 20.62000 41.97200
C  -9.81000 21.75900 41.70100
C  -10.84600 22.70400 41.45400
C  -12.10000 22.13700 41.68600
C  -11.80200 20.66000 41.87100
C  -10.61800 24.07600 41.00400
C  -13.42500 22.76400 41.59700
O  -13.38000 23.99800 41.48700
C  -14.78000 22.06600 41.84700
N  -11.22400 17.50900 42.45100
C  -12.35500 18.08800 42.14400
C  -13.52300 17.10600 42.29800
C  -12.81800 15.76200 42.61300
C  -11.37500 16.22400 42.70300
C  -14.66100 17.55000 43.25400
C  -12.99700 14.58000 41.57900
C  -14.41800 13.96500 41.33700
N  -8.47700 16.89700 42.73600
C  -8.94600 15.63500 43.03400
C  -7.87100 14.73300 43.27200
C  -6.69300 15.52800 43.10000
C  -7.15900 16.80400 42.72900
C  -7.93000 13.24700 43.58500
C  -5.26100 15.56200 43.22100
O  -4.57400 14.61300 43.49700
C  -4.80900 16.93200 42.82100
C  -3.87500 17.50100 43.87100
O  -2.72000 17.82300 43.58800
O  -4.43800 17.42900 45.11400
C  -3.68500 17.86600 46.26200
H  -8.03100 22.98000 41.61900
H  -13.70000 19.59700 41.75300
H  -10.60100 14.32200 43.23500
H  -4.62700 20.00100 43.12800
H  -5.45000 22.07300 41.38400
H  -4.76600 22.67100 43.62800
H  -5.95200 21.52400 44.40000
H  -6.50700 22.99000 43.64000
H  -3.00600 19.47900 41.69200
H  -3.63900 20.95400 40.83100
H  -5.20500 19.02000 39.87400
H  -3.68200 18.16200 39.99200
H  -11.13800 24.38000 40.09600
H  -9.55600 24.31100 40.94000
H  -11.00700 24.74200 41.77400
H  -14.60100 21.39400 42.68600
H  -14.93200 21.49600 40.93100
H  -15.54700 22.83000 41.97700
H  -13.91100 17.05000 41.28000
H  -13.15200 15.46800 43.60800
H  -14.62000 17.03200 44.21200
H  -15.61500 17.14800 42.91400
H  -14.55600 18.61600 43.45600
H  -12.25800 13.79000 41.70800
H  -12.67700 15.10200 40.67700
H  -15.31900 14.28100 41.86200
H  -14.27400 12.93700 41.66900
H  -14.68500 13.94500 40.28000
H  -6.93600 12.83200 43.75300
H  -8.52400 12.72100 42.83800
H  -8.55500 13.20600 44.47700
H  -4.28900 16.89200 41.86400
H  -4.42800 18.28300 46.94200
H  -2.92000 18.63600 46.16000
H  -3.11800 17.10400 46.79700

