158

Mg 40.21100 8.13800 28.80900
C  42.08800 9.35100 31.64700
C  38.33400 6.30100 31.15600
C  38.62400 6.65600 26.25800
C  42.41900 9.56400 26.72000
N  40.24600 7.81200 31.17200
C  40.97600 8.58000 32.03100
C  40.48900 8.35800 33.51000
C  39.35200 7.27900 33.30800
C  39.24200 7.11400 31.78500
C  39.60600 5.88100 33.98900
C  40.01600 9.66000 34.25100
C  39.60600 9.51900 35.72000
H  40.40200 10.42100 36.64500
N  38.61800 6.73600 28.71000
C  38.00800 6.09000 29.81000
C  37.02300 5.18700 29.24900
C  37.04800 5.25500 27.78400
C  38.11600 6.25600 27.50600
C  36.12000 4.40400 30.03100
C  36.17400 4.61200 26.70900
O  36.38100 4.84400 25.54200
C  35.17300 3.56900 27.06800
N  40.42000 8.17200 26.76600
C  39.71900 7.48500 25.88900
C  40.04500 7.87000 24.45100
C  41.21800 8.91800 24.66800
C  41.35200 8.91700 26.12000
C  40.42200 6.78800 23.47000
C  40.98600 10.30600 24.06600
C  40.20900 11.46500 24.86600
N  41.96400 9.14600 29.10600
C  42.78800 9.75900 28.12200
C  43.84200 10.45600 28.78400
C  43.52900 10.39600 30.15500
C  42.41000 9.56500 30.30000
C  45.05500 11.12300 28.17900
C  44.06600 10.81900 31.41600
O  45.08200 11.44600 31.66000
C  43.13800 10.12100 32.46600
C  43.94400 9.19300 33.39000
O  44.70300 8.32300 33.03800
O  43.59000 9.41100 34.68600
C  44.44500 8.69200 35.60200
H  37.59000 5.93900 31.86900
H  38.14200 6.28900 25.34900
H  43.08700 10.05900 26.01200
H  41.32100 7.98700 34.10900
H  38.35500 7.62100 33.58700
H  39.68400 5.12300 33.21000
H  38.70500 5.64200 34.55400
H  40.47200 5.79300 34.64600
H  39.11400 9.98200 33.73100
H  40.78500 10.41000 34.06600
H  39.82500 8.51800 36.09100
H  38.53300 9.69600 35.80300
H  36.10900 4.44700 31.12000
H  36.32600 3.35600 29.81200
H  35.10200 4.63900 29.72100
H  34.19700 3.86300 27.45400
H  35.57100 2.89000 27.82200
H  35.13200 3.04000 26.11600
H  39.19700 8.41900 24.04100
H  42.11600 8.50800 24.20600
H  41.03200 7.28700 22.71600
H  39.59400 6.23900 23.02100
H  41.05700 6.05600 23.96800
H  40.47900 10.19200 23.10700
H  41.98500 10.65600 23.80700
H  39.51700 11.91000 24.15200
H  40.84100 12.24000 25.30000
H  39.52500 11.07900 25.62200
H  44.83100 11.43700 27.15900
H  45.90900 10.45000 28.25300
H  45.16900 12.01200 28.79900
H  42.76100 10.94000 33.07700
H  43.94900 8.75400 36.57100
H  45.48500 9.01300 35.64500
H  44.44100 7.62100 35.40300
Mg 46.57800 24.59000 28.50500
C  47.49000 27.04300 30.89400
C  45.68800 22.45800 31.34700
C  45.92700 22.05400 26.41700
C  48.22000 26.36300 26.11200
N  46.59900 24.72000 30.85400
C  46.86300 25.88200 31.50000
C  46.53500 25.83400 32.99800
C  46.36300 24.26200 33.21600
C  46.19100 23.71700 31.70600
C  47.45000 23.57000 33.97100
C  45.33700 26.68500 33.37800
C  45.42200 27.42100 34.80000
H  46.46800 27.11100 35.84400
N  45.71600 22.69500 28.76000
C  45.53600 21.96000 29.96900
C  45.05800 20.63500 29.70200
C  44.91300 20.48400 28.23400
C  45.54700 21.75000 27.76100
C  44.77000 19.64800 30.76200
C  44.35800 19.37100 27.39600
O  44.37600 19.41500 26.16600
C  43.77700 18.12600 28.11400
N  46.89300 24.26500 26.48000
C  46.67200 23.15000 25.88500
C  47.19100 23.18000 24.47000
C  47.79100 24.63800 24.31300
C  47.63100 25.14300 25.75100
C  48.40400 22.21600 24.12200
C  47.27400 25.49200 23.08500
C  46.23500 26.57700 23.44200
N  47.50300 26.39800 28.44100
C  48.18000 27.00800 27.37800
C  48.64900 28.27900 27.85600
C  48.40500 28.29400 29.22200
C  47.74100 27.12200 29.51900
C  49.22700 29.33800 27.03300
C  48.46600 29.14800 30.41800
O  48.79300 30.33600 30.54200
C  47.89500 28.35500 31.59700
C  48.94200 28.13700 32.64500
O  49.78200 27.26800 32.65700
O  48.91700 29.20500 33.56500
C  49.98200 29.24200 34.55600
H  45.29400 21.96700 32.23900
H  45.75000 21.28000 25.66700
H  48.77100 26.89600 25.33400
H  47.41200 26.24700 33.49600
H  45.51700 24.02200 33.86000
H  48.09500 24.33600 34.40000
H  48.07900 22.91600 33.36800
H  47.11900 22.93100 34.79000
H  44.32600 26.32000 33.19600
H  45.44900 27.48100 32.64100
H  44.47400 27.32100 35.32800
H  45.75600 28.40800 34.47900
H  43.90800 19.05800 30.45300
H  44.71000 20.11300 31.74600
H  45.71100 19.10800 30.66100
H  44.60200 17.62000 28.61600
H  43.38300 17.46200 27.34500
H  42.99100 18.51700 28.76000
H  46.26900 23.01400 23.91200
H  48.86400 24.62300 24.12300
H  49.24700 22.45700 24.77000
H  48.79100 22.47400 23.13600
H  48.11400 21.16500 24.12500
H  46.83600 24.68400 22.49900
H  48.15500 25.72200 22.48600
H  45.76000 26.35400 24.39700
H  45.47900 26.49100 22.66100
H  46.81000 27.50100 23.37500
H  48.52200 29.76900 26.32200
H  49.90000 28.86800 26.31500
H  49.63300 30.13500 27.65600
H  47.05500 28.94200 31.96900
H  49.87800 30.20800 35.05100
H  50.98000 29.16300 34.12400
H  49.86500 28.47700 35.32300

