158

Mg 23.65200 -5.08200 44.78900
C  25.89400 -2.68300 43.50600
C  21.29200 -3.72500 42.72600
C  21.77500 -7.81700 45.36600
C  26.32200 -6.53300 46.56000
N  23.68400 -3.47900 43.21400
C  24.61500 -2.53700 43.00600
C  24.17300 -1.43400 42.07900
C  22.58100 -1.66000 41.99800
C  22.50900 -3.05800 42.61900
C  21.74100 -0.71400 42.86700
C  24.99900 -1.38800 40.78900
C  24.89400 0.01200 40.10000
H  24.17800 0.03900 38.72800
N  21.78100 -5.70000 44.11600
C  20.96300 -4.94300 43.30700
C  19.73800 -5.62900 43.15700
C  19.77300 -6.87700 43.87400
C  21.15000 -6.86900 44.50400
C  18.55000 -4.98500 42.39300
C  18.71000 -7.96400 44.02000
O  17.54800 -7.67500 43.64700
C  18.94000 -9.40600 44.53900
N  24.05000 -7.00600 45.74000
C  23.05600 -7.97600 45.88900
C  23.50400 -9.06000 46.85400
C  24.94700 -8.62100 47.33600
C  25.12800 -7.33300 46.52700
C  22.63700 -9.39100 48.00700
C  26.11200 -9.69300 47.04100
C  26.13300 -10.83400 47.99600
N  25.67400 -4.70300 45.10600
C  26.64400 -5.34400 45.88800
C  27.89800 -4.69900 45.73000
C  27.68300 -3.65600 44.83700
C  26.36900 -3.71600 44.37900
C  29.14500 -4.94500 46.47400
C  28.25600 -2.52200 44.18100
O  29.42600 -2.10400 44.18000
C  27.18100 -1.84100 43.22700
C  26.94600 -0.44100 43.53500
O  26.47700 -0.09900 44.61100
O  27.28700 0.38800 42.52800
C  27.05600 1.83800 42.78300
H  20.44400 -3.26900 42.21100
H  21.06900 -8.52900 45.79900
H  27.13200 -6.96100 47.15500
H  24.27500 -0.47100 42.58000
H  22.22100 -1.49700 40.98300
H  20.67200 -0.87900 42.72700
H  21.86900 0.32200 42.55200
H  21.98400 -0.82800 43.92300
H  24.57800 -2.10200 40.08100
H  26.02300 -1.74200 40.90700
H  25.92700 0.27500 39.87100
H  24.42100 0.73700 40.76100
H  17.61600 -5.29600 42.86000
H  18.47600 -5.27200 41.34400
H  18.46800 -3.89800 42.39400
H  17.99900 -9.90700 44.31300
H  19.20400 -9.58300 45.58200
H  19.81000 -9.80700 44.02000
H  23.46600 -10.00300 46.30900
H  24.91300 -8.40000 48.40300
H  22.45800 -8.57600 48.70800
H  23.11900 -10.18300 48.58000
H  21.62600 -9.58200 47.64400
H  27.02500 -9.11400 46.89700
H  25.85100 -10.17400 46.09900
H  26.12400 -11.74400 47.39600
H  25.25800 -10.82900 48.64500
H  26.99800 -10.75400 48.65500
H  29.46300 -5.98700 46.44300
H  28.84200 -4.74300 47.50100
H  29.85900 -4.15800 46.23100
H  27.60700 -1.90100 42.22500
H  27.83600 2.24600 43.42500
H  26.01400 1.99200 43.06500
H  27.10500 2.33300 41.81300
Mg 28.90900 56.89000 40.36900
C  26.99700 54.03200 39.67200
C  31.68000 54.97800 39.75000
C  30.65000 59.63500 40.70900
C  25.91400 58.61900 40.95700
N  29.21000 54.81600 39.48900
C  28.29500 53.82500 39.38900
C  28.96400 52.50400 38.96100
C  30.35700 52.81000 39.33000
C  30.43800 54.32800 39.51100
C  30.80700 52.17300 40.66400
C  28.80600 52.11500 37.52700
C  29.29800 53.18500 36.49200
H  28.25800 53.69000 35.42800
N  30.95300 57.22400 40.27900
C  31.91600 56.31800 40.15100
C  33.24800 56.97300 40.34100
C  32.97100 58.37100 40.61000
C  31.49800 58.47400 40.58300
C  34.51400 56.22000 40.07100
C  34.01000 59.43300 40.93600
O  35.22400 59.14300 40.73000
C  33.62300 60.71900 41.49700
N  28.35500 58.85500 40.42700
C  29.28600 59.81400 40.82300
C  28.68000 61.18900 40.75700
C  27.16400 60.85900 40.94700
C  27.13000 59.28600 40.83600
C  29.35100 62.38000 41.61000
C  26.24900 61.61300 40.00500
C  25.89400 63.00500 40.39500
N  26.76200 56.49200 40.40900
C  25.76500 57.25200 40.70900
C  24.58600 56.47300 40.74000
C  24.97400 55.21400 40.32800
C  26.37800 55.28400 40.17000
C  23.17800 56.87300 41.02700
C  24.53200 53.79700 40.10300
O  23.42500 53.34400 40.33500
C  25.81500 53.00700 39.53800
C  26.01200 51.81500 40.38300
O  26.25600 51.83900 41.58800
O  25.93700 50.68400 39.60600
C  25.87200 49.39900 40.24000
H  32.55000 54.31900 39.80300
H  31.25000 60.54500 40.77900
H  25.00900 59.18800 41.17900
H  28.52400 51.77400 39.64000
H  31.12200 52.50400 38.61700
H  30.38800 51.17700 40.80500
H  30.37500 52.70500 41.51100
H  31.88900 52.03300 40.65900
H  27.79000 51.83800 37.24300
H  29.50200 51.28300 37.42600
H  30.23400 52.92100 36.00000
H  29.66600 54.05000 37.04500
H  35.39300 56.84100 40.24200
H  34.50000 55.79800 39.06600
H  34.47700 55.28700 40.63200
H  33.10700 61.33800 40.76300
H  34.51200 61.25500 41.82900
H  33.04300 60.46600 42.38500
H  28.67600 61.64100 39.76500
H  26.94200 61.03500 42.00000
H  30.29900 62.00600 41.99800
H  28.77400 62.47400 42.53000
H  29.38500 63.30300 41.03100
H  25.33900 61.03000 39.86500
H  26.66800 61.75500 39.00900
H  24.81000 63.09700 40.32400
H  26.44200 63.70000 39.75800
H  26.21200 63.39300 41.36200
H  22.73300 57.28800 40.12200
H  23.29500 57.73800 41.68000
H  22.65500 56.10700 41.59800
H  25.52300 52.86000 38.49800
H  26.87900 48.98500 40.20200
H  25.15000 48.81500 39.66900
H  25.49900 49.39800 41.26400

