158

Mg -0.79200 7.83900 26.08500
C  0.40400 9.32700 29.13400
C  -1.07500 4.86700 27.81900
C  -1.17800 6.34800 23.15900
C  -0.19800 10.78200 24.52300
N  -0.31300 7.21700 28.27000
C  0.03100 8.05300 29.33000
C  -0.06900 7.28800 30.63500
C  -0.56300 5.88000 30.21900
C  -0.72600 5.94000 28.63200
C  0.30700 4.68500 30.61500
C  -1.05400 8.02400 31.60500
C  -0.53500 8.22000 33.08200
H  0.73400 7.33500 33.39900
N  -1.15100 5.85800 25.54500
C  -1.16800 4.81200 26.38300
C  -1.38000 3.61400 25.59900
C  -1.44700 4.03000 24.23600
C  -1.26900 5.49900 24.21500
C  -1.60900 2.26700 26.25500
C  -1.68300 3.23700 22.98400
O  -1.72100 3.70200 21.84700
C  -1.91800 1.72000 23.11800
N  -0.67200 8.43300 24.14600
C  -0.86000 7.69600 23.09300
C  -0.60900 8.50600 21.85500
C  -0.84000 9.91600 22.26600
C  -0.57800 9.73400 23.76700
C  0.78500 8.28800 21.20900
C  -2.25800 10.47000 21.88100
C  -2.32900 11.20800 20.54000
N  -0.16200 9.69600 26.64900
C  0.05000 10.81000 25.89900
C  0.43900 11.98700 26.70900
C  0.66800 11.38400 27.95500
C  0.27100 10.02400 27.91600
C  0.77800 13.33900 26.23000
C  1.26400 11.63800 29.23700
O  1.85800 12.64300 29.67000
C  1.07100 10.34900 30.08500
C  2.41700 9.93200 30.70500
O  3.29200 9.21500 30.25700
O  2.50500 10.58700 31.89800
C  3.87000 10.90700 32.30400
H  -1.13600 3.96000 28.42500
H  -0.97900 5.86400 22.20100
H  0.02100 11.66300 23.91700
H  1.00600 7.28100 30.81600
H  -1.54900 5.60500 30.59400
H  0.96000 4.40500 29.78800
H  -0.33900 3.89500 30.99900
H  0.92400 5.11700 31.40200
H  -1.97500 7.44000 31.61200
H  -1.37600 9.02800 31.32700
H  -1.31200 7.98200 33.80900
H  -0.50300 9.29900 33.23300
H  -0.70800 1.70000 26.02600
H  -2.50100 1.76800 25.87400
H  -1.75200 2.19100 27.33300
H  -2.92400 1.50100 23.47800
H  -1.07400 1.23800 23.61200
H  -1.74300 1.34100 22.11100
H  -1.40600 8.20800 21.17400
H  -0.10900 10.60900 21.85000
H  0.56700 8.19500 20.14500
H  1.17300 7.33200 21.56000
H  1.51500 9.06300 21.44200
H  -2.49700 11.25600 22.59700
H  -2.99000 9.66400 21.83500
H  -1.52400 10.82900 19.91000
H  -2.01900 12.24600 20.66200
H  -3.26100 11.04900 19.99800
H  1.41500 13.19600 25.35700
H  1.07800 13.77600 27.18200
H  -0.12100 13.85200 25.88700
H  0.37700 10.53500 30.90500
H  3.92600 11.89200 32.76800
H  4.71900 10.84800 31.62300
H  4.16800 10.17000 33.04900
Mg -0.37200 33.61200 27.06500
C  -2.44000 31.95800 29.44700
C  0.95000 35.43100 29.65400
C  0.72700 35.84400 24.84600
C  -2.29100 32.04800 24.59400
N  -0.75200 33.73600 29.24900
C  -1.50100 32.85000 30.03400
C  -1.37600 33.14500 31.52400
C  -0.32300 34.34600 31.57900
C  -0.04200 34.54100 30.03800
C  -0.65100 35.72400 32.35600
C  -0.93800 31.92800 32.37000
C  -1.81500 31.54800 33.55700
H  -1.15100 31.88700 34.93500
N  0.89200 35.32000 27.20700
C  1.39200 35.82500 28.40000
C  2.22200 37.02700 27.92700
C  2.22900 37.01100 26.48800
C  1.23400 36.04900 26.11300
C  2.67400 38.07600 28.88500
C  3.03700 37.88000 25.58300
O  2.88900 37.90500 24.35000
C  4.11700 38.71700 26.07200
N  -0.58500 33.89700 25.05200
C  -0.13700 34.92600 24.40900
C  -0.52000 34.89400 22.92900
C  -1.20800 33.50700 22.80000
C  -1.31900 33.02200 24.23700
C  -1.31900 36.05300 22.35800
C  -0.58200 32.49000 21.82900
C  0.39700 31.40200 22.47100
N  -2.00000 32.16700 26.96300
C  -2.62800 31.61900 25.90100
C  -3.53500 30.58400 26.34400
C  -3.51400 30.68800 27.71000
C  -2.55500 31.67500 28.06400
C  -4.36000 29.70100 25.33500
C  -4.20900 30.21800 28.87300
O  -5.15700 29.49100 29.07600
C  -3.38000 30.91000 30.06600
C  -4.43500 31.63600 30.80600
O  -4.88800 32.73000 30.40400
O  -4.84600 30.91200 31.86300
C  -5.87100 31.59200 32.67400
H  1.44800 35.87500 30.51800
H  1.03900 36.59300 24.11500
H  -2.85100 31.53600 23.80900
H  -2.35000 33.48300 31.87600
H  0.62800 34.05600 32.02700
H  0.08700 35.90200 33.13700
H  -1.52100 35.51700 32.97900
H  -0.67400 36.66700 31.80900
H  0.09300 32.19400 32.60200
H  -0.88700 31.01900 31.76900
H  -1.82000 30.46800 33.41200
H  -2.83100 31.93100 33.47100
H  3.74500 38.03700 29.08600
H  2.14200 37.87000 29.81300
H  2.47100 39.07800 28.50900
H  4.75100 39.26000 25.37200
H  4.70900 37.95100 26.57300
H  3.74900 39.43900 26.80200
H  0.45900 34.70400 22.49000
H  -2.18900 33.66700 22.35200
H  -0.76500 36.56400 21.57100
H  -1.46600 36.83400 23.10400
H  -2.28300 35.66700 22.02500
H  -0.05700 33.03000 21.04100
H  -1.39600 32.07800 21.23400
H  -0.17900 30.49300 22.64400
H  0.77700 31.75000 23.43100
H  1.17300 31.11000 21.76300
H  -3.68500 29.45200 24.51600
H  -5.13600 30.32200 24.88700
H  -4.79600 28.85500 25.86700
H  -2.89900 30.33200 30.85500
H  -6.55700 32.25400 32.14500
H  -5.41400 32.17200 33.47600
H  -6.56200 30.86800 33.10500

