158

Mg -2.08900 17.51700 26.33200
C  -2.57600 15.11700 28.91100
C  -2.75300 19.98200 28.64700
C  -2.03900 19.67100 23.79100
C  -2.33000 14.78500 24.00300
N  -2.77500 17.48100 28.54400
C  -2.70000 16.42800 29.37800
C  -2.66300 16.96400 30.79700
C  -2.94600 18.45400 30.64700
C  -2.69600 18.66700 29.16200
C  -4.33500 19.05900 31.11800
C  -1.44500 16.68400 31.71000
C  -1.21500 17.50800 33.02900
H  -0.68600 16.87600 34.35200
N  -2.39500 19.53900 26.24500
C  -2.57500 20.37800 27.31400
C  -2.70600 21.73000 26.81400
C  -2.72300 21.64600 25.37700
C  -2.35100 20.25000 25.05200
C  -2.90700 22.91700 27.83900
C  -2.97400 22.70200 24.32300
O  -2.91600 22.47800 23.08800
C  -3.36900 24.04200 24.70400
N  -1.88300 17.23500 24.17300
C  -2.00900 18.30900 23.33100
C  -1.89200 17.88700 21.86700
C  -2.29200 16.36000 21.91100
C  -2.12800 16.08600 23.46600
C  -2.66400 18.80500 20.85800
C  -1.39900 15.45100 20.94800
C  -2.13500 14.59900 19.94300
N  -2.17400 15.36900 26.38900
C  -2.29100 14.43300 25.37500
C  -2.43600 13.11400 25.88400
C  -2.43000 13.34000 27.29000
C  -2.33600 14.73700 27.56400
C  -2.46200 11.80000 25.17800
C  -2.53600 12.68100 28.52100
O  -2.67400 11.46900 28.65500
C  -2.65900 13.80600 29.65900
C  -1.56500 13.64300 30.54400
O  -0.43600 13.92200 30.24600
O  -1.92000 12.89200 31.65500
C  -0.94100 12.49800 32.63500
H  -2.93600 20.78600 29.36300
H  -2.15900 20.30600 22.91100
H  -2.50900 14.02000 23.24400
H  -3.52700 16.49500 31.26800
H  -2.26100 19.04900 31.25000
H  -4.15300 19.74500 31.94500
H  -4.90400 18.20700 31.48900
H  -4.90700 19.54200 30.32600
H  -0.58500 16.68200 31.04100
H  -1.57800 15.63300 31.96600
H  -2.16500 18.01900 33.18600
H  -0.49000 18.25500 32.70500
H  -2.15900 23.66300 27.56800
H  -2.54600 22.59600 28.81600
H  -3.91000 23.34300 27.81700
H  -4.36800 24.11600 25.13500
H  -3.57300 24.53900 23.75500
H  -2.70700 24.61200 25.35700
H  -0.82500 17.91400 21.64400
H  -3.33000 16.27900 21.58600
H  -1.98000 19.14700 20.08200
H  -3.22800 19.56700 21.39600
H  -3.37900 18.23100 20.26900
H  -0.85600 14.86200 21.68700
H  -0.69800 15.99600 20.31600
H  -1.91600 13.57600 20.25000
H  -1.62400 14.75300 18.99300
H  -3.21900 14.71000 19.94000
H  -3.48600 11.64500 24.84000
H  -2.27900 10.98700 25.88100
H  -1.89600 11.81500 24.24700
H  -3.55600 13.61400 30.24700
H  -0.12200 11.91900 32.20600
H  -1.45500 12.09500 33.50800
H  -0.40300 13.37700 32.98800
Mg -12.08600 15.41400 42.67900
C  -8.98500 13.82000 41.99400
C  -10.72500 18.07200 40.87700
C  -15.13100 16.63200 42.30800
C  -13.33200 12.34900 43.71800
N  -10.03200 15.92800 41.66300
C  -9.03700 15.05900 41.43200
C  -7.89300 15.66100 40.66700
C  -8.27400 17.09400 40.48200
C  -9.74200 17.09600 41.08800
C  -7.43400 18.14800 41.21800
C  -7.53100 14.87600 39.31200
C  -6.02500 14.72400 39.01000
H  -5.33400 15.45300 37.74500
N  -12.77000 17.15800 41.78100
C  -12.08200 18.18900 41.26700
C  -13.05500 19.24700 40.90300
C  -14.33100 18.81900 41.33000
C  -14.13800 17.47000 41.86300
C  -12.70700 20.49500 40.13400
C  -15.55400 19.72700 41.38300
O  -15.51100 20.91200 40.98200
C  -16.86000 19.26600 41.93600
N  -13.90300 14.71900 43.21100
C  -15.07800 15.41800 42.98800
C  -16.27100 14.60600 43.36400
C  -15.72000 13.28000 43.83500
C  -14.18400 13.40900 43.50200
C  -17.17800 15.30400 44.48100
C  -16.36700 11.99500 43.42500
C  -16.63300 10.90300 44.50900
N  -11.27800 13.60400 43.16400
C  -11.92300 12.43100 43.54000
C  -10.89500 11.45100 43.78000
C  -9.71600 11.97200 43.15800
C  -10.07300 13.23400 42.68200
C  -11.04200 10.05200 44.35100
C  -8.35200 11.65400 42.83100
O  -7.70800 10.68700 43.12300
C  -7.79200 12.84600 42.09600
C  -6.66900 13.47600 42.89500
O  -6.76500 13.94500 44.02600
O  -5.53200 13.48600 42.11700
C  -4.62100 14.38900 42.78100
H  -10.30500 18.90900 40.31700
H  -16.16600 16.86000 42.04300
H  -13.74900 11.36900 43.96100
H  -7.12800 15.73400 41.44000
H  -8.33800 17.26300 39.40700
H  -6.40200 17.87400 40.99600
H  -7.51800 18.05300 42.30000
H  -7.75000 19.14800 40.92200
H  -8.06300 15.32600 38.47500
H  -7.95200 13.87400 39.22300
H  -5.84400 13.65000 39.04700
H  -5.38800 15.15300 39.78400
H  -12.03400 20.15100 39.34800
H  -12.18700 21.20300 40.77900
H  -13.51800 20.96200 39.57500
H  -17.52000 20.08800 42.21200
H  -16.56900 18.79900 42.87700
H  -17.29600 18.56100 41.22800
H  -16.87200 14.41700 42.47500
H  -15.77000 13.32300 44.92300
H  -16.81500 16.30000 44.73600
H  -17.43200 14.69800 45.35000
H  -18.01700 15.59900 43.84900
H  -15.73900 11.68500 42.59000
H  -17.27700 12.26900 42.89100
H  -15.74000 10.30400 44.69100
H  -17.42200 10.23000 44.17500
H  -16.97300 11.30100 45.46400
H  -10.31900 9.83300 45.13600
H  -10.74400 9.39600 43.53300
H  -12.09700 10.05100 44.62400
H  -7.46200 12.69800 41.06800
H  -5.17700 15.32600 42.74400
H  -3.80100 14.56700 42.08500
H  -4.32000 14.01200 43.75800

