158

Mg 16.76500 -2.34100 28.97800
C  15.60300 -0.20600 31.53200
C  19.06100 -3.67600 31.10800
C  17.98800 -4.10900 26.41300
C  14.61700 -0.63900 26.77300
N  17.13600 -2.01400 31.12200
C  16.57100 -1.08800 31.98700
C  17.13700 -1.32500 33.36600
C  18.40100 -2.12400 33.15300
C  18.16100 -2.69800 31.69800
C  19.78000 -1.40500 33.31200
C  15.99300 -2.05200 34.17400
C  15.63000 -1.45500 35.48900
H  16.69900 -0.52600 36.17800
N  18.19700 -3.83700 28.83200
C  19.03700 -4.27000 29.82700
C  19.80100 -5.40600 29.37400
C  19.54000 -5.52900 27.91000
C  18.52300 -4.45500 27.62200
C  20.66900 -6.23100 30.22600
C  20.02300 -6.56000 26.83000
O  19.79000 -6.59700 25.59400
C  20.93400 -7.70800 27.29200
N  16.41600 -2.32200 26.85700
C  16.97100 -3.22200 26.02900
C  16.44100 -3.00200 24.62000
C  15.32700 -1.97700 24.75400
C  15.44100 -1.60800 26.24200
C  17.55000 -2.65400 23.53600
C  13.87000 -2.53500 24.48200
C  13.33700 -2.04200 23.11600
N  15.48800 -0.76100 29.10200
C  14.61500 -0.17200 28.15000
C  13.76700 0.87200 28.72400
C  14.07000 0.80400 30.07700
C  15.10300 -0.18200 30.23600
C  12.86600 1.78000 27.93200
C  13.83500 1.48600 31.38200
O  13.01400 2.36300 31.64400
C  14.81700 0.77400 32.39100
C  15.58500 1.88500 32.99000
O  16.67300 2.28400 32.60500
O  14.93800 2.34500 34.07500
C  15.58900 3.44600 34.88900
H  19.78000 -4.09700 31.81400
H  18.38000 -4.61700 25.52800
H  13.80800 -0.19700 26.18700
H  17.33800 -0.30900 33.70700
H  18.52700 -2.99600 33.79400
H  20.46900 -1.91900 33.98200
H  19.52100 -0.41400 33.68500
H  20.31100 -1.16700 32.39000
H  16.38600 -3.05500 34.34100
H  15.05600 -2.11200 33.62000
H  15.56500 -2.14400 36.33100
H  14.80400 -0.75000 35.39600
H  21.72800 -6.01800 30.07800
H  20.38600 -7.26300 30.01700
H  20.37900 -6.06100 31.26300
H  21.89100 -7.31400 27.63300
H  21.06900 -8.33400 26.41100
H  20.45400 -8.35700 28.02500
H  16.14600 -3.93100 24.13200
H  15.57400 -1.03800 24.25800
H  17.72100 -1.57800 23.54400
H  17.40900 -2.78000 22.46300
H  18.49700 -3.06400 23.88700
H  13.17300 -2.32600 25.29300
H  13.87400 -3.62000 24.38200
H  12.29000 -1.75100 23.20200
H  13.42900 -2.85900 22.40000
H  13.85000 -1.16200 22.73000
H  12.84200 2.73100 28.46500
H  11.92800 1.22600 27.93400
H  13.24300 1.85000 26.91200
H  14.14700 0.30300 33.11000
H  15.92600 3.07900 35.85800
H  14.89500 4.28500 34.94000
H  16.43000 3.92600 34.38900
Mg 17.12100 53.39500 26.22600
C  18.88100 51.75300 28.83100
C  14.61100 53.91700 28.55600
C  15.50400 54.92000 23.87500
C  19.47600 52.20500 24.00200
N  16.90000 53.00500 28.50800
C  17.68900 52.36700 29.31800
C  17.25200 52.54200 30.76400
C  15.75300 52.99300 30.62900
C  15.70100 53.28400 29.14700
C  14.70100 51.95800 31.17100
C  18.10700 53.65400 31.46800
C  18.29600 53.35900 32.93900
H  17.25600 52.52500 33.75200
N  15.39500 54.44000 26.26600
C  14.48400 54.53100 27.29400
C  13.49400 55.44000 26.92100
C  13.72300 55.87000 25.56000
C  14.88200 55.03200 25.16200
C  12.31400 55.85600 27.85500
C  12.88400 56.72300 24.66400
O  13.24000 56.91800 23.50600
C  11.80500 57.57700 25.31600
N  17.19600 53.21000 24.07000
C  16.53400 54.06900 23.34300
C  17.09500 54.00800 21.91300
C  18.42500 53.21300 21.97300
C  18.41100 52.84100 23.49100
C  16.08600 53.38300 20.87500
C  19.66000 54.17400 21.65800
C  20.72900 53.70900 20.73300
N  18.80600 52.13900 26.28200
C  19.69200 51.81100 25.34500
C  20.72500 50.95500 25.86600
C  20.36600 50.79200 27.20100
C  19.23800 51.63200 27.43900
C  21.89900 50.22000 25.08600
C  20.77100 50.20900 28.47300
O  21.62100 49.34600 28.74400
C  19.95300 50.94800 29.57700
C  19.45200 50.00600 30.67700
O  18.79200 49.02100 30.48300
O  19.81400 50.44800 31.91000
C  19.57400 49.43800 33.01200
H  13.79300 54.04000 29.26900
H  15.08600 55.54600 23.08500
H  20.20800 51.90400 23.25000
H  17.36500 51.61000 31.31700
H  15.47200 53.85200 31.23700
H  14.14600 51.49500 30.35500
H  13.92900 52.51000 31.70600
H  15.21400 51.27000 31.84300
H  17.52500 54.56100 31.30600
H  19.04600 53.85000 30.95000
H  18.48700 54.28600 33.48000
H  19.16500 52.73700 33.15400
H  11.35900 55.63800 27.37600
H  12.44300 56.91700 28.07200
H  12.31800 55.24500 28.75700
H  10.96900 56.98200 25.68400
H  11.39200 58.19300 24.51700
H  12.27900 58.20500 26.07000
H  17.16400 55.04200 21.57600
H  18.52800 52.28000 21.41900
H  15.90700 54.30000 20.31400
H  15.13900 53.16200 21.36700
H  16.51000 52.59200 20.25600
H  20.11700 54.58100 22.56000
H  19.25600 55.05800 21.16500
H  20.57500 52.71100 20.32200
H  21.69900 53.89600 21.19400
H  20.61000 54.25900 19.80000
H  22.68900 50.91200 24.79300
H  21.53400 49.67900 24.21300
H  22.33800 49.47400 25.74800
H  20.52800 51.59700 30.23800
H  20.01700 49.88300 33.90300
H  19.97000 48.45800 32.74700
H  18.50700 49.27500 33.16600

