158

Mg 48.55600 34.89200 26.49400
C  46.42200 33.60600 29.00300
C  49.02500 37.65100 28.42000
C  50.15600 36.24800 23.88800
C  47.64500 32.13000 24.51700
N  47.71000 35.54600 28.48000
C  47.08400 34.73400 29.39500
C  47.14100 35.36400 30.75800
C  47.85800 36.73300 30.54700
C  48.26200 36.58000 29.06700
C  46.98000 37.98900 30.84100
C  47.97100 34.37200 31.71300
C  47.64600 34.49800 33.19500
H  46.72800 35.58700 33.57800
N  49.50500 36.76500 26.18100
C  49.58500 37.76300 27.13700
C  50.37300 38.82000 26.53700
C  50.49800 38.56500 25.15600
C  50.04600 37.18000 24.96400
C  50.83500 40.03700 27.30800
C  51.07200 39.47100 23.96300
O  51.08700 39.05300 22.82600
C  51.43200 40.88300 24.22300
N  48.79900 34.29700 24.52200
C  49.61600 34.99200 23.63000
C  50.07200 34.21000 22.42400
C  49.22900 32.85200 22.61100
C  48.51700 33.08600 23.99100
C  49.88900 34.97600 21.12900
C  50.17600 31.54200 22.58200
C  50.87500 31.19300 21.24000
N  47.30500 33.21200 26.67500
C  47.02800 32.17000 25.76300
C  46.00900 31.25700 26.29700
C  45.78500 31.78600 27.55800
C  46.53700 32.98900 27.73400
C  45.49200 30.02800 25.57400
C  44.92400 31.62700 28.75300
O  44.08900 30.76200 29.04200
C  45.25100 32.85000 29.73100
C  45.54400 32.30000 31.09700
O  46.38400 31.39600 31.35500
O  44.51000 32.76300 31.98600
C  44.57800 32.38200 33.43200
H  49.31000 38.48200 29.06800
H  50.73800 36.60500 23.03600
H  47.52200 31.20000 23.95800
H  46.11800 35.51900 31.09900
H  48.78500 36.88000 31.10100
H  47.70100 38.74400 31.15400
H  46.28600 37.80200 31.66100
H  46.48900 38.18900 29.88900
H  49.04000 34.57000 31.78700
H  47.88500 33.33800 31.38000
H  48.54900 34.73100 33.76000
H  47.21900 33.59100 33.62300
H  50.54700 40.09500 28.35800
H  50.50700 40.95500 26.82100
H  51.91500 40.16300 27.23000
H  52.02700 40.92100 25.13600
H  50.49300 41.42200 24.35200
H  51.85900 41.35200 23.33700
H  51.11000 34.00000 22.68200
H  48.44300 32.77000 21.86100
H  49.03600 34.57200 20.58200
H  50.87500 34.85200 20.68300
H  49.51400 35.99600 21.21400
H  49.52700 30.73000 22.90800
H  50.93700 31.63600 23.35700
H  50.68100 31.97100 20.50100
H  50.47700 30.26600 20.82700
H  51.95400 31.24000 21.38500
H  44.42000 30.02900 25.77400
H  45.94200 29.17600 26.08300
H  45.66300 29.94000 24.50100
H  44.37300 33.49400 29.67600
H  44.95700 33.24200 33.98500
H  45.13100 31.47100 33.65900
H  43.51700 32.24200 33.63700
Mg 1.15300 42.69100 25.84500
C  2.47200 42.86900 29.12200
C  -1.99300 42.02100 27.21900
C  -0.11200 42.32800 22.72300
C  4.23700 43.36100 24.56300
N  0.39400 42.47000 27.96200
C  1.02200 42.66800 29.11000
C  0.11800 42.50800 30.33300
C  -1.22600 42.12100 29.71500
C  -0.94100 42.18400 28.17700
C  -1.80000 40.79000 30.28400
C  0.11900 43.94600 31.10000
C  0.35100 43.91000 32.66000
H  0.28300 42.63000 33.40800
N  -0.85200 42.24300 25.08700
C  -2.00600 42.15200 25.77600
C  -3.11600 42.18500 24.84500
C  -2.60300 42.11000 23.51800
C  -1.16200 42.21700 23.73100
C  -4.51500 42.17400 25.28700
C  -3.32500 41.89000 22.19800
O  -2.73400 41.85800 21.13200
C  -4.85300 41.62200 22.12700
N  1.89800 42.84400 24.00300
C  1.21900 42.59500 22.80900
C  1.98200 43.00700 21.55100
C  3.29300 43.59700 22.12900
C  3.16000 43.29000 23.66300
C  2.19400 41.91700 20.48900
C  3.43400 45.07300 21.78000
C  4.14400 45.33100 20.52200
N  3.01600 42.81400 26.61800
C  4.21100 43.12400 25.95900
C  5.28500 43.27400 26.92200
C  4.62600 43.18100 28.15400
C  3.24100 42.85500 27.95500
C  6.76700 43.65900 26.62200
C  4.85700 43.32300 29.54100
O  5.91600 43.40500 30.16500
C  3.45500 43.11300 30.24300
C  3.62400 41.96200 31.14200
O  3.56000 40.77900 30.70700
O  4.13400 42.36500 32.37200
C  4.87100 41.23200 33.00700
H  -2.97800 41.80700 27.63900
H  -0.61900 42.29900 21.75700
H  5.12100 43.86000 24.16100
H  0.56300 41.76200 30.99100
H  -1.97600 42.88200 29.93000
H  -2.58500 40.41800 29.62500
H  -2.09000 41.01900 31.30900
H  -1.02300 40.02600 30.24900
H  -0.81800 44.47900 30.93600
H  0.88800 44.63000 30.74000
H  -0.21500 44.71000 33.13800
H  1.36800 44.24900 32.85700
H  -4.96600 41.18400 25.22300
H  -5.08200 42.83400 24.63100
H  -4.64200 42.67600 26.24700
H  -5.13200 40.86400 22.85900
H  -4.98900 41.14700 21.15600
H  -5.55000 42.46000 22.09700
H  1.49100 43.82700 21.02600
H  4.11500 43.02800 21.69400
H  1.63600 42.30500 19.63600
H  1.77200 40.96200 20.80400
H  3.24300 41.77900 20.22800
H  3.86100 45.55500 22.66000
H  2.47400 45.57700 21.66800
H  4.90600 46.09300 20.69000
H  3.44100 45.83600 19.86000
H  4.59000 44.42200 20.11800
H  7.36900 44.19900 27.35300
H  6.80200 44.43000 25.85200
H  7.20800 42.74600 26.22300
H  3.06700 43.95900 30.81000
H  5.68600 41.00000 32.32200
H  4.14300 40.43200 33.14300
H  5.24700 41.63800 33.94600

