158

Mg 53.21800 23.27500 44.47500
C  50.51500 25.54300 43.72700
C  50.96200 20.77000 43.49500
C  55.79600 21.23700 44.54900
C  55.22200 25.94200 45.28000
N  51.19200 23.15500 43.37800
C  50.36900 24.26900 43.14100
C  49.12300 23.83500 42.29300
C  48.99500 22.33300 42.75700
C  50.42900 22.09500 43.29700
C  47.79700 22.11600 43.81300
C  49.45100 24.06800 40.82900
C  48.30300 24.66300 39.99900
H  47.82900 23.86900 38.79100
N  53.35200 21.26900 44.16500
C  52.29600 20.40900 43.82500
C  52.87200 19.02100 43.99400
C  54.25100 19.17900 44.24100
C  54.49100 20.61500 44.35600
C  51.94500 17.81400 43.93300
C  55.22100 18.01000 44.47800
O  54.79900 16.84000 44.39700
C  56.74000 18.14900 44.72400
N  55.34700 23.59200 44.42600
C  56.18100 22.53400 44.64000
C  57.61000 23.02300 44.84500
C  57.42300 24.52100 45.19000
C  55.91000 24.73400 44.92900
C  58.48700 22.21500 45.84800
C  58.43000 25.51100 44.57000
C  59.84900 25.64300 45.20900
N  52.97500 25.34500 44.48900
C  53.84100 26.25300 45.01900
C  53.09700 27.45200 45.23000
C  51.73600 27.27400 44.73600
C  51.76500 25.95600 44.23800
C  53.66200 28.69400 45.91400
C  50.44600 27.83300 44.44000
O  49.90500 28.91800 44.61900
C  49.54300 26.72200 43.78900
C  49.16600 27.21400 42.50900
O  49.91500 27.33900 41.49300
O  47.84700 27.52200 42.56500
C  47.38100 28.36500 41.52400
H  50.28500 19.92500 43.35100
H  56.71000 20.64500 44.46600
H  55.89700 26.72400 45.63300
H  48.24100 24.38200 42.62700
H  48.76500 21.77100 41.85200
H  47.41800 23.06200 44.19800
H  48.15600 21.50400 44.64000
H  46.94200 21.69400 43.28400
H  49.85500 23.19300 40.31800
H  50.33400 24.70300 40.76300
H  48.72200 25.58900 39.60600
H  47.50600 24.90700 40.70100
H  51.66800 17.44500 42.94500
H  51.00900 18.11600 44.40400
H  52.23600 16.99600 44.59100
H  57.16500 18.63600 43.84700
H  57.14900 17.15200 44.88700
H  56.85400 18.76700 45.61500
H  58.01700 22.91300 43.84100
H  57.53600 24.60800 46.27100
H  57.81200 21.78900 46.59000
H  59.22700 22.88700 46.28300
H  59.04000 21.45700 45.29300
H  58.02100 26.52100 44.53600
H  58.55600 25.27300 43.51400
H  60.61900 25.50900 44.44900
H  59.93300 24.95000 46.04600
H  60.06200 26.61400 45.65600
H  53.09000 28.94200 46.80800
H  53.62800 29.54100 45.22900
H  54.66900 28.45600 46.25800
H  48.65300 26.50800 44.38200
H  47.21200 27.73300 40.65300
H  48.04900 29.18300 41.25300
H  46.44200 28.79700 41.87000
Mg 0.32700 43.33500 26.48900
C  2.62800 42.73100 29.24900
C  -2.17600 41.94100 28.47900
C  -1.65300 43.53400 23.93600
C  3.12800 43.74400 24.50400
N  0.23400 42.52400 28.52300
C  1.24100 42.54900 29.48000
C  0.62200 42.44500 30.90800
C  -0.79600 41.86100 30.53900
C  -0.92700 42.09400 29.04600
C  -1.18600 40.41900 30.95400
C  0.70200 43.78700 31.72000
C  1.17800 43.69300 33.15500
H  0.64100 42.53600 34.06400
N  -1.75900 42.94300 26.21800
C  -2.64800 42.30400 27.15700
C  -3.95900 42.25900 26.54500
C  -3.82400 42.79500 25.24100
C  -2.36900 43.08900 25.05100
C  -5.23000 41.77800 27.27200
C  -4.87600 42.90600 24.19800
O  -4.57700 43.15400 22.99900
C  -6.29500 42.79600 24.61300
N  0.72600 43.52500 24.45900
C  -0.33000 43.82300 23.66600
C  0.14500 44.29100 22.29300
C  1.65600 44.39300 22.41700
C  1.90000 43.87500 23.88800
C  -0.32500 43.38400 21.08100
C  2.15400 45.84800 22.22900
C  2.20900 46.83400 23.41800
N  2.40900 43.29900 26.73100
C  3.41900 43.45300 25.84100
C  4.72000 43.30000 26.52200
C  4.43700 43.08900 27.88200
C  3.03300 42.98800 27.92600
C  6.05900 43.17200 25.74100
C  5.07300 42.84100 29.16800
O  6.29200 42.92000 29.48200
C  3.87600 42.76800 30.16200
C  4.01100 41.51300 30.98400
O  4.42900 40.46200 30.57800
O  3.74900 41.77600 32.30600
C  3.96700 40.64700 33.18400
H  -3.01100 41.61600 29.10400
H  -2.29800 43.68400 23.06800
H  4.02600 43.97000 23.92500
H  1.15800 41.60400 31.34900
H  -1.57500 42.50400 30.94900
H  -2.10000 40.50200 31.54200
H  -0.53300 40.04000 31.73900
H  -1.20000 39.65700 30.17400
H  -0.25100 44.31600 31.74200
H  1.45500 44.39300 31.21500
H  0.93800 44.64600 33.62500
H  2.26400 43.61100 33.10700
H  -4.83100 41.22800 28.12400
H  -5.65700 40.90000 26.78700
H  -5.86100 42.60300 27.60400
H  -6.55100 41.76400 24.85400
H  -6.90500 43.19300 23.80200
H  -6.52700 43.48700 25.42300
H  -0.27800 45.26700 22.05600
H  2.16400 43.81600 21.64400
H  -0.85300 42.46500 21.33400
H  0.48800 43.08200 20.42100
H  -1.01500 44.01700 20.52400
H  1.59700 46.31100 21.41500
H  3.17100 45.69100 21.87000
H  3.19900 46.85200 23.87200
H  1.39700 46.57800 24.09900
H  2.04800 47.84500 23.04500
H  6.85500 42.70700 26.32200
H  6.40500 44.15800 25.43200
H  5.94600 42.50600 24.88600
H  3.80300 43.66400 30.77900
H  3.78000 40.92100 34.22300
H  4.97000 40.22100 33.15900
H  3.32400 39.79700 32.95500

