158

Mg 26.70900 0.16100 29.46700
C  28.72200 -0.04100 32.45400
C  23.94100 0.65700 31.25400
C  25.09000 0.25300 26.50400
C  29.78700 -0.50100 27.75000
N  26.43500 0.29900 31.51300
C  27.33000 0.28600 32.63000
C  26.57500 0.57900 33.90600
C  25.10900 0.57400 33.48500
C  25.14700 0.49200 31.98400
C  24.14400 -0.46500 34.06900
C  27.12100 1.75500 34.76800
C  26.41800 1.80200 36.23000
H  27.18600 1.35100 37.49800
N  24.86000 0.23400 28.94900
C  23.77900 0.48600 29.84200
C  22.52100 0.62800 29.10800
C  22.82700 0.54600 27.72200
C  24.30100 0.32300 27.69600
C  21.19400 1.04300 29.79800
C  21.85300 0.40200 26.52100
O  22.22400 0.38800 25.36100
C  20.36600 0.28200 26.76900
N  27.39300 -0.11800 27.46700
C  26.47100 0.00700 26.43400
C  27.22000 0.09500 25.02000
C  28.70600 -0.10400 25.47000
C  28.65000 -0.25700 27.00400
C  26.86500 -0.94400 23.92100
C  29.73500 1.01300 25.16600
C  31.07500 0.60100 24.51100
N  28.77700 -0.28600 29.96500
C  29.81800 -0.61700 29.08200
C  30.92700 -1.07000 29.80200
C  30.55800 -0.76200 31.14200
C  29.28300 -0.29400 31.20900
C  32.17500 -1.70500 29.21400
C  31.10100 -0.68300 32.47400
O  32.27400 -0.89300 32.79300
C  29.86600 -0.22500 33.43300
C  29.67700 -1.21600 34.47800
O  28.95400 -2.17800 34.32400
O  30.43000 -0.93700 35.60700
C  30.29200 -1.93600 36.68400
H  23.07700 1.01600 31.81700
H  24.55500 0.44900 25.57200
H  30.74500 -0.66700 27.25300
H  26.64300 -0.32800 34.50700
H  24.75000 1.50800 33.91900
H  24.51700 -1.02300 34.92700
H  23.87000 -1.17300 33.28600
H  23.20100 -0.00900 34.37000
H  26.87300 2.74800 34.39200
H  28.21000 1.70100 34.76400
H  25.43600 1.32900 36.20800
H  26.30400 2.87300 36.39900
H  21.04800 2.11400 29.66200
H  21.17400 0.86200 30.87200
H  20.36600 0.50600 29.33400
H  20.12400 -0.60400 27.35600
H  19.79900 0.18700 25.84300
H  19.94400 1.19000 27.20100
H  26.87700 1.02900 24.57500
H  29.08800 -1.02400 25.02700
H  26.49300 -1.86300 24.37500
H  27.68000 -1.26700 23.27400
H  26.15200 -0.49600 23.22900
H  29.99500 1.66000 26.00400
H  29.36600 1.77000 24.47400
H  31.29000 1.41400 23.81700
H  31.10300 -0.23900 23.81800
H  31.88300 0.47100 25.23100
H  31.99700 -2.12600 28.22500
H  32.54200 -2.39100 29.97700
H  32.89900 -0.90800 29.04700
H  30.33500 0.70300 33.76000
H  30.51400 -2.96600 36.40600
H  29.39000 -1.79600 37.28100
H  31.17900 -1.77200 37.29600
Mg -9.52200 40.72400 42.79100
C  -8.44800 37.44700 41.64800
C  -7.05100 41.89800 40.62800
C  -10.63800 43.69200 43.30600
C  -12.35600 39.18800 44.10200
N  -7.95900 39.75600 41.32500
C  -7.59400 38.42200 41.17000
C  -6.46500 38.25700 40.16500
C  -5.94400 39.72600 39.98600
C  -7.06000 40.51900 40.71200
C  -4.48200 40.00900 40.53100
C  -6.67500 37.45300 38.81200
C  -5.68600 36.41000 38.48600
H  -4.76100 36.55200 37.32800
N  -8.86400 42.64100 42.14600
C  -7.84900 42.87800 41.19800
C  -7.72700 44.29900 41.16400
C  -8.65000 44.87800 42.09400
C  -9.45600 43.78000 42.51100
C  -6.60400 44.97400 40.47200
C  -8.73400 46.35800 42.48800
O  -7.90400 47.11500 42.11200
C  -9.84000 46.87800 43.33000
N  -11.23200 41.31700 43.54900
C  -11.39100 42.63600 43.75200
C  -12.71800 42.96100 44.50400
C  -13.25900 41.51700 44.84700
C  -12.29000 40.61000 44.08500
C  -12.61400 44.01700 45.67900
C  -14.73500 41.17400 44.72800
C  -15.46900 40.55500 45.94400
N  -10.26800 38.70900 43.04500
C  -11.45700 38.26600 43.58100
C  -11.52400 36.81900 43.52000
C  -10.33300 36.48900 42.81700
C  -9.63200 37.64600 42.47500
C  -12.68300 35.97100 44.00800
C  -9.59800 35.33800 42.30700
O  -10.05400 34.21000 42.25300
C  -8.37800 35.92800 41.50600
C  -7.15600 35.33700 42.20800
O  -6.92300 35.37600 43.40200
O  -6.35700 34.82300 41.28000
C  -4.97700 34.44400 41.70400
H  -6.22200 42.29200 40.03600
H  -11.03300 44.63500 43.69100
H  -13.23400 38.63500 44.44400
H  -5.72600 37.74600 40.78300
H  -5.89000 40.00700 38.93400
H  -4.59300 40.76700 41.30600
H  -3.76600 40.31600 39.76900
H  -4.04900 39.11500 40.98100
H  -6.65600 38.21000 38.02800
H  -7.71600 37.13000 38.78900
H  -6.16100 35.43500 38.37300
H  -5.07100 36.31500 39.38100
H  -6.81600 45.94800 40.03200
H  -5.98600 44.41400 39.77100
H  -5.86200 45.11600 41.25800
H  -9.77300 46.31500 44.26200
H  -10.81400 46.78000 42.85200
H  -9.68400 47.94600 43.48100
H  -13.39600 43.38100 43.76100
H  -13.01200 41.49500 45.90900
H  -13.25300 44.85700 45.40700
H  -11.55100 44.25000 45.73500
H  -12.88200 43.51200 46.60600
H  -14.86600 40.51000 43.87400
H  -15.12500 42.16200 44.48200
H  -15.82200 39.53600 45.78500
H  -16.35300 41.18500 46.03500
H  -14.88900 40.61800 46.86500
H  -12.92200 36.30500 45.01800
H  -12.46100 34.90700 43.93300
H  -13.56600 36.13600 43.39100
H  -8.49200 35.54800 40.49100
H  -4.47100 35.29200 42.16500
H  -4.38200 34.11000 40.85400
H  -4.89500 33.58600 42.37100

