158

Mg 1.68500 8.10300 27.91200
C  2.35500 10.57100 30.46400
C  1.58500 5.76700 30.27000
C  1.15900 5.99600 25.42200
C  2.21100 10.74400 25.60300
N  2.01500 8.17400 30.12600
C  2.04400 9.26800 30.94200
C  1.64600 8.87500 32.43100
C  1.83200 7.30300 32.31500
C  1.72900 7.03900 30.83200
C  3.07000 6.79200 32.90700
C  0.15400 9.28000 32.87600
C  -0.14500 9.50000 34.28000
H  0.97800 9.11100 35.29500
N  1.54500 6.15900 27.85400
C  1.60700 5.32100 28.92600
C  1.58100 3.96100 28.51700
C  1.29300 3.98500 27.09900
C  1.34400 5.40600 26.72800
C  1.84700 2.78100 29.38900
C  1.06100 2.83200 26.11800
O  1.10300 3.05300 24.92700
C  1.05800 1.41200 26.62200
N  1.57500 8.37800 25.85300
C  1.38300 7.32900 25.00800
C  1.22900 7.79100 23.55500
C  1.67800 9.35000 23.60200
C  1.87900 9.49300 25.13400
C  2.03100 7.00600 22.51700
C  0.73900 10.23600 22.80700
C  -0.77900 10.24800 23.36900
N  2.19600 10.29000 27.94500
C  2.38500 11.16400 26.98200
C  2.72200 12.49700 27.56800
C  2.64100 12.30800 28.93500
C  2.39000 10.94500 29.10800
C  2.87900 13.69400 26.83100
C  2.75800 12.96000 30.25600
O  3.08600 14.08800 30.57000
C  2.48100 11.79500 31.28900
C  3.39900 11.67400 32.39300
O  4.61200 11.38400 32.35100
O  2.64700 12.02900 33.50000
C  3.41800 12.11800 34.70900
H  1.50000 5.03000 31.07100
H  0.87900 5.33200 24.60100
H  2.48700 11.45600 24.82200
H  2.43200 9.31600 33.04300
H  0.96900 6.79100 32.74000
H  3.72600 7.55900 33.32000
H  3.64800 6.17600 32.21800
H  2.74800 6.08200 33.66900
H  -0.40300 8.42500 32.49500
H  -0.15400 10.17200 32.33100
H  -0.99800 8.86700 34.52400
H  -0.42200 10.54200 34.44200
H  2.56600 2.20700 28.80500
H  0.97400 2.13300 29.46300
H  2.32100 3.00700 30.34400
H  0.48600 0.85200 25.88200
H  0.45600 1.45500 27.52900
H  2.11700 1.20300 26.77900
H  0.18300 7.59300 23.32000
H  2.69800 9.50700 23.25300
H  2.43800 6.10100 22.96700
H  2.77300 7.61100 21.99500
H  1.39500 6.65400 21.70500
H  0.74000 9.88300 21.77600
H  1.06000 11.27500 22.73000
H  -1.45100 9.89200 22.58800
H  -0.99900 11.25600 23.72000
H  -0.86600 9.59100 24.23500
H  2.10700 13.70800 26.06200
H  3.90100 13.66800 26.45400
H  2.62700 14.58500 27.40700
H  1.47600 11.90100 31.69700
H  2.86000 12.38100 35.60800
H  4.20100 12.86300 34.56900
H  3.89300 11.14700 34.84900
Mg 36.13400 1.50700 30.40000
C  33.57200 2.68500 32.57000
C  38.13400 1.09800 33.06400
C  38.51800 0.45100 28.25100
C  33.89700 1.82400 27.77900
N  35.85800 1.94400 32.57800
C  34.78000 2.48700 33.26700
C  34.96900 2.40600 34.75200
C  36.57100 2.18500 34.85700
C  36.82900 1.62300 33.39200
C  37.42600 3.47000 35.08900
C  34.06600 1.34200 35.48100
C  33.52000 1.82200 36.83900
H  34.24300 2.91900 37.60800
N  38.06100 0.83400 30.64600
C  38.63100 0.61400 31.82900
C  39.92100 -0.00800 31.58600
C  39.99100 -0.26100 30.21100
C  38.81400 0.28600 29.63700
C  40.93600 -0.33800 32.72500
C  40.97200 -1.02600 29.36600
O  40.73200 -1.45200 28.23000
C  42.25700 -1.55800 29.96700
N  36.28100 1.33900 28.25000
C  37.34100 0.95000 27.54400
C  37.00600 0.85200 26.04600
C  35.53400 1.25400 25.93300
C  35.20100 1.53000 27.41300
C  37.89800 1.63200 25.00000
C  34.57100 0.21100 25.33900
C  34.00900 0.56000 23.96500
N  34.15800 2.10600 30.13000
C  33.40800 2.23700 29.02100
C  32.13500 2.75400 29.34200
C  32.10800 2.94300 30.74700
C  33.37400 2.52800 31.20100
C  31.07800 3.09200 28.34200
C  31.31800 3.45400 31.85500
O  30.20900 3.93900 31.92500
C  32.21500 3.22900 33.12100
C  32.38500 4.53900 33.86700
O  33.14100 5.40000 33.60200
O  31.50900 4.61600 34.89500
C  31.51800 5.84400 35.67500
H  38.88300 1.01400 33.85300
H  39.23700 0.22500 27.46000
H  33.19800 1.90000 26.94300
H  34.77300 3.40400 35.14400
H  36.81800 1.50400 35.67100
H  37.11900 3.99700 35.99200
H  37.35300 4.11500 34.21400
H  38.51300 3.42700 35.14900
H  34.65000 0.45500 35.72400
H  33.21400 1.09100 34.85000
H  33.42200 0.91900 37.44100
H  32.50100 2.14100 36.62000
H  41.19600 -1.39300 32.80400
H  40.42500 -0.18600 33.67600
H  41.84700 0.22300 32.51700
H  42.22000 -2.04400 30.94200
H  42.98200 -0.75900 29.81100
H  42.73600 -2.34600 29.38700
H  37.22800 -0.20000 25.86600
H  35.32500 2.26000 25.56700
H  38.71100 2.20600 25.44500
H  37.31100 2.33800 24.41300
H  38.38600 0.87600 24.38500
H  33.72900 -0.04800 25.98000
H  35.02200 -0.75600 25.11300
H  32.92100 0.55900 24.03400
H  34.26200 -0.11600 23.14800
H  34.30400 1.57900 23.71400
H  31.39100 3.17400 27.30100
H  30.55500 4.01100 28.60600
H  30.37600 2.25900 28.33700
H  31.67500 2.48300 33.70500
H  31.71800 6.66400 34.98600
H  32.19600 5.72300 36.52000
H  30.44900 5.94000 35.86700

