158

Mg 45.58200 5.04000 48.15400
C  43.21700 7.48700 47.22200
C  43.03400 2.70100 47.72900
C  47.94300 2.61800 48.18500
C  48.14500 7.39500 47.87000
N  43.37700 5.16800 47.76400
C  42.67200 6.25000 47.23300
C  41.26300 5.83900 46.74300
C  41.11200 4.38200 47.32600
C  42.59600 4.02700 47.61800
C  40.23200 4.18600 48.63200
C  40.99000 6.07100 45.22100
C  39.65600 6.77000 44.92100
H  39.54800 7.61800 43.65500
N  45.48900 2.94700 48.15700
C  44.36200 2.18900 47.96000
C  44.75400 0.81200 48.04900
C  46.19300 0.68300 48.14100
C  46.57900 2.09900 48.16200
C  43.72200 -0.33800 48.01000
C  46.92700 -0.62700 48.23300
O  46.32900 -1.70900 48.30900
C  48.47500 -0.69900 48.25800
N  47.76100 5.04100 48.07000
C  48.43600 3.89100 48.17500
C  50.00000 4.17700 48.33000
C  50.01400 5.74100 48.38400
C  48.60000 6.10500 48.07000
C  50.75700 3.47000 49.45200
C  51.05900 6.39400 47.49900
C  52.42900 5.79900 47.40800
N  45.69400 7.05000 47.71500
C  46.79700 7.85900 47.65900
C  46.33800 9.23100 47.36200
C  44.95300 9.08900 47.35000
C  44.58400 7.75800 47.45700
C  47.25400 10.44000 47.02500
C  43.73600 9.87500 47.07000
O  43.60200 11.05000 46.93700
C  42.54800 8.79600 47.02400
C  41.53100 9.16500 48.11800
O  41.23900 8.50600 49.08700
O  40.94200 10.26100 47.69500
C  39.72300 10.60300 48.43500
H  42.24900 1.98200 47.48800
H  48.69200 1.83800 48.33000
H  48.94300 8.13900 47.81100
H  40.51300 6.45700 47.23500
H  40.71100 3.74400 46.53800
H  39.47900 3.43800 48.38600
H  39.64200 5.09600 48.74700
H  40.78300 3.84600 49.50900
H  40.92800 5.07900 44.77500
H  41.79200 6.54900 44.65800
H  39.31200 7.35700 45.77200
H  38.91200 5.97700 44.84700
H  44.04100 -1.06000 48.76200
H  43.70700 -0.76500 47.00700
H  42.71500 -0.01500 48.27100
H  48.77000 -1.73200 48.07000
H  48.75500 -0.32400 49.24200
H  48.88600 -0.13600 47.42000
H  50.29700 3.82500 47.34200
H  50.05200 6.14500 49.39600
H  51.43500 4.08200 50.04600
H  51.29800 2.64900 48.98100
H  49.99400 3.03400 50.09700
H  51.26100 7.37000 47.94100
H  50.81300 6.62200 46.46200
H  52.48900 4.87500 47.98300
H  53.16400 6.46100 47.86600
H  52.71900 5.54900 46.38800
H  47.75400 10.33900 46.06100
H  47.97700 10.57000 47.83100
H  46.60500 11.31500 46.99900
H  42.06000 8.78500 46.04900
H  39.75000 10.57100 49.52400
H  38.80000 10.22600 47.99500
H  39.68000 11.67600 48.25300
Mg 9.64600 48.59200 26.06500
C  7.72200 48.70200 28.94100
C  12.12100 50.07500 27.80100
C  11.41300 48.91700 23.14400
C  6.79400 47.84100 24.17400
N  9.79200 49.44200 28.13400
C  8.99400 49.21200 29.20000
C  9.59700 49.65200 30.49100
C  10.77800 50.49600 29.94500
C  10.94300 49.99400 28.50000
C  10.43800 51.98400 30.02400
C  10.05000 48.42300 31.35800
C  10.34000 48.75800 32.83300
H  9.93800 47.64500 33.89800
N  11.54300 49.21900 25.60200
C  12.46100 49.71400 26.48600
C  13.71900 49.89900 25.79600
C  13.55700 49.32400 24.50300
C  12.09900 49.11900 24.38300
C  14.96700 50.46700 26.53500
C  14.59800 48.88000 23.49400
O  14.25900 48.40100 22.40200
C  16.06300 48.81200 23.89400
N  9.21200 48.35800 23.95000
C  10.08000 48.52300 22.94400
C  9.51200 48.17500 21.56900
C  8.12400 47.52400 21.99000
C  7.98900 47.97300 23.45600
C  9.28200 49.29600 20.58200
C  8.15700 45.94100 21.83500
C  8.74600 45.06200 22.94700
N  7.65600 48.40300 26.40800
C  6.63300 48.05500 25.53500
C  5.42000 47.82700 26.26000
C  5.84800 48.03600 27.61000
C  7.19600 48.41400 27.65600
C  4.09200 47.55500 25.70300
C  5.30900 48.12500 28.90600
O  4.19600 47.98400 29.34800
C  6.55600 48.43700 29.88900
C  6.75900 47.17100 30.67000
O  7.20000 46.08700 30.24100
O  6.35400 47.40900 31.97800
C  6.60300 46.28400 32.86300
H  12.96700 50.50900 28.33700
H  12.00500 49.04900 22.23700
H  5.95800 47.53600 23.54200
H  8.88500 50.21200 31.09800
H  11.70300 50.21800 30.45000
H  9.37000 52.18600 30.11300
H  10.91900 52.54200 29.22100
H  10.86200 52.38700 30.94300
H  11.00600 48.13900 30.91900
H  9.39100 47.57300 31.17900
H  9.91100 49.69600 33.18400
H  11.40500 48.90600 33.01100
H  15.50800 49.65100 27.01300
H  14.69100 51.16100 27.32900
H  15.70400 50.93100 25.87900
H  16.08000 48.45400 24.92300
H  16.42900 49.83900 23.86000
H  16.60400 48.13100 23.23600
H  10.17300 47.42200 21.14000
H  7.23300 47.91300 21.49800
H  9.53900 50.23800 21.06700
H  8.23800 49.39700 20.28400
H  9.94600 49.24100 19.72000
H  8.84700 45.67000 21.03600
H  7.17100 45.73100 21.42000
H  8.17700 44.18200 23.24500
H  9.07300 45.74200 23.73400
H  9.73300 44.68400 22.67900
H  3.87600 48.34400 24.98200
H  3.45200 47.73100 26.56700
H  3.98800 46.52400 25.36600
H  6.32100 49.26900 30.55200
H  7.55500 45.82600 32.59300
H  5.77200 45.58000 32.89300
H  6.59800 46.75400 33.84600

