158

Mg 47.32200 24.58800 27.91000
C  48.14600 26.48800 30.56700
C  47.00900 21.73700 30.00700
C  46.44600 22.68200 25.21200
C  48.14800 27.15700 25.73200
N  47.67300 24.20400 30.04500
C  47.76700 25.17700 30.97200
C  47.68900 24.66200 32.42100
C  47.58900 23.16700 32.11700
C  47.39100 22.97100 30.63300
C  48.64600 22.17300 32.75200
C  46.57300 25.37900 33.22000
C  46.90400 26.32600 34.33300
H  45.87900 26.57300 35.53200
N  46.85900 22.51600 27.63300
C  46.78500 21.56000 28.57600
C  46.59900 20.26800 27.92200
C  46.25500 20.54800 26.55300
C  46.47800 21.95600 26.43600
C  46.64400 18.93500 28.69600
C  45.87900 19.61800 25.41900
O  45.61700 19.99400 24.27100
C  45.79100 18.22200 25.70900
N  47.44500 24.83000 25.76700
C  46.91500 23.94500 24.91700
C  46.82700 24.56500 23.46500
C  47.21000 26.02400 23.63400
C  47.59900 26.08900 25.13400
C  47.63400 23.79800 22.36000
C  45.97600 26.99700 23.29800
C  46.19300 28.38600 22.68300
N  48.08600 26.40400 28.03600
C  48.40900 27.36800 27.09500
C  49.05400 28.45800 27.77300
C  48.90600 28.19400 29.15800
C  48.31100 26.94000 29.27300
C  49.65800 29.60000 27.04300
C  49.12800 28.73100 30.46900
O  49.67800 29.84000 30.72700
C  48.62700 27.66000 31.43500
C  49.88400 27.24800 32.31500
O  50.64000 26.26300 32.11900
O  49.96200 28.11800 33.35800
C  50.73600 27.65500 34.50200
H  46.83900 20.91300 30.70300
H  46.11800 22.26900 24.25500
H  48.47100 27.96100 25.06600
H  48.63000 24.79600 32.95400
H  46.60300 22.83400 32.44000
H  49.12300 22.72800 33.56000
H  49.41400 21.92600 32.02000
H  48.11300 21.31300 33.15900
H  45.89100 24.56800 33.47800
H  46.04100 25.93000 32.44400
H  46.98300 27.31300 33.87700
H  47.84700 26.04200 34.80200
H  47.03100 18.23600 27.95400
H  45.64600 18.59500 28.97100
H  47.33500 18.96300 29.53800
H  46.80600 17.87700 25.51700
H  45.10800 17.72400 25.02100
H  45.29500 17.95100 26.64100
H  45.77400 24.50800 23.19100
H  48.10300 26.23500 23.04600
H  48.28400 23.08500 22.86800
H  48.20900 24.45400 21.70700
H  47.04500 23.09600 21.76800
H  45.47900 26.92500 24.26600
H  45.35800 26.57100 22.50800
H  45.84400 28.41300 21.65100
H  47.23500 28.70600 22.71400
H  45.54100 29.12400 23.14800
H  50.11200 29.19200 26.14000
H  50.50100 30.06200 27.55600
H  48.89700 30.35900 26.86500
H  47.87900 28.03200 32.13500
H  50.62600 28.45400 35.23600
H  51.80400 27.67800 34.28700
H  50.34800 26.67100 34.76600
Mg 29.79300 57.87800 40.99400
C  27.20200 56.03000 39.44600
C  32.04300 55.78900 39.78800
C  32.34900 60.23100 41.69500
C  27.52000 60.33000 41.63200
N  29.59700 56.09900 39.88000
C  28.52000 55.40700 39.42100
C  28.89900 54.18600 38.59800
C  30.41000 53.95400 38.98700
C  30.74100 55.39500 39.56800
C  30.70300 52.76100 39.91300
C  28.78800 54.43200 37.08100
C  27.84700 53.55900 36.27300
H  26.78200 54.25600 35.33400
N  31.82700 57.99300 40.87900
C  32.58500 56.93300 40.38600
C  34.03200 57.19500 40.45100
C  34.17000 58.47900 41.13300
C  32.76200 58.95200 41.31900
C  35.14400 56.21400 39.97200
C  35.47700 59.11000 41.56600
O  36.53700 58.66100 41.12100
C  35.48700 60.37100 42.38800
N  29.95700 60.08900 41.61500
C  31.07100 60.81000 41.79300
C  30.78100 62.25900 42.02000
C  29.22500 62.18100 42.33400
C  28.87600 60.77400 41.81000
C  31.62500 62.99400 43.09700
C  28.48600 63.34300 41.75900
C  27.57000 64.12800 42.70200
N  27.72700 58.10100 40.78100
C  26.92700 59.17300 41.05700
C  25.55600 58.94900 40.70100
C  25.62200 57.69100 40.07500
C  26.95600 57.27000 40.04600
C  24.46800 59.85500 40.89100
C  24.79300 56.69800 39.46300
O  23.62300 56.70900 39.25900
C  25.75200 55.53200 39.12300
C  25.29800 54.37300 39.92300
O  25.60600 54.08300 41.03900
O  24.41500 53.66000 39.12000
C  23.94500 52.44100 39.70200
H  32.71000 54.98100 39.48200
H  33.16900 60.87600 42.01900
H  26.71300 61.05700 41.74300
H  28.38600 53.24400 38.79100
H  31.09600 53.71500 38.17400
H  31.08100 53.20800 40.83200
H  31.44500 52.11500 39.44200
H  29.81200 52.15100 40.06500
H  29.71400 54.55800 36.52000
H  28.45400 55.46400 36.97200
H  27.38100 52.80900 36.91200
H  28.54000 53.06900 35.58900
H  35.03000 56.16500 38.88900
H  34.87000 55.24000 40.37700
H  36.16700 56.34700 40.32300
H  35.10500 61.29400 41.95300
H  36.53600 60.42300 42.68200
H  34.94900 60.38700 43.33600
H  31.02000 62.56800 41.00200
H  29.22200 62.11700 43.42200
H  31.96600 63.98400 42.79500
H  32.48600 62.38100 43.36200
H  31.06400 63.06500 44.02900
H  27.87300 62.98300 40.93300
H  29.21300 64.06500 41.38800
H  26.59000 63.85500 42.30900
H  27.88000 65.16700 42.59900
H  27.60400 63.93300 43.77400
H  24.84300 60.86100 40.70500
H  24.19700 59.62100 41.92000
H  23.67000 59.73400 40.15900
H  25.64300 55.33900 38.05600
H  23.44500 52.65200 40.64800
H  24.72900 51.71300 39.91400
H  23.25300 51.99400 38.98900

