158

Mg 26.53300 50.67500 25.89700
C  24.39300 51.81600 28.56700
C  28.88700 49.97300 28.21800
C  28.57500 49.81300 23.24600
C  24.22900 51.81900 23.67400
N  26.60500 51.03500 28.15900
C  25.55000 51.29200 29.01300
C  25.96000 51.19900 30.48200
C  27.49200 50.74200 30.30300
C  27.74500 50.65500 28.80200
C  28.42700 51.78100 30.85300
C  25.13200 50.10400 31.21300
C  24.88400 50.31800 32.69100
H  26.08000 50.50800 33.68400
N  28.53900 49.98200 25.73200
C  29.31300 49.80200 26.83500
C  30.63600 49.24700 26.41400
C  30.48100 49.05000 24.97300
C  29.16500 49.64500 24.55300
C  31.81700 48.92800 27.38000
C  31.39000 48.35500 23.96500
O  31.28500 48.35300 22.75400
C  32.51800 47.59700 24.49400
N  26.47400 50.83200 23.76800
C  27.37300 50.36800 22.92000
C  26.93800 50.45800 21.48500
C  25.42100 50.84700 21.69500
C  25.38400 51.20900 23.17500
C  27.71000 51.53100 20.58200
C  24.30000 49.73500 21.34400
C  24.70000 48.26400 21.54400
N  24.77400 51.69500 26.04300
C  23.96100 52.07000 24.99300
C  22.81600 52.70100 25.55000
C  22.98900 52.70100 26.92200
C  24.14200 52.05300 27.19500
C  21.58700 53.13200 24.70500
C  22.33600 52.97700 28.20700
O  21.28300 53.46300 28.48300
C  23.25200 52.41500 29.31500
C  23.62200 53.55300 30.14000
O  24.11000 54.60200 29.67600
O  23.47900 53.28600 31.46800
C  23.79000 54.30800 32.40400
H  29.54600 49.55900 28.98400
H  29.11300 49.39000 22.39500
H  23.51500 52.21400 22.94800
H  25.86800 52.11100 31.07200
H  27.63200 49.79900 30.83200
H  28.88700 51.20700 31.65800
H  27.89900 52.61400 31.31700
H  29.20600 52.08100 30.15300
H  25.63700 49.14000 31.27600
H  24.18000 49.94400 30.70600
H  24.54700 49.34200 33.04100
H  24.09300 51.03400 32.91400
H  32.04100 49.79100 28.00600
H  32.72000 48.60500 26.86100
H  31.53200 48.11600 28.04900
H  32.77800 46.91300 23.68600
H  32.24200 46.99900 25.36200
H  33.25700 48.35900 24.74000
H  27.03800 49.45300 21.07600
H  25.22400 51.77900 21.16500
H  28.40700 52.06500 21.22700
H  27.08500 52.27600 20.08800
H  28.28700 50.91900 19.88900
H  24.16100 49.79100 20.26500
H  23.35300 50.06500 21.77200
H  23.86100 47.97900 22.17800
H  25.69600 48.19300 21.97900
H  24.77500 47.67400 20.63100
H  20.65500 53.05600 25.26600
H  21.36000 52.57700 23.79500
H  21.78500 54.12900 24.31000
H  22.51900 51.74300 29.76000
H  24.14400 55.19100 31.87200
H  24.64500 54.02700 33.01900
H  23.00800 54.65300 33.08100
Mg 9.57900 48.41200 25.31400
C  7.66300 48.97200 28.14800
C  12.33000 49.47000 27.06000
C  11.31200 47.85500 22.44300
C  6.60700 47.88500 23.52800
N  9.91300 48.98300 27.41100
C  9.03300 49.10700 28.41100
C  9.68200 49.55400 29.74700
C  11.01200 50.20400 29.17200
C  11.09200 49.50700 27.76600
C  11.07800 51.77700 29.07600
C  10.04600 48.49400 30.82000
C  9.55700 48.74200 32.29500
H  9.54100 47.44800 33.15600
N  11.58600 48.56000 24.84300
C  12.54700 49.00800 25.68700
C  13.77900 48.90700 25.01700
C  13.55500 48.42000 23.74500
C  12.07900 48.26200 23.57000
C  15.04000 49.31400 25.71900
C  14.55000 48.10100 22.65900
O  14.27300 47.60900 21.57800
C  15.97300 48.48300 22.87100
N  9.06500 48.04800 23.25300
C  9.94600 47.65500 22.28800
C  9.26900 47.22600 20.95600
C  7.79000 47.10500 21.40400
C  7.79900 47.81400 22.84900
C  9.44500 48.14800 19.69600
C  7.20500 45.68600 21.35400
C  7.47200 44.65500 22.45900
N  7.53000 48.52700 25.67400
C  6.41200 48.29500 24.83300
C  5.16600 48.38300 25.60200
C  5.59200 48.73600 26.90600
C  7.02100 48.75100 26.91300
C  3.79000 48.18700 25.15000
C  5.14300 49.03300 28.26000
O  4.01400 49.01500 28.78100
C  6.49200 49.15000 29.15200
C  6.41900 48.05800 30.13200
O  6.86000 46.94000 29.85900
O  5.78200 48.41500 31.29600
C  5.50400 47.37100 32.25900
H  13.21400 49.92300 27.51400
H  11.87400 47.63400 21.53300
H  5.73800 47.64900 22.91000
H  9.13900 50.35300 30.25300
H  11.92200 49.88800 29.68200
H  10.22200 52.31800 29.48000
H  11.25900 52.02800 28.03100
H  11.93700 52.08600 29.67200
H  11.10400 48.22900 30.81200
H  9.51200 47.62200 30.44400
H  8.68800 49.37500 32.47800
H  10.45600 49.28600 32.58400
H  15.02500 49.62500 26.76400
H  15.58700 50.08600 25.17900
H  15.68300 48.43400 25.73500
H  15.96200 49.48200 23.30700
H  16.57900 48.17100 22.02100
H  16.36600 47.80000 23.62400
H  9.48700 46.16600 20.82500
H  7.27900 47.87000 20.82000
H  9.39500 49.20900 19.94000
H  8.78200 47.91500 18.86300
H  10.45500 47.94600 19.33800
H  7.44600 45.11200 20.45900
H  6.12000 45.75200 21.43100
H  8.00500 45.10500 23.29700
H  8.19600 43.91400 22.11800
H  6.59700 44.11900 22.82600
H  3.07800 48.48600 25.91900
H  3.68700 47.14500 24.84700
H  3.67900 48.85300 24.29400
H  6.38800 50.04700 29.76200
H  6.31100 47.26800 32.98400
H  5.29600 46.42800 31.75200
H  4.64400 47.56900 32.89800

