158

Mg 35.83600 1.46200 30.32700
C  33.43100 2.53000 32.76900
C  38.07500 1.24100 32.80400
C  37.88800 0.61100 27.94900
C  33.28700 2.02800 27.89600
N  35.71800 1.65200 32.58600
C  34.68100 2.16300 33.29100
C  35.03400 2.24500 34.78500
C  36.62400 2.16800 34.74300
C  36.85200 1.66800 33.30700
C  37.41000 3.47600 35.01200
C  34.35500 1.16000 35.63600
C  34.84000 1.00900 37.11900
H  35.47800 2.19100 37.96800
N  37.69500 0.98500 30.37400
C  38.46900 0.88000 31.49800
C  39.80000 0.36600 31.21600
C  39.82500 0.31500 29.77900
C  38.42200 0.69800 29.26500
C  40.89400 -0.09600 32.20700
C  40.97800 -0.00600 28.81900
O  40.82100 -0.01800 27.61200
C  42.31100 -0.44500 29.43600
N  35.56400 1.20000 28.23800
C  36.60500 0.80000 27.42300
C  36.18300 0.70200 25.93600
C  34.68500 1.23800 25.91200
C  34.44900 1.47900 27.44100
C  37.20100 1.55300 25.00000
C  33.62300 0.39100 25.21700
C  32.61400 1.10600 24.27000
N  33.77600 2.16400 30.27900
C  32.93200 2.31700 29.25200
C  31.67900 2.71600 29.77900
C  31.80900 2.82000 31.15700
C  33.12700 2.46500 31.42900
C  30.43800 3.05600 28.97200
C  31.04300 3.04600 32.32500
O  29.85100 3.32300 32.46000
C  32.13300 2.96400 33.49700
C  32.25600 4.32800 34.28000
O  32.40300 5.39600 33.71900
O  31.89400 4.14100 35.61500
C  31.90400 5.40200 36.45300
H  38.86600 1.15500 33.55200
H  38.59200 0.37700 27.14800
H  32.49300 2.32500 27.20800
H  34.78300 3.22300 35.19500
H  36.94700 1.43600 35.48300
H  38.39600 3.18300 35.37200
H  36.89500 4.19300 35.65200
H  37.60100 3.94800 34.04900
H  34.75300 0.30000 35.09800
H  33.26900 1.07300 35.61100
H  35.55100 0.18400 37.10100
H  34.05900 0.66500 37.79800
H  41.82700 0.39500 31.93100
H  41.11800 -1.15600 32.08600
H  40.61400 0.12800 33.23600
H  42.91700 -1.05300 28.76400
H  42.22000 -1.30100 30.10500
H  42.81700 0.38700 29.92600
H  36.18200 -0.33000 25.58500
H  34.73900 2.24500 25.49800
H  37.53300 0.87000 24.21800
H  38.08600 1.95100 25.49700
H  36.65900 2.39400 24.57000
H  33.06300 -0.03600 26.04800
H  34.09700 -0.41900 24.66200
H  32.84700 2.16300 24.15000
H  31.66800 1.08600 24.81100
H  32.55100 0.58800 23.31300
H  29.99100 2.10300 28.69100
H  30.61900 3.54900 28.01700
H  29.78800 3.68900 29.57700
H  31.83800 2.17300 34.18700
H  32.13000 5.18200 37.49600
H  30.93900 5.89200 36.32400
H  32.73100 6.06500 36.19600
Mg 41.32400 8.15000 29.59900
C  43.08000 9.70000 32.29600
C  39.25600 6.70500 31.78300
C  39.81800 6.49100 26.96500
C  43.99400 9.01000 27.48100
N  41.21600 8.14500 31.80500
C  41.92700 8.98800 32.74600
C  41.23200 9.00200 34.05700
C  40.06800 8.00500 33.88700
C  40.22300 7.52700 32.39900
C  40.19100 6.87200 34.92800
C  40.72300 10.40400 34.56400
C  40.12600 10.45900 36.06300
H  40.78200 11.43800 36.98600
N  39.69700 6.91600 29.38600
C  39.02000 6.37800 30.42300
C  37.95500 5.61200 29.94400
C  37.94600 5.69900 28.50200
C  39.16700 6.43800 28.19400
C  37.04200 4.78600 30.93700
C  36.86200 5.35700 27.53800
O  37.07900 5.55900 26.36600
C  35.59000 4.68300 28.04700
N  41.86400 7.72900 27.56500
C  41.07300 7.13600 26.63400
C  41.61800 7.25000 25.15100
C  42.90600 8.15400 25.41000
C  42.91900 8.30300 26.90300
C  41.89100 5.93900 24.52400
C  42.94800 9.45100 24.59700
C  42.03000 10.52200 25.08600
N  43.22600 9.02800 29.80400
C  44.12300 9.44700 28.85000
C  45.19000 10.24400 29.43700
C  44.78500 10.35400 30.81900
C  43.61500 9.63600 30.95400
C  46.33900 10.68200 28.72100
C  45.15100 10.95000 32.06300
O  46.04000 11.71400 32.42000
C  43.98700 10.57500 33.08000
C  44.66700 9.66900 34.11100
O  45.59300 8.91900 33.86400
O  44.10900 9.90700 35.35100
C  44.81600 9.21800 36.44000
H  38.61300 6.26900 32.55100
H  39.44800 6.03900 26.04200
H  44.76900 9.35700 26.79400
H  41.97000 8.53900 34.71300
H  39.13400 8.56500 33.82000
H  40.80400 7.05000 35.81200
H  40.65100 6.08300 34.33300
H  39.22100 6.46800 35.21600
H  40.05500 10.96100 33.90600
H  41.60000 11.05200 34.53900
H  39.94200 9.52300 36.59100
H  39.14400 10.88200 35.85100
H  36.73900 3.86300 30.44300
H  36.27500 5.47400 31.29300
H  37.60300 4.46300 31.81400
H  35.72500 3.68600 28.46400
H  34.72300 4.65900 27.38600
H  35.28000 5.28000 28.90500
H  40.86300 7.72600 24.52500
H  43.80900 7.57300 25.22200
H  41.80000 5.20400 25.32400
H  42.93800 5.88400 24.22500
H  41.33800 5.64200 23.63300
H  42.63400 9.17800 23.58900
H  43.95500 9.86400 24.55000
H  41.72000 10.24700 26.09400
H  41.17900 10.83200 24.47900
H  42.57600 11.45800 25.20400
H  46.02300 11.64600 28.32400
H  46.67200 9.92100 28.01500
H  47.11600 10.78600 29.47800
H  43.67600 11.52800 33.50800
H  45.90000 9.29900 36.36500
H  44.45300 8.19200 36.38300
H  44.61000 9.71600 37.38700

