158

Mg 34.46700 3.28200 30.12500
C  32.37600 3.91000 32.81100
C  37.21000 3.11800 32.43200
C  36.60200 2.77700 27.54900
C  31.87600 3.73500 28.00100
N  34.76400 3.48300 32.26100
C  33.67700 3.57700 33.21000
C  34.13100 3.42100 34.71400
C  35.70200 3.45000 34.59600
C  35.95900 3.42700 33.03900
C  36.31500 4.72700 35.25300
C  33.52900 2.16300 35.37600
C  32.67300 2.54100 36.65800
H  33.38000 3.44500 37.72200
N  36.54100 2.88100 30.00100
C  37.47900 2.87400 31.06400
C  38.75000 2.41500 30.57600
C  38.67500 2.38800 29.12800
C  37.22400 2.68400 28.83400
C  40.00600 2.07700 31.41200
C  39.76400 2.11000 28.10800
O  39.62000 2.00100 26.94100
C  41.22000 1.94800 28.64200
N  34.28900 3.40800 27.99000
C  35.31900 3.10400 27.17000
C  34.79300 2.93900 25.70800
C  33.23700 2.81200 25.88100
C  33.08100 3.31300 27.37400
C  35.23100 3.96500 24.64600
C  32.69800 1.37100 25.80400
C  31.43400 1.24300 24.89600
N  32.49700 3.92000 30.27300
C  31.55000 4.11300 29.32000
C  30.25900 4.37000 29.97700
C  30.60900 4.34100 31.36800
C  31.88300 4.04200 31.46900
C  28.94300 4.41700 29.39600
C  29.98300 4.42000 32.63700
O  28.86400 4.70200 33.00900
C  31.13000 4.19200 33.66900
C  31.27200 5.38200 34.47500
O  31.85500 6.42200 34.13600
O  30.58100 5.26700 35.68800
C  30.67200 6.45800 36.53800
H  38.05700 2.99400 33.11100
H  37.30200 2.62100 26.72500
H  30.96300 3.77400 27.40400
H  33.60800 4.25700 35.17900
H  36.12900 2.58300 35.10100
H  35.51000 5.26500 35.75300
H  36.97000 5.28700 34.58600
H  36.95300 4.35900 36.05800
H  34.29700 1.43500 35.63800
H  32.79400 1.70800 34.71200
H  32.30900 1.59600 37.06400
H  31.83700 3.09200 36.22800
H  40.28100 1.02500 31.33500
H  39.76100 2.14400 32.47200
H  40.81500 2.79500 31.27500
H  41.60300 2.81400 29.18200
H  41.75000 1.74600 27.71200
H  41.14300 1.04500 29.24600
H  35.13100 1.99900 25.27100
H  32.78400 3.49700 25.16500
H  34.36000 4.57000 24.39300
H  35.61700 3.48100 23.74900
H  35.93200 4.64500 25.13100
H  32.51700 0.90700 26.77400
H  33.47800 0.76500 25.34200
H  30.72500 0.69500 25.51700
H  31.55200 0.60400 24.02000
H  30.95400 2.18100 24.61800
H  28.95700 4.44100 28.30600
H  28.33300 5.24200 29.76500
H  28.35100 3.56400 29.72700
H  30.80600 3.36700 34.30400
H  31.70600 6.57400 36.86300
H  30.13400 6.12400 37.42600
H  30.24900 7.40700 36.20900
Mg -12.18600 16.34900 41.54000
C  -9.25600 14.25800 41.07400
C  -10.49400 18.81400 40.06100
C  -15.10100 17.92000 41.05700
C  -13.82600 13.48000 42.53300
N  -10.19900 16.36800 40.49100
C  -9.05700 15.55800 40.58800
C  -7.75100 16.20300 40.05800
C  -8.16500 17.66700 40.14800
C  -9.73300 17.65000 40.29800
C  -7.41600 18.62100 41.18400
C  -7.40400 15.71300 38.64300
C  -5.95600 15.28300 38.29900
H  -5.25300 15.88100 37.04900
N  -12.69500 18.25900 40.87800
C  -11.81200 19.07200 40.32700
C  -12.57900 20.32800 39.88700
C  -13.92000 20.14500 40.33500
C  -13.94700 18.77000 40.84300
C  -11.97400 21.52400 39.25600
C  -15.04600 21.12500 40.37900
O  -14.83600 22.28300 40.04100
C  -16.40200 20.83000 40.88300
N  -14.21300 15.74100 41.59800
C  -15.23100 16.59500 41.39900
C  -16.56300 15.83200 41.58700
C  -16.19400 14.45800 42.27300
C  -14.66200 14.56200 42.12300
C  -17.61800 16.66500 42.42300
C  -16.80500 13.26900 41.50400
C  -17.56300 12.14900 42.26000
N  -11.73500 14.29100 41.75800
C  -12.47800 13.28200 42.36900
C  -11.64300 12.11400 42.67300
C  -10.31200 12.40400 42.19100
C  -10.45200 13.72700 41.61600
C  -12.08100 10.80100 43.30100
C  -8.94300 11.96800 42.00700
O  -8.47900 10.85800 42.28200
C  -8.23700 13.18500 41.23600
C  -6.98800 13.56400 41.96500
O  -6.91700 13.82100 43.11800
O  -5.82200 13.60100 41.13200
C  -4.50100 14.03600 41.65900
H  -9.81600 19.61700 39.76500
H  -16.08500 18.39300 41.07300
H  -14.43500 12.65900 42.91800
H  -6.89500 15.95700 40.68700
H  -8.06600 18.19500 39.19900
H  -6.98700 19.46200 40.64100
H  -6.56200 18.07000 41.57900
H  -8.14000 18.96300 41.92400
H  -7.71100 16.45300 37.90400
H  -8.12400 14.90500 38.51300
H  -5.88200 14.19800 38.23700
H  -5.28600 15.46500 39.13900
H  -12.59600 22.08500 38.55900
H  -11.11300 21.17200 38.68700
H  -11.57800 22.13100 40.07000
H  -16.21500 20.33400 41.83500
H  -17.01700 20.22400 40.21600
H  -16.98100 21.71500 41.14700
H  -16.92400 15.57700 40.59100
H  -16.46000 14.43400 43.33000
H  -17.22100 17.48300 43.02400
H  -18.20800 16.06300 43.11300
H  -18.31400 17.10900 41.71100
H  -15.98900 12.72600 41.02800
H  -17.50300 13.55800 40.71900
H  -18.44800 11.95400 41.65500
H  -17.90500 12.48200 43.24000
H  -16.84700 11.33000 42.33700
H  -12.92300 10.54100 42.66000
H  -12.53600 10.82500 44.29100
H  -11.34100 10.00600 43.20200
H  -7.94200 12.77500 40.27100
H  -4.56600 15.11800 41.54900
H  -3.72400 13.54500 41.07400
H  -4.46800 13.67500 42.68700

