158

Mg 0.88100 44.02200 23.92600
C  2.73400 43.77400 26.89700
C  -2.00800 43.64000 25.90400
C  -0.89400 43.90200 21.14200
C  3.87200 43.75400 22.07200
N  0.40800 43.83000 26.24900
C  1.37900 43.75300 27.22200
C  0.66600 43.50500 28.58800
C  -0.83800 43.43600 28.23200
C  -0.83500 43.61400 26.74000
C  -1.55900 42.14000 28.80100
C  0.88100 44.52900 29.75700
C  1.38200 44.03300 31.07600
H  1.04500 42.61500 31.63900
N  -1.17200 43.86700 23.57900
C  -2.17300 43.83400 24.49200
C  -3.44800 43.94600 23.79900
C  -3.17700 44.12900 22.43400
C  -1.69100 44.02000 22.32600
C  -4.87700 43.80800 24.42100
C  -4.03100 44.33900 21.29700
O  -3.62900 44.44900 20.15100
C  -5.55200 44.60800 21.46200
N  1.41900 43.88400 21.91100
C  0.50100 43.79900 20.95700
C  1.13000 43.68300 19.62000
C  2.63700 44.01900 19.84700
C  2.65400 43.84800 21.35700
C  0.86300 42.23100 19.13900
C  3.11100 45.51100 19.45000
C  3.97500 45.52700 18.11000
N  2.89800 43.87800 24.33300
C  4.02200 43.83400 23.49300
C  5.22300 43.83800 24.29400
C  4.75300 43.86600 25.59100
C  3.36300 43.85900 25.58700
C  6.67400 43.63000 23.73200
C  5.10700 43.77700 26.98000
O  6.20800 43.76600 27.49700
C  3.82600 43.71500 27.89100
C  3.93300 42.35900 28.56200
O  3.75000 41.24500 28.00800
O  4.20300 42.57600 29.89000
C  4.65300 41.45900 30.61200
H  -2.95300 43.59500 26.45000
H  -1.44200 43.77700 20.20600
H  4.75900 43.70900 21.43700
H  1.13100 42.57200 28.90400
H  -1.39300 44.29500 28.60800
H  -0.96700 41.61700 29.55200
H  -1.64100 41.41500 27.99000
H  -2.52000 42.30700 29.28700
H  0.06700 45.23000 29.94100
H  1.64900 45.16000 29.31000
H  0.92600 44.76300 31.74500
H  2.41300 44.35100 31.22500
H  -5.70500 44.47500 24.18100
H  -4.77400 43.93200 25.49900
H  -5.19300 42.78200 24.23000
H  -6.04900 43.65600 21.64900
H  -5.91300 44.95100 20.49200
H  -5.69300 45.36600 22.23200
H  0.73200 44.36800 18.87100
H  3.34100 43.29800 19.43200
H  0.15600 41.58700 19.66100
H  1.73800 41.63900 18.87100
H  0.37600 42.28200 18.16500
H  3.74300 45.99200 20.19600
H  2.27300 46.20400 19.37800
H  3.57600 46.22200 17.37200
H  3.91900 44.57200 17.58800
H  5.00200 45.84800 18.28300
H  7.32100 43.78500 24.59500
H  6.83100 44.40900 22.98600
H  6.72700 42.64500 23.26700
H  3.76600 44.47000 28.67400
H  5.70600 41.22100 30.45800
H  4.03200 40.61900 30.29900
H  4.67000 41.57300 31.69500
Mg -2.22500 35.01200 26.35100
C  -3.70000 33.18700 28.93600
C  -0.85700 37.00000 28.82600
C  -0.78500 36.79300 23.91500
C  -3.52100 32.77200 24.10900
N  -2.48800 35.20000 28.71200
C  -2.94400 34.22600 29.52400
C  -2.66000 34.40000 30.96900
C  -1.77300 35.74700 30.87300
C  -1.72000 36.09400 29.38400
C  -2.20600 36.94600 31.69700
C  -1.94100 33.20300 31.61600
C  -2.53300 32.83100 32.99500
H  -1.55200 32.84700 34.11100
N  -1.02600 36.68000 26.33600
C  -0.58800 37.32700 27.44200
C  0.10900 38.57500 27.03700
C  0.09900 38.52100 25.63700
C  -0.57000 37.29600 25.22600
C  0.72700 39.67800 28.05700
C  0.73900 39.50700 24.56300
O  0.65700 39.29000 23.37600
C  1.22900 40.79000 25.00900
N  -2.23300 34.81600 24.30800
C  -1.58400 35.64200 23.48300
C  -1.67700 35.14800 21.99000
C  -2.02700 33.64900 22.21900
C  -2.62100 33.72900 23.59400
C  -2.75900 35.96700 21.23400
C  -0.82000 32.54900 22.18900
C  -0.84800 31.70800 20.94000
N  -3.51700 33.42500 26.40800
C  -4.03000 32.58800 25.44600
C  -4.80900 31.48100 26.02200
C  -4.68700 31.70700 27.42100
C  -3.92000 32.90700 27.57900
C  -5.41900 30.26300 25.21500
C  -5.07100 31.12800 28.65700
O  -5.60900 30.11100 28.92900
C  -4.47700 32.10900 29.70800
C  -5.60000 32.74300 30.52100
O  -6.37000 33.55200 30.10900
O  -5.51200 32.22100 31.80000
C  -6.43200 32.70300 32.87000
H  -0.21100 37.46200 29.57500
H  -0.31700 37.35000 23.10100
H  -3.73900 31.99200 23.37600
H  -3.57400 34.59100 31.53100
H  -0.75600 35.48900 31.16600
H  -1.34500 37.40000 32.18800
H  -3.01400 36.82000 32.41700
H  -2.58000 37.69700 31.00100
H  -0.89400 33.47400 31.75400
H  -1.92300 32.31200 30.98900
H  -3.09900 31.89900 32.98400
H  -3.27000 33.60000 33.22700
H  0.53200 40.68800 27.69800
H  1.79200 39.55400 28.25500
H  0.08700 39.74400 28.93700
H  1.61700 41.38500 24.18200
H  1.98200 40.65900 25.78600
H  0.38300 41.31700 25.45100
H  -0.74900 35.32900 21.44600
H  -2.87200 33.46600 21.55500
H  -2.78500 35.94200 20.14400
H  -2.76600 36.97600 21.64700
H  -3.77400 35.68500 21.51300
H  -0.92900 31.78200 22.95600
H  0.12700 33.07400 22.31100
H  -1.06000 32.42400 20.14600
H  -1.68500 31.01200 20.88800
H  0.09300 31.20200 20.72400
H  -5.96200 30.71300 24.38400
H  -6.00100 29.69700 25.94200
H  -4.62200 29.67200 24.76500
H  -3.80500 31.53000 30.34200
H  -7.14200 33.43000 32.47800
H  -5.88200 33.10700 33.72000
H  -7.01500 31.81800 33.12500

