158

Mg -1.58000 17.30300 27.07600
C  -2.11300 15.22600 29.90700
C  -2.24800 19.95500 29.04200
C  -1.61100 19.08700 24.27000
C  -1.54700 14.26800 25.03600
N  -2.00600 17.51000 29.30900
C  -2.18900 16.57900 30.30900
C  -2.55000 17.23600 31.60800
C  -2.84100 18.72000 31.26200
C  -2.33300 18.77100 29.76900
C  -4.30300 19.12200 31.41300
C  -1.44100 16.92400 32.69100
C  -1.96400 16.36500 33.97800
H  -0.95400 16.08100 35.09900
N  -1.88500 19.20800 26.70900
C  -2.06000 20.23500 27.65400
C  -2.06800 21.50300 27.01300
C  -1.85800 21.25000 25.66100
C  -1.74000 19.82300 25.49600
C  -2.41200 22.79400 27.73700
C  -1.58000 22.28100 24.52400
O  -1.40300 21.91800 23.33700
C  -1.47600 23.88400 24.72400
N  -1.42000 16.69600 24.91200
C  -1.46500 17.71500 24.01700
C  -1.50900 17.07400 22.56000
C  -1.11800 15.58200 22.79500
C  -1.46400 15.46700 24.30200
C  -2.90000 17.27600 21.81600
C  0.33600 15.18300 22.52700
C  1.48500 16.24400 22.62300
N  -1.76400 15.23800 27.31500
C  -1.63000 14.13600 26.45900
C  -1.95700 12.94000 27.11500
C  -1.98700 13.27300 28.48600
C  -1.92500 14.67400 28.57400
C  -1.87800 11.59500 26.50700
C  -2.08500 12.72300 29.77600
O  -2.16400 11.52400 30.13200
C  -2.09200 13.91900 30.70200
C  -0.80800 13.69400 31.44300
O  0.30700 13.92700 31.00400
O  -1.01100 13.20500 32.73500
C  0.23700 13.17800 33.51100
H  -2.48000 20.83000 29.65400
H  -1.73000 19.60800 23.31700
H  -1.50000 13.29100 24.55000
H  -3.49800 16.80800 31.93200
H  -2.31700 19.37900 31.95300
H  -5.04100 18.45600 31.85800
H  -4.81000 19.21700 30.45300
H  -4.22600 19.99100 32.06700
H  -0.92500 17.86900 32.85700
H  -0.68300 16.30000 32.21800
H  -2.61400 15.50200 33.83400
H  -2.56100 17.18200 34.38100
H  -2.52100 22.66600 28.81400
H  -3.31500 23.23400 27.31400
H  -1.51200 23.38600 27.57600
H  -0.44800 24.17400 24.94200
H  -2.10900 24.28200 25.51600
H  -1.73200 24.27100 23.73800
H  -0.82400 17.64800 21.93700
H  -1.63400 15.05700 21.99100
H  -3.21500 16.38500 21.27300
H  -2.73400 18.00500 21.02300
H  -3.70500 17.74100 22.38600
H  0.31400 14.87300 21.48200
H  0.62400 14.34900 23.16700
H  1.00300 17.17200 22.93300
H  1.73300 16.51800 21.59800
H  2.35100 15.87400 23.17300
H  -0.84200 11.59200 26.16900
H  -2.55300 11.40900 25.67200
H  -2.12000 10.85600 27.27100
H  -2.91500 13.97000 31.41400
H  0.88100 14.02100 33.25900
H  0.81900 12.26100 33.41800
H  -0.10200 13.13600 34.54600
Mg 6.09600 54.14100 41.39100
C  5.68100 50.73600 40.61700
C  9.18000 54.08200 40.07000
C  5.79000 57.47400 41.51000
C  2.54800 54.02500 42.66800
N  7.27200 52.55500 40.40700
C  6.88800 51.32100 40.20600
C  8.17600 50.45500 39.69600
C  9.34600 51.50800 39.81400
C  8.53100 52.81700 40.02800
C  10.53400 51.28000 40.88400
C  8.07500 49.82600 38.38600
C  7.78000 50.74500 37.15500
H  6.80200 50.09400 36.13800
N  7.35100 55.61200 40.94300
C  8.66000 55.37800 40.46000
C  9.29900 56.72000 40.34800
C  8.30300 57.68900 40.78900
C  7.06200 56.92900 41.04900
C  10.76700 57.01300 39.84400
C  8.52000 59.19700 40.91000
O  9.59200 59.64800 40.54000
C  7.58000 60.19900 41.47200
N  4.52100 55.55800 42.32400
C  4.65800 56.82100 41.96200
C  3.44100 57.64800 42.34300
C  2.47600 56.57400 42.93800
C  3.22900 55.28100 42.58500
C  3.78200 58.80300 43.36100
C  1.04400 56.65500 42.30300
C  -0.12300 56.38300 43.23500
N  4.45100 52.73600 41.68800
C  3.14800 52.79000 42.23400
C  2.68300 51.42900 42.47300
C  3.57200 50.59200 41.82700
C  4.61100 51.41500 41.31500
C  1.53800 50.99000 43.35200
C  3.90400 49.16900 41.55900
O  3.34800 48.13700 41.92600
C  5.20800 49.28400 40.63500
C  4.75600 48.73700 39.31700
O  3.96500 49.28300 38.54500
O  5.30200 47.45000 39.06100
C  4.75500 46.81400 37.87200
H  10.24700 54.12000 39.84000
H  5.66100 58.52500 41.24100
H  1.47800 54.11700 42.86500
H  8.49300 49.73600 40.45100
H  9.83200 51.56700 38.84000
H  10.32400 51.94800 41.71900
H  11.55300 51.44800 40.53500
H  10.46600 50.27600 41.30200
H  7.41000 48.96300 38.39200
H  9.05800 49.44400 38.10900
H  8.75100 51.00200 36.73000
H  7.35800 51.67100 37.54600
H  11.30100 56.08200 40.03900
H  11.28600 57.75900 40.44500
H  10.85500 57.22100 38.77800
H  8.14600 61.10000 41.70800
H  6.98300 59.90700 42.33600
H  6.82700 60.44900 40.72500
H  3.01400 58.11100 41.45300
H  2.46600 56.77400 44.01000
H  3.73800 59.75900 42.83900
H  4.72600 58.61100 43.87100
H  2.97400 58.79600 44.09300
H  0.91500 55.91700 41.51000
H  0.83100 57.61600 41.83600
H  -0.92000 57.12600 43.20400
H  0.04100 56.33000 44.31100
H  -0.51300 55.37700 43.08000
H  0.77500 51.73200 43.11300
H  1.76200 50.93100 44.41700
H  1.21100 50.00300 43.02300
H  5.94300 48.65700 41.14000
H  3.96500 46.08400 38.05100
H  5.60500 46.27300 37.45600
H  4.42100 47.51700 37.10900

