158

Mg 23.96300 -4.88900 45.42200
C  25.92800 -2.64600 43.54400
C  21.23600 -3.90900 43.58200
C  22.31900 -7.62700 46.35700
C  26.86000 -6.16500 46.93800
N  23.64200 -3.42700 43.84500
C  24.55400 -2.55700 43.31200
C  23.96400 -1.66700 42.27300
C  22.36700 -1.99600 42.33500
C  22.34100 -3.10100 43.43200
C  21.51400 -0.75200 42.69100
C  24.57600 -1.83000 40.83300
C  25.26600 -0.64400 40.13600
H  24.89700 -0.42600 38.63600
N  21.98100 -5.60800 45.10000
C  21.00200 -5.05900 44.33300
C  19.86100 -5.88000 44.25800
C  20.23500 -6.98600 45.07200
C  21.56200 -6.80000 45.51100
C  18.53000 -5.54500 43.52000
C  19.32700 -8.19300 45.25000
O  18.14900 -8.15000 44.87800
C  19.79600 -9.47700 45.77100
N  24.60400 -6.79300 46.39200
C  23.65700 -7.62200 46.81300
C  24.27700 -8.70000 47.69000
C  25.74200 -8.16800 47.97700
C  25.77200 -6.96100 47.09500
C  23.39900 -9.10800 48.88900
C  26.92100 -9.17200 47.69600
C  27.96100 -9.23200 48.86200
N  26.02900 -4.45500 45.39000
C  27.01000 -5.10200 46.08700
C  28.22600 -4.48700 45.62700
C  27.91100 -3.46100 44.68200
C  26.49600 -3.51900 44.51100
C  29.60800 -4.78800 46.10600
C  28.44000 -2.55900 43.82000
O  29.59300 -2.15800 43.49700
C  27.13100 -1.82700 43.14900
C  26.99000 -0.59300 43.90100
O  26.07700 -0.22300 44.65500
O  28.01700 0.23300 43.63500
C  27.96500 1.66100 44.06600
H  20.39000 -3.60700 42.96000
H  21.82700 -8.53100 46.72400
H  27.72900 -6.54900 47.47700
H  24.10800 -0.60800 42.48500
H  21.98200 -2.47000 41.43200
H  22.05200 0.19300 42.76300
H  21.21100 -1.00000 43.70800
H  20.68900 -0.56000 42.00600
H  23.73900 -2.08500 40.18400
H  25.29600 -2.64300 40.92900
H  26.34500 -0.65400 40.28400
H  24.92600 0.31200 40.53600
H  18.22700 -6.34400 42.84400
H  18.72400 -4.71800 42.83700
H  17.69000 -5.44000 44.20600
H  19.16400 -10.30900 45.46200
H  19.96200 -9.53800 46.84700
H  20.78200 -9.56300 45.31300
H  24.43000 -9.56700 47.04700
H  25.80100 -7.84000 49.01500
H  23.92100 -9.25600 49.83500
H  22.76600 -9.94000 48.58100
H  22.70000 -8.30400 49.11700
H  27.41400 -8.92100 46.75700
H  26.44900 -10.13500 47.50300
H  28.46500 -10.19700 48.90700
H  27.38900 -9.25800 49.78900
H  28.69700 -8.42700 48.85400
H  29.42400 -5.78300 46.51300
H  29.80200 -4.12700 46.95100
H  30.15300 -4.73200 45.16500
H  27.27500 -1.58900 42.09500
H  27.19100 2.04500 44.73000
H  28.20700 2.36300 43.26800
H  28.80200 1.76800 44.75600
Mg 15.94700 -1.27100 27.49400
C  14.80800 0.58100 30.40700
C  18.08500 -3.02000 29.46200
C  17.15700 -2.61500 24.71100
C  13.91700 1.00400 25.55400
N  16.50200 -1.15400 29.70900
C  15.80900 -0.39500 30.62200
C  16.24400 -0.87700 32.04200
C  17.36000 -1.94700 31.74600
C  17.37900 -2.00200 30.21300
C  18.74000 -1.70300 32.40900
C  15.12400 -1.39900 32.82000
C  15.24700 -1.20100 34.36500
H  16.40600 -0.52800 35.01100
N  17.42100 -2.57700 27.15100
C  18.15800 -3.18500 28.10900
C  18.99500 -4.24000 27.42900
C  18.69300 -4.20900 25.99200
C  17.76700 -3.07200 25.89500
C  19.85400 -5.09800 28.17000
C  19.14800 -5.17100 24.90300
O  18.80600 -4.95700 23.73000
C  19.99700 -6.35200 25.25700
N  15.57000 -0.92500 25.46000
C  16.17800 -1.65300 24.47000
C  15.54800 -1.35300 23.07500
C  14.68600 -0.09300 23.34500
C  14.68100 -0.00000 24.91100
C  16.51300 -1.28000 21.83900
C  13.28200 -0.10200 22.71700
C  13.26600 -0.15100 21.21400
N  14.60500 0.44100 27.85700
C  13.92700 1.26900 26.99700
C  13.17700 2.25700 27.72200
C  13.43400 2.02700 29.08700
C  14.27700 0.94900 29.11500
C  12.46700 3.31500 27.03400
C  13.24900 2.49400 30.46200
O  12.62500 3.49500 30.91600
C  14.13700 1.47400 31.36600
C  15.07800 2.28800 32.28000
O  16.24100 2.58800 32.05900
O  14.36600 2.63600 33.41800
C  14.94500 3.64500 34.36500
H  18.61800 -3.68000 30.15000
H  17.39800 -3.12000 23.77300
H  13.32300 1.64100 24.89600
H  16.61000 -0.00800 32.58800
H  17.04100 -2.84600 32.27400
H  19.08700 -2.51200 33.05200
H  18.54200 -0.85600 33.06500
H  19.45400 -1.33000 31.67400
H  14.88200 -2.38300 32.41800
H  14.19200 -0.85600 32.66200
H  15.14900 -2.17700 34.84100
H  14.37000 -0.63800 34.68300
H  20.67600 -5.63300 27.69400
H  19.32900 -5.93000 28.63900
H  20.28500 -4.54500 29.00500
H  21.04500 -6.08300 25.39400
H  19.95000 -6.99900 24.38100
H  19.58100 -6.90800 26.09700
H  14.84100 -2.16500 22.90700
H  15.19300 0.81500 23.01900
H  17.44900 -1.79400 22.05800
H  16.70700 -0.37800 21.25800
H  15.98500 -1.92000 21.13200
H  12.71600 0.78700 22.99700
H  12.79700 -1.00000 23.09800
H  12.81000 0.70000 20.70800
H  12.74200 -1.05200 20.89700
H  14.27100 -0.21800 20.79700
H  13.12700 3.75200 26.28600
H  12.40400 4.05000 27.83600
H  11.47900 3.03200 26.67100
H  13.31700 0.95500 31.86300
H  14.52100 3.49500 35.35700
H  14.70500 4.66400 34.05900
H  16.00800 3.42600 34.46300

