158

Mg 2.07900 -1.85400 44.06900
C  5.52300 -1.04500 43.72800
C  1.37100 1.11100 42.34000
C  -1.18700 -2.97900 43.56500
C  2.88800 -4.99800 45.24600
N  3.31600 -0.29500 42.95000
C  4.70100 -0.10000 42.99700
C  5.16100 1.16200 42.29500
C  3.78700 1.91900 42.21300
C  2.71600 0.84700 42.49300
C  3.61500 3.10900 43.16900
C  5.78900 0.79800 40.88800
C  7.12400 1.50000 40.60000
H  7.18300 2.48700 39.41600
N  0.33200 -1.04200 43.11700
C  0.22200 0.24500 42.57000
C  -1.18200 0.47000 42.21400
C  -1.90400 -0.65300 42.71100
C  -0.91300 -1.62900 43.09200
C  -1.56600 1.71600 41.54300
C  -3.35400 -0.69700 42.75200
O  -4.06600 0.14000 42.26500
C  -4.10600 -1.75300 43.58800
N  0.96800 -3.81400 44.32100
C  -0.35700 -3.90300 44.15100
C  -0.81100 -5.27100 44.66900
C  0.48400 -5.96500 45.14700
C  1.55300 -4.86800 44.88900
C  -1.95900 -5.20000 45.70500
C  0.79200 -7.33100 44.52200
C  1.20600 -8.55100 45.38100
N  3.77700 -2.84900 44.54100
C  3.93000 -4.05200 45.11700
C  5.34300 -4.19100 45.40600
C  5.99200 -3.06700 44.89200
C  5.00700 -2.23200 44.38500
C  5.95300 -5.40300 46.05300
C  7.31600 -2.39400 44.64700
O  8.41300 -2.74400 44.96000
C  7.02700 -0.98700 44.00700
C  7.35500 0.00700 45.08300
O  7.02900 -0.06700 46.28600
O  7.89400 1.13000 44.52800
C  8.03000 2.26800 45.42100
H  1.14600 1.96600 41.69900
H  -2.19100 -3.39700 43.46500
H  3.05900 -5.91600 45.81200
H  5.77100 1.63700 43.06300
H  3.52100 2.30900 41.23000
H  2.65400 3.07100 43.68200
H  3.70100 3.98400 42.52500
H  4.37900 3.00600 43.93900
H  5.00500 1.12700 40.20700
H  5.84100 -0.28300 40.75400
H  7.73200 0.61800 40.40000
H  7.59000 1.94400 41.48000
H  -2.48600 1.50400 40.99800
H  -0.99500 2.02800 40.66900
H  -1.81600 2.57700 42.16400
H  -5.00000 -1.21800 43.90700
H  -3.55300 -1.87700 44.51900
H  -4.35600 -2.61000 42.96200
H  -1.24000 -5.85400 43.85400
H  0.50200 -6.06900 46.23200
H  -2.02300 -4.14400 45.97000
H  -1.81700 -5.87100 46.55100
H  -2.88700 -5.42000 45.17600
H  1.53800 -7.19300 43.73800
H  -0.11700 -7.59700 43.98300
H  0.55100 -9.39800 45.17700
H  1.17500 -8.31000 46.44400
H  2.20000 -8.93100 45.14600
H  5.61900 -6.26400 45.47400
H  5.60200 -5.44200 47.08400
H  7.02300 -5.19200 46.05900
H  7.62700 -0.80200 43.11600
H  7.40100 2.31900 46.31000
H  7.70300 3.11400 44.81600
H  9.06800 2.40200 45.72600
Mg 24.08300 -4.68400 45.58600
C  26.24700 -2.40100 44.23200
C  21.51100 -3.54400 43.37300
C  22.23800 -7.46000 46.15400
C  26.67000 -5.99300 47.43500
N  24.01200 -3.27900 43.90800
C  25.06500 -2.37200 43.56000
C  24.65000 -1.33400 42.53100
C  23.09500 -1.59800 42.47200
C  22.85100 -2.89200 43.28600
C  22.20000 -0.39700 42.85200
C  25.40200 -1.54700 41.15700
C  25.24800 -0.46600 40.16600
H  24.59900 -0.79500 38.76900
N  22.16000 -5.39200 44.88700
C  21.30100 -4.79400 43.99000
C  20.11900 -5.53000 43.82300
C  20.32700 -6.73200 44.62200
C  21.63100 -6.59200 45.30800
C  18.88300 -5.05400 42.89000
C  19.24800 -7.83900 44.70200
O  18.10200 -7.79000 44.16200
C  19.42400 -9.11100 45.53400
N  24.48500 -6.55700 46.55100
C  23.49600 -7.45100 46.78200
C  23.98400 -8.64200 47.60600
C  25.42400 -8.02000 48.19300
C  25.49400 -6.72000 47.41400
C  22.95200 -8.98200 48.69600
C  26.65400 -8.96100 48.01500
C  26.49600 -10.44100 48.44800
N  26.01600 -4.26500 45.92100
C  26.93700 -4.90000 46.65900
C  28.16200 -4.13300 46.64200
C  27.89800 -3.08700 45.75400
C  26.60600 -3.33400 45.23800
C  29.41300 -4.46000 47.34900
C  28.45700 -1.86700 45.09900
O  29.49900 -1.26400 45.19600
C  27.38600 -1.47200 44.05400
C  27.23500 0.00500 44.08900
O  26.74600 0.55400 45.06400
O  27.71300 0.70600 42.97900
C  27.50200 2.13900 42.93800
H  20.69700 -3.22400 42.72000
H  21.64100 -8.34600 46.38000
H  27.62800 -6.23300 47.90000
H  24.80300 -0.29900 42.83600
H  22.86300 -1.84400 41.43600
H  21.69800 -0.50800 43.81300
H  21.44200 -0.35200 42.07000
H  22.66900 0.58700 42.83200
H  25.06600 -2.44500 40.63800
H  26.42400 -1.73900 41.48300
H  26.27200 -0.15300 39.96400
H  24.74600 0.31800 40.73400
H  18.23900 -5.78300 42.39800
H  19.23800 -4.36700 42.12100
H  18.15000 -4.56400 43.53000
H  18.59200 -9.80800 45.43200
H  19.54100 -8.97800 46.61000
H  20.30400 -9.68800 45.25300
H  24.13800 -9.54000 47.00600
H  25.44300 -7.80300 49.26100
H  23.46000 -8.68600 49.61400
H  22.69800 -10.03500 48.56900
H  21.99800 -8.47100 48.56500
H  27.49200 -8.58900 48.60500
H  26.89400 -8.77500 46.96800
H  25.49800 -10.69200 48.80700
H  27.27100 -10.68700 49.17500
H  26.58200 -11.10300 47.58600
H  29.25000 -4.68000 48.40400
H  30.16500 -3.67900 47.24600
H  29.77400 -5.37000 46.86900
H  27.84300 -1.65400 43.08100
H  26.46900 2.46600 42.81900
H  27.94500 2.55500 42.03300
H  27.95500 2.66300 43.77900

